data_PCOD9095976
_publ_section_title
;
Structure prediction by ZEFSAII (Michael W. Deem and Ramdas Pophale) SiO2 
 PCOD9095976
Probable space group: P -1
;
_chemical_formula_sum "Si O2"
_cell_formula_units_Z 12
_cell_length_a 8.713041
_cell_length_b 20.903753
_cell_length_c 12.616688
_cell_angle_alpha 22.781110
_cell_angle_beta 55.729908
_cell_angle_gamma 44.026774
_cell_volume 574.274501
_symmetry_space_group_name_H-M "P -1"
_symmetry_group_IT_number 2
_symmetry_cell_setting 'triclinic'
loop_
_space_group_symop_operation_xyz
x,y,z
-x,-y,-z
loop_
_atom_site_type_symbol
_atom_site_label
_atom_site_fract_x
_atom_site_fract_y
_atom_site_fract_z
Si Si1 0.671365 0.122343 0.730165
Si Si2 0.568288 0.941957 0.738224
Si Si3 0.237646 0.275883 0.781831
Si Si4 0.432099 0.347848 0.260199
Si Si5 0.076360 0.454926 0.915987
Si Si6 0.027718 0.122639 0.709938
O O1 0.475429 0.247666 0.706646
O O2 0.528257 0.231663 0.511922
O O3 0.892673 0.118344 0.668754
O O4 0.756358 0.887069 0.048401
O O5 0.541537 0.156229 0.425515
O O6 0.301797 0.214919 0.171465
O O7 0.302528 0.017256 0.743997
O O8 0.729265 0.800582 0.993493
O O9 0.000000 0.500000 0.500000
O O10 0.150829 0.490153 0.140843
O O11 0.500000 0.500000 0.000000
O O12 0.102407 0.629256 0.599125
O O13 0.000000 0.500000 0.000000
O O14 0.000000 0.000000 0.000000
#
# Coordination Sequence:
#
# PCOD9095976 Si02
#       6
#     2   2   2   2   2   2
#     4  10  21  38  59  91 127 161 207 259 315 376
#     4  10  23  41  65  95 127 171 217 261 328 384
#     4  10  20  35  61  89 123 162 206 260 315 376
#     4  10  22  42  66  92 127 169 215 269 317 389
#     4  11  25  44  65  92 132 174 219 271 320 384
#     4  11  23  40  64  95 134 172 211 269 318 390
#
# _framework density 20.89593
#
# number of rings (size 3 to 8) (size 9 to 14) (size 15 to 20)
#    0.000    1.667    1.667    2.000    4.667    5.333 
#    0.000    5.000    0.000    0.000    0.000    0.000 
#    0.000    0.000    0.000    0.000    0.000    0.000 
#
# Total GULP energy -66995.446772 kJ/mol
# GULP energy per Si atom -5582.953898 kJ/mol
# Density = 2.084837 g / cm^3
# Si number density = 20.895930 Si / 1000 Ang^3
#
#
#
# Elastic Constant Matrix: (Units=GPa)
#
#
# Indices 1 2 3 4 5 6 
#
# 1 120.8246 23.8061 34.4023 -9.7507 -8.3897 -22.0605
# 2 23.8061 86.7114 58.3411 -27.1043 -15.9536 9.1732
# 3 34.4023 58.3411 134.7106 -17.4088 -20.4284 -16.4285
# 4 -9.7507 -27.1043 -17.4088 33.9175 -5.3564 4.0733
# 5 -8.3897 -15.9536 -20.4284 -5.3564 40.7146 2.8032
# 6 -22.0605 9.1732 -16.4285 4.0733 2.8032 24.9154
#
#
#
# Elastic Compliance Matrix: (Units=1/GPa)
#
#
# Indices 1 2 3 4 5 6 
#
# 1 0.011461 -0.006457 0.000984 -0.003184 -0.001045 0.013812
# 2 -0.006457 0.035463 -0.012538 0.025846 0.011919 -0.032608
# 3 0.000984 -0.012538 0.014031 -0.004267 0.000711 0.015357
# 4 -0.003184 0.025846 -0.004267 0.052630 0.016014 -0.025554
# 5 -0.001045 0.011919 0.000711 0.016014 0.032244 -0.011090
# 6 0.013812 -0.032608 0.015357 -0.025554 -0.011090 0.079922
#
#
# Mechanical properties :
#
#
# Convention : Reuss Voigt Hill
#
# Bulk Modulus (GPa) = 40.10874 63.92729 52.01801
# Shear Modulus (GPa) = 18.51270 34.95596 26.73433
#
# Velocity S-wave (km/s) = 2.97972 4.09450 3.58076
# Velocity P-wave (km/s) = 5.57445 7.28099 6.48411
#
# Compressibility (1/GPa) = 0.02493222
#
# Stress axis : x y z
#
# Youngs Moduli (GPa) = 87.25320 28.19851 71.26834
#
# Poissons Ratio (x) = 0.18209 -0.07015
# Poissons Ratio (y) = 0.56343 0.89359
# Poissons Ratio (z) = -0.08588 0.35356
#
# Static dielectric constant tensor:
#      x y z
#    x 1.764320 0.034260 0.000420 
#    y 0.034260 1.800060 0.071350 
#    z 0.000420 0.071350 1.965460 
# 
# From -- ./inp_files/508353.got.cif
#   From: 2010.05.17/outbox.cif.g08.bks.cpg/sg2_255_cif.got.tgz:508353.got - 2010.06.03 11:33:40.
