data_PCOD9095616
_publ_section_title
;
Structure prediction by ZEFSAII (Michael W. Deem and Ramdas Pophale) SiO2 
 PCOD9095616
Probable space group: P -1
;
_chemical_formula_sum "Si O2"
_cell_formula_units_Z 16
_cell_length_a 10.086579
_cell_length_b 6.532097
_cell_length_c 12.119936
_cell_angle_alpha 54.452222
_cell_angle_beta 76.748525
_cell_angle_gamma 68.281692
_cell_volume 603.491715
_symmetry_space_group_name_H-M "P -1"
_symmetry_group_IT_number 2
_symmetry_cell_setting 'triclinic'
loop_
_space_group_symop_operation_xyz
x,y,z
-x,-y,-z
loop_
_atom_site_type_symbol
_atom_site_label
_atom_site_fract_x
_atom_site_fract_y
_atom_site_fract_z
Si Si1 0.667284 0.582981 0.579605
Si Si2 0.200718 0.611950 0.817593
Si Si3 0.870775 0.350296 0.953160
Si Si4 0.922915 0.618623 0.659088
Si Si5 0.693916 0.016557 0.995742
Si Si6 0.180095 0.762757 0.518744
Si Si7 0.403892 0.137357 0.141459
Si Si8 0.427344 0.863401 0.685221
O O1 0.804652 0.515026 0.654453
O O2 0.687265 0.397851 0.528060
O O3 0.522741 0.637468 0.658805
O O4 0.654046 0.877516 0.446435
O O5 0.182116 0.731345 0.660733
O O6 0.317361 0.742784 0.803270
O O7 0.266820 0.297733 0.893858
O O8 0.084313 0.688917 0.914612
O O9 0.965907 0.451874 0.815776
O O10 0.723516 0.594281 0.905147
O O11 0.822999 0.113566 0.983820
O O12 0.057530 0.623524 0.558077
O O13 0.859168 0.930910 0.600058
O O14 0.542406 0.153902 0.040415
O O15 0.663534 0.048435 0.860366
O O16 0.468262 0.057469 0.274025
#
# Coordination Sequence:
#
# PCOD9095616 Si02
#       8
#     2   2   2   2   2   2   2   2
#     4  11  24  44  67 100 135 179 227 278 339 400
#     4  11  24  41  67 101 137 174 220 280 337 406
#     4  11  23  41  64  98 140 170 220 282 337 397
#     4  11  25  48  70  98 133 179 233 288 325 400
#     4  10  22  34  62  96 135 182 212 260 347 414
#     4  11  26  47  73  95 131 187 234 275 336 396
#     4  10  20  35  58  95 138 175 211 265 334 410
#     4  11  22  41  67 102 144 171 215 287 337 402
#
# _framework density 26.512377999999998
#
# number of rings (size 3 to 8) (size 9 to 14) (size 15 to 20)
#    0.000    1.250    3.750    1.500    3.500    4.000 
#    0.000    0.625    0.000    0.000    0.000    0.000 
#    0.000    0.000    0.000    0.000    0.000    0.000 
#
# Total GULP energy -89593.170142 kJ/mol
# GULP energy per Si atom -5599.573134 kJ/mol
# Density = 2.645203 g / cm^3
# Si number density = 26.512378 Si / 1000 Ang^3
#
#
#
# Elastic Constant Matrix: (Units=GPa)
#
#
# Indices 1 2 3 4 5 6 
#
# 1 56.8658 10.5476 13.6134 4.9866 -1.3002 13.4455
# 2 10.5476 78.4534 43.1447 16.9858 3.5683 4.9518
# 3 13.6134 43.1447 119.6572 11.8240 2.4188 7.7006
# 4 4.9866 16.9858 11.8240 45.9771 7.7063 -0.9302
# 5 -1.3002 3.5683 2.4188 7.7063 49.7212 0.3883
# 6 13.4455 4.9518 7.7006 -0.9302 0.3883 40.8689
#
#
#
# Elastic Compliance Matrix: (Units=1/GPa)
#
#
# Indices 1 2 3 4 5 6 
#
# 1 0.019740 -0.001267 -0.001251 -0.001638 0.000970 -0.006152
# 2 -0.001267 0.017001 -0.005469 -0.004709 -0.000252 -0.000717
# 3 -0.001251 -0.005469 0.010590 -0.000576 -0.000059 -0.000934
# 4 -0.001638 -0.004709 -0.000576 0.024435 -0.003478 0.001807
# 5 0.000970 -0.000252 -0.000059 -0.003478 0.020702 -0.000553
# 6 -0.006152 -0.000717 -0.000934 0.001807 -0.000553 0.026802
#
#
# Mechanical properties :
#
#
# Convention : Reuss Voigt Hill
#
# Bulk Modulus (GPa) = 31.89159 43.28752 37.58956
# Shear Modulus (GPa) = 34.31810 39.82481 37.07145
#
# Velocity S-wave (km/s) = 3.60171 3.87993 3.74340
# Velocity P-wave (km/s) = 5.41770 6.03610 5.73524
#
# Compressibility (1/GPa) = 0.03135623
#
# Stress axis : x y z
#
# Youngs Moduli (GPa) = 50.65836 58.82059 94.43088
#
# Poissons Ratio (x) = 0.07454 0.11811
# Poissons Ratio (y) = 0.06420 0.51646
# Poissons Ratio (z) = 0.06336 0.32170
#
# Static dielectric constant tensor:
#      x y z
#    x 2.084850 0.043920 0.035310 
#    y 0.043920 2.037560 0.058010 
#    z 0.035310 0.058010 2.069350 
# 
# From -- ./inp_files/409827.got.cif
#   From: 2010.05.17/outbox.cif.g08.bks.cpg/sg2_205_cif.got.tgz:409827.got - 2010.06.03 11:33:40.
