data_PCOD9095015
_publ_section_title
;
Structure prediction by ZEFSAII (Michael W. Deem and Ramdas Pophale) SiO2 
 PCOD9095015
Probable space group: P -1
;
_chemical_formula_sum "Si O2"
_cell_formula_units_Z 16
_cell_length_a 30.728600
_cell_length_b 31.387567
_cell_length_c 17.916912
_cell_angle_alpha 20.263397
_cell_angle_beta 159.829136
_cell_angle_gamma 170.881712
_cell_volume 923.882841
_symmetry_space_group_name_H-M "P -1"
_symmetry_group_IT_number 2
_symmetry_cell_setting 'triclinic'
loop_
_space_group_symop_operation_xyz
x,y,z
-x,-y,-z
loop_
_atom_site_type_symbol
_atom_site_label
_atom_site_fract_x
_atom_site_fract_y
_atom_site_fract_z
Si Si1 0.374657 0.439907 0.638609
Si Si2 0.080790 0.413695 0.129168
Si Si3 0.636618 0.498949 0.182173
Si Si4 0.461373 0.957423 0.918830
Si Si5 0.233351 0.238154 0.398055
Si Si6 0.197206 0.347798 0.297653
Si Si7 0.828768 0.058753 0.592409
Si Si8 0.139264 0.117579 0.194437
O O1 0.180735 0.378973 0.392263
O O2 0.599096 0.590399 0.690124
O O3 0.582909 0.673493 0.653677
O O4 0.150581 0.146901 0.791458
O O5 0.119449 0.405957 0.118041
O O6 0.262228 0.678096 0.024576
O O7 0.765125 0.183021 0.007985
O O8 0.379574 0.180626 0.287324
O O9 0.500000 0.500000 0.000000
O O10 0.785806 0.684036 0.045281
O O11 0.875522 0.651437 0.369890
O O12 0.329725 0.968863 0.657744
O O13 0.500000 0.000000 0.000000
O O14 0.147364 0.280224 0.240741
O O15 0.472935 0.380444 0.600006
O O16 0.979515 0.918658 0.509794
O O17 0.888792 0.004655 0.717073
#
# Coordination Sequence:
#
# PCOD9095015 Si02
#       8
#     2   2   2   2   2   2   2   2
#     4  11  19  30  48  74 104 127 156 196 247 300
#     4  11  21  34  48  70 101 139 171 196 232 286
#     4  10  20  35  53  70  90 124 167 208 253 294
#     4  12  24  35  49  71 101 136 173 204 235 275
#     4   9  17  29  47  71  97 130 159 197 247 293
#     4   9  17  31  48  66  96 133 169 197 233 289
#     4  11  21  36  50  68  97 131 168 206 240 281
#     4  11  20  32  50  72  96 126 160 202 254 299
#
# _framework density 17.318214999999999
#
# number of rings (size 3 to 8) (size 9 to 14) (size 15 to 20)
#    0.000    1.500    0.000   10.125    0.000    0.000 
#    0.000    0.000    0.000    0.000    0.000    0.000 
#    0.000   20.000    0.000    0.000    0.000    0.000 
#
# Total GULP energy -89164.581744 kJ/mol
# GULP energy per Si atom -5572.786359 kJ/mol
# Density = 1.727880 g / cm^3
# Si number density = 17.318215 Si / 1000 Ang^3
#
#
#
# Elastic Constant Matrix: (Units=GPa)
#
#
# Indices 1 2 3 4 5 6 
#
# 1 68.7850 15.6904 25.4086 -9.3644 9.1160 12.6022
# 2 15.6904 107.5289 12.7756 2.2918 3.3260 3.8490
# 3 25.4086 12.7756 47.7613 0.8648 1.6829 6.8353
# 4 -9.3644 2.2918 0.8648 31.4758 1.9232 -0.6349
# 5 9.1160 3.3260 1.6829 1.9232 23.5862 -6.3171
# 6 12.6022 3.8490 6.8353 -0.6349 -6.3171 30.0623
#
#
#
# Elastic Compliance Matrix: (Units=1/GPa)
#
#
# Indices 1 2 3 4 5 6 
#
# 1 0.022843 -0.001622 -0.010154 0.007678 -0.010966 -0.009202
# 2 -0.001622 0.009790 -0.001663 -0.001118 -0.000639 -0.000353
# 3 -0.010154 -0.001663 0.026958 -0.003801 0.002204 -0.001277
# 4 0.007678 -0.001118 -0.003801 0.034557 -0.006096 -0.002762
# 5 -0.010966 -0.000639 0.002204 -0.006096 0.051022 0.014771
# 6 -0.009202 -0.000353 -0.001277 -0.002762 0.014771 0.040503
#
#
# Mechanical properties :
#
#
# Convention : Reuss Voigt Hill
#
# Bulk Modulus (GPa) = 30.56790 36.86940 33.71865
# Shear Modulus (GPa) = 22.37569 28.37154 25.37361
#
# Velocity S-wave (km/s) = 3.59838 4.05192 3.83187
# Velocity P-wave (km/s) = 5.91215 6.57467 6.25219
#
# Compressibility (1/GPa) = 0.03271405
#
# Stress axis : x y z
#
# Youngs Moduli (GPa) = 43.77616 102.14239 37.09445
#
# Poissons Ratio (x) = 0.16566 0.37667
# Poissons Ratio (y) = 0.07100 0.06167
# Poissons Ratio (z) = 0.44452 0.16983
#
# Static dielectric constant tensor:
#      x y z
#    x 1.689700 0.006520 -0.012640 
#    y 0.006520 1.595610 -0.018450 
#    z -0.012640 -0.018450 1.589340 
# 
# From -- ./inp_files/434008.got.cif
#   From: 2010.05.17/outbox.cif.g08.bks.cpg/sg2_218_cif.got.tgz:434008.got - 2010.06.03 11:33:40.
