data_PCOD9095588
_publ_section_title
;
Structure prediction by ZEFSAII (Michael W. Deem and Ramdas Pophale) SiO2 
 PCOD9095588
Probable space group: P -1
;
_chemical_formula_sum "Si O2"
_cell_formula_units_Z 16
_cell_length_a 12.015165
_cell_length_b 19.060017
_cell_length_c 5.378002
_cell_angle_alpha 125.741216
_cell_angle_beta 102.760326
_cell_angle_gamma 50.081315
_cell_volume 742.872783
_symmetry_space_group_name_H-M "P -1"
_symmetry_group_IT_number 2
_symmetry_cell_setting 'triclinic'
loop_
_space_group_symop_operation_xyz
x,y,z
-x,-y,-z
loop_
_atom_site_type_symbol
_atom_site_label
_atom_site_fract_x
_atom_site_fract_y
_atom_site_fract_z
Si Si1 0.362831 0.108377 0.505583
Si Si2 0.630943 0.429135 0.716493
Si Si3 0.139206 0.551867 0.028021
Si Si4 0.499761 0.350663 0.202084
Si Si5 0.667410 0.681313 0.576486
Si Si6 0.959634 0.654930 0.648686
Si Si7 0.566011 0.154203 0.538405
Si Si8 0.772342 0.892329 0.081524
O O1 0.424483 0.174965 0.644420
O O2 0.238799 0.144550 0.721344
O O3 0.500000 0.000000 0.500000
O O4 0.326680 0.091705 0.175862
O O5 0.786850 0.389197 0.811201
O O6 0.621185 0.338028 0.413632
O O7 0.584783 0.525512 0.696614
O O8 0.500000 0.500000 0.000000
O O9 0.038001 0.586842 0.292126
O O10 0.271537 0.416016 0.800906
O O11 0.050692 0.586316 0.797171
O O12 0.372103 0.360934 0.304345
O O13 0.581187 0.241923 0.839273
O O14 0.798161 0.687323 0.665460
O O15 0.506211 0.801231 0.677568
O O16 0.931710 0.771954 0.841727
O O17 0.709703 0.020784 0.344250
#
# Coordination Sequence:
#
# PCOD9095588 Si02
#       8
#     2   2   2   2   2   2   2   2
#     4  10  20  35  58  89 131 178 213 266 313 378
#     4  11  23  45  69  93 127 167 234 288 333 381
#     4  12  26  45  65  95 134 183 221 264 330 405
#     4  11  23  39  69 101 128 167 214 299 340 373
#     4  12  24  40  64 104 136 170 220 271 340 392
#     4  12  27  42  65  95 147 187 209 254 324 428
#     4  11  22  35  65  96 132 166 222 285 323 380
#     4  11  23  40  60  93 135 182 223 256 323 392
#
# _framework density 21.538011000000001
#
# number of rings (size 3 to 8) (size 9 to 14) (size 15 to 20)
#    0.000    0.750    3.750    4.500    7.000    0.000 
#    0.000    0.000    0.000    1.500    0.000    0.000 
#    0.000    0.000    0.000    0.000    0.000    0.000 
#
# Total GULP energy -89137.968440 kJ/mol
# GULP energy per Si atom -5571.123028 kJ/mol
# Density = 2.148899 g / cm^3
# Si number density = 21.538011 Si / 1000 Ang^3
#
#
#
# Elastic Constant Matrix: (Units=GPa)
#
#
# Indices 1 2 3 4 5 6 
#
# 1 57.5887 7.6807 18.8129 -10.9551 9.6998 13.6065
# 2 7.6807 88.3911 26.3529 -4.7144 -5.6001 13.6059
# 3 18.8129 26.3529 105.9490 4.4252 19.0558 7.6542
# 4 -10.9551 -4.7144 4.4252 43.7280 0.6683 -5.4504
# 5 9.6998 -5.6001 19.0558 0.6683 41.3040 -9.7137
# 6 13.6065 13.6059 7.6542 -5.4504 -9.7137 17.0536
#
#
#
# Elastic Compliance Matrix: (Units=1/GPa)
#
#
# Indices 1 2 3 4 5 6 
#
# 1 0.026925 0.001757 -0.001138 0.003728 -0.012242 -0.028155
# 2 0.001757 0.013770 -0.003091 0.000926 0.000402 -0.010475
# 3 -0.001138 -0.003091 0.012414 -0.002677 -0.007568 -0.007364
# 4 0.003728 0.000926 -0.002677 0.024942 0.001577 0.006358
# 5 -0.012242 0.000402 -0.007568 0.001577 0.038965 0.035541
# 6 -0.028155 -0.010475 -0.007364 0.006358 0.035541 0.115042
#
#
# Mechanical properties :
#
#
# Convention : Reuss Voigt Hill
#
# Bulk Modulus (GPa) = 20.76208 39.73576 30.24892
# Shear Modulus (GPa) = 19.75843 33.68925 26.72384
#
# Velocity S-wave (km/s) = 3.03211 3.95926 3.52629
# Velocity P-wave (km/s) = 4.68176 6.27616 5.53665
#
# Compressibility (1/GPa) = 0.04816473
#
# Stress axis : x y z
#
# Youngs Moduli (GPa) = 37.13997 72.62404 80.55191
#
# Poissons Ratio (x) = -0.12758 0.09165
# Poissons Ratio (y) = -0.06524 0.24899
# Poissons Ratio (z) = 0.04226 0.22448
#
# Static dielectric constant tensor:
#      x y z
#    x 1.907580 0.024760 -0.001530 
#    y 0.024760 1.884810 -0.038420 
#    z -0.001530 -0.038420 1.932150 
# 
# From -- ./inp_files/81711.got.cif
#   From: 2010.05.17/outbox.cif.g08.bks.cpg/sg2_41_cif.got.tgz:81711.got - 2010.06.03 11:33:40.
