data_PCOD9095680
_publ_section_title
;
Structure prediction by ZEFSAII (Michael W. Deem and Ramdas Pophale) SiO2 
 PCOD9095680
Probable space group: P -1
;
_chemical_formula_sum "Si O2"
_cell_formula_units_Z 16
_cell_length_a 15.244104
_cell_length_b 8.821661
_cell_length_c 11.536491
_cell_angle_alpha 112.245212
_cell_angle_beta 117.165291
_cell_angle_gamma 120.910891
_cell_volume 705.452333
_symmetry_space_group_name_H-M "P -1"
_symmetry_group_IT_number 2
_symmetry_cell_setting 'triclinic'
loop_
_space_group_symop_operation_xyz
x,y,z
-x,-y,-z
loop_
_atom_site_type_symbol
_atom_site_label
_atom_site_fract_x
_atom_site_fract_y
_atom_site_fract_z
Si Si1 0.814866 0.020676 0.190150
Si Si2 0.712464 0.288840 0.844744
Si Si3 0.277245 0.665066 0.396364
Si Si4 0.718446 0.951994 0.853126
Si Si5 0.820434 0.653500 0.429912
Si Si6 0.679969 0.526509 0.061649
Si Si7 0.304228 0.844363 0.698522
Si Si8 0.712943 0.670232 0.588670
O O1 0.663994 0.687296 0.050158
O O2 0.794817 0.169349 0.279747
O O3 0.800139 0.011676 0.041150
O O4 0.994650 0.181301 0.385799
O O5 0.782414 0.377799 0.781465
O O6 0.494508 0.980173 0.617773
O O7 0.765120 0.203023 0.924559
O O8 0.758473 0.519407 0.005645
O O9 0.215653 0.692259 0.474436
O O10 0.233842 0.418629 0.333129
O O11 0.768536 0.904683 0.762729
O O12 0.502705 0.634470 0.641250
O O13 0.794831 0.674571 0.290323
O O14 0.679525 0.314017 0.281723
O O15 0.792119 0.759827 0.534692
O O16 0.492943 0.187869 0.885962
#
# Coordination Sequence:
#
# PCOD9095680 Si02
#       8
#     2   2   2   2   2   2   2   2
#     4  12  24  37  57  87 121 149 186 240 291 336
#     4   9  17  32  56  83 111 142 184 234 281 327
#     4   8  16  32  55  84 110 139 182 236 283 322
#     4  10  20  35  59  87 113 149 195 237 277 337
#     4  11  23  40  59  82 118 155 187 233 293 344
#     4  11  22  38  60  84 114 153 195 235 279 339
#     4  10  21  38  62  85 111 150 196 237 276 338
#     4   9  19  36  59  83 111 148 193 236 278 337
#
# _framework density 22.680484
#
# number of rings (size 3 to 8) (size 9 to 14) (size 15 to 20)
#    0.000    2.000    0.000    4.500    0.000    4.500 
#    0.000    0.000    0.000    4.500    0.000    0.000 
#    0.000    0.000    0.000    0.000    0.000    0.000 
#
# Total GULP energy -89492.553692 kJ/mol
# GULP energy per Si atom -5593.284606 kJ/mol
# Density = 2.262886 g / cm^3
# Si number density = 22.680484 Si / 1000 Ang^3
#
#
#
# Elastic Constant Matrix: (Units=GPa)
#
#
# Indices 1 2 3 4 5 6 
#
# 1 94.2078 -7.8790 44.5493 -9.3335 -46.3064 -11.0121
# 2 -7.8790 78.4372 44.0085 -20.9123 -16.7454 -7.5262
# 3 44.5493 44.0085 53.3498 -25.2698 -12.3627 14.4171
# 4 -9.3335 -20.9123 -25.2698 45.6963 12.3594 -3.6651
# 5 -46.3064 -16.7454 -12.3627 12.3594 40.3945 -0.7951
# 6 -11.0121 -7.5262 14.4171 -3.6651 -0.7951 19.5611
#
#
#
# Elastic Compliance Matrix: (Units=1/GPa)
#
#
# Indices 1 2 3 4 5 6 
#
# 1 -0.002601 -0.012000 0.017843 0.003396 -0.003904 -0.018755
# 2 -0.012000 0.002953 0.012281 0.007674 -0.011391 -0.013696
# 3 0.017843 0.012281 -0.005545 0.001365 0.023826 0.020081
# 4 0.003396 0.007674 0.001365 0.027794 -0.000835 0.009032
# 5 -0.003904 -0.011391 0.023826 -0.000835 0.022646 -0.023377
# 6 -0.018755 -0.013696 0.020081 0.009032 -0.023377 0.021236
#
#
# Mechanical properties :
#
#
# Convention : Reuss Voigt Hill
#
# Bulk Modulus (GPa) = 32.20133 43.03916 37.62025
# Shear Modulus (GPa) = 123.19335 30.81811 77.00573
#
# Velocity S-wave (km/s) = 7.37800 3.69018 5.83319
# Velocity P-wave (km/s) = 9.31710 6.09705 7.87345
#
# Compressibility (1/GPa) = 0.03105461
#
# Stress axis : x y z
#
# Youngs Moduli (GPa) = -384.42712 338.59903 -180.33974
#
# Poissons Ratio (x) = 4.06323 3.21784
# Poissons Ratio (y) = -4.61318 2.21471
# Poissons Ratio (z) = 6.85940 -4.15825
#
# Static dielectric constant tensor:
#      x y z
#    x 1.843840 0.042740 0.032340 
#    y 0.042740 1.826660 0.061270 
#    z 0.032340 0.061270 1.866780 
# 
# From -- ./inp_files/201481.got.cif
#   From: 2010.05.17/outbox.cif.g08.bks.cpg/sg2_101_cif.got.tgz:201481.got - 2010.06.03 11:33:40.
