data_PCOD9095270
_publ_section_title
;
Structure prediction by ZEFSAII (Michael W. Deem and Ramdas Pophale) SiO2 
 PCOD9095270
Probable space group: P -1
;
_chemical_formula_sum "Si O2"
_cell_formula_units_Z 12
_cell_length_a 11.905622
_cell_length_b 7.864321
_cell_length_c 10.800601
_cell_angle_alpha 45.542068
_cell_angle_beta 141.649844
_cell_angle_gamma 111.631831
_cell_volume 408.909876
_symmetry_space_group_name_H-M "P -1"
_symmetry_group_IT_number 2
_symmetry_cell_setting 'triclinic'
loop_
_space_group_symop_operation_xyz
x,y,z
-x,-y,-z
loop_
_atom_site_type_symbol
_atom_site_label
_atom_site_fract_x
_atom_site_fract_y
_atom_site_fract_z
Si Si1 0.865788 0.382953 0.012192
Si Si2 0.048093 0.211326 0.856042
Si Si3 0.462243 0.402904 0.196221
Si Si4 0.802729 0.156007 0.449446
Si Si5 0.368756 0.932123 0.112942
Si Si6 0.280690 0.303846 0.612028
O O1 0.697339 0.594248 0.843005
O O2 0.729841 0.276628 0.864165
O O3 0.039738 0.102457 0.348252
O O4 0.000000 0.500000 0.000000
O O5 0.938735 0.246152 0.610748
O O6 0.942687 0.484951 0.693614
O O7 0.000000 0.000000 0.000000
O O8 0.275279 0.106785 0.063418
O O9 0.633348 0.162659 0.397611
O O10 0.591920 0.538384 0.308973
O O11 0.323838 0.622336 0.868458
O O12 0.603308 0.819805 0.350305
O O13 0.300164 0.095474 0.841589
#
# Coordination Sequence:
#
# PCOD9095270 Si02
#       6
#     2   2   2   2   2   2
#     4  10  20  35  56  83 116 146 178 228 282 330
#     4  10  20  35  56  83 116 146 178 228 282 330
#     4   9  18  36  61  83 107 142 186 231 271 325
#     4   9  19  37  57  81 108 144 190 226 270 327
#     4   9  19  37  57  81 108 144 190 226 270 327
#     4   9  18  36  61  83 107 142 186 231 271 325
#
# _framework density 29.346318
#
# number of rings (size 3 to 8) (size 9 to 14) (size 15 to 20)
#    0.000    2.667    0.000    1.000    0.000    1.333 
#    0.000   31.667    0.000    0.000    0.000    0.000 
#    0.000    0.000    0.000    0.000    0.000    0.000 
#
# Total GULP energy -67242.528607 kJ/mol
# GULP energy per Si atom -5603.544051 kJ/mol
# Density = 2.927952 g / cm^3
# Si number density = 29.346318 Si / 1000 Ang^3
#
#
#
# Elastic Constant Matrix: (Units=GPa)
#
#
# Indices 1 2 3 4 5 6 
#
# 1 253.1658 61.7324 52.3157 -23.3003 72.4770 6.9324
# 2 61.7324 95.4624 29.7409 4.1912 22.1550 13.5740
# 3 52.3157 29.7409 98.1460 -10.8080 31.9429 -1.2324
# 4 -23.3003 4.1912 -10.8080 61.5627 -3.1104 17.1051
# 5 72.4770 22.1550 31.9429 -3.1104 70.0272 0.6810
# 6 6.9324 13.5740 -1.2324 17.1051 0.6810 66.4472
#
#
#
# Elastic Compliance Matrix: (Units=1/GPa)
#
#
# Indices 1 2 3 4 5 6 
#
# 1 0.006594 -0.002799 -0.000594 0.002500 -0.005550 -0.000714
# 2 -0.002799 0.013574 -0.002797 -0.001918 -0.000187 -0.002037
# 3 -0.000594 -0.002797 0.012981 0.001906 -0.004341 0.000428
# 4 0.002500 -0.001918 0.001906 0.018852 -0.001967 -0.004666
# 5 -0.005550 -0.000187 -0.004341 -0.001967 0.021968 0.000818
# 6 -0.000714 -0.002037 0.000428 -0.004666 0.000818 0.016741
#
#
# Mechanical properties :
#
#
# Convention : Reuss Voigt Hill
#
# Bulk Modulus (GPa) = 48.14948 81.59471 64.87209
# Shear Modulus (GPa) = 45.44871 59.80645 52.62758
#
# Velocity S-wave (km/s) = 3.93962 4.51927 4.23936
# Velocity P-wave (km/s) = 6.09403 7.42268 6.79092
#
# Compressibility (1/GPa) = 0.02076866
#
# Stress axis : x y z
#
# Youngs Moduli (GPa) = 151.65958 73.66936 77.03358
#
# Poissons Ratio (x) = 0.20621 0.04575
# Poissons Ratio (y) = 0.42452 0.21548
# Poissons Ratio (z) = 0.09007 0.20607
#
# Static dielectric constant tensor:
#      x y z
#    x 2.276280 -0.078790 0.039400 
#    y -0.078790 2.321020 -0.042350 
#    z 0.039400 -0.042350 2.296130 
# 
# From -- ./inp_files/181391.got.cif
#   From: 2010.05.17/outbox.cif.g08.bks.cpg/sg2_91_cif.got.tgz:181391.got - 2010.06.03 11:33:40.
