data_PCOD9095542
_publ_section_title
;
Structure prediction by ZEFSAII (Michael W. Deem and Ramdas Pophale) SiO2 
 PCOD9095542
Probable space group: P -1
;
_chemical_formula_sum "Si O2"
_cell_formula_units_Z 16
_cell_length_a 14.307754
_cell_length_b 5.689063
_cell_length_c 13.114815
_cell_angle_alpha 80.225524
_cell_angle_beta 37.104181
_cell_angle_gamma 93.778375
_cell_volume 597.161205
_symmetry_space_group_name_H-M "P -1"
_symmetry_group_IT_number 2
_symmetry_cell_setting 'triclinic'
loop_
_space_group_symop_operation_xyz
x,y,z
-x,-y,-z
loop_
_atom_site_type_symbol
_atom_site_label
_atom_site_fract_x
_atom_site_fract_y
_atom_site_fract_z
Si Si1 0.533429 0.278813 0.049011
Si Si2 0.095395 0.750686 0.002675
Si Si3 0.241218 0.769881 0.289796
Si Si4 0.023161 0.858912 0.632557
Si Si5 0.814784 0.264510 0.293379
Si Si6 0.310296 0.346206 0.388842
Si Si7 0.458982 0.600279 0.423219
Si Si8 0.788381 0.735983 0.006532
O O1 0.474345 0.293481 0.213558
O O2 0.380881 0.039508 0.162532
O O3 0.500000 0.500000 0.000000
O O4 0.716687 0.288827 0.858172
O O5 0.160844 0.856058 0.825771
O O6 0.179245 0.532137 0.975144
O O7 0.907268 0.564461 0.167142
O O8 0.114427 0.988389 0.043293
O O9 0.305727 0.600348 0.322220
O O10 0.069125 0.762217 0.491313
O O11 0.138998 0.149399 0.513506
O O12 0.101523 0.769572 0.670689
O O13 0.837536 0.792320 0.839541
O O14 0.625408 0.195848 0.489881
O O15 0.324020 0.380401 0.493822
O O16 0.500000 0.500000 0.500000
O O17 0.608914 0.701004 0.207828
#
# Coordination Sequence:
#
# PCOD9095542 Si02
#       8
#     2   2   2   2   2   2   2   2
#     4   8  16  31  58  92 117 143 185 259 304 364
#     4  10  23  42  60  82 110 164 218 262 306 355
#     4   9  16  33  58  90 118 143 196 250 311 357
#     4  10  21  35  61  84 115 160 204 260 301 369
#     4  10  21  38  61  81 115 160 214 263 304 359
#     4  10  20  35  58  86 120 157 205 246 308 358
#     4  12  24  39  56  87 124 171 207 257 300 363
#     4  11  25  40  58  85 122 163 208 262 308 362
#
# _framework density 26.793436
#
# number of rings (size 3 to 8) (size 9 to 14) (size 15 to 20)
#    0.000    2.000    2.500    0.750    3.500    6.000 
#    0.000    0.000    0.000    0.750    0.000   29.750 
#    0.000    0.000    0.000    0.000    0.000    0.000 
#
# Total GULP energy -89223.275934 kJ/mol
# GULP energy per Si atom -5576.454746 kJ/mol
# Density = 2.673245 g / cm^3
# Si number density = 26.793436 Si / 1000 Ang^3
#
#
#
# Elastic Constant Matrix: (Units=GPa)
#
#
# Indices 1 2 3 4 5 6 
#
# 1 71.6967 24.0130 26.0689 5.5542 9.8441 0.8682
# 2 24.0130 112.2708 36.6502 0.2345 17.7124 1.2062
# 3 26.0689 36.6502 234.4324 44.6220 19.3778 -1.2253
# 4 5.5542 0.2345 44.6220 46.4978 4.3387 15.3703
# 5 9.8441 17.7124 19.3778 4.3387 28.4541 12.0388
# 6 0.8682 1.2062 -1.2253 15.3703 12.0388 36.9564
#
#
#
# Elastic Compliance Matrix: (Units=1/GPa)
#
#
# Indices 1 2 3 4 5 6 
#
# 1 0.015669 -0.002515 -0.000807 -0.001200 -0.003714 0.001396
# 2 -0.002515 0.010717 -0.001265 0.001728 -0.005519 0.000747
# 3 -0.000807 -0.001265 0.006239 -0.006992 -0.004013 0.004482
# 4 -0.001200 0.001728 -0.006992 0.033066 0.005785 -0.015897
# 5 -0.003714 -0.005519 -0.004013 0.005785 0.049499 -0.018396
# 6 0.001396 0.000747 0.004482 -0.015897 -0.018396 0.039755
#
#
# Mechanical properties :
#
#
# Convention : Reuss Voigt Hill
#
# Bulk Modulus (GPa) = 42.63802 65.76268 54.20035
# Shear Modulus (GPa) = 29.08098 44.49283 36.78691
#
# Velocity S-wave (km/s) = 3.29808 4.07945 3.70940
# Velocity P-wave (km/s) = 5.51827 6.84009 6.21442
#
# Compressibility (1/GPa) = 0.02345325
#
# Stress axis : x y z
#
# Youngs Moduli (GPa) = 63.81975 93.31122 160.28328
#
# Poissons Ratio (x) = 0.23464 0.12929
# Poissons Ratio (y) = 0.16048 0.20270
# Poissons Ratio (z) = 0.05148 0.11800
#
# Static dielectric constant tensor:
#      x y z
#    x 2.115740 0.021660 -0.069270 
#    y 0.021660 2.229750 0.065540 
#    z -0.069270 0.065540 2.199670 
# 
# From -- ./inp_files/116035.got.cif
#   From: 2010.05.17/outbox.cif.g08.bks.cpg/sg2_59_cif.got.tgz:116035.got - 2010.06.03 11:33:40.
