data_PCOD9095685
_publ_section_title
;
Structure prediction by ZEFSAII (Michael W. Deem and Ramdas Pophale) SiO2 
 PCOD9095685
Probable space group: P -1
;
_chemical_formula_sum "Si O2"
_cell_formula_units_Z 12
_cell_length_a 6.763514
_cell_length_b 10.137627
_cell_length_c 11.888308
_cell_angle_alpha 129.759161
_cell_angle_beta 74.416922
_cell_angle_gamma 73.824606
_cell_volume 479.105016
_symmetry_space_group_name_H-M "P -1"
_symmetry_group_IT_number 2
_symmetry_cell_setting 'triclinic'
loop_
_space_group_symop_operation_xyz
x,y,z
-x,-y,-z
loop_
_atom_site_type_symbol
_atom_site_label
_atom_site_fract_x
_atom_site_fract_y
_atom_site_fract_z
Si Si1 0.304829 0.629161 0.703585
Si Si2 0.792729 0.801957 0.203339
Si Si3 0.251052 0.034694 0.349527
Si Si4 0.841344 0.281632 0.695264
Si Si5 0.726867 0.013278 0.942524
Si Si6 0.703502 0.472726 0.122495
O O1 0.500000 0.500000 0.500000
O O2 0.347858 0.465302 0.705325
O O3 0.007858 0.787144 0.797333
O O4 0.324483 0.795276 0.865449
O O5 0.505577 0.011360 0.333614
O O6 0.742987 0.623119 0.123981
O O7 0.941056 0.773974 0.279446
O O8 0.006313 0.751560 0.052453
O O9 0.223704 0.882379 0.352097
O O10 0.276921 0.963363 0.179270
O O11 0.972490 0.258462 0.543277
O O12 0.549455 0.501023 0.866213
O O13 0.500000 0.000000 0.000000
#
# Coordination Sequence:
#
# PCOD9095685 Si02
#       6
#     2   2   2   2   2   2
#     4  11  25  44  65  90 125 168 212 258 307 366
#     4  10  20  35  59  87 117 154 197 249 306 366
#     4  10  21  37  57  87 121 155 199 249 305 364
#     4  10  20  35  59  87 119 156 195 249 308 364
#     4  11  25  43  64  92 126 167 211 257 308 366
#     4  10  21  36  57  87 117 153 203 249 302 363
#
# _framework density 25.046700999999999
#
# number of rings (size 3 to 8) (size 9 to 14) (size 15 to 20)
#    0.000    1.667    0.000    4.000    0.000    7.333 
#    0.000    0.000    0.000    0.000    0.000    0.000 
#    0.000    0.000    0.000    0.000    0.000    0.000 
#
# Total GULP energy -66924.988937 kJ/mol
# GULP energy per Si atom -5577.082411 kJ/mol
# Density = 2.498969 g / cm^3
# Si number density = 25.046701 Si / 1000 Ang^3
#
#
#
# Elastic Constant Matrix: (Units=GPa)
#
#
# Indices 1 2 3 4 5 6 
#
# 1 198.9775 23.9562 105.5125 3.0702 -42.8682 -26.9325
# 2 23.9562 45.0640 48.1005 -19.2357 -2.7386 -16.4465
# 3 105.5125 48.1005 221.1171 -45.8737 -34.9790 -13.2055
# 4 3.0702 -19.2357 -45.8737 37.5372 1.5906 -1.2917
# 5 -42.8682 -2.7386 -34.9790 1.5906 49.4861 4.4842
# 6 -26.9325 -16.4465 -13.2055 -1.2917 4.4842 26.1348
#
#
#
# Elastic Compliance Matrix: (Units=1/GPa)
#
#
# Indices 1 2 3 4 5 6 
#
# 1 0.009503 -0.000363 -0.004797 -0.006808 0.004493 0.006033
# 2 -0.000363 0.045046 -0.004909 0.018232 -0.004336 0.027138
# 3 -0.004797 -0.004909 0.010265 0.010208 0.002755 -0.002814
# 4 -0.006808 0.018232 0.010208 0.049447 -0.000361 0.012121
# 5 0.004493 -0.004336 0.002755 -0.000361 0.025926 -0.001172
# 6 0.006033 0.027138 -0.002814 0.012121 -0.001172 0.060937
#
#
# Mechanical properties :
#
#
# Convention : Reuss Voigt Hill
#
# Bulk Modulus (GPa) = 22.38280 91.14412 56.76346
# Shear Modulus (GPa) = 21.17272 41.80425 31.48848
#
# Velocity S-wave (km/s) = 2.91061 4.08984 3.54954
# Velocity P-wave (km/s) = 4.50015 7.66623 6.28579
#
# Compressibility (1/GPa) = 0.04467716
#
# Stress axis : x y z
#
# Youngs Moduli (GPa) = 105.23227 22.19944 97.41896
#
# Poissons Ratio (x) = 0.00805 0.46732
# Poissons Ratio (y) = 0.03816 0.47821
# Poissons Ratio (z) = 0.50480 0.10897
#
# Static dielectric constant tensor:
#      x y z
#    x 1.910570 -0.031140 -0.001320 
#    y -0.031140 2.101890 0.133930 
#    z -0.001320 0.133930 2.157800 
# 
# From -- ./inp_files/80797.got.cif
#   From: 2010.05.17/outbox.cif.g08.bks.cpg/sg2_41_cif.got.tgz:80797.got - 2010.06.03 11:33:40.
