data_PCOD9095974
_publ_section_title
;
Structure prediction by ZEFSAII (Michael W. Deem and Ramdas Pophale) SiO2 
 PCOD9095974
Probable space group: P -1
;
_chemical_formula_sum "Si O2"
_cell_formula_units_Z 12
_cell_length_a 10.391433
_cell_length_b 8.114004
_cell_length_c 11.760672
_cell_angle_alpha 139.102360
_cell_angle_beta 52.543700
_cell_angle_gamma 120.787086
_cell_volume 512.760105
_symmetry_space_group_name_H-M "P -1"
_symmetry_group_IT_number 2
_symmetry_cell_setting 'triclinic'
loop_
_space_group_symop_operation_xyz
x,y,z
-x,-y,-z
loop_
_atom_site_type_symbol
_atom_site_label
_atom_site_fract_x
_atom_site_fract_y
_atom_site_fract_z
Si Si1 0.008622 0.623123 0.380737
Si Si2 0.494194 0.490120 0.693402
Si Si3 0.499110 0.247178 0.942788
Si Si4 0.304550 0.204293 0.457295
Si Si5 0.210836 0.803881 0.573924
Si Si6 0.167435 0.172539 0.976409
O O1 0.116060 0.794975 0.502013
O O2 0.881970 0.772974 0.459518
O O3 0.898649 0.406881 0.400590
O O4 0.380660 0.939982 0.270336
O O5 0.457015 0.676346 0.911810
O O6 0.349655 0.339057 0.622749
O O7 0.596771 0.642685 0.618475
O O8 0.613890 0.298565 0.582052
O O9 0.877870 0.541245 0.841949
O O10 0.500000 0.500000 0.000000
O O11 0.309631 0.130911 0.969288
O O12 0.225201 0.067113 0.771003
O O13 0.000000 0.000000 0.000000
#
# Coordination Sequence:
#
# PCOD9095974 Si02
#       6
#     2   2   2   2   2   2
#     4   9  18  32  58  90 119 149 203 265 302 346
#     4  10  20  38  64  91 124 161 214 261 303 362
#     4  12  25  41  61  94 132 168 202 253 325 380
#     4  10  22  38  62  98 122 158 215 267 302 359
#     4   9  16  32  58  88 118 154 201 255 306 355
#     4  10  20  35  61  89 117 160 213 249 294 372
#
# _framework density 23.402757999999999
#
# number of rings (size 3 to 8) (size 9 to 14) (size 15 to 20)
#    0.000    2.000    3.333    0.500    4.667    2.000 
#    0.000    0.833    0.000    2.000    0.000    0.000 
#    0.000    0.000    0.000    0.000    0.000    0.000 
#
# Total GULP energy -67144.988544 kJ/mol
# GULP energy per Si atom -5595.415712 kJ/mol
# Density = 2.334949 g / cm^3
# Si number density = 23.402758 Si / 1000 Ang^3
#
#
#
# Elastic Constant Matrix: (Units=GPa)
#
#
# Indices 1 2 3 4 5 6 
#
# 1 201.6747 41.3357 85.5477 22.4827 6.8932 14.0163
# 2 41.3357 59.5157 26.6382 -0.4358 9.2641 5.0017
# 3 85.5477 26.6382 142.1020 22.7534 10.6846 10.4386
# 4 22.4827 -0.4358 22.7534 26.6412 -0.4409 5.2675
# 5 6.8932 9.2641 10.6846 -0.4409 56.7034 4.6546
# 6 14.0163 5.0017 10.4386 5.2675 4.6546 29.3563
#
#
#
# Elastic Compliance Matrix: (Units=1/GPa)
#
#
# Indices 1 2 3 4 5 6 
#
# 1 0.007561 -0.003785 -0.003230 -0.003428 0.000385 -0.001263
# 2 -0.003785 0.021000 -0.002286 0.005770 -0.002362 -0.001619
# 3 -0.003230 -0.002286 0.010537 -0.006232 -0.001227 -0.000503
# 4 -0.003428 0.005770 -0.006232 0.047018 0.001490 -0.005803
# 5 0.000385 -0.002362 -0.001227 0.001490 0.018426 -0.002534
# 6 -0.001263 -0.001619 -0.000503 -0.005803 -0.002534 0.036565
#
#
# Mechanical properties :
#
#
# Convention : Reuss Voigt Hill
#
# Bulk Modulus (GPa) = 48.78492 78.92618 63.85555
# Shear Modulus (GPa) = 30.02309 39.19158 34.60734
#
# Velocity S-wave (km/s) = 3.58563 4.09670 3.84965
# Velocity P-wave (km/s) = 6.16712 7.49504 6.86327
#
# Compressibility (1/GPa) = 0.02049814
#
# Stress axis : x y z
#
# Youngs Moduli (GPa) = 132.25886 47.61922 94.90433
#
# Poissons Ratio (x) = 0.18022 0.30650
# Poissons Ratio (y) = 0.50056 0.21691
# Poissons Ratio (z) = 0.42714 0.10884
#
# Static dielectric constant tensor:
#      x y z
#    x 1.822920 0.011040 0.011240 
#    y 0.011040 1.990050 0.008830 
#    z 0.011240 0.008830 1.848390 
# 
# From -- ./inp_files/238323.got.cif
#   From: 2010.05.17/outbox.cif.g08.bks.cpg/sg2_120_cif.got.tgz:238323.got - 2010.06.03 11:33:40.
