data_PCOD9095554
_publ_section_title
;
Structure prediction by ZEFSAII (Michael W. Deem and Ramdas Pophale) SiO2 
 PCOD9095554
Probable space group: P -1
;
_chemical_formula_sum "Si O2"
_cell_formula_units_Z 16
_cell_length_a 18.379070
_cell_length_b 16.846920
_cell_length_c 7.481497
_cell_angle_alpha 137.719639
_cell_angle_beta 38.600974
_cell_angle_gamma 154.284159
_cell_volume 621.611461
_symmetry_space_group_name_H-M "P -1"
_symmetry_group_IT_number 2
_symmetry_cell_setting 'triclinic'
loop_
_space_group_symop_operation_xyz
x,y,z
-x,-y,-z
loop_
_atom_site_type_symbol
_atom_site_label
_atom_site_fract_x
_atom_site_fract_y
_atom_site_fract_z
Si Si1 0.261889 0.897708 0.914380
Si Si2 0.607311 0.057065 0.651723
Si Si3 0.768612 0.627201 0.104935
Si Si4 0.993618 0.397729 0.493710
Si Si5 0.961143 0.673259 0.367910
Si Si6 0.628913 0.762190 0.681145
Si Si7 0.284331 0.327832 0.119746
Si Si8 0.282064 0.082013 0.611751
O O1 0.321501 0.889062 0.599313
O O2 0.423514 0.987099 0.891098
O O3 0.074350 0.709656 0.047266
O O4 0.269699 0.044267 0.116635
O O5 0.786921 0.248248 0.717778
O O6 0.594859 0.914792 0.511929
O O7 0.738257 0.724862 0.437110
O O8 0.576837 0.408994 0.136962
O O9 0.770956 0.675981 0.979298
O O10 0.939165 0.670095 0.854014
O O11 0.103059 0.465552 0.583998
O O12 0.000000 0.500000 0.500000
O O13 0.806024 0.639532 0.536680
O O14 0.110724 0.878607 0.516959
O O15 0.618841 0.781854 0.520864
O O16 0.500000 0.500000 0.000000
O O17 0.222288 0.144585 0.956138
#
# Coordination Sequence:
#
# PCOD9095554 Si02
#       8
#     2   2   2   2   2   2   2   2
#     4  10  21  38  56  80 117 149 189 242 287 326
#     4  10  22  37  56  84 112 147 198 236 287 340
#     4   9  19  35  55  85 118 148 190 232 282 342
#     4  10  20  37  60  84 112 153 190 231 283 345
#     4   9  20  39  60  82 113 152 194 229 279 348
#     4   9  18  35  59  80 112 152 186 234 279 336
#     4  10  20  35  58  87 120 149 185 234 292 335
#     4   9  19  36  59  83 112 154 191 234 276 342
#
# _framework density 25.739552
#
# number of rings (size 3 to 8) (size 9 to 14) (size 15 to 20)
#    0.000    2.500    0.000    1.125    1.750    8.500 
#    9.000    1.875    0.000    0.000    0.000    0.000 
#    0.000    0.000    0.000    0.000    0.000    0.000 
#
# Total GULP energy -89328.640188 kJ/mol
# GULP energy per Si atom -5583.040012 kJ/mol
# Density = 2.568097 g / cm^3
# Si number density = 25.739552 Si / 1000 Ang^3
#
#
#
# Elastic Constant Matrix: (Units=GPa)
#
#
# Indices 1 2 3 4 5 6 
#
# 1 100.1086 20.3560 36.6543 -0.5687 -27.6256 -25.6734
# 2 20.3560 62.0063 26.4197 1.6269 -8.5002 -22.3085
# 3 36.6543 26.4197 110.2833 -18.6960 -23.6046 -11.1493
# 4 -0.5687 1.6269 -18.6960 43.1108 -7.1009 -1.2793
# 5 -27.6256 -8.5002 -23.6046 -7.1009 40.5982 1.4774
# 6 -25.6734 -22.3085 -11.1493 -1.2793 1.4774 44.2259
#
#
#
# Elastic Compliance Matrix: (Units=1/GPa)
#
#
# Indices 1 2 3 4 5 6 
#
# 1 0.015374 0.000019 -0.002185 0.000990 0.009073 0.008109
# 2 0.000019 0.021708 -0.004307 -0.002180 0.001317 0.009768
# 3 -0.002185 -0.004307 0.013441 0.007058 0.006664 -0.000071
# 4 0.000990 -0.002180 0.007058 0.027910 0.009139 0.001756
# 5 0.009073 0.001317 0.006664 0.009139 0.036312 0.006663
# 6 0.008109 0.009768 -0.000071 0.001756 0.006663 0.032057
#
#
# Mechanical properties :
#
#
# Convention : Reuss Voigt Hill
#
# Bulk Modulus (GPa) = 26.61080 48.80647 37.70864
# Shear Modulus (GPa) = 29.02358 38.18486 33.60422
#
# Velocity S-wave (km/s) = 3.36160 3.85581 3.61716
# Velocity P-wave (km/s) = 5.04262 6.23104 5.66807
#
# Compressibility (1/GPa) = 0.03757872
#
# Stress axis : x y z
#
# Youngs Moduli (GPa) = 65.04315 46.06492 74.39835
#
# Poissons Ratio (x) = -0.00088 0.16255
# Poissons Ratio (y) = -0.00124 0.32043
# Poissons Ratio (z) = 0.14211 0.19840
#
# Static dielectric constant tensor:
#      x y z
#    x 2.046820 0.027760 0.041310 
#    y 0.027760 2.073930 0.034540 
#    z 0.041310 0.034540 2.162360 
# 
# From -- ./inp_files/242928.got.cif
#   From: 2010.05.17/outbox.cif.g08.bks.cpg/sg2_122_cif.got.tgz:242928.got - 2010.06.03 11:33:40.
