data_PCOD9095107
_publ_section_title
;
Structure prediction by ZEFSAII (Michael W. Deem and Ramdas Pophale) SiO2 
 PCOD9095107
Probable space group: P -1
;
_chemical_formula_sum "Si O2"
_cell_formula_units_Z 16
_cell_length_a 11.892365
_cell_length_b 5.350677
_cell_length_c 16.467295
_cell_angle_alpha 113.639378
_cell_angle_beta 121.131446
_cell_angle_gamma 91.377800
_cell_volume 785.102302
_symmetry_space_group_name_H-M "P -1"
_symmetry_group_IT_number 2
_symmetry_cell_setting 'triclinic'
loop_
_space_group_symop_operation_xyz
x,y,z
-x,-y,-z
loop_
_atom_site_type_symbol
_atom_site_label
_atom_site_fract_x
_atom_site_fract_y
_atom_site_fract_z
Si Si1 0.785940 0.543943 0.463344
Si Si2 0.987908 0.637462 0.411761
Si Si3 0.415631 0.298010 0.872261
Si Si4 0.589882 0.803800 0.680386
Si Si5 0.616558 0.244112 0.530282
Si Si6 0.812125 0.027275 0.668578
Si Si7 0.908364 0.950108 0.268930
Si Si8 0.534506 0.307715 0.218100
O O1 0.904871 0.705094 0.465644
O O2 0.770355 0.734502 0.559603
O O3 0.659200 0.457316 0.344470
O O4 0.854969 0.310562 0.493946
O O5 0.952795 0.794972 0.342233
O O6 0.930737 0.291218 0.329733
O O7 0.252802 0.209400 0.820666
O O8 0.454830 0.476620 0.825251
O O9 0.450680 0.997535 0.843119
O O10 0.500000 0.500000 0.000000
O O11 0.597966 0.521034 0.601858
O O12 0.442161 0.823042 0.592272
O O13 0.720390 0.024172 0.714112
O O14 0.589962 0.769622 0.772519
O O15 0.500000 0.000000 0.500000
O O16 0.764205 0.230479 0.614024
O O17 0.972882 0.080368 0.753134
#
# Coordination Sequence:
#
# PCOD9095107 Si02
#       8
#     2   2   2   2   2   2   2   2
#     4  10  20  35  54  93 131 172 194 239 287 370
#     4  10  22  34  55  91 134 165 203 234 294 380
#     4  12  27  48  68  92 115 154 217 282 330 361
#     4  10  22  36  53  92 125 172 212 232 298 363
#     4   9  18  34  52  85 132 174 205 237 269 361
#     4  10  23  33  59  88 139 170 201 241 291 371
#     4  11  22  42  60  90 121 171 207 252 317 364
#     4  12  25  41  70  90 125 165 207 256 314 378
#
# _framework density 20.379511000000001
#
# number of rings (size 3 to 8) (size 9 to 14) (size 15 to 20)
#    0.000    1.500    2.500    2.625   10.500    5.500 
#    0.000    0.000    0.000    1.500    0.000    0.000 
#    0.000    0.000    0.000    0.000    0.000    0.000 
#
# Total GULP energy -89106.318146 kJ/mol
# GULP energy per Si atom -5569.144884 kJ/mol
# Density = 2.033313 g / cm^3
# Si number density = 20.379511 Si / 1000 Ang^3
#
#
#
# Elastic Constant Matrix: (Units=GPa)
#
#
# Indices 1 2 3 4 5 6 
#
# 1 107.9968 8.4277 26.3620 0.4171 -0.9209 8.2441
# 2 8.4277 83.2801 14.3162 -8.0848 2.7245 1.7441
# 3 26.3620 14.3162 59.1168 -3.2955 2.7543 7.9516
# 4 0.4171 -8.0848 -3.2955 14.6358 5.5973 -7.3891
# 5 -0.9209 2.7245 2.7543 5.5973 17.2767 -6.3482
# 6 8.2441 1.7441 7.9516 -7.3891 -6.3482 32.2159
#
#
#
# Elastic Compliance Matrix: (Units=1/GPa)
#
#
# Indices 1 2 3 4 5 6 
#
# 1 0.010605 -0.000627 -0.004580 -0.003346 0.001754 -0.001971
# 2 -0.000627 0.013500 -0.002452 0.009219 -0.004278 0.001306
# 3 -0.004580 -0.002452 0.020572 0.003555 -0.005795 -0.004099
# 4 -0.003346 0.009219 0.003555 0.092198 -0.026402 0.015424
# 5 0.001754 -0.004278 -0.005795 -0.026402 0.071527 0.009252
# 6 -0.001971 0.001306 -0.004099 0.015424 0.009252 0.037847
#
#
# Mechanical properties :
#
#
# Convention : Reuss Voigt Hill
#
# Bulk Modulus (GPa) = 34.06241 38.73395 36.39818
# Shear Modulus (GPa) = 18.42621 26.24487 22.33554
#
# Velocity S-wave (km/s) = 3.01018 3.59250 3.31415
# Velocity P-wave (km/s) = 5.36953 6.02126 5.70471
#
# Compressibility (1/GPa) = 0.02935788
#
# Stress axis : x y z
#
# Youngs Moduli (GPa) = 94.29645 74.07289 48.61076
#
# Poissons Ratio (x) = 0.04642 0.22266
# Poissons Ratio (y) = 0.05910 0.11921
# Poissons Ratio (z) = 0.43191 0.18165
#
# Static dielectric constant tensor:
#      x y z
#    x 1.958340 0.074840 0.017700 
#    y 0.074840 1.896370 -0.020880 
#    z 0.017700 -0.020880 1.685200 
# 
# From -- ./inp_files/510520.got.cif
#   From: 2010.05.17/outbox.cif.g08.bks.cpg/sg2_256_cif.got.tgz:510520.got - 2010.06.03 11:33:40.
