data_PCOD9095339
_publ_section_title
;
Structure prediction by ZEFSAII (Michael W. Deem and Ramdas Pophale) SiO2 
 PCOD9095339
Probable space group: P -1
;
_chemical_formula_sum "Si O2"
_cell_formula_units_Z 16
_cell_length_a 11.987581
_cell_length_b 19.029956
_cell_length_c 14.808839
_cell_angle_alpha 19.050477
_cell_angle_beta 44.063422
_cell_angle_gamma 41.438862
_cell_volume 728.986338
_symmetry_space_group_name_H-M "P -1"
_symmetry_group_IT_number 2
_symmetry_cell_setting 'triclinic'
loop_
_space_group_symop_operation_xyz
x,y,z
-x,-y,-z
loop_
_atom_site_type_symbol
_atom_site_label
_atom_site_fract_x
_atom_site_fract_y
_atom_site_fract_z
Si Si1 0.259623 0.491648 0.091018
Si Si2 0.908064 0.871757 0.052171
Si Si3 0.311493 0.956078 0.186764
Si Si4 0.604407 0.430945 0.893959
Si Si5 0.969891 0.018683 0.390390
Si Si6 0.389802 0.400970 0.616819
Si Si7 0.132151 0.604036 0.381222
Si Si8 0.200347 0.052296 0.582929
O O1 0.333148 0.459893 0.188255
O O2 0.212788 0.276628 0.347025
O O3 0.402184 0.531165 0.892456
O O4 0.100776 0.715070 0.913769
O O5 0.929308 0.617354 0.313060
O O6 0.969358 0.811413 0.193325
O O7 0.731540 0.000906 0.948599
O O8 0.043851 0.981593 0.800598
O O9 0.151937 0.903970 0.382055
O O10 0.475990 0.743100 0.360346
O O11 0.325282 0.188128 0.941947
O O12 0.722484 0.431525 0.738369
O O13 0.642169 0.166214 0.220814
O O14 0.836380 0.922568 0.533411
O O15 0.000000 0.000000 0.500000
O O16 0.500000 0.500000 0.500000
O O17 0.234207 0.593895 0.427348
#
# Coordination Sequence:
#
# PCOD9095339 Si02
#       8
#     2   2   2   2   2   2   2   2
#     4  10  20  35  57  81 115 158 188 232 298 340
#     4   8  16  34  57  80 108 146 182 242 289 325
#     4   9  20  39  57  78 116 150 188 238 289 341
#     4   9  19  35  55  83 116 151 188 237 292 344
#     4  10  22  37  55  84 116 153 197 237 284 342
#     4  10  21  38  59  82 113 154 187 232 295 350
#     4   9  17  34  59  84 114 146 192 240 290 340
#     4   9  18  36  56  80 115 150 193 239 286 343
#
# _framework density 21.948284999999998
#
# number of rings (size 3 to 8) (size 9 to 14) (size 15 to 20)
#    0.000    2.750    0.000    1.125    1.750    2.500 
#    2.250    8.750    0.000    0.000    0.000    0.000 
#    0.000    0.000    0.000    0.000    0.000    0.000 
#
# Total GULP energy -89071.885532 kJ/mol
# GULP energy per Si atom -5566.992846 kJ/mol
# Density = 2.189833 g / cm^3
# Si number density = 21.948285 Si / 1000 Ang^3
#
#
#
# Elastic Constant Matrix: (Units=GPa)
#
#
# Indices 1 2 3 4 5 6 
#
# 1 110.7466 -9.3315 37.3112 -10.4930 -2.2481 15.7003
# 2 -9.3315 27.5007 3.9483 4.4425 -3.4867 -4.8481
# 3 37.3112 3.9483 55.9930 -7.7270 -21.9908 21.6471
# 4 -10.4930 4.4425 -7.7270 27.2959 4.7760 -8.7641
# 5 -2.2481 -3.4867 -21.9908 4.7760 31.7138 -11.7609
# 6 15.7003 -4.8481 21.6471 -8.7641 -11.7609 37.4814
#
#
#
# Elastic Compliance Matrix: (Units=1/GPa)
#
#
# Indices 1 2 3 4 5 6 
#
# 1 0.013496 0.005059 -0.011847 0.002293 -0.006977 0.000190
# 2 0.005059 0.042016 -0.009305 -0.005312 0.002363 0.008189
# 3 -0.011847 -0.009305 0.039438 0.000511 0.020822 -0.012365
# 4 0.002293 -0.005312 0.000511 0.041290 -0.003876 0.006496
# 5 -0.006977 0.002363 0.020822 -0.003876 0.048346 0.005466
# 6 0.000190 0.008189 -0.012365 0.006496 0.005466 0.038035
#
#
# Mechanical properties :
#
#
# Convention : Reuss Voigt Hill
#
# Bulk Modulus (GPa) = 15.93238 28.67734 22.30486
# Shear Modulus (GPa) = 18.13378 30.11904 24.12641
#
# Velocity S-wave (km/s) = 2.87750 3.70844 3.31907
# Velocity P-wave (km/s) = 4.27958 5.60633 4.98727
#
# Compressibility (1/GPa) = 0.06276526
#
# Stress axis : x y z
#
# Youngs Moduli (GPa) = 74.09716 23.80026 25.35608
#
# Poissons Ratio (x) = -0.12040 0.30039
# Poissons Ratio (y) = -0.37485 0.23593
# Poissons Ratio (z) = 0.87782 0.22145
#
# Static dielectric constant tensor:
#      x y z
#    x 1.914840 0.019960 0.035200 
#    y 0.019960 1.839990 0.025750 
#    z 0.035200 0.025750 1.797990 
# 
# From -- ./inp_files/83057.got.cif
#   From: 2010.05.17/outbox.cif.g08.bks.cpg/sg2_42_cif.got.tgz:83057.got - 2010.06.03 11:33:40.
