data_PCOD9095422
_publ_section_title
;
Structure prediction by ZEFSAII (Michael W. Deem and Ramdas Pophale) SiO2 
 PCOD9095422
Probable space group: P -1
;
_chemical_formula_sum "Si O2"
_cell_formula_units_Z 14
_cell_length_a 12.294475
_cell_length_b 10.758347
_cell_length_c 7.861418
_cell_angle_alpha 142.590150
_cell_angle_beta 79.848045
_cell_angle_gamma 99.411207
_cell_volume 621.330045
_symmetry_space_group_name_H-M "P -1"
_symmetry_group_IT_number 2
_symmetry_cell_setting 'triclinic'
loop_
_space_group_symop_operation_xyz
x,y,z
-x,-y,-z
loop_
_atom_site_type_symbol
_atom_site_label
_atom_site_fract_x
_atom_site_fract_y
_atom_site_fract_z
Si Si1 0.392777 0.349681 0.838882
Si Si2 0.102312 0.148598 0.685420
Si Si3 0.538967 0.683816 0.575567
Si Si4 0.306960 0.932959 0.322547
Si Si5 0.342218 0.927579 0.922519
Si Si6 0.814738 0.428330 0.818779
Si Si7 0.111248 0.933904 0.804844
O O1 0.382767 0.370661 0.660028
O O2 0.386842 0.099157 0.583293
O O3 0.500000 0.500000 0.000000
O O4 0.289685 0.438591 0.065192
O O5 0.125749 0.089189 0.810658
O O6 0.202960 0.071903 0.463285
O O7 0.104183 0.392805 0.931920
O O8 0.000000 0.000000 0.500000
O O9 0.500000 0.500000 0.500000
O O10 0.427419 0.786036 0.647948
O O11 0.603800 0.846637 0.851878
O O12 0.251517 0.742758 0.233446
O O13 0.350715 0.869071 0.057370
O O14 0.219041 0.931461 0.891844
O O15 0.885831 0.294217 0.525521
O O16 0.000000 0.000000 0.000000
#
# Coordination Sequence:
#
# PCOD9095422 Si02
#       7
#     2   2   2   2   2   2   2
#     4  10  20  35  57  87 119 157 205 254 308 368
#     4  10  22  42  63  87 118 160 213 258 309 373
#     4  10  21  36  61  90 122 165 204 253 314 369
#     4   9  20  37  58  84 117 158 203 252 307 370
#     4  10  21  39  59  90 128 160 205 257 309 367
#     4  10  22  40  61  86 118 160 207 259 311 363
#     4  11  24  40  62  92 126 164 207 260 313 374
#
# _framework density 22.532309000000001
#
# number of rings (size 3 to 8) (size 9 to 14) (size 15 to 20)
#    0.000    2.000    0.000    2.571    0.000    8.000 
#    0.000    2.857    0.000    0.000    0.000    0.000 
#    0.000    0.000    0.000    0.000    0.000    0.000 
#
# Total GULP energy -77985.303724 kJ/mol
# GULP energy per Si atom -5570.378837 kJ/mol
# Density = 2.248102 g / cm^3
# Si number density = 22.532309 Si / 1000 Ang^3
#
#
#
# Elastic Constant Matrix: (Units=GPa)
#
#
# Indices 1 2 3 4 5 6 
#
# 1 134.0458 10.5876 62.7685 14.6148 2.8033 17.2385
# 2 10.5876 66.8968 44.9272 25.3763 17.4204 20.5695
# 3 62.7685 44.9272 147.8887 25.5228 5.2992 16.1564
# 4 14.6148 25.3763 25.5228 36.9234 21.4868 2.4089
# 5 2.8033 17.4204 5.2992 21.4868 47.5655 2.7895
# 6 17.2385 20.5695 16.1564 2.4089 2.7895 32.6004
#
#
#
# Elastic Compliance Matrix: (Units=1/GPa)
#
#
# Indices 1 2 3 4 5 6 
#
# 1 0.010385 0.004612 -0.004485 -0.003999 0.000352 -0.005913
# 2 0.004612 0.030463 -0.006572 -0.015553 -0.002672 -0.017025
# 3 -0.004485 -0.006572 0.010953 -0.002926 0.002710 0.001075
# 4 -0.003999 -0.015553 -0.002926 0.050724 -0.017307 0.011111
# 5 0.000352 -0.002672 0.002710 -0.017307 0.029562 -0.001093
# 6 -0.005913 -0.017025 0.001075 0.011111 -0.001093 0.043283
#
#
# Mechanical properties :
#
#
# Convention : Reuss Voigt Hill
#
# Bulk Modulus (GPa) = 25.70033 65.04420 45.37226
# Shear Modulus (GPa) = 24.84721 38.78773 31.81747
#
# Velocity S-wave (km/s) = 3.32435 4.15351 3.76184
# Velocity P-wave (km/s) = 5.11525 7.20638 6.24891
#
# Compressibility (1/GPa) = 0.03891000
#
# Stress axis : x y z
#
# Youngs Moduli (GPa) = 96.28970 32.82724 91.30326
#
# Poissons Ratio (x) = -0.15141 0.40954
# Poissons Ratio (y) = -0.44412 0.60005
# Poissons Ratio (z) = 0.43191 0.21574
#
# Static dielectric constant tensor:
#      x y z
#    x 1.892150 -0.013120 0.028950 
#    y -0.013120 1.847130 0.023330 
#    z 0.028950 0.023330 1.923790 
# 
# From -- ./inp_files/46364.got.cif
#   From: 2010.05.17/outbox.cif.g08.bks.cpg/sg2_24_cif.got.tgz:46364.got - 2010.06.03 11:33:40.
