data_PCOD9095728
_publ_section_title
;
Structure prediction by ZEFSAII (Michael W. Deem and Ramdas Pophale) SiO2 
 PCOD9095728
Probable space group: P -1
;
_chemical_formula_sum "Si O2"
_cell_formula_units_Z 14
_cell_length_a 12.455604
_cell_length_b 17.285749
_cell_length_c 11.300795
_cell_angle_alpha 30.151344
_cell_angle_beta 32.825998
_cell_angle_gamma 31.515622
_cell_volume 587.459236
_symmetry_space_group_name_H-M "P -1"
_symmetry_group_IT_number 2
_symmetry_cell_setting 'triclinic'
loop_
_space_group_symop_operation_xyz
x,y,z
-x,-y,-z
loop_
_atom_site_type_symbol
_atom_site_label
_atom_site_fract_x
_atom_site_fract_y
_atom_site_fract_z
Si Si1 0.048804 0.205520 0.674934
Si Si2 0.981515 0.663230 0.872584
Si Si3 0.722642 0.105681 0.978929
Si Si4 0.423602 0.482160 0.854191
Si Si5 0.178069 0.423409 0.649583
Si Si6 0.011399 0.980738 0.372402
Si Si7 0.860801 0.336766 0.921080
O O1 0.947393 0.115096 0.801468
O O2 0.024443 0.378579 0.404643
O O3 0.872235 0.298214 0.823902
O O4 0.259881 0.058609 0.743861
O O5 0.216866 0.600951 0.804477
O O6 0.932069 0.834178 0.620069
O O7 0.000000 0.500000 0.000000
O O8 0.808364 0.695656 0.095100
O O9 0.529629 0.288586 0.958438
O O10 0.759391 0.080264 0.837114
O O11 0.599602 0.558141 0.585572
O O12 0.335722 0.501668 0.044892
O O13 0.086579 0.353152 0.719758
O O14 0.000000 0.000000 0.500000
O O15 0.866785 0.170365 0.200985
#
# Coordination Sequence:
#
# PCOD9095728 Si02
#       7
#     2   2   2   2   2   2   2
#     4   9  18  37  59  87 122 162 200 250 305 363
#     4  11  23  40  62  88 125 162 201 254 307 360
#     4   9  20  34  61  88 119 163 205 247 306 358
#     4  10  21  39  60  94 120 158 211 250 301 364
#     4  10  20  35  59  90 118 160 202 247 304 360
#     4  11  20  41  62  85 125 163 198 252 308 360
#     4  10  21  39  61  86 125 160 202 252 309 356
#
# _framework density 23.831441999999999
#
# number of rings (size 3 to 8) (size 9 to 14) (size 15 to 20)
#    0.000    2.000    2.857    2.143    0.000    4.571 
#    0.000    8.571    0.000    0.000    0.000    0.000 
#    0.000    0.000    0.000    0.000    0.000    0.000 
#
# Total GULP energy -78053.593966 kJ/mol
# GULP energy per Si atom -5575.256712 kJ/mol
# Density = 2.377720 g / cm^3
# Si number density = 23.831442 Si / 1000 Ang^3
#
#
#
# Elastic Constant Matrix: (Units=GPa)
#
#
# Indices 1 2 3 4 5 6 
#
# 1 77.9831 8.8021 31.7462 11.8894 1.6296 20.0841
# 2 8.8021 114.4818 18.6376 7.6598 2.9780 17.9493
# 3 31.7462 18.6376 82.7470 -9.5590 2.0711 -5.4381
# 4 11.8894 7.6598 -9.5590 48.2735 6.4207 2.0015
# 5 1.6296 2.9780 2.0711 6.4207 42.3123 4.1661
# 6 20.0841 17.9493 -5.4381 2.0015 4.1661 31.1500
#
#
#
# Elastic Compliance Matrix: (Units=1/GPa)
#
#
# Indices 1 2 3 4 5 6 
#
# 1 0.023508 0.003667 -0.012133 -0.008322 0.002584 -0.019199
# 2 0.003667 0.010925 -0.004888 -0.003316 0.000758 -0.009401
# 3 -0.012133 -0.004888 0.019683 0.007436 -0.002654 0.013952
# 4 -0.008322 -0.003316 0.007436 0.025029 -0.004351 0.007548
# 5 0.002584 0.000758 -0.002654 -0.004351 0.024823 -0.005606
# 6 -0.019199 -0.009401 0.013952 0.007548 -0.005606 0.052599
#
#
# Mechanical properties :
#
#
# Convention : Reuss Voigt Hill
#
# Bulk Modulus (GPa) = 36.48279 43.73151 40.10715
# Shear Modulus (GPa) = 25.98633 38.74890 32.36761
#
# Velocity S-wave (km/s) = 3.30574 4.03669 3.68936
# Velocity P-wave (km/s) = 5.46923 6.33377 5.91731
#
# Compressibility (1/GPa) = 0.02741018
#
# Stress axis : x y z
#
# Youngs Moduli (GPa) = 42.53923 91.53447 50.80538
#
# Poissons Ratio (x) = -0.33570 0.61640
# Poissons Ratio (y) = -0.15601 0.24831
# Poissons Ratio (z) = 0.51611 0.44738
#
# Static dielectric constant tensor:
#      x y z
#    x 1.952600 0.009700 0.003640 
#    y 0.009700 1.945430 -0.010880 
#    z 0.003640 -0.010880 1.964720 
# 
# From -- ./inp_files/456602.got.cif
#   From: 2010.05.17/outbox.cif.g08.bks.cpg/sg2_229_cif.got.tgz:456602.got - 2010.06.03 11:33:40.
