data_PCOD9095846
_publ_section_title
;
Structure prediction by ZEFSAII (Michael W. Deem and Ramdas Pophale) SiO2 
 PCOD9095846
Probable space group: P -1
;
_chemical_formula_sum "Si O2"
_cell_formula_units_Z 14
_cell_length_a 16.394206
_cell_length_b 9.445147
_cell_length_c 20.524875
_cell_angle_alpha 30.138680
_cell_angle_beta 155.474112
_cell_angle_gamma 145.609037
_cell_volume 651.052506
_symmetry_space_group_name_H-M "P -1"
_symmetry_group_IT_number 2
_symmetry_cell_setting 'triclinic'
loop_
_space_group_symop_operation_xyz
x,y,z
-x,-y,-z
loop_
_atom_site_type_symbol
_atom_site_label
_atom_site_fract_x
_atom_site_fract_y
_atom_site_fract_z
Si Si1 0.596827 0.465957 0.859882
Si Si2 0.443282 0.599118 0.825117
Si Si3 0.736460 0.895282 0.021385
Si Si4 0.859800 0.728716 0.829098
Si Si5 0.816163 0.032474 0.430319
Si Si6 0.522271 0.437182 0.616885
Si Si7 0.750426 0.013898 0.243499
O O1 0.489817 0.632067 0.769864
O O2 0.758820 0.645909 0.858630
O O3 0.427854 0.259971 0.777664
O O4 0.696841 0.251650 0.061976
O O5 0.646596 0.692322 0.977280
O O6 0.296720 0.798493 0.667968
O O7 0.348106 0.273938 0.907260
O O8 0.636639 0.174396 0.823608
O O9 0.974941 0.982497 0.163226
O O10 0.668599 0.699256 0.653809
O O11 0.000000 0.500000 0.000000
O O12 0.794106 0.133749 0.300169
O O13 0.707108 0.698450 0.478838
O O14 0.045817 0.070828 0.599417
O O15 0.500000 0.500000 0.500000
#
# Coordination Sequence:
#
# PCOD9095846 Si02
#       7
#     2   2   2   2   2   2   2
#     4  11  22  37  64  96 123 157 216 253 299 368
#     4  10  21  39  67  92 123 165 204 254 304 370
#     4   9  20  38  63  87 123 166 203 241 310 370
#     4  10  22  37  59  92 122 161 204 260 303 363
#     4  10  21  41  61  92 127 160 204 254 313 354
#     4  10  20  35  60  89 119 158 203 252 306 362
#     4  10  22  36  64  94 121 161 210 260 293 363
#
# _framework density 21.503644000000001
#
# number of rings (size 3 to 8) (size 9 to 14) (size 15 to 20)
#    0.000    2.000    1.429    2.571   10.000    1.143 
#    0.000    1.429    3.143    6.857    0.000    0.000 
#    0.000    0.000    0.000    0.000    0.000    0.000 
#
# Total GULP energy -78088.154354 kJ/mol
# GULP energy per Si atom -5577.725311 kJ/mol
# Density = 2.145470 g / cm^3
# Si number density = 21.503644 Si / 1000 Ang^3
#
#
#
# Elastic Constant Matrix: (Units=GPa)
#
#
# Indices 1 2 3 4 5 6 
#
# 1 144.9298 35.1112 30.8750 3.5926 2.3834 3.2864
# 2 35.1112 90.5281 25.4422 20.6969 10.5549 29.7822
# 3 30.8750 25.4422 50.3974 14.8145 10.0898 4.7068
# 4 3.5926 20.6969 14.8145 15.5415 1.9912 10.6041
# 5 2.3834 10.5549 10.0898 1.9912 31.8579 -2.3041
# 6 3.2864 29.7822 4.7068 10.6041 -2.3041 40.0364
#
#
#
# Elastic Compliance Matrix: (Units=1/GPa)
#
#
# Indices 1 2 3 4 5 6 
#
# 1 0.009059 -0.004314 -0.006554 0.008908 0.002344 0.001012
# 2 -0.004314 0.021491 -0.000323 -0.019067 -0.006292 -0.010907
# 3 -0.006554 -0.000323 0.035167 -0.034106 -0.008032 0.005215
# 4 0.008908 -0.019067 -0.034106 0.130711 0.007071 -0.016752
# 5 0.002344 -0.006292 -0.008032 0.007071 0.035807 0.005620
# 6 0.001012 -0.010907 0.005215 -0.016752 0.005620 0.037155
#
#
# Mechanical properties :
#
#
# Convention : Reuss Voigt Hill
#
# Bulk Modulus (GPa) = 23.07653 52.07914 37.57783
# Shear Modulus (GPa) = 16.32819 30.44894 23.38857
#
# Velocity S-wave (km/s) = 2.75857 3.76705 3.30154
# Velocity P-wave (km/s) = 4.57176 6.57208 5.66097
#
# Compressibility (1/GPa) = 0.04333408
#
# Stress axis : x y z
#
# Youngs Moduli (GPa) = 110.38693 46.53028 28.43545
#
# Poissons Ratio (x) = 0.20074 0.18637
# Poissons Ratio (y) = 0.47624 0.00919
# Poissons Ratio (z) = 0.72350 0.01505
#
# Static dielectric constant tensor:
#      x y z
#    x 1.806160 -0.015670 0.006640 
#    y -0.015670 1.866730 -0.017540 
#    z 0.006640 -0.017540 1.791590 
# 
# From -- ./inp_files/572830.got.cif
#   From: 2010.05.17/outbox.cif.g08.bks.cpg/sg2_287_cif.got.tgz:572830.got - 2010.06.03 11:33:40.
