data_PCOD9095159
_publ_section_title
;
Structure prediction by ZEFSAII (Michael W. Deem and Ramdas Pophale) SiO2 
 PCOD9095159
Probable space group: P -1
;
_chemical_formula_sum "Si O2"
_cell_formula_units_Z 16
_cell_length_a 13.335937
_cell_length_b 8.776919
_cell_length_c 19.477239
_cell_angle_alpha 37.845394
_cell_angle_beta 38.171754
_cell_angle_gamma 33.880537
_cell_volume 720.672717
_symmetry_space_group_name_H-M "P -1"
_symmetry_group_IT_number 2
_symmetry_cell_setting 'triclinic'
loop_
_space_group_symop_operation_xyz
x,y,z
-x,-y,-z
loop_
_atom_site_type_symbol
_atom_site_label
_atom_site_fract_x
_atom_site_fract_y
_atom_site_fract_z
Si Si1 0.092359 0.970837 0.127598
Si Si2 0.187762 0.700865 0.716509
Si Si3 0.747325 0.702180 0.701067
Si Si4 0.409052 0.301471 0.623967
Si Si5 0.035875 0.702070 0.461530
Si Si6 0.486016 0.296231 0.377736
Si Si7 0.592363 0.158115 0.091511
Si Si8 0.751801 0.018742 0.209719
O O1 0.196835 0.632613 0.221776
O O2 0.247971 0.017962 0.990714
O O3 0.961139 0.207143 0.172952
O O4 0.951227 0.972900 0.144130
O O5 0.286105 0.401106 0.726120
O O6 0.376563 0.679341 0.651817
O O7 0.072600 0.971535 0.628551
O O8 0.607534 0.833128 0.796235
O O9 0.937378 0.702063 0.585965
O O10 0.596812 0.963391 0.637262
O O11 0.500000 0.500000 0.500000
O O12 0.258980 0.272687 0.668119
O O13 0.262285 0.557496 0.401222
O O14 0.000000 0.500000 0.500000
O O15 0.589016 0.261156 0.262236
O O16 0.500000 0.000000 0.500000
O O17 0.693154 0.110364 0.129439
O O18 0.500000 0.500000 0.000000
#
# Coordination Sequence:
#
# PCOD9095159 Si02
#       8
#     2   2   2   2   2   2   2   2
#     4  10  20  38  61  86 109 148 207 246 283 342
#     4  11  23  36  56  88 118 153 197 238 290 351
#     4  10  20  35  55  83 115 154 191 235 292 350
#     4  11  21  37  54  81 126 159 183 236 300 354
#     4  12  18  33  58  81 118 153 193 236 293 342
#     4  11  21  34  57  88 116 154 195 241 287 347
#     4   9  19  34  60  86 109 148 199 247 286 335
#     4  10  21  37  58  85 120 151 194 244 294 346
#
# _framework density 22.201477000000001
#
# number of rings (size 3 to 8) (size 9 to 14) (size 15 to 20)
#    0.000    1.500    3.750    3.375    1.750    0.000 
#    2.250    3.750    0.000    0.000    0.000   14.000 
#    0.000    0.000    0.000    0.000    0.000    0.000 
#
# Total GULP energy -89092.614436 kJ/mol
# GULP energy per Si atom -5568.288402 kJ/mol
# Density = 2.215095 g / cm^3
# Si number density = 22.201477 Si / 1000 Ang^3
#
#
#
# Elastic Constant Matrix: (Units=GPa)
#
#
# Indices 1 2 3 4 5 6 
#
# 1 70.9625 46.3978 26.8859 10.4900 9.9530 -17.8008
# 2 46.3978 118.1309 25.5768 28.9159 4.4941 -14.9099
# 3 26.8859 25.5768 102.7268 42.5323 4.9347 -6.4404
# 4 10.4900 28.9159 42.5323 51.5173 -11.4249 2.4989
# 5 9.9530 4.4941 4.9347 -11.4249 27.8637 1.8668
# 6 -17.8008 -14.9099 -6.4404 2.4989 1.8668 32.7245
#
#
#
# Elastic Compliance Matrix: (Units=1/GPa)
#
#
# Indices 1 2 3 4 5 6 
#
# 1 0.023263 -0.006935 -0.003392 -0.000101 -0.007251 0.009248
# 2 -0.006935 0.013667 0.003020 -0.009976 -0.004626 0.004075
# 3 -0.003392 0.003020 0.018557 -0.018949 -0.010683 0.005240
# 4 -0.000101 -0.009976 -0.018949 0.046894 0.025123 -0.013343
# 5 -0.007251 -0.004626 -0.010683 0.025123 0.052293 -0.013056
# 6 0.009248 0.004075 0.005240 -0.013343 -0.013056 0.040240
#
#
# Mechanical properties :
#
#
# Convention : Reuss Voigt Hill
#
# Bulk Modulus (GPa) = 24.46485 54.39347 39.42916
# Shear Modulus (GPa) = 22.40622 35.28509 28.84565
#
# Velocity S-wave (km/s) = 3.18027 3.99094 3.60845
# Velocity P-wave (km/s) = 4.95267 6.76683 5.92954
#
# Compressibility (1/GPa) = 0.04087497
#
# Stress axis : x y z
#
# Youngs Moduli (GPa) = 42.98639 73.16765 53.88709
#
# Poissons Ratio (x) = 0.50740 0.18278
# Poissons Ratio (y) = 0.29810 -0.16275
# Poissons Ratio (z) = 0.14581 -0.22099
#
# Static dielectric constant tensor:
#      x y z
#    x 1.808470 -0.007950 0.055700 
#    y -0.007950 1.837670 0.010750 
#    z 0.055700 0.010750 1.964380 
# 
# From -- ./inp_files/597309.got.cif
#   From: 2010.05.17/outbox.cif.g08.bks.cpg/sg2_299_cif.got.tgz:597309.got - 2010.06.03 11:33:40.
