data_PCOD9095227
_publ_section_title
;
Structure prediction by ZEFSAII (Michael W. Deem and Ramdas Pophale) SiO2 
 PCOD9095227
Probable space group: P -1
;
_chemical_formula_sum "Si O2"
_cell_formula_units_Z 16
_cell_length_a 13.595178
_cell_length_b 7.701475
_cell_length_c 8.370437
_cell_angle_alpha 90.000038
_cell_angle_beta 107.929481
_cell_angle_gamma 57.439618
_cell_volume 687.623588
_symmetry_space_group_name_H-M "P -1"
_symmetry_group_IT_number 2
_symmetry_cell_setting 'triclinic'
loop_
_space_group_symop_operation_xyz
x,y,z
-x,-y,-z
loop_
_atom_site_type_symbol
_atom_site_label
_atom_site_fract_x
_atom_site_fract_y
_atom_site_fract_z
Si Si1 0.121600 0.757208 0.244699
Si Si2 0.368084 0.780283 0.009282
Si Si3 0.635111 0.084386 0.326941
Si Si4 0.878401 0.742792 0.623099
Si Si5 0.364889 0.415614 0.191829
Si Si6 0.878496 0.379284 0.431421
Si Si7 0.368084 0.280283 0.858801
Si Si8 0.878496 0.879283 0.947074
O O1 0.249343 0.541065 0.253208
O O2 0.117081 0.772208 0.432926
O O3 0.120165 0.944040 0.156656
O O4 0.998066 0.775448 0.120983
O O5 0.370486 0.592583 0.097447
O O6 0.500000 0.750000 0.104935
O O7 0.248990 0.995611 0.018009
O O8 0.349818 0.791421 0.808720
O O9 0.500000 0.250000 0.337932
O O10 0.750658 0.958936 0.503866
O O11 0.629515 0.907416 0.226962
O O12 0.879835 0.555960 0.536491
O O13 0.882919 0.727791 0.815845
O O14 0.001934 0.724552 0.622918
O O15 0.349818 0.291421 0.041098
O O16 0.751010 0.504389 0.269018
#
# Coordination Sequence:
#
# PCOD9095227 Si02
#       8
#     2   2   2   2   2   2   2   2
#     4  10  22  38  56  80 108 140 179 221 266 316
#     4  10  20  35  56  81 109 141 178 218 263 316
#     4  10  20  35  56  81 109 141 178 218 263 316
#     4  10  22  38  56  80 108 140 179 221 266 316
#     4  10  20  35  56  81 109 141 178 218 263 316
#     4  10  22  38  56  80 108 140 179 221 266 316
#     4  10  20  35  56  81 109 141 178 218 263 316
#     4  10  22  38  56  80 108 140 179 221 266 316
#
# _framework density 23.268543000000001
#
# number of rings (size 3 to 8) (size 9 to 14) (size 15 to 20)
#    0.000    2.000    0.000    4.500    0.000    6.000 
#    0.000    5.000    0.000    0.000    0.000    0.000 
#    0.000    0.000    0.000    0.000    0.000    0.000 
#
# Total GULP energy -89549.250629 kJ/mol
# GULP energy per Si atom -5596.828164 kJ/mol
# Density = 2.321558 g / cm^3
# Si number density = 23.268543 Si / 1000 Ang^3
#
#
#
# Elastic Constant Matrix: (Units=GPa)
#
#
# Indices 1 2 3 4 5 6 
#
# 1 86.1883 35.7680 17.7381 -9.1254 10.2167 -19.7362
# 2 35.7680 91.7592 8.4961 -10.2226 15.0444 -25.4987
# 3 17.7381 8.4961 70.6966 -23.1665 18.7893 -17.9753
# 4 -9.1254 -10.2226 -23.1665 39.7008 -4.7516 1.0091
# 5 10.2167 15.0444 18.7893 -4.7516 28.0785 -2.1704
# 6 -19.7362 -25.4987 -17.9753 1.0091 -2.1704 45.5585
#
#
#
# Elastic Compliance Matrix: (Units=1/GPa)
#
#
# Indices 1 2 3 4 5 6 
#
# 1 0.014771 -0.004332 -0.001592 0.001082 -0.001554 0.003248
# 2 -0.004332 0.016773 0.005682 0.005255 -0.009614 0.009178
# 3 -0.001592 0.005682 0.025693 0.013831 -0.016426 0.011539
# 4 0.001082 0.005255 0.013831 0.033930 -0.006118 0.007824
# 5 -0.001554 -0.009614 -0.016426 -0.006118 0.050515 -0.009993
# 6 0.003248 0.009178 0.011539 0.007824 -0.009993 0.032397
#
#
# Mechanical properties :
#
#
# Convention : Reuss Voigt Hill
#
# Bulk Modulus (GPa) = 17.62056 41.40539 29.51298
# Shear Modulus (GPa) = 25.84235 35.11033 30.47634
#
# Velocity S-wave (km/s) = 3.33620 3.88869 3.62299
# Velocity P-wave (km/s) = 4.73597 6.16407 5.49660
#
# Compressibility (1/GPa) = 0.05675189
#
# Stress axis : x y z
#
# Youngs Moduli (GPa) = 67.70239 59.61954 38.92080
#
# Poissons Ratio (x) = 0.25830 0.06197
# Poissons Ratio (y) = 0.29332 -0.22115
# Poissons Ratio (z) = 0.10779 -0.33877
#
# Static dielectric constant tensor:
#      x y z
#    x 1.860650 0.054240 -0.002550 
#    y 0.054240 1.912670 -0.007770 
#    z -0.002550 -0.007770 1.823610 
# 
# From -- ./inp_files/253637.got.cif
#   From: 2010.05.17/outbox.cif.g08.bks.cpg/sg2_127_cif.got.tgz:253637.got - 2010.06.03 11:33:40.
