data_PCOD9095229
_publ_section_title
;
Structure prediction by ZEFSAII (Michael W. Deem and Ramdas Pophale) SiO2 
 PCOD9095229
Probable space group: P -1
;
_chemical_formula_sum "Si O2"
_cell_formula_units_Z 10
_cell_length_a 10.354549
_cell_length_b 13.881203
_cell_length_c 8.079046
_cell_angle_alpha 145.548593
_cell_angle_beta 111.929177
_cell_angle_gamma 45.358553
_cell_volume 401.580340
_symmetry_space_group_name_H-M "P -1"
_symmetry_group_IT_number 2
_symmetry_cell_setting 'triclinic'
loop_
_space_group_symop_operation_xyz
x,y,z
-x,-y,-z
loop_
_atom_site_type_symbol
_atom_site_label
_atom_site_fract_x
_atom_site_fract_y
_atom_site_fract_z
Si Si1 0.149775 0.652076 0.275502
Si Si2 0.162043 0.082056 0.218265
Si Si3 0.580325 0.851040 0.498957
Si Si4 0.608480 0.269713 0.596165
Si Si5 0.282957 0.577466 0.580286
O O1 0.180054 0.821711 0.478666
O O2 0.310059 0.485326 0.274519
O O3 0.930218 0.814285 0.490521
O O4 0.229361 0.454194 0.891488
O O5 0.319814 0.087807 0.262612
O O6 0.949855 0.280640 0.287435
O O7 0.250594 0.810138 0.873175
O O8 0.396159 0.910931 0.580716
O O9 0.500000 0.000000 0.500000
O O10 0.454420 0.391512 0.537703
O O11 0.500000 0.500000 0.000000
#
# Coordination Sequence:
#
# PCOD9095229 Si02
#       5
#     2   2   2   2   2
#     4   9  19  37  59  80 106 145 181 218 271 322
#     4   9  19  36  61  79 110 139 181 223 272 315
#     4  11  22  37  54  81 114 144 179 225 268 315
#     4  10  20  35  56  81 110 145 179 219 271 324
#     4   9  19  37  61  78 109 143 181 219 272 324
#
# _framework density 24.901615
#
# number of rings (size 3 to 8) (size 9 to 14) (size 15 to 20)
#    1.200    1.200    0.000    3.600    0.000    0.800 
#    0.000   15.000    0.000    0.000    0.000    0.000 
#    0.000    0.000    0.000    0.000    0.000    0.000 
#
# Total GULP energy -55820.187774 kJ/mol
# GULP energy per Si atom -5582.018777 kJ/mol
# Density = 2.484494 g / cm^3
# Si number density = 24.901615 Si / 1000 Ang^3
#
#
#
# Elastic Constant Matrix: (Units=GPa)
#
#
# Indices 1 2 3 4 5 6 
#
# 1 111.6673 25.4646 9.4058 7.2277 36.5104 10.6473
# 2 25.4646 96.1937 -1.8336 -13.8345 17.9627 -5.0655
# 3 9.4058 -1.8336 93.9752 -12.7784 9.8342 -3.9366
# 4 7.2277 -13.8345 -12.7784 23.0108 0.6012 6.1029
# 5 36.5104 17.9627 9.8342 0.6012 44.7391 -5.9153
# 6 10.6473 -5.0655 -3.9366 6.1029 -5.9153 28.8443
#
#
#
# Elastic Compliance Matrix: (Units=1/GPa)
#
#
# Indices 1 2 3 4 5 6 
#
# 1 0.014361 -0.002782 -0.001255 -0.004657 -0.011227 -0.007278
# 2 -0.002782 0.013344 0.002321 0.010064 -0.003625 0.000814
# 3 -0.001255 0.002321 0.012275 0.008633 -0.002700 0.000166
# 4 -0.004657 0.010064 0.008633 0.058114 -0.004037 -0.008459
# 5 -0.011227 -0.003625 -0.002700 -0.004037 0.035096 0.011191
# 6 -0.007278 0.000814 0.000166 -0.008459 0.011191 0.041606
#
#
# Mechanical properties :
#
#
# Convention : Reuss Voigt Hill
#
# Bulk Modulus (GPa) = 27.36196 40.87884 34.12040
# Shear Modulus (GPa) = 26.25884 37.23881 31.74882
#
# Velocity S-wave (km/s) = 3.25083 3.87128 3.57455
# Velocity P-wave (km/s) = 5.01023 6.03608 5.54692
#
# Compressibility (1/GPa) = 0.03654708
#
# Stress axis : x y z
#
# Youngs Moduli (GPa) = 69.63112 74.94271 81.46422
#
# Poissons Ratio (x) = 0.20851 0.10223
# Poissons Ratio (y) = 0.19373 -0.18905
# Poissons Ratio (z) = 0.08738 -0.17392
#
# Static dielectric constant tensor:
#      x y z
#    x 2.042780 0.001220 -0.056780 
#    y 0.001220 1.967990 0.011040 
#    z -0.056780 0.011040 2.005080 
# 
# From -- ./inp_files/144786.got.cif
#   From: 2010.05.17/outbox.cif.g08.bks.cpg/sg2_73_cif.got.tgz:144786.got - 2010.06.03 11:33:40.
