data_PCOD9095944
_publ_section_title
;
Structure prediction by ZEFSAII (Michael W. Deem and Ramdas Pophale) SiO2 
 PCOD9095944
Probable space group: P -1
;
_chemical_formula_sum "Si O2"
_cell_formula_units_Z 16
_cell_length_a 9.203460
_cell_length_b 7.653503
_cell_length_c 10.389757
_cell_angle_alpha 91.741517
_cell_angle_beta 85.773072
_cell_angle_gamma 88.146391
_cell_volume 729.074065
_symmetry_space_group_name_H-M "P -1"
_symmetry_group_IT_number 2
_symmetry_cell_setting 'triclinic'
loop_
_space_group_symop_operation_xyz
x,y,z
-x,-y,-z
loop_
_atom_site_type_symbol
_atom_site_label
_atom_site_fract_x
_atom_site_fract_y
_atom_site_fract_z
Si Si1 0.164129 0.016320 0.436397
Si Si2 0.242249 0.467169 0.233125
Si Si3 0.780041 0.038179 0.098793
Si Si4 0.420214 0.226670 0.360835
Si Si5 0.634633 0.320319 0.553051
Si Si6 0.553277 0.863582 0.243868
Si Si7 0.902708 0.862116 0.835643
Si Si8 0.400340 0.678650 0.027107
O O1 0.260072 0.850498 0.473652
O O2 0.273013 0.180235 0.450981
O O3 0.144915 0.024574 0.283154
O O4 0.000000 0.000000 0.500000
O O5 0.373729 0.321538 0.234259
O O6 0.260026 0.548189 0.376869
O O7 0.112495 0.342153 0.204400
O O8 0.270657 0.610702 0.127400
O O9 0.932959 0.104658 0.137033
O O10 0.718221 0.908234 0.206931
O O11 0.673057 0.206444 0.079591
O O12 0.805891 0.927771 0.963790
O O13 0.540256 0.335720 0.429868
O O14 0.486443 0.038186 0.316547
O O15 0.506607 0.285110 0.664287
O O16 0.489510 0.815070 0.108389
O O17 0.500000 0.500000 0.000000
#
# Coordination Sequence:
#
# PCOD9095944 Si02
#       8
#     2   2   2   2   2   2   2   2
#     4  10  21  38  61  86 119 158 198 246 292 351
#     4  10  20  38  57  83 124 151 191 244 299 348
#     4  11  22  38  62  87 120 157 203 241 289 366
#     4  10  20  37  61  89 116 156 203 243 291 351
#     4  10  21  36  63  89 115 156 198 248 297 346
#     4  10  20  35  61  86 115 150 200 250 285 343
#     4  10  23  39  59  87 120 163 195 238 302 360
#     4  11  21  35  57  87 116 153 193 246 303 341
#
# _framework density 21.945644999999999
#
# number of rings (size 3 to 8) (size 9 to 14) (size 15 to 20)
#    0.000    1.750    0.000    6.750    3.500    0.500 
#    0.000    3.750    2.750    0.000    0.000    0.000 
#    0.000    0.000    0.000    0.000    0.000    0.000 
#
# Total GULP energy -89143.166302 kJ/mol
# GULP energy per Si atom -5571.447894 kJ/mol
# Density = 2.189570 g / cm^3
# Si number density = 21.945645 Si / 1000 Ang^3
#
#
#
# Elastic Constant Matrix: (Units=GPa)
#
#
# Indices 1 2 3 4 5 6 
#
# 1 86.8059 25.2028 27.1043 2.2188 -8.9849 13.6643
# 2 25.2028 99.7396 13.8314 13.5254 -0.2632 23.3102
# 3 27.1043 13.8314 49.9865 2.2157 3.0991 13.3452
# 4 2.2188 13.5254 2.2157 33.8440 9.7326 4.1358
# 5 -8.9849 -0.2632 3.0991 9.7326 34.6411 -2.3744
# 6 13.6643 23.3102 13.3452 4.1358 -2.3744 24.3655
#
#
#
# Elastic Compliance Matrix: (Units=1/GPa)
#
#
# Indices 1 2 3 4 5 6 
#
# 1 0.015295 -0.002325 -0.007460 -0.000733 0.004707 -0.001684
# 2 -0.002325 0.013756 0.000749 -0.003895 -0.000268 -0.011631
# 3 -0.007460 0.000749 0.027428 0.001534 -0.005662 -0.012367
# 4 -0.000733 -0.003895 0.001534 0.034441 -0.010277 -0.003549
# 5 0.004707 -0.000268 -0.005662 -0.010277 0.033875 0.005763
# 6 -0.001684 -0.011631 -0.012367 -0.003549 0.005763 0.061051
#
#
# Mechanical properties :
#
#
# Convention : Reuss Voigt Hill
#
# Bulk Modulus (GPa) = 26.03683 40.97878 33.50780
# Shear Modulus (GPa) = 23.07117 29.92968 26.50043
#
# Velocity S-wave (km/s) = 3.24587 3.69699 3.47875
# Velocity P-wave (km/s) = 5.09290 6.07758 5.60690
#
# Compressibility (1/GPa) = 0.03840714
#
# Stress axis : x y z
#
# Youngs Moduli (GPa) = 65.37913 72.69777 36.45907
#
# Poissons Ratio (x) = 0.16901 0.27198
# Poissons Ratio (y) = 0.15200 -0.02731
# Poissons Ratio (z) = 0.48773 -0.05445
#
# Static dielectric constant tensor:
#      x y z
#    x 1.835150 0.012070 -0.028180 
#    y 0.012070 1.904210 0.005410 
#    z -0.028180 0.005410 1.857220 
# 
# From -- ./inp_files/376385.got.cif
#   From: 2010.05.17/outbox.cif.g08.bks.cpg/sg2_189_cif.got.tgz:376385.got - 2010.06.03 11:33:40.
