data_PCOD9095162
_publ_section_title
;
Structure prediction by ZEFSAII (Michael W. Deem and Ramdas Pophale) SiO2 
 PCOD9095162
Probable space group: P -1
;
_chemical_formula_sum "Si O2"
_cell_formula_units_Z 16
_cell_length_a 13.332739
_cell_length_b 16.723039
_cell_length_c 21.339631
_cell_angle_alpha 25.457309
_cell_angle_beta 18.993208
_cell_angle_gamma 34.563018
_cell_volume 649.865240
_symmetry_space_group_name_H-M "P -1"
_symmetry_group_IT_number 2
_symmetry_cell_setting 'triclinic'
loop_
_space_group_symop_operation_xyz
x,y,z
-x,-y,-z
loop_
_atom_site_type_symbol
_atom_site_label
_atom_site_fract_x
_atom_site_fract_y
_atom_site_fract_z
Si Si1 0.240585 0.346672 0.525470
Si Si2 0.752623 0.018158 0.053885
Si Si3 0.123315 0.594694 0.605669
Si Si4 0.894097 0.299603 0.137384
Si Si5 0.986107 0.928217 0.367036
Si Si6 0.243506 0.767576 0.212994
Si Si7 0.372524 0.636390 0.569833
Si Si8 0.743615 0.207732 0.144261
O O1 0.965363 0.207624 0.826124
O O2 0.566856 0.286607 0.374160
O O3 0.312809 0.570696 0.334003
O O4 0.096498 0.308234 0.567517
O O5 0.522694 0.855113 0.342864
O O6 0.011148 0.912158 0.944281
O O7 0.576289 0.109043 0.038006
O O8 0.270631 0.647750 0.549534
O O9 0.371847 0.498193 0.489064
O O10 0.039449 0.776371 0.493993
O O11 0.829214 0.419635 0.914831
O O12 0.819610 0.230729 0.157400
O O13 0.067495 0.152564 0.173439
O O14 0.085794 0.515079 0.864071
O O15 0.618145 0.879200 0.597461
O O16 0.198651 0.898112 0.203935
#
# Coordination Sequence:
#
# PCOD9095162 Si02
#       8
#     2   2   2   2   2   2   2   2
#     4   9  17  32  52  79 101 141 169 217 248 306
#     4   9  15  32  54  72 104 141 165 205 261 305
#     4   9  21  31  48  76 116 135 163 214 271 306
#     4  11  18  31  55  80 104 134 176 211 253 308
#     4  12  18  30  53  87 103 130 177 221 250 300
#     4   9  18  29  52  79 105 129 180 212 252 298
#     4   9  20  36  48  76 110 141 163 210 270 316
#     4  10  16  30  50  79 108 134 163 216 266 299
#
# _framework density 24.620488999999999
#
# number of rings (size 3 to 8) (size 9 to 14) (size 15 to 20)
#    0.750    1.500    3.750    1.500    0.000    0.500 
#    0.000    0.625    0.000    3.750   13.000    0.000 
#    0.000    0.000    0.000    0.000    0.000    0.000 
#
# Total GULP energy -89413.801096 kJ/mol
# GULP energy per Si atom -5588.362569 kJ/mol
# Density = 2.456445 g / cm^3
# Si number density = 24.620489 Si / 1000 Ang^3
#
#
#
# Elastic Constant Matrix: (Units=GPa)
#
#
# Indices 1 2 3 4 5 6 
#
# 1 81.8738 10.7202 25.0299 -18.4249 9.6878 -19.0309
# 2 10.7202 87.8249 44.5384 -43.7629 3.3134 -12.8681
# 3 25.0299 44.5384 180.3764 -42.3437 6.6709 -11.3398
# 4 -18.4249 -43.7629 -42.3437 44.6578 -6.3848 8.2929
# 5 9.6878 3.3134 6.6709 -6.3848 30.8618 -10.6926
# 6 -19.0309 -12.8681 -11.3398 8.2929 -10.6926 17.6689
#
#
#
# Elastic Compliance Matrix: (Units=1/GPa)
#
#
# Indices 1 2 3 4 5 6 
#
# 1 0.018128 0.005364 -0.000594 0.008741 0.002828 0.020660
# 2 0.005364 0.025300 -0.000462 0.024456 0.006409 0.016307
# 3 -0.000594 -0.000462 0.007197 0.005979 0.000262 0.000995
# 4 0.008741 0.024456 0.005979 0.054903 0.008263 0.010294
# 5 0.002828 0.006409 0.000262 0.008263 0.042851 0.029936
# 6 0.020660 0.016307 0.000995 0.010294 0.029936 0.104648
#
#
# Mechanical properties :
#
#
# Convention : Reuss Voigt Hill
#
# Bulk Modulus (GPa) = 16.88035 56.73914 36.80974
# Shear Modulus (GPa) = 18.92814 36.62348 27.77581
#
# Velocity S-wave (km/s) = 2.77573 3.86102 3.36245
# Velocity P-wave (km/s) = 4.14053 6.55532 5.48252
#
# Compressibility (1/GPa) = 0.05924049
#
# Stress axis : x y z
#
# Youngs Moduli (GPa) = 55.16445 39.52623 138.94938
#
# Poissons Ratio (x) = -0.21203 0.08252
# Poissons Ratio (y) = -0.29592 0.06422
# Poissons Ratio (z) = 0.03276 0.01827
#
# Static dielectric constant tensor:
#      x y z
#    x 1.996590 -0.002780 -0.041260 
#    y -0.002780 1.927500 -0.033600 
#    z -0.041260 -0.033600 1.959840 
# 
# From -- ./inp_files/612234.got.cif
#   From: 2010.05.17/outbox.cif.g08.bks.cpg/sg2_307_cif.got.tgz:612234.got - 2010.06.03 11:33:40.
