data_PCOD9095088
_publ_section_title
;
Structure prediction by ZEFSAII (Michael W. Deem and Ramdas Pophale) SiO2 
 PCOD9095088
Probable space group: P -1
;
_chemical_formula_sum "Si O2"
_cell_formula_units_Z 16
_cell_length_a 14.457864
_cell_length_b 24.070719
_cell_length_c 21.406648
_cell_angle_alpha 168.956768
_cell_angle_beta 33.755741
_cell_angle_gamma 146.194614
_cell_volume 785.093756
_symmetry_space_group_name_H-M "P -1"
_symmetry_group_IT_number 2
_symmetry_cell_setting 'triclinic'
loop_
_space_group_symop_operation_xyz
x,y,z
-x,-y,-z
loop_
_atom_site_type_symbol
_atom_site_label
_atom_site_fract_x
_atom_site_fract_y
_atom_site_fract_z
Si Si1 0.282292 0.507029 0.465203
Si Si2 0.357621 0.352362 0.870719
Si Si3 0.375171 0.321100 0.583402
Si Si4 0.924649 0.956588 0.839890
Si Si5 0.007669 0.218064 0.642167
Si Si6 0.895461 0.769264 0.849668
Si Si7 0.653627 0.001986 0.631734
Si Si8 0.874396 0.200256 0.559767
O O1 0.475589 0.643981 0.512146
O O2 0.205522 0.263301 0.288594
O O3 0.266344 0.356865 0.238861
O O4 0.165618 0.762429 0.814594
O O5 0.424972 0.163045 0.567700
O O6 0.226412 0.124162 0.731170
O O7 0.500000 0.500000 0.000000
O O8 0.258194 0.590831 0.156963
O O9 0.198397 0.159424 0.477487
O O10 0.417184 0.143918 0.425619
O O11 0.355625 0.652882 0.981173
O O12 0.986494 0.806481 0.578755
O O13 0.090603 0.071657 0.915931
O O14 0.854719 0.980073 0.489797
O O15 0.960091 0.281580 0.668014
O O16 0.000000 0.500000 0.000000
O O17 0.000000 0.500000 0.500000
O O18 0.000000 0.000000 0.000000
#
# Coordination Sequence:
#
# PCOD9095088 Si02
#       8
#     2   2   2   2   2   2   2   2
#     4  10  20  35  54  82 113 145 193 240 273 327
#     4  11  23  39  58  88 120 147 186 238 288 348
#     4  11  21  36  60  86 112 149 192 246 293 324
#     4  10  20  37  54  78 115 153 189 229 275 343
#     4   9  20  39  61  84 112 149 195 241 288 348
#     4   8  16  30  50  70  99 141 181 221 268 316
#     4  10  21  37  57  85 115 146 188 239 292 352
#     4  11  23  39  61  85 116 160 192 226 291 352
#
# _framework density 20.379731
#
# number of rings (size 3 to 8) (size 9 to 14) (size 15 to 20)
#    0.000    2.000    0.000    4.500    0.000    5.000 
#    0.000    3.750    0.000    0.000    0.000    0.000 
#    0.000    0.000    0.000    0.000    0.000    0.000 
#
# Total GULP energy -89277.797304 kJ/mol
# GULP energy per Si atom -5579.862332 kJ/mol
# Density = 2.033335 g / cm^3
# Si number density = 20.379731 Si / 1000 Ang^3
#
#
#
# Elastic Constant Matrix: (Units=GPa)
#
#
# Indices 1 2 3 4 5 6 
#
# 1 84.7981 24.3112 19.0118 2.1298 24.5721 -4.0523
# 2 24.3112 55.3560 -2.2732 5.5784 13.1781 -5.9572
# 3 19.0118 -2.2732 47.4788 12.1219 4.9523 -9.4024
# 4 2.1298 5.5784 12.1219 30.5234 -8.7952 -2.5682
# 5 24.5721 13.1781 4.9523 -8.7952 29.1371 5.1117
# 6 -4.0523 -5.9572 -9.4024 -2.5682 5.1117 31.5924
#
#
#
# Elastic Compliance Matrix: (Units=1/GPa)
#
#
# Indices 1 2 3 4 5 6 
#
# 1 0.018341 -0.004669 -0.005272 -0.002036 -0.013409 0.001907
# 2 -0.004669 0.025967 0.009209 -0.011494 -0.014319 0.008421
# 3 -0.005272 0.009209 0.031135 -0.016163 -0.011806 0.010923
# 4 -0.002036 -0.011494 -0.016163 0.048145 0.025503 -0.007452
# 5 -0.013409 -0.014319 -0.011806 0.025503 0.064674 -0.016325
# 6 0.001907 0.008421 0.010923 -0.007452 -0.016325 0.038772
#
#
# Mechanical properties :
#
#
# Convention : Reuss Voigt Hill
#
# Bulk Modulus (GPa) = 13.51735 29.97029 21.74382
# Shear Modulus (GPa) = 19.75061 28.02279 23.88670
#
# Velocity S-wave (km/s) = 3.11646 3.71217 3.42728
# Velocity P-wave (km/s) = 4.42684 5.75425 5.13363
#
# Compressibility (1/GPa) = 0.07397902
#
# Stress axis : x y z
#
# Youngs Moduli (GPa) = 54.52266 38.51076 32.11835
#
# Poissons Ratio (x) = 0.17980 0.16931
# Poissons Ratio (y) = 0.25456 -0.29576
# Poissons Ratio (z) = 0.28742 -0.35463
#
# Static dielectric constant tensor:
#      x y z
#    x 1.758290 0.041900 0.009630 
#    y 0.041900 1.758780 -0.017350 
#    z 0.009630 -0.017350 1.721660 
# 
# From -- ./inp_files/612445.got.cif
#   From: 2010.05.17/outbox.cif.g08.bks.cpg/sg2_307_cif.got.tgz:612445.got - 2010.06.03 11:33:40.
