data_PCOD9095141
_publ_section_title
;
Structure prediction by ZEFSAII (Michael W. Deem and Ramdas Pophale) SiO2 
 PCOD9095141
Probable space group: P -1
;
_chemical_formula_sum "Si O2"
_cell_formula_units_Z 16
_cell_length_a 14.339654
_cell_length_b 15.788132
_cell_length_c 14.597272
_cell_angle_alpha 40.297551
_cell_angle_beta 151.633526
_cell_angle_gamma 150.519813
_cell_volume 772.617763
_symmetry_space_group_name_H-M "P -1"
_symmetry_group_IT_number 2
_symmetry_cell_setting 'triclinic'
loop_
_space_group_symop_operation_xyz
x,y,z
-x,-y,-z
loop_
_atom_site_type_symbol
_atom_site_label
_atom_site_fract_x
_atom_site_fract_y
_atom_site_fract_z
Si Si1 0.376192 0.104095 0.703560
Si Si2 0.865724 0.731884 0.621155
Si Si3 0.085904 0.856353 0.116401
Si Si4 0.865647 0.392667 0.564436
Si Si5 0.026750 0.627302 0.991744
Si Si6 0.360497 0.954781 0.636405
Si Si7 0.983950 0.580410 0.693703
Si Si8 0.728120 0.933859 0.706971
O O1 0.326159 0.230477 0.586731
O O2 0.674447 0.199034 0.896202
O O3 0.326313 0.061233 0.587961
O O4 0.155564 0.918532 0.710778
O O5 0.841227 0.614562 0.615266
O O6 0.849479 0.662000 0.765631
O O7 0.987378 0.672467 0.216299
O O8 0.337745 0.939330 0.204773
O O9 0.189739 0.971530 0.203094
O O10 0.885789 0.867400 0.887041
O O11 0.575490 0.225779 0.426532
O O12 0.000000 0.500000 0.500000
O O13 0.853109 0.486894 0.561536
O O14 0.966412 0.532339 0.114292
O O15 0.000000 0.500000 0.000000
O O16 0.234046 0.772170 0.722395
O O17 0.229660 0.941271 0.439452
#
# Coordination Sequence:
#
# PCOD9095141 Si02
#       8
#     2   2   2   2   2   2   2   2
#     4  10  20  37  60  82 109 150 194 231 276 336
#     4   9  21  39  58  80 112 151 192 234 275 334
#     4  10  21  38  59  82 111 148 195 231 270 339
#     4  11  21  37  61  87 119 148 178 233 289 331
#     4  10  20  35  55  81 114 145 181 234 287 329
#     4  10  20  38  58  80 112 149 192 234 275 330
#     4  10  21  37  56  84 116 149 186 230 288 337
#     4  10  21  38  60  83 109 151 191 229 278 331
#
# _framework density 20.708817
#
# number of rings (size 3 to 8) (size 9 to 14) (size 15 to 20)
#    0.000    2.000    0.000    4.875    0.000    4.500 
#    0.000   12.500    0.000    0.000    0.000    0.000 
#    0.000    0.000    0.000    0.000    0.000    0.000 
#
# Total GULP energy -89264.345880 kJ/mol
# GULP energy per Si atom -5579.021618 kJ/mol
# Density = 2.066168 g / cm^3
# Si number density = 20.708817 Si / 1000 Ang^3
#
#
#
# Elastic Constant Matrix: (Units=GPa)
#
#
# Indices 1 2 3 4 5 6 
#
# 1 92.3278 27.9181 39.7531 -15.8890 -17.8158 2.3494
# 2 27.9181 49.8588 16.5414 -6.0027 -1.4748 -2.6163
# 3 39.7531 16.5414 89.3258 -21.3943 -3.0670 8.8746
# 4 -15.8890 -6.0027 -21.3943 28.2050 -7.4516 -5.1080
# 5 -17.8158 -1.4748 -3.0670 -7.4516 22.4365 -1.7137
# 6 2.3494 -2.6163 8.8746 -5.1080 -1.7137 36.9347
#
#
#
# Elastic Compliance Matrix: (Units=1/GPa)
#
#
# Indices 1 2 3 4 5 6 
#
# 1 0.021135 -0.008197 -0.004414 0.012390 0.019891 0.001772
# 2 -0.008197 0.024992 -0.001803 -0.001719 -0.005513 0.002231
# 3 -0.004414 -0.001803 0.015981 0.009207 0.001440 -0.002347
# 4 0.012390 -0.001719 0.009207 0.058359 0.030853 0.006380
# 5 0.019891 -0.005513 0.001440 0.030853 0.070870 0.005553
# 6 0.001772 0.002231 -0.002347 0.006380 0.005553 0.028824
#
#
# Mechanical properties :
#
#
# Convention : Reuss Voigt Hill
#
# Bulk Modulus (GPa) = 30.04719 44.43751 37.24235
# Shear Modulus (GPa) = 19.22473 27.33524 23.27998
#
# Velocity S-wave (km/s) = 3.05017 3.63710 3.35648
# Velocity P-wave (km/s) = 5.19091 6.25642 5.74841
#
# Compressibility (1/GPa) = 0.03328098
#
# Stress axis : x y z
#
# Youngs Moduli (GPa) = 47.31430 40.01318 62.57508
#
# Poissons Ratio (x) = 0.32800 0.27618
# Poissons Ratio (y) = 0.38785 0.11279
# Poissons Ratio (z) = 0.20883 0.07212
#
# Static dielectric constant tensor:
#      x y z
#    x 1.762460 -0.017310 -0.004330 
#    y -0.017310 1.774690 -0.028350 
#    z -0.004330 -0.028350 1.736800 
# 
# From -- ./inp_files/534282.got.cif
#   From: 2010.05.17/outbox.cif.g08.bks.cpg/sg2_268_cif.got.tgz:534282.got - 2010.06.03 11:33:40.
