data_PCOD9095094
_publ_section_title
;
Structure prediction by ZEFSAII (Michael W. Deem and Ramdas Pophale) SiO2 
 PCOD9095094
Probable space group: P -1
;
_chemical_formula_sum "Si O2"
_cell_formula_units_Z 12
_cell_length_a 11.009582
_cell_length_b 9.506802
_cell_length_c 5.519906
_cell_angle_alpha 67.119156
_cell_angle_beta 68.318687
_cell_angle_gamma 100.454997
_cell_volume 457.577713
_symmetry_space_group_name_H-M "P -1"
_symmetry_group_IT_number 2
_symmetry_cell_setting 'triclinic'
loop_
_space_group_symop_operation_xyz
x,y,z
-x,-y,-z
loop_
_atom_site_type_symbol
_atom_site_label
_atom_site_fract_x
_atom_site_fract_y
_atom_site_fract_z
Si Si1 0.875419 0.700402 0.334335
Si Si2 0.344276 0.978643 0.826474
Si Si3 0.055816 0.273252 0.231442
Si Si4 0.556959 0.454224 0.739621
Si Si5 0.138972 0.648594 0.989228
Si Si6 0.388783 0.080363 0.224880
O O1 0.915393 0.796694 0.492530
O O2 0.724228 0.554038 0.549691
O O3 0.999506 0.629246 0.259029
O O4 0.893126 0.791524 0.002627
O O5 0.510424 0.020005 0.723461
O O6 0.325751 0.082549 0.539125
O O7 0.267494 0.789343 0.927239
O O8 0.293665 0.008795 0.107703
O O9 0.147592 0.473161 0.051324
O O10 0.902622 0.276484 0.275787
O O11 0.500000 0.500000 0.500000
O O12 0.500000 0.500000 0.000000
O O13 0.494024 0.258232 0.939484
#
# Coordination Sequence:
#
# PCOD9095094 Si02
#       6
#     2   2   2   2   2   2
#     4  10  20  35  54  85 112 145 197 251 288 335
#     4  10  21  37  62  88 128 151 182 238 306 384
#     4   9  19  30  53  90 118 148 182 240 300 356
#     4  12  25  42  65  83 116 162 210 256 278 335
#     4   9  20  31  58  87 119 151 187 236 307 348
#     4  10  23  39  57  91 119 161 193 231 301 360
#
# _framework density 26.225051000000001
#
# number of rings (size 3 to 8) (size 9 to 14) (size 15 to 20)
#    1.000    1.000    0.000    3.500    2.333    4.000 
#    0.000    0.000    0.000    6.000    0.000    0.000 
#    0.000    0.000    0.000    0.000    0.000    0.000 
#
# Total GULP energy -66973.205892 kJ/mol
# GULP energy per Si atom -5581.100491 kJ/mol
# Density = 2.616536 g / cm^3
# Si number density = 26.225051 Si / 1000 Ang^3
#
#
#
# Elastic Constant Matrix: (Units=GPa)
#
#
# Indices 1 2 3 4 5 6 
#
# 1 76.2298 28.6993 55.9581 6.1655 9.1377 14.3194
# 2 28.6993 89.6593 66.8581 24.2253 18.2055 30.4851
# 3 55.9581 66.8581 213.0357 59.0642 23.4100 8.8422
# 4 6.1655 24.2253 59.0642 58.6710 16.1601 10.8578
# 5 9.1377 18.2055 23.4100 16.1601 43.6416 3.5842
# 6 14.3194 30.4851 8.8422 10.8578 3.5842 33.2856
#
#
#
# Elastic Compliance Matrix: (Units=1/GPa)
#
#
# Indices 1 2 3 4 5 6 
#
# 1 0.018969 0.000221 -0.006210 0.006411 -0.002405 -0.008545
# 2 0.000221 0.023134 -0.006487 0.002072 -0.005370 -0.019657
# 3 -0.006210 -0.006487 0.010386 -0.009024 0.001064 0.008683
# 4 0.006411 0.002072 -0.009024 0.028541 -0.007047 -0.010810
# 5 -0.002405 -0.005370 0.001064 -0.007047 0.027283 0.005031
# 6 -0.008545 -0.019657 0.008683 -0.010810 0.005031 0.052400
#
#
# Mechanical properties :
#
#
# Convention : Reuss Voigt Hill
#
# Bulk Modulus (GPa) = 36.31638 75.77285 56.04462
# Shear Modulus (GPa) = 25.66158 42.28026 33.97092
#
# Velocity S-wave (km/s) = 3.13151 4.01959 3.60302
# Velocity P-wave (km/s) = 5.19165 7.10625 6.22302
#
# Compressibility (1/GPa) = 0.02753578
#
# Stress axis : x y z
#
# Youngs Moduli (GPa) = 52.71781 43.22683 96.28564
#
# Poissons Ratio (x) = -0.00954 0.59798
# Poissons Ratio (y) = -0.01163 0.62456
# Poissons Ratio (z) = 0.32740 0.28039
#
# Static dielectric constant tensor:
#      x y z
#    x 2.037320 -0.032420 0.000110 
#    y -0.032420 2.131400 0.097050 
#    z 0.000110 0.097050 2.177360 
# 
# From -- ./inp_files/65652.got.cif
#   From: 2010.05.17/outbox.cif.g08.bks.cpg/sg2_33_cif.got.tgz:65652.got - 2010.06.03 11:33:40.
