data_PCOD9095095
_publ_section_title
;
Structure prediction by ZEFSAII (Michael W. Deem and Ramdas Pophale) SiO2 
 PCOD9095095
Probable space group: P -1
;
_chemical_formula_sum "Si O2"
_cell_formula_units_Z 12
_cell_length_a 8.355709
_cell_length_b 8.649428
_cell_length_c 9.390535
_cell_angle_alpha 90.039249
_cell_angle_beta 135.414902
_cell_angle_gamma 86.182102
_cell_volume 474.290343
_symmetry_space_group_name_H-M "P -1"
_symmetry_group_IT_number 2
_symmetry_cell_setting 'triclinic'
loop_
_space_group_symop_operation_xyz
x,y,z
-x,-y,-z
loop_
_atom_site_type_symbol
_atom_site_label
_atom_site_fract_x
_atom_site_fract_y
_atom_site_fract_z
Si Si1 0.399902 0.977313 0.279594
Si Si2 0.025391 0.760925 0.019069
Si Si3 0.416475 0.515292 0.608366
Si Si4 0.333731 0.819846 0.723972
Si Si5 0.003879 0.330241 0.324926
Si Si6 0.742530 0.597470 0.047913
O O1 0.595273 0.019828 0.293337
O O2 0.186474 0.103796 0.108756
O O3 0.500000 0.000000 0.500000
O O4 0.273474 0.822209 0.189820
O O5 0.373968 0.498335 0.149139
O O6 0.985217 0.698515 0.836156
O O7 0.500000 0.500000 0.500000
O O8 0.318778 0.693894 0.585789
O O9 0.241195 0.387177 0.522347
O O10 0.818431 0.481777 0.222342
O O11 0.103198 0.810872 0.666316
O O12 0.549909 0.739746 0.953742
O O13 0.035143 0.345390 0.887468
#
# Coordination Sequence:
#
# PCOD9095095 Si02
#       6
#     2   2   2   2   2   2
#     4  10  22  43  59  76 112 154 198 239 270 335
#     4  10  22  36  60  87 105 152 202 224 279 342
#     4  10  20  35  54  85 120 144 193 220 274 352
#     4   9  22  38  54  89 116 150 190 231 286 335
#     4  12  20  36  60  86 124 143 180 246 288 336
#     4   9  21  35  57  88 114 153 181 226 293 338
#
# _framework density 25.300958000000001
#
# number of rings (size 3 to 8) (size 9 to 14) (size 15 to 20)
#    1.000    1.000    1.667    1.500    2.333    2.000 
#    0.000    0.833    0.000    0.000    0.000    0.000 
#    0.000    0.000    0.000    0.000    0.000    0.000 
#
# Total GULP energy -67076.322391 kJ/mol
# GULP energy per Si atom -5589.693533 kJ/mol
# Density = 2.524337 g / cm^3
# Si number density = 25.300958 Si / 1000 Ang^3
#
#
#
# Elastic Constant Matrix: (Units=GPa)
#
#
# Indices 1 2 3 4 5 6 
#
# 1 80.0626 30.0714 18.8260 9.1436 15.4098 37.5752
# 2 30.0714 86.1661 32.6458 27.0044 18.6908 46.1345
# 3 18.8260 32.6458 111.4551 25.2846 17.3483 24.2474
# 4 9.1436 27.0044 25.2846 39.3590 6.5459 10.8920
# 5 15.4098 18.6908 17.3483 6.5459 31.1661 16.3776
# 6 37.5752 46.1345 24.2474 10.8920 16.3776 55.9498
#
#
#
# Elastic Compliance Matrix: (Units=1/GPa)
#
#
# Indices 1 2 3 4 5 6 
#
# 1 0.018553 0.001135 -0.000055 -0.001145 -0.003159 -0.012224
# 2 0.001135 0.025785 -0.000463 -0.011959 -0.003558 -0.018454
# 3 -0.000055 -0.000463 0.011518 -0.005806 -0.003637 -0.002378
# 4 -0.001145 -0.011959 -0.005806 0.035883 0.000232 0.006093
# 5 -0.003159 -0.003558 -0.003637 0.000232 0.040531 -0.005277
# 6 -0.012224 -0.018454 -0.002378 0.006093 -0.005277 0.042688
#
#
# Mechanical properties :
#
#
# Convention : Reuss Voigt Hill
#
# Bulk Modulus (GPa) = 17.51627 48.97447 33.24537
# Shear Modulus (GPa) = 25.93987 38.37101 32.15544
#
# Velocity S-wave (km/s) = 3.20543 3.89856 3.56886
# Velocity P-wave (km/s) = 4.54290 6.29792 5.49098
#
# Compressibility (1/GPa) = 0.05708979
#
# Stress axis : x y z
#
# Youngs Moduli (GPa) = 53.90024 38.78279 86.82311
#
# Poissons Ratio (x) = -0.04404 0.00481
# Poissons Ratio (y) = -0.06120 0.04018
# Poissons Ratio (z) = 0.00298 0.01795
#
# Static dielectric constant tensor:
#      x y z
#    x 2.030530 -0.050820 0.058370 
#    y -0.050820 2.070310 -0.041550 
#    z 0.058370 -0.041550 1.944160 
# 
# From -- ./inp_files/382146.got.cif
#   From: 2010.05.17/outbox.cif.g08.bks.cpg/sg2_192_cif.got.tgz:382146.got - 2010.06.03 11:33:40.
