data_PCOD9095739
_publ_section_title
;
Structure prediction by ZEFSAII (Michael W. Deem and Ramdas Pophale) SiO2 
 PCOD9095739
Probable space group: P -1
;
_chemical_formula_sum "Si O2"
_cell_formula_units_Z 14
_cell_length_a 10.305455
_cell_length_b 15.018015
_cell_length_c 9.640302
_cell_angle_alpha 97.776827
_cell_angle_beta 135.154882
_cell_angle_gamma 49.741645
_cell_volume 642.371508
_symmetry_space_group_name_H-M "P -1"
_symmetry_group_IT_number 2
_symmetry_cell_setting 'triclinic'
loop_
_space_group_symop_operation_xyz
x,y,z
-x,-y,-z
loop_
_atom_site_type_symbol
_atom_site_label
_atom_site_fract_x
_atom_site_fract_y
_atom_site_fract_z
Si Si1 0.250616 0.191051 0.237972
Si Si2 0.516642 0.278670 0.544695
Si Si3 0.290847 0.519550 0.251033
Si Si4 0.898587 0.024242 0.087810
Si Si5 0.649106 0.660082 0.259877
Si Si6 0.860607 0.881632 0.597108
Si Si7 0.424281 0.608636 0.859952
O O1 0.396355 0.222748 0.428319
O O2 0.103623 0.189192 0.248808
O O3 0.511456 0.028720 0.339277
O O4 0.027192 0.312650 0.978993
O O5 0.305580 0.418380 0.316146
O O6 0.479122 0.324932 0.685170
O O7 0.865262 0.145684 0.731695
O O8 0.500000 0.500000 0.500000
O O9 0.427470 0.459529 0.189012
O O10 0.013912 0.066890 0.268192
O O11 0.536867 0.172595 0.854059
O O12 0.000000 0.000000 0.000000
O O13 0.000000 0.500000 0.500000
O O14 0.549715 0.646356 0.044265
O O15 0.067124 0.756382 0.613376
O O16 0.500000 0.500000 0.000000
#
# Coordination Sequence:
#
# PCOD9095739 Si02
#       7
#     2   2   2   2   2   2   2
#     4  10  20  38  62  88 119 156 194 248 290 355
#     4  10  21  39  58  88 119 158 195 238 308 350
#     4  12  25  39  59  86 123 162 193 244 307 357
#     4   8  17  33  58  84 119 150 194 239 285 355
#     4  10  20  35  59  91 114 148 201 247 284 343
#     4   9  19  36  63  88 112 151 207 244 289 336
#     4  11  21  39  60  84 117 155 202 244 289 351
#
# _framework density 21.794242000000001
#
# number of rings (size 3 to 8) (size 9 to 14) (size 15 to 20)
#    0.000    2.000    1.429    2.143    4.000    0.000 
#    0.000    8.571    0.000    0.000    0.000    0.000 
#    0.000    0.000    0.000    0.000    0.000    0.000 
#
# Total GULP energy -78016.841847 kJ/mol
# GULP energy per Si atom -5572.631561 kJ/mol
# Density = 2.174464 g / cm^3
# Si number density = 21.794242 Si / 1000 Ang^3
#
#
#
# Elastic Constant Matrix: (Units=GPa)
#
#
# Indices 1 2 3 4 5 6 
#
# 1 32.3920 20.6155 9.9939 -8.4129 -7.9573 -5.1917
# 2 20.6155 100.4270 44.7267 -20.8521 1.2074 -17.7413
# 3 9.9939 44.7267 126.0938 -31.8050 -3.9381 -11.2848
# 4 -8.4129 -20.8521 -31.8050 55.9132 -4.9534 0.9549
# 5 -7.9573 1.2074 -3.9381 -4.9534 32.7733 -7.0119
# 6 -5.1917 -17.7413 -11.2848 0.9549 -7.0119 26.2346
#
#
#
# Elastic Compliance Matrix: (Units=1/GPa)
#
#
# Indices 1 2 3 4 5 6 
#
# 1 0.040351 -0.006727 0.001618 0.005477 0.012631 0.007308
# 2 -0.006727 0.014553 -0.003488 0.002245 -0.000814 0.006711
# 3 0.001618 -0.003488 0.010778 0.005312 0.003324 0.003293
# 4 0.005477 0.002245 0.005312 0.023054 0.006614 0.005815
# 5 0.012631 -0.000814 0.003324 0.006614 0.037844 0.013253
# 6 0.007308 0.006711 0.003293 0.005815 0.013253 0.048849
#
#
# Mechanical properties :
#
#
# Convention : Reuss Voigt Hill
#
# Bulk Modulus (GPa) = 20.62359 45.50943 33.06651
# Shear Modulus (GPa) = 23.94808 35.22269 29.58538
#
# Velocity S-wave (km/s) = 3.31845 4.02449 3.68840
# Velocity P-wave (km/s) = 4.91592 6.52090 5.77444
#
# Compressibility (1/GPa) = 0.04848817
#
# Stress axis : x y z
#
# Youngs Moduli (GPa) = 24.78263 68.71381 92.78409
#
# Poissons Ratio (x) = 0.46227 -0.15015
# Poissons Ratio (y) = 0.16672 0.32359
# Poissons Ratio (z) = -0.04010 0.23964
#
# Static dielectric constant tensor:
#      x y z
#    x 1.838380 0.038650 0.060590 
#    y 0.038650 1.869880 -0.069560 
#    z 0.060590 -0.069560 1.870550 
# 
# From -- ./inp_files/250191.got.cif
#   From: 2010.05.17/outbox.cif.g08.bks.cpg/sg2_126_cif.got.tgz:250191.got - 2010.06.03 11:33:40.
