data_PCOD9095874
_publ_section_title
;
Structure prediction by ZEFSAII (Michael W. Deem and Ramdas Pophale) SiO2 
 PCOD9095874
Probable space group: P -1
;
_chemical_formula_sum "Si O2"
_cell_formula_units_Z 14
_cell_length_a 13.189056
_cell_length_b 10.691533
_cell_length_c 5.507296
_cell_angle_alpha 115.007609
_cell_angle_beta 60.390212
_cell_angle_gamma 108.811256
_cell_volume 605.488362
_symmetry_space_group_name_H-M "P -1"
_symmetry_group_IT_number 2
_symmetry_cell_setting 'triclinic'
loop_
_space_group_symop_operation_xyz
x,y,z
-x,-y,-z
loop_
_atom_site_type_symbol
_atom_site_label
_atom_site_fract_x
_atom_site_fract_y
_atom_site_fract_z
Si Si1 0.043235 0.619077 0.854154
Si Si2 0.817628 0.486746 0.782711
Si Si3 0.709070 0.904950 0.593099
Si Si4 0.419269 0.666537 0.510881
Si Si5 0.656630 0.614687 0.423840
Si Si6 0.793492 0.206665 0.899651
Si Si7 0.571042 0.879511 0.233657
O O1 0.155029 0.562709 0.555523
O O2 0.931030 0.603998 0.799225
O O3 0.096598 0.766440 0.022928
O O4 0.000000 0.500000 0.000000
O O5 0.818045 0.339391 0.801390
O O6 0.705296 0.544925 0.070647
O O7 0.747685 0.753937 0.485478
O O8 0.667513 0.886462 0.344517
O O9 0.783015 0.057376 0.661999
O O10 0.616993 0.907025 0.930111
O O11 0.531088 0.662692 0.553955
O O12 0.363768 0.504693 0.448071
O O13 0.480500 0.735806 0.253466
O O14 0.327796 0.764820 0.801053
O O15 0.500000 0.000000 0.500000
#
# Coordination Sequence:
#
# PCOD9095874 Si02
#       7
#     2   2   2   2   2   2   2
#     4   9  19  38  62  88 110 152 210 261 306 361
#     4   9  19  39  64  84 117 155 208 258 306 369
#     4  11  24  39  59  91 130 167 207 255 308 370
#     4   9  19  38  56  89 125 167 202 248 296 372
#     4   9  20  39  58  90 126 165 201 251 315 366
#     4  10  20  35  60  91 118 162 205 251 304 365
#     4  11  22  38  59  86 129 174 214 250 294 364
#
# _framework density 23.121832999999999
#
# number of rings (size 3 to 8) (size 9 to 14) (size 15 to 20)
#    0.000    2.286    1.429    0.429    4.000    0.571 
#   23.143    0.714    0.000    7.714    0.000    0.000 
#    0.000    0.000    0.000    0.000    0.000    0.000 
#
# Total GULP energy -77937.197467 kJ/mol
# GULP energy per Si atom -5566.942676 kJ/mol
# Density = 2.306921 g / cm^3
# Si number density = 23.121833 Si / 1000 Ang^3
#
#
#
# Elastic Constant Matrix: (Units=GPa)
#
#
# Indices 1 2 3 4 5 6 
#
# 1 45.9253 24.2581 0.0737 -0.7327 5.3667 21.7541
# 2 24.2581 143.3736 18.2922 28.3374 -0.6953 21.3129
# 3 0.0737 18.2922 84.0053 -5.8304 7.3691 10.8983
# 4 -0.7327 28.3374 -5.8304 39.6592 5.1328 4.6461
# 5 5.3667 -0.6953 7.3691 5.1328 10.5659 0.7606
# 6 21.7541 21.3129 10.8983 4.6461 0.7606 20.0526
#
#
#
# Elastic Compliance Matrix: (Units=1/GPa)
#
#
# Indices 1 2 3 4 5 6 
#
# 1 0.075810 -0.008153 0.020587 0.028565 -0.060865 -0.089075
# 2 -0.008153 0.010772 -0.004403 -0.010354 0.012828 0.001701
# 3 0.020587 -0.004403 0.020409 0.013966 -0.029544 -0.030861
# 4 0.028565 -0.010354 0.013966 0.045183 -0.044262 -0.036364
# 5 -0.060865 0.012828 -0.029544 -0.044262 0.163291 0.072513
# 6 -0.089075 0.001701 -0.030861 -0.036364 0.072513 0.167141
#
#
# Mechanical properties :
#
#
# Convention : Reuss Voigt Hill
#
# Bulk Modulus (GPa) = 8.12664 39.83911 23.98287
# Shear Modulus (GPa) = 9.85102 29.43422 19.64262
#
# Velocity S-wave (km/s) = 2.06633 3.57179 2.91783
# Velocity P-wave (km/s) = 3.03567 5.85472 4.66332
#
# Compressibility (1/GPa) = 0.12305206
#
# Stress axis : x y z
#
# Youngs Moduli (GPa) = 13.19092 92.83545 48.99715
#
# Poissons Ratio (x) = 0.75687 -1.00868
# Poissons Ratio (y) = 0.10754 0.21574
# Poissons Ratio (z) = -0.27156 0.40876
#
# Static dielectric constant tensor:
#      x y z
#    x 2.010750 0.034180 0.069330 
#    y 0.034180 1.945310 -0.014120 
#    z 0.069330 -0.014120 1.906530 
# 
# From -- ./inp_files/67952.got.cif
#   From: 2010.05.17/outbox.cif.g08.bks.cpg/sg2_34_cif.got.tgz:67952.got - 2010.06.03 11:33:40.
