data_PCOD9095365
_publ_section_title
;
Structure prediction by ZEFSAII (Michael W. Deem and Ramdas Pophale) SiO2 
 PCOD9095365
Probable space group: P -1
;
_chemical_formula_sum "Si O2"
_cell_formula_units_Z 16
_cell_length_a 17.684225
_cell_length_b 21.780180
_cell_length_c 11.312664
_cell_angle_alpha 29.181480
_cell_angle_beta 28.938893
_cell_angle_gamma 25.217136
_cell_volume 825.387952
_symmetry_space_group_name_H-M "P -1"
_symmetry_group_IT_number 2
_symmetry_cell_setting 'triclinic'
loop_
_space_group_symop_operation_xyz
x,y,z
-x,-y,-z
loop_
_atom_site_type_symbol
_atom_site_label
_atom_site_fract_x
_atom_site_fract_y
_atom_site_fract_z
Si Si1 0.207246 0.342238 0.092116
Si Si2 0.818731 0.898303 0.907383
Si Si3 0.426988 0.940249 0.802887
Si Si4 0.819011 0.656687 0.150154
Si Si5 0.953014 0.216322 0.661739
Si Si6 0.946556 0.997271 0.890127
Si Si7 0.208828 0.803339 0.638484
Si Si8 0.421313 0.470540 0.275298
O O1 0.248875 0.328210 0.918765
O O2 0.691417 0.932554 0.142626
O O3 0.398616 0.224916 0.102934
O O4 0.053352 0.520644 0.048216
O O5 0.051536 0.801989 0.777119
O O6 0.759026 0.070597 0.666141
O O7 0.782731 0.806704 0.013518
O O8 0.918201 0.723406 0.614168
O O9 0.500000 0.000000 0.500000
O O10 0.270182 0.922128 0.991701
O O11 0.700224 0.599317 0.471560
O O12 0.983530 0.123712 0.657174
O O13 0.731772 0.362449 0.735687
O O14 0.017949 0.100476 0.877250
O O15 0.092416 0.879405 0.791037
O O16 0.407379 0.642495 0.676473
O O17 0.500000 0.500000 0.000000
#
# Coordination Sequence:
#
# PCOD9095365 Si02
#       8
#     2   2   2   2   2   2   2   2
#     4  10  21  40  61  85 121 156 193 252 294 344
#     4  10  23  40  62  89 118 159 203 243 295 354
#     4  11  22  37  58  86 122 153 192 247 295 350
#     4  10  23  40  62  89 118 159 203 243 295 354
#     4  10  20  35  57  83 114 154 194 235 290 351
#     4  10  20  35  57  83 114 154 194 235 290 351
#     4  10  21  40  61  85 121 156 193 252 294 344
#     4  11  22  37  58  86 122 153 192 247 295 350
#
# _framework density 19.384823999999998
#
# number of rings (size 3 to 8) (size 9 to 14) (size 15 to 20)
#    0.000    1.750    2.500    1.500    0.000    5.000 
#    0.000    1.250    0.000    9.000    0.000    0.000 
#    0.000    0.000    0.000    0.000    0.000    0.000 
#
# Total GULP energy -89234.296151 kJ/mol
# GULP energy per Si atom -5577.143509 kJ/mol
# Density = 1.934070 g / cm^3
# Si number density = 19.384824 Si / 1000 Ang^3
#
#
#
# Elastic Constant Matrix: (Units=GPa)
#
#
# Indices 1 2 3 4 5 6 
#
# 1 71.9771 46.3420 21.7283 -2.8968 7.9692 -20.5183
# 2 46.3420 70.0011 4.5427 5.0481 -0.1029 -34.6191
# 3 21.7283 4.5427 61.7680 12.2154 19.1211 11.1406
# 4 -2.8968 5.0481 12.2154 23.2570 0.3689 -0.4684
# 5 7.9692 -0.1029 19.1211 0.3689 18.9703 -2.0282
# 6 -20.5183 -34.6191 11.1406 -0.4684 -2.0282 40.1711
#
#
#
# Elastic Compliance Matrix: (Units=1/GPa)
#
#
# Indices 1 2 3 4 5 6 
#
# 1 0.032585 -0.020265 -0.013631 0.015681 -0.000028 0.003142
# 2 -0.020265 0.042719 -0.004395 -0.009176 0.016390 0.028404
# 3 -0.013631 -0.004395 0.042489 -0.022936 -0.039328 -0.024787
# 4 0.015681 -0.009176 -0.022936 0.058893 0.016187 0.007966
# 5 -0.000028 0.016390 -0.039328 0.016187 0.095350 0.030020
# 6 0.003142 0.028404 -0.024787 0.007966 0.030020 0.059459
#
#
# Mechanical properties :
#
#
# Convention : Reuss Voigt Hill
#
# Bulk Modulus (GPa) = 24.26524 38.77469 31.51996
# Shear Modulus (GPa) = 11.85353 25.22188 18.53771
#
# Velocity S-wave (km/s) = 2.47551 3.61101 3.09576
# Velocity P-wave (km/s) = 4.55145 6.11816 5.39201
#
# Compressibility (1/GPa) = 0.04121121
#
# Stress axis : x y z
#
# Youngs Moduli (GPa) = 30.68861 23.40861 23.53559
#
# Poissons Ratio (x) = 0.47437 0.32082
# Poissons Ratio (y) = 0.62190 0.10344
# Poissons Ratio (z) = 0.41832 0.10288
#
# Static dielectric constant tensor:
#      x y z
#    x 1.677750 -0.015230 0.028480 
#    y -0.015230 1.653790 0.020580 
#    z 0.028480 0.020580 1.697680 
# 
# From -- ./inp_files/467020.got.cif
#   From: 2010.05.17/outbox.cif.g08.bks.cpg/sg2_234_cif.got.tgz:467020.got - 2010.06.03 11:33:40.
