data_PCOD9095764
_publ_section_title
;
Structure prediction by ZEFSAII (Michael W. Deem and Ramdas Pophale) SiO2 
 PCOD9095764
Probable space group: P -1
;
_chemical_formula_sum "Si O2"
_cell_formula_units_Z 13
_cell_length_a 9.129428
_cell_length_b 11.820044
_cell_length_c 8.118932
_cell_angle_alpha 142.812628
_cell_angle_beta 105.179146
_cell_angle_gamma 67.764758
_cell_volume 488.935964
_symmetry_space_group_name_H-M "P -1"
_symmetry_group_IT_number 2
_symmetry_cell_setting 'triclinic'
loop_
_space_group_symop_operation_xyz
x,y,z
-x,-y,-z
loop_
_atom_site_type_symbol
_atom_site_label
_atom_site_fract_x
_atom_site_fract_y
_atom_site_fract_z
Si Si1 0.239959 0.109759 0.446943
Si Si2 0.415904 0.067517 0.754443
Si Si3 0.160020 0.503277 0.771967
Si Si4 0.533261 0.426426 0.158221
Si Si5 0.000000 0.000000 0.000000
Si Si6 0.716765 0.311657 0.425219
Si Si7 0.176156 0.321208 0.202750
O O1 0.294505 0.016098 0.532168
O O2 0.154739 0.340896 0.714118
O O3 0.408106 0.077219 0.361423
O O4 0.129684 0.018920 0.200748
O O5 0.448566 0.262011 0.906614
O O6 0.323070 0.143492 0.982980
O O7 0.321581 0.561519 0.897498
O O8 0.169031 0.376050 0.456619
O O9 0.000206 0.679566 0.902390
O O10 0.614535 0.352978 0.274599
O O11 0.407057 0.636580 0.401656
O O12 0.147049 0.885931 0.787614
O O13 0.800066 0.485404 0.650567
#
# Coordination Sequence:
#
# PCOD9095764 Si02
#       7
#     2   2   2   2   1   2   2
#     4  11  24  37  61  88 119 154 198 239 297 335
#     4  10  22  42  60  82 121 162 190 235 292 361
#     4  10  20  35  59  95 114 147 197 247 290 335
#     4   9  18  36  59  80 117 151 191 231 294 344
#     4  12  20  36  58  90 114 152 202 246 264 366
#     4   9  17  33  57  85 108 159 193 228 279 355
#     4   9  19  37  60  86 119 151 199 238 289 342
#
# _framework density 26.588349999999998
#
# number of rings (size 3 to 8) (size 9 to 14) (size 15 to 20)
#    0.000    2.154    3.077    0.923    0.000    1.846 
#    0.000    0.000    0.000    2.769    0.000    0.000 
#    0.000    0.000    0.000    0.000    0.000    0.000 
#
# Total GULP energy -72424.555477 kJ/mol
# GULP energy per Si atom -5571.119652 kJ/mol
# Density = 2.652783 g / cm^3
# Si number density = 26.588350 Si / 1000 Ang^3
#
#
#
# Elastic Constant Matrix: (Units=GPa)
#
#
# Indices 1 2 3 4 5 6 
#
# 1 98.9242 35.5793 31.4268 -6.3599 5.4663 -30.9077
# 2 35.5793 71.3551 24.6857 2.5388 2.1114 -31.2335
# 3 31.4268 24.6857 71.2836 0.3877 -3.3370 -23.5440
# 4 -6.3599 2.5388 0.3877 33.7553 -21.9648 -0.0321
# 5 5.4663 2.1114 -3.3370 -21.9648 47.3577 7.6123
# 6 -30.9077 -31.2335 -23.5440 -0.0321 7.6123 47.4862
#
#
#
# Elastic Compliance Matrix: (Units=1/GPa)
#
#
# Indices 1 2 3 4 5 6 
#
# 1 0.014454 -0.003573 -0.003352 0.001870 -0.001792 0.005684
# 2 -0.003573 0.022223 -0.002389 -0.005790 -0.005355 0.011961
# 3 -0.003352 -0.002389 0.018043 -0.000048 0.000932 0.005044
# 4 0.001870 -0.005790 -0.000048 0.044495 0.021649 -0.006055
# 5 -0.001792 -0.005355 0.000932 0.021649 0.033201 -0.009534
# 6 0.005684 0.011961 0.005044 -0.006055 -0.009534 0.036651
#
#
# Mechanical properties :
#
#
# Convention : Reuss Voigt Hill
#
# Bulk Modulus (GPa) = 27.70673 47.21628 37.46150
# Shear Modulus (GPa) = 25.03462 35.71125 30.37293
#
# Velocity S-wave (km/s) = 3.07182 3.66883 3.38352
# Velocity P-wave (km/s) = 4.79840 5.97862 5.42073
#
# Compressibility (1/GPa) = 0.03609232
#
# Stress axis : x y z
#
# Youngs Moduli (GPa) = 69.18617 44.99933 55.42273
#
# Poissons Ratio (x) = 0.16078 0.18575
# Poissons Ratio (y) = 0.24719 0.13241
# Poissons Ratio (z) = 0.23188 0.10751
#
# Static dielectric constant tensor:
#      x y z
#    x 1.763490 -0.024690 -0.350430 
#    y -0.024690 2.108210 -0.072130 
#    z -0.350430 -0.072130 1.727680 
# 
# From -- ./inp_files/154518.got.cif
#   From: 2010.05.17/outbox.cif.g08.bks.cpg/sg2_78_cif.got.tgz:154518.got - 2010.06.03 11:33:40.
