data_PCOD9095723
_publ_section_title
;
Structure prediction by ZEFSAII (Michael W. Deem and Ramdas Pophale) SiO2 
 PCOD9095723
Probable space group: P -1
;
_chemical_formula_sum "Si O2"
_cell_formula_units_Z 14
_cell_length_a 6.290994
_cell_length_b 14.464297
_cell_length_c 13.279564
_cell_angle_alpha 139.723056
_cell_angle_beta 125.486250
_cell_angle_gamma 75.893180
_cell_volume 588.807983
_symmetry_space_group_name_H-M "P -1"
_symmetry_group_IT_number 2
_symmetry_cell_setting 'triclinic'
loop_
_space_group_symop_operation_xyz
x,y,z
-x,-y,-z
loop_
_atom_site_type_symbol
_atom_site_label
_atom_site_fract_x
_atom_site_fract_y
_atom_site_fract_z
Si Si1 0.861615 0.621705 0.095338
Si Si2 0.468569 0.327099 0.220593
Si Si3 0.621595 0.374198 0.523439
Si Si4 0.134837 0.821966 0.168889
Si Si5 0.691001 0.918871 0.709892
Si Si6 0.251336 0.889551 0.911883
Si Si7 0.755991 0.460309 0.135387
O O1 0.057048 0.781108 0.230001
O O2 0.802081 0.592439 0.172600
O O3 0.544018 0.575440 0.925951
O O4 0.000000 0.500000 0.000000
O O5 0.460567 0.299513 0.315817
O O6 0.501885 0.503365 0.368186
O O7 0.706846 0.271372 0.199382
O O8 0.169289 0.222220 0.005232
O O9 0.574722 0.238540 0.476917
O O10 0.948619 0.470673 0.667723
O O11 0.306086 0.993466 0.320092
O O12 0.254601 0.697579 0.053144
O O13 0.962921 0.874364 0.765585
O O14 0.714920 0.035316 0.905996
O O15 0.500000 0.000000 0.000000
#
# Coordination Sequence:
#
# PCOD9095723 Si02
#       7
#     2   2   2   2   2   2   2
#     4   9  19  40  64  85 107 154 214 246 293 365
#     4  10  20  38  57  86 129 164 205 235 294 357
#     4  10  21  39  57  96 129 155 196 256 308 352
#     4  10  20  35  59  90 116 162 204 238 291 370
#     4  11  22  35  57  89 130 158 207 246 294 363
#     4  11  20  37  56  81 124 182 207 233 282 365
#     4   9  20  39  64  84 116 153 202 257 296 354
#
# _framework density 23.776851000000001
#
# number of rings (size 3 to 8) (size 9 to 14) (size 15 to 20)
#    0.000    2.000    2.857    0.857    2.000    0.571 
#    7.714    0.714    0.000    7.714    0.000    0.000 
#    0.000    0.000    0.000    0.000    0.000    0.000 
#
# Total GULP energy -78252.073857 kJ/mol
# GULP energy per Si atom -5589.433847 kJ/mol
# Density = 2.372273 g / cm^3
# Si number density = 23.776851 Si / 1000 Ang^3
#
#
#
# Elastic Constant Matrix: (Units=GPa)
#
#
# Indices 1 2 3 4 5 6 
#
# 1 112.6494 40.3723 26.2782 9.4070 17.0165 -18.5262
# 2 40.3723 119.7021 25.9004 30.9841 7.2648 6.1332
# 3 26.2782 25.9004 48.5865 21.5995 14.0375 -8.1474
# 4 9.4070 30.9841 21.5995 38.3634 3.6745 8.1390
# 5 17.0165 7.2648 14.0375 3.6745 29.6879 8.5891
# 6 -18.5262 6.1332 -8.1474 8.1390 8.5891 50.5035
#
#
#
# Elastic Compliance Matrix: (Units=1/GPa)
#
#
# Indices 1 2 3 4 5 6 
#
# 1 0.012759 -0.003884 -0.001990 0.000554 -0.007217 0.005969
# 2 -0.003884 0.011988 -0.001944 -0.007315 0.001788 -0.002319
# 3 -0.001990 -0.001944 0.039200 -0.020897 -0.017873 0.012237
# 4 0.000554 -0.007315 -0.020897 0.045094 0.008976 -0.011073
# 5 -0.007217 0.001788 -0.017873 0.008976 0.049226 -0.015566
# 6 0.005969 -0.002319 0.012237 -0.011073 -0.015566 0.028678
#
#
# Mechanical properties :
#
#
# Convention : Reuss Voigt Hill
#
# Bulk Modulus (GPa) = 20.69904 51.78221 36.24062
# Shear Modulus (GPa) = 22.86396 36.27009 29.56702
#
# Velocity S-wave (km/s) = 3.10434 3.90992 3.53019
# Velocity P-wave (km/s) = 4.64475 6.49685 5.64724
#
# Compressibility (1/GPa) = 0.04831141
#
# Stress axis : x y z
#
# Youngs Moduli (GPa) = 78.37650 83.41519 25.51009
#
# Poissons Ratio (x) = 0.32396 0.05078
# Poissons Ratio (y) = 0.30439 0.04959
# Poissons Ratio (z) = 0.15600 0.16215
#
# Static dielectric constant tensor:
#      x y z
#    x 1.909960 0.023960 0.012280 
#    y 0.023960 1.983970 -0.013750 
#    z 0.012280 -0.013750 1.894820 
# 
# From -- ./inp_files/43373.got.cif
#   From: 2010.05.17/outbox.cif.g08.bks.cpg/sg2_22_cif.got.tgz:43373.got - 2010.06.03 11:33:40.
