data_PCOD9095106
_publ_section_title
;
Structure prediction by ZEFSAII (Michael W. Deem and Ramdas Pophale) SiO2 
 PCOD9095106
Probable space group: P -1
;
_chemical_formula_sum "Si O2"
_cell_formula_units_Z 14
_cell_length_a 10.539719
_cell_length_b 12.413233
_cell_length_c 8.490230
_cell_angle_alpha 143.839644
_cell_angle_beta 62.270321
_cell_angle_gamma 124.150830
_cell_volume 542.236056
_symmetry_space_group_name_H-M "P -1"
_symmetry_group_IT_number 2
_symmetry_cell_setting 'triclinic'
loop_
_space_group_symop_operation_xyz
x,y,z
-x,-y,-z
loop_
_atom_site_type_symbol
_atom_site_label
_atom_site_fract_x
_atom_site_fract_y
_atom_site_fract_z
Si Si1 0.895859 0.981448 0.878325
Si Si2 0.913902 0.246223 0.622086
Si Si3 0.338881 0.019408 0.759706
Si Si4 0.346362 0.412222 0.080577
Si Si5 0.022524 0.412117 0.212308
Si Si6 0.472136 0.667808 0.605977
Si Si7 0.356407 0.948600 0.215630
O O1 0.955910 0.848532 0.577505
O O2 0.925156 0.185624 0.019575
O O3 0.725451 0.919894 0.970353
O O4 0.000000 0.000000 0.000000
O O5 0.002008 0.469275 0.783011
O O6 0.802369 0.155830 0.725342
O O7 0.789629 0.173185 0.461696
O O8 0.503334 0.011217 0.691427
O O9 0.334256 0.191986 0.855565
O O10 0.194060 0.414542 0.092285
O O11 0.364817 0.536236 0.375847
O O12 0.500000 0.500000 0.000000
O O13 0.000000 0.500000 0.500000
O O14 0.500000 0.500000 0.500000
O O15 0.609055 0.839852 0.636816
O O16 0.387473 0.791993 0.895639
#
# Coordination Sequence:
#
# PCOD9095106 Si02
#       7
#     2   2   2   2   2   2   2
#     4  10  20  35  54  91 130 163 196 257 316 361
#     4  11  21  37  62  94 128 159 213 260 306 370
#     4  11  19  38  60  93 128 160 203 257 312 363
#     4  12  23  38  67  98 122 161 212 262 312 370
#     4  12  21  37  62  97 130 163 204 261 318 367
#     4  11  25  43  62  92 132 166 202 262 323 370
#     4  11  24  41  64  89 122 169 210 258 312 371
#
# _framework density 25.819013999999999
#
# number of rings (size 3 to 8) (size 9 to 14) (size 15 to 20)
#    0.000    0.857    7.143    3.000    0.000    0.000 
#    0.000    0.000    0.000    8.571    0.000    0.000 
#    0.000    0.000    0.000    0.000    0.000    0.000 
#
# Total GULP energy -78385.799490 kJ/mol
# GULP energy per Si atom -5598.985678 kJ/mol
# Density = 2.576025 g / cm^3
# Si number density = 25.819014 Si / 1000 Ang^3
#
#
#
# Elastic Constant Matrix: (Units=GPa)
#
#
# Indices 1 2 3 4 5 6 
#
# 1 53.2373 24.3505 32.2514 2.0836 -19.9090 -5.5996
# 2 24.3505 221.8812 70.3827 27.5531 -48.4108 2.3853
# 3 32.2514 70.3827 98.5170 12.2309 -27.3296 -3.6247
# 4 2.0836 27.5531 12.2309 58.9329 -0.1776 -11.3998
# 5 -19.9090 -48.4108 -27.3296 -0.1776 47.2090 -8.5214
# 6 -5.5996 2.3853 -3.6247 -11.3998 -8.5214 42.2439
#
#
#
# Elastic Compliance Matrix: (Units=1/GPa)
#
#
# Indices 1 2 3 4 5 6 
#
# 1 0.026314 0.001099 -0.006784 0.000950 0.009194 0.004955
# 2 0.001099 0.007057 -0.003520 -0.002615 0.005631 -0.000125
# 3 -0.006784 -0.003520 0.015869 -0.001223 0.002876 0.000911
# 4 0.000950 -0.002615 -0.001223 0.019370 -0.002016 0.004989
# 5 0.009194 0.005631 0.002876 -0.002016 0.033832 0.007428
# 6 0.004955 -0.000125 0.000911 0.004989 0.007428 0.027259
#
#
# Mechanical properties :
#
#
# Convention : Reuss Voigt Hill
#
# Bulk Modulus (GPa) = 32.43569 69.73385 51.08477
# Shear Modulus (GPa) = 31.56793 46.12059 38.84426
#
# Velocity S-wave (km/s) = 3.50045 4.23105 3.88297
# Velocity P-wave (km/s) = 5.37843 7.13698 6.31918
#
# Compressibility (1/GPa) = 0.03083024
#
# Stress axis : x y z
#
# Youngs Moduli (GPa) = 38.00323 141.69624 63.01436
#
# Poissons Ratio (x) = -0.15574 0.42752
# Poissons Ratio (y) = -0.04177 0.22179
# Poissons Ratio (z) = 0.25783 0.49873
#
# Static dielectric constant tensor:
#      x y z
#    x 2.017350 -0.012250 0.100430 
#    y -0.012250 2.044050 -0.033060 
#    z 0.100430 -0.033060 2.096380 
# 
# From -- ./inp_files/260847.got.cif
#   From: 2010.05.17/outbox.cif.g08.bks.cpg/sg2_131_cif.got.tgz:260847.got - 2010.06.03 11:33:40.
