data_PCOD9095096
_publ_section_title
;
Structure prediction by ZEFSAII (Michael W. Deem and Ramdas Pophale) SiO2 
 PCOD9095096
Probable space group: P -1
;
_chemical_formula_sum "Si O2"
_cell_formula_units_Z 16
_cell_length_a 11.192455
_cell_length_b 12.082471
_cell_length_c 16.805511
_cell_angle_alpha 125.334710
_cell_angle_beta 145.000615
_cell_angle_gamma 79.347848
_cell_volume 836.467701
_symmetry_space_group_name_H-M "P -1"
_symmetry_group_IT_number 2
_symmetry_cell_setting 'triclinic'
loop_
_space_group_symop_operation_xyz
x,y,z
-x,-y,-z
loop_
_atom_site_type_symbol
_atom_site_label
_atom_site_fract_x
_atom_site_fract_y
_atom_site_fract_z
Si Si1 0.330658 0.189996 0.340042
Si Si2 0.153548 0.369856 0.976885
Si Si3 0.176866 0.862803 0.028653
Si Si4 0.853985 0.857133 0.465630
Si Si5 0.859979 0.519130 0.814287
Si Si6 0.573149 0.850926 0.147865
Si Si7 0.717298 0.970227 0.587758
Si Si8 0.405922 0.507548 0.863598
O O1 0.608988 0.379871 0.565306
O O2 0.323028 0.041126 0.230559
O O3 0.284260 0.132717 0.382495
O O4 0.089992 0.180698 0.170981
O O5 0.233350 0.442068 0.140134
O O6 0.378262 0.436610 0.062695
O O7 0.982809 0.426716 0.872914
O O8 0.980993 0.164978 0.804162
O O9 0.379205 0.892500 0.084867
O O10 0.076460 0.699099 0.962326
O O11 0.710424 0.855633 0.307257
O O12 0.830654 0.685274 0.372156
O O13 0.698523 0.869326 0.457223
O O14 0.165319 0.015395 0.705493
O O15 0.391976 0.662649 0.930693
O O16 0.500000 0.000000 0.500000
O O17 0.500000 0.500000 0.000000
#
# Coordination Sequence:
#
# PCOD9095096 Si02
#       8
#     2   2   2   2   2   2   2   2
#     4  11  24  40  61  88 120 161 199 244 300 360
#     4  11  22  35  62  96 120 150 196 249 311 347
#     4  11  24  41  60  86 122 163 203 238 297 362
#     4  10  21  35  60  87 118 153 195 248 302 344
#     4  11  22  38  61  91 123 152 194 253 302 352
#     4  10  21  37  56  85 119 154 197 244 292 358
#     4  12  21  38  63  91 122 153 195 255 305 351
#     4  10  20  35  54  85 120 152 190 238 294 356
#
# _framework density 19.128055
#
# number of rings (size 3 to 8) (size 9 to 14) (size 15 to 20)
#    0.000    1.250    3.750    3.375    1.750    1.000 
#    0.000    0.625    0.000    1.500    0.000    0.000 
#    0.000    0.000    0.000    0.000    0.000    0.000 
#
# Total GULP energy -89255.668927 kJ/mol
# GULP energy per Si atom -5578.479308 kJ/mol
# Density = 1.908452 g / cm^3
# Si number density = 19.128055 Si / 1000 Ang^3
#
#
#
# Elastic Constant Matrix: (Units=GPa)
#
#
# Indices 1 2 3 4 5 6 
#
# 1 98.0768 12.4068 14.3120 6.6071 -9.1309 -15.6026
# 2 12.4068 42.7495 21.6752 23.2568 -3.4766 -9.3429
# 3 14.3120 21.6752 71.6354 19.9316 -12.5982 -17.8401
# 4 6.6071 23.2568 19.9316 21.0044 -4.5804 -5.2476
# 5 -9.1309 -3.4766 -12.5982 -4.5804 23.1098 6.4632
# 6 -15.6026 -9.3429 -17.8401 -5.2476 6.4632 29.3060
#
#
#
# Elastic Compliance Matrix: (Units=1/GPa)
#
#
# Indices 1 2 3 4 5 6 
#
# 1 0.011505 -0.002744 -0.000147 0.001400 0.003002 0.004750
# 2 -0.002744 0.062129 0.001929 -0.069079 -0.006797 0.008650
# 3 -0.000147 0.001929 0.022177 -0.019546 0.005862 0.009244
# 4 0.001400 -0.069079 -0.019546 0.141970 0.010458 -0.010061
# 5 0.003002 -0.006797 0.005862 0.010458 0.050453 -0.006254
# 6 0.004750 0.008650 0.009244 -0.010061 -0.006254 0.044614
#
#
# Mechanical properties :
#
#
# Convention : Reuss Voigt Hill
#
# Bulk Modulus (GPa) = 10.65113 34.36106 22.50610
# Shear Modulus (GPa) = 13.65866 25.62192 19.64029
#
# Velocity S-wave (km/s) = 2.67510 3.66388 3.20782
# Velocity P-wave (km/s) = 3.88869 5.99178 5.05091
#
# Compressibility (1/GPa) = 0.09388672
#
# Stress axis : x y z
#
# Youngs Moduli (GPa) = 86.91526 16.09556 45.09215
#
# Poissons Ratio (x) = 0.04416 0.00663
# Poissons Ratio (y) = 0.23849 -0.08697
# Poissons Ratio (z) = 0.01278 -0.03104
#
# Static dielectric constant tensor:
#      x y z
#    x 1.664820 0.008130 -0.003680 
#    y 0.008130 1.672340 0.034340 
#    z -0.003680 0.034340 1.687970 
# 
# From -- ./inp_files/313460.got.cif
#   From: 2010.05.17/outbox.cif.g08.bks.cpg/sg2_157_cif.got.tgz:313460.got - 2010.06.03 11:33:40.
