data_PCOD9095850
_publ_section_title
;
Structure prediction by ZEFSAII (Michael W. Deem and Ramdas Pophale) SiO2 
 PCOD9095850
Probable space group: P -1
;
_chemical_formula_sum "Si O2"
_cell_formula_units_Z 16
_cell_length_a 14.726084
_cell_length_b 15.361897
_cell_length_c 11.132313
_cell_angle_alpha 45.203858
_cell_angle_beta 41.143770
_cell_angle_gamma 27.663542
_cell_volume 763.436525
_symmetry_space_group_name_H-M "P -1"
_symmetry_group_IT_number 2
_symmetry_cell_setting 'triclinic'
loop_
_space_group_symop_operation_xyz
x,y,z
-x,-y,-z
loop_
_atom_site_type_symbol
_atom_site_label
_atom_site_fract_x
_atom_site_fract_y
_atom_site_fract_z
Si Si1 0.900995 0.494759 0.278095
Si Si2 0.894849 0.251163 0.813926
Si Si3 0.464767 0.163588 0.339318
Si Si4 0.336533 0.216336 0.985242
Si Si5 0.527266 0.697690 0.038186
Si Si6 0.745469 0.140493 0.250628
Si Si7 0.055229 0.554671 0.272760
Si Si8 0.392591 0.515076 0.335357
O O1 0.907305 0.572394 0.317709
O O2 0.778633 0.450272 0.458932
O O3 0.144053 0.307600 0.177387
O O4 0.779118 0.653970 0.143370
O O5 0.687220 0.436441 0.770937
O O6 0.005107 0.286643 0.742326
O O7 0.824791 0.195075 0.031349
O O8 0.051473 0.085259 0.720567
O O9 0.555196 0.155030 0.129418
O O10 0.575980 0.170015 0.322569
O O11 0.213076 0.361536 0.382034
O O12 0.500000 0.000000 0.500000
O O13 0.459863 0.238815 0.912646
O O14 0.500000 0.000000 0.000000
O O15 0.768463 0.508712 0.935903
O O16 0.412566 0.645353 0.214686
O O17 0.618708 0.292524 0.335145
#
# Coordination Sequence:
#
# PCOD9095850 Si02
#       8
#     2   2   2   2   2   2   2   2
#     4  10  25  41  67  95 116 166 211 267 321 368
#     4  11  21  36  60  88 134 172 211 239 303 376
#     4  10  20  35  60  89 130 170 220 241 299 377
#     4  10  23  49  68  88 121 156 215 272 322 374
#     4   9  20  39  68  85 123 175 199 262 322 363
#     4  11  22  35  57  90 128 178 203 248 297 367
#     4   9  19  41  60  87 131 174 205 251 303 368
#     4  12  21  41  61  92 135 158 211 258 311 372
#
# _framework density 20.957865000000002
#
# number of rings (size 3 to 8) (size 9 to 14) (size 15 to 20)
#    0.750    1.000    3.750    0.375    1.750    5.000 
#    0.000    0.625    0.000    0.000    0.000    0.000 
#    0.000    0.000    0.000    0.000    0.000    0.000 
#
# Total GULP energy -89263.327429 kJ/mol
# GULP energy per Si atom -5578.957964 kJ/mol
# Density = 2.091016 g / cm^3
# Si number density = 20.957865 Si / 1000 Ang^3
#
#
#
# Elastic Constant Matrix: (Units=GPa)
#
#
# Indices 1 2 3 4 5 6 
#
# 1 93.2034 40.0577 45.3769 -8.6966 -22.4445 26.5840
# 2 40.0577 124.1685 43.1237 -9.1468 -15.0607 19.0309
# 3 45.3769 43.1237 106.2183 -11.0417 -33.6875 18.1157
# 4 -8.6966 -9.1468 -11.0417 21.5971 5.7284 -5.8996
# 5 -22.4445 -15.0607 -33.6875 5.7284 36.7215 -4.7317
# 6 26.5840 19.0309 18.1157 -5.8996 -4.7317 27.3804
#
#
#
# Elastic Compliance Matrix: (Units=1/GPa)
#
#
# Indices 1 2 3 4 5 6 
#
# 1 0.018256 -0.002166 -0.002730 -0.000237 0.006074 -0.013415
# 2 -0.002166 0.010200 -0.002606 0.001330 -0.000125 -0.002997
# 3 -0.002730 -0.002606 0.016036 0.001997 0.011175 -0.003787
# 4 -0.000237 0.001330 0.001997 0.051286 -0.004708 0.008221
# 5 0.006074 -0.000125 0.011175 -0.004708 0.040959 -0.007140
# 6 -0.013415 -0.002997 -0.003787 0.008221 -0.007140 0.054673
#
#
# Mechanical properties :
#
#
# Convention : Reuss Voigt Hill
#
# Bulk Modulus (GPa) = 33.91206 64.52297 49.21751
# Shear Modulus (GPa) = 23.12212 30.14193 26.63202
#
# Velocity S-wave (km/s) = 3.32515 3.79650 3.56861
# Velocity P-wave (km/s) = 5.56402 7.07613 6.36514
#
# Compressibility (1/GPa) = 0.02948803
#
# Stress axis : x y z
#
# Youngs Moduli (GPa) = 54.77623 98.04378 62.35844
#
# Poissons Ratio (x) = 0.21238 0.17024
# Poissons Ratio (y) = 0.11865 0.16249
# Poissons Ratio (z) = 0.14954 0.25548
#
# Static dielectric constant tensor:
#      x y z
#    x 1.728950 0.007580 0.005300 
#    y 0.007580 1.803710 0.060730 
#    z 0.005300 0.060730 1.827970 
# 
# From -- ./inp_files/455535.got.cif
#   From: 2010.05.17/outbox.cif.g08.bks.cpg/sg2_228_cif.got.tgz:455535.got - 2010.06.03 11:33:40.
