data_PCOD9095235
_publ_section_title
;
Structure prediction by ZEFSAII (Michael W. Deem and Ramdas Pophale) SiO2 
 PCOD9095235
Probable space group: P -1
;
_chemical_formula_sum "Si O2"
_cell_formula_units_Z 14
_cell_length_a 15.603749
_cell_length_b 12.954608
_cell_length_c 11.405274
_cell_angle_alpha 78.768401
_cell_angle_beta 102.945324
_cell_angle_gamma 162.493565
_cell_volume 674.486625
_symmetry_space_group_name_H-M "P -1"
_symmetry_group_IT_number 2
_symmetry_cell_setting 'triclinic'
loop_
_space_group_symop_operation_xyz
x,y,z
-x,-y,-z
loop_
_atom_site_type_symbol
_atom_site_label
_atom_site_fract_x
_atom_site_fract_y
_atom_site_fract_z
Si Si1 0.002623 0.276030 0.940175
Si Si2 0.210077 0.150357 0.415237
Si Si3 0.002886 0.152652 0.355864
Si Si4 0.509954 0.492937 0.804184
Si Si5 0.368355 0.722280 0.192632
Si Si6 0.998890 0.492642 0.143296
Si Si7 0.341714 0.463996 0.947840
O O1 0.998529 0.382347 0.847986
O O2 0.141596 0.336510 0.902008
O O3 0.200419 0.511596 0.065039
O O4 0.675852 0.879995 0.962594
O O5 0.500000 0.500000 0.500000
O O6 0.312316 0.239343 0.297010
O O7 0.061394 0.094689 0.372780
O O8 0.033988 0.874321 0.509476
O O9 0.251593 0.503977 0.296433
O O10 0.708458 0.831034 0.262851
O O11 0.337021 0.374246 0.862159
O O12 0.705934 0.648030 0.917455
O O13 0.262956 0.717557 0.204265
O O14 0.704811 0.106003 0.184144
O O15 0.000000 0.500000 0.000000
#
# Coordination Sequence:
#
# PCOD9095235 Si02
#       7
#     2   2   2   2   2   2   2
#     4  11  20  36  50  79 111 149 184 224 269 323
#     4   9  20  35  55  77 112 142 185 233 271 322
#     4  10  20  35  56  81 113 144 182 230 280 319
#     4  10  22  35  51  82 115 149 189 217 262 338
#     4  11  20  33  57  80 111 146 178 230 280 327
#     4  10  21  34  53  79 110 145 186 228 275 327
#     4  11  23  33  57  79 116 158 181 213 269 328
#
# _framework density 20.756526000000001
#
# number of rings (size 3 to 8) (size 9 to 14) (size 15 to 20)
#    0.000    1.714    1.429    5.143    6.000    1.143 
#    0.000    0.000    0.000    0.000    0.000    6.000 
#    0.000    0.000    0.000    0.000    0.000    0.000 
#
# Total GULP energy -78210.611008 kJ/mol
# GULP energy per Si atom -5586.472215 kJ/mol
# Density = 2.070928 g / cm^3
# Si number density = 20.756526 Si / 1000 Ang^3
#
#
#
# Elastic Constant Matrix: (Units=GPa)
#
#
# Indices 1 2 3 4 5 6 
#
# 1 98.6925 11.1304 25.6904 -4.9946 2.9245 6.8426
# 2 11.1304 58.8955 23.8871 -19.8063 -12.6493 8.9555
# 3 25.6904 23.8871 105.2236 -25.7406 -10.5742 0.8014
# 4 -4.9946 -19.8063 -25.7406 38.6562 5.2056 2.7172
# 5 2.9245 -12.6493 -10.5742 5.2056 16.4900 -6.8728
# 6 6.8426 8.9555 0.8014 2.7172 -6.8728 29.8959
#
#
#
# Elastic Compliance Matrix: (Units=1/GPa)
#
#
# Indices 1 2 3 4 5 6 
#
# 1 0.011611 -0.002026 -0.003160 -0.000456 -0.006965 -0.003526
# 2 -0.002026 0.024924 -0.001286 0.010180 0.013437 -0.004804
# 3 -0.003160 -0.001286 0.012780 0.006462 0.006418 0.001654
# 4 -0.000456 0.010180 0.006462 0.036119 -0.002252 -0.006919
# 5 -0.006965 0.013437 0.006418 -0.002252 0.084067 0.016928
# 6 -0.003526 -0.004804 0.001654 -0.006919 0.016928 0.040171
#
#
# Mechanical properties :
#
#
# Convention : Reuss Voigt Hill
#
# Bulk Modulus (GPa) = 27.49373 42.69196 35.09285
# Shear Modulus (GPa) = 21.30013 30.48201 25.89107
#
# Velocity S-wave (km/s) = 3.20689 3.83632 3.53564
# Velocity P-wave (km/s) = 5.19488 6.34317 5.79753
#
# Compressibility (1/GPa) = 0.03637193
#
# Stress axis : x y z
#
# Youngs Moduli (GPa) = 86.12383 40.12231 78.24586
#
# Poissons Ratio (x) = 0.08129 0.24722
# Poissons Ratio (y) = 0.17449 0.10063
# Poissons Ratio (z) = 0.27211 0.05160
#
# Static dielectric constant tensor:
#      x y z
#    x 1.814760 0.023560 0.004920 
#    y 0.023560 1.812700 -0.004310 
#    z 0.004920 -0.004310 1.775180 
# 
# From -- ./inp_files/63483.got.cif
#   From: 2010.05.17/outbox.cif.g08.bks.cpg/sg2_32_cif.got.tgz:63483.got - 2010.06.03 11:33:40.
