data_PCOD9095595
_publ_section_title
;
Structure prediction by ZEFSAII (Michael W. Deem and Ramdas Pophale) SiO2 
 PCOD9095595
Probable space group: P -1
;
_chemical_formula_sum "Si O2"
_cell_formula_units_Z 16
_cell_length_a 14.731889
_cell_length_b 12.298603
_cell_length_c 5.580467
_cell_angle_alpha 104.108734
_cell_angle_beta 84.220474
_cell_angle_gamma 49.446194
_cell_volume 697.431042
_symmetry_space_group_name_H-M "P -1"
_symmetry_group_IT_number 2
_symmetry_cell_setting 'triclinic'
loop_
_space_group_symop_operation_xyz
x,y,z
-x,-y,-z
loop_
_atom_site_type_symbol
_atom_site_label
_atom_site_fract_x
_atom_site_fract_y
_atom_site_fract_z
Si Si1 0.689522 0.121724 0.351154
Si Si2 0.463752 0.348247 0.867061
Si Si3 0.433880 0.979637 0.811136
Si Si4 0.044114 0.521465 0.749231
Si Si5 0.323373 0.266318 0.722992
Si Si6 0.373462 0.643360 0.863131
Si Si7 0.045101 0.147208 0.008685
Si Si8 0.889831 0.094244 0.775501
O O1 0.596240 0.188506 0.636404
O O2 0.633625 0.079923 0.149079
O O3 0.677059 0.254759 0.308377
O O4 0.836326 0.964839 0.268127
O O5 0.360931 0.338810 0.922681
O O6 0.407698 0.484042 0.760384
O O7 0.503657 0.392312 0.100513
O O8 0.553079 0.850292 0.539785
O O9 0.325547 0.149282 0.807241
O O10 0.500000 0.000000 0.000000
O O11 0.197283 0.391076 0.669813
O O12 0.000000 0.500000 0.500000
O O13 0.993959 0.692240 0.853789
O O14 0.000000 0.500000 0.000000
O O15 0.259221 0.756705 0.149249
O O16 0.098454 0.034705 0.163588
O O17 0.929477 0.166803 0.968290
O O18 0.000000 0.000000 0.500000
#
# Coordination Sequence:
#
# PCOD9095595 Si02
#       8
#     2   2   2   2   2   2   2   2
#     4  10  20  36  59  86 120 162 211 276 330 404
#     4  10  20  37  58  91 123 162 209 271 347 394
#     4  10  21  38  65  92 124 168 220 281 338 400
#     4  12  29  49  71 104 144 193 238 292 352 423
#     4  10  23  41  63  94 129 171 226 279 341 409
#     4  10  20  35  58  90 124 160 214 267 341 410
#     4  10  23  41  63  97 130 179 235 282 351 416
#     4  10  21  39  65  94 132 180 228 289 347 419
#
# _framework density 22.941338999999999
#
# number of rings (size 3 to 8) (size 9 to 14) (size 15 to 20)
#    0.000    1.750    0.000    3.375    5.250    0.000 
#    4.500    2.500    0.000    0.000    0.000    0.000 
#    0.000    0.000    0.000    0.000    0.000    0.000 
#
# Total GULP energy -89302.239805 kJ/mol
# GULP energy per Si atom -5581.389988 kJ/mol
# Density = 2.288912 g / cm^3
# Si number density = 22.941339 Si / 1000 Ang^3
#
#
#
# Elastic Constant Matrix: (Units=GPa)
#
#
# Indices 1 2 3 4 5 6 
#
# 1 109.1646 54.0481 16.4638 6.1389 1.9133 1.2604
# 2 54.0481 137.9004 26.1709 21.5002 1.3674 9.8875
# 3 16.4638 26.1709 56.6395 1.4785 -1.1782 3.8956
# 4 6.1389 21.5002 1.4785 23.4841 -0.6485 -0.8189
# 5 1.9133 1.3674 -1.1782 -0.6485 23.9283 0.0656
# 6 1.2604 9.8875 3.8956 -0.8189 0.0656 45.7900
#
#
#
# Elastic Compliance Matrix: (Units=1/GPa)
#
#
# Indices 1 2 3 4 5 6 
#
# 1 0.011529 -0.004494 -0.001375 0.001195 -0.000703 0.000792
# 2 -0.004494 0.011245 -0.003521 -0.008994 -0.000694 -0.002165
# 3 -0.001375 -0.003521 0.019706 0.002350 0.001347 -0.000838
# 4 0.001195 -0.008994 0.002350 0.050499 0.001895 0.002610
# 5 -0.000703 -0.000694 0.001347 0.001895 0.042005 0.000028
# 6 0.000792 -0.002165 -0.000838 0.002610 0.000028 0.022402
#
#
# Mechanical properties :
#
#
# Convention : Reuss Voigt Hill
#
# Bulk Modulus (GPa) = 42.19135 55.23001 48.71068
# Shear Modulus (GPa) = 27.16421 32.44195 29.80308
#
# Velocity S-wave (km/s) = 3.44477 3.76457 3.60821
# Velocity P-wave (km/s) = 5.85259 6.55917 6.21593
#
# Compressibility (1/GPa) = 0.02370154
#
# Stress axis : x y z
#
# Youngs Moduli (GPa) = 86.74014 88.92581 50.74526
#
# Poissons Ratio (x) = 0.39961 0.06978
# Poissons Ratio (y) = 0.38979 0.17865
# Poissons Ratio (z) = 0.11927 0.31307
#
# Static dielectric constant tensor:
#      x y z
#    x 1.894810 -0.007670 0.040530 
#    y -0.007670 1.853400 -0.012470 
#    z 0.040530 -0.012470 1.976100 
# 
# From -- ./inp_files/95145.got.cif
#   From: 2010.05.17/outbox.cif.g08.bks.cpg/sg2_48_cif.got.tgz:95145.got - 2010.06.03 11:33:40.
