data_PCOD9095391
_publ_section_title
;
Structure prediction by ZEFSAII (Michael W. Deem and Ramdas Pophale) SiO2 
 PCOD9095391
Probable space group: P -1
;
_chemical_formula_sum "Si O2"
_cell_formula_units_Z 16
_cell_length_a 10.969187
_cell_length_b 24.045812
_cell_length_c 26.153252
_cell_angle_alpha 10.980533
_cell_angle_beta 143.972981
_cell_angle_gamma 144.297383
_cell_volume 762.641703
_symmetry_space_group_name_H-M "P -1"
_symmetry_group_IT_number 2
_symmetry_cell_setting 'triclinic'
loop_
_space_group_symop_operation_xyz
x,y,z
-x,-y,-z
loop_
_atom_site_type_symbol
_atom_site_label
_atom_site_fract_x
_atom_site_fract_y
_atom_site_fract_z
Si Si1 0.754264 0.525807 0.888466
Si Si2 0.472045 0.721296 0.704061
Si Si3 0.260455 0.074657 0.235196
Si Si4 0.551869 0.598339 0.370293
Si Si5 0.159454 0.780892 0.073550
Si Si6 0.800756 0.606325 0.310714
Si Si7 0.480266 0.125625 0.587212
Si Si8 0.112177 0.771916 0.180490
O O1 0.667030 0.669604 0.780440
O O2 0.681018 0.721038 0.640924
O O3 0.000000 0.500000 0.000000
O O4 0.633354 0.188645 0.146643
O O5 0.500000 0.000000 0.500000
O O6 0.302236 0.825399 0.513955
O O7 0.396768 0.403239 0.991907
O O8 0.024947 0.136622 0.097422
O O9 0.336171 0.959113 0.311125
O O10 0.500000 0.500000 0.500000
O O11 0.713120 0.403380 0.579172
O O12 0.687827 0.919322 0.131069
O O13 0.320952 0.588227 0.277449
O O14 0.074009 0.674697 0.196540
O O15 0.599753 0.359404 0.456778
O O16 0.000000 0.500000 0.500000
O O17 0.894040 0.718162 0.185527
O O18 0.776802 0.892872 0.076252
#
# Coordination Sequence:
#
# PCOD9095391 Si02
#       8
#     2   2   2   2   2   2   2   2
#     4  10  22  42  68  89 120 162 205 258 316 377
#     4  10  22  40  64  91 120 149 194 257 326 363
#     4  10  21  35  64  90 115 149 201 255 290 374
#     4   9  19  34  55  76 115 159 198 244 289 358
#     4  10  20  35  57  85 113 160 211 242 297 354
#     4  11  23  35  57  87 126 164 201 255 306 356
#     4  10  22  37  63  94 117 157 213 245 300 378
#     4  10  21  34  56  80 123 163 203 248 306 350
#
# _framework density 20.979707000000001
#
# number of rings (size 3 to 8) (size 9 to 14) (size 15 to 20)
#    0.000    2.000    0.000    3.000   12.250    0.000 
#    0.000    1.250    8.250    0.000    0.000    0.000 
#    0.000    0.000    0.000    0.000    0.000    0.000 
#
# Total GULP energy -89230.814289 kJ/mol
# GULP energy per Si atom -5576.925893 kJ/mol
# Density = 2.093196 g / cm^3
# Si number density = 20.979707 Si / 1000 Ang^3
#
#
#
# Elastic Constant Matrix: (Units=GPa)
#
#
# Indices 1 2 3 4 5 6 
#
# 1 47.6332 21.8474 8.8448 -2.0656 4.4025 4.9638
# 2 21.8474 82.9626 28.7944 6.2229 20.9726 13.3060
# 3 8.8448 28.7944 111.6256 1.5069 15.9151 3.7290
# 4 -2.0656 6.2229 1.5069 48.8730 4.1630 10.5566
# 5 4.4025 20.9726 15.9151 4.1630 35.1701 5.7713
# 6 4.9638 13.3060 3.7290 10.5566 5.7713 18.3671
#
#
#
# Elastic Compliance Matrix: (Units=1/GPa)
#
#
# Indices 1 2 3 4 5 6 
#
# 1 0.024282 -0.006104 -0.000414 0.002559 0.001122 -0.003879
# 2 -0.006104 0.017804 -0.002801 -0.000008 -0.007204 -0.008411
# 3 -0.000414 -0.002801 0.010111 0.000069 -0.003026 0.000999
# 4 0.002559 -0.000008 0.000069 0.023673 -0.000845 -0.014040
# 5 0.001122 -0.007204 -0.003026 -0.000845 0.034869 -0.004941
# 6 -0.003879 -0.008411 0.000999 -0.014040 -0.004941 0.071007
#
#
# Mechanical properties :
#
#
# Convention : Reuss Voigt Hill
#
# Bulk Modulus (GPa) = 29.79844 40.13274 34.96559
# Shear Modulus (GPa) = 23.63295 32.66435 28.14865
#
# Velocity S-wave (km/s) = 3.35993 3.95010 3.66691
# Velocity P-wave (km/s) = 5.41170 6.32260 5.88480
#
# Compressibility (1/GPa) = 0.03355880
#
# Stress axis : x y z
#
# Youngs Moduli (GPa) = 41.18303 56.16731 98.90351
#
# Poissons Ratio (x) = 0.34284 0.04098
# Poissons Ratio (y) = 0.25138 0.27700
# Poissons Ratio (z) = 0.01706 0.15731
#
# Static dielectric constant tensor:
#      x y z
#    x 1.835310 0.005030 0.008610 
#    y 0.005030 1.811820 0.136240 
#    z 0.008610 0.136240 2.018520 
# 
# From -- ./inp_files/93654.got.cif
#   From: 2010.05.17/outbox.cif.g08.bks.cpg/sg2_47_cif.got.tgz:93654.got - 2010.06.03 11:33:40.
