data_PCOD9095278
_publ_section_title
;
Structure prediction by ZEFSAII (Michael W. Deem and Ramdas Pophale) SiO2 
 PCOD9095278
Probable space group: P -1
;
_chemical_formula_sum "Si O2"
_cell_formula_units_Z 14
_cell_length_a 8.541429
_cell_length_b 13.576798
_cell_length_c 15.256601
_cell_angle_alpha 27.054411
_cell_angle_beta 95.344646
_cell_angle_gamma 77.968053
_cell_volume 613.292038
_symmetry_space_group_name_H-M "P -1"
_symmetry_group_IT_number 2
_symmetry_cell_setting 'triclinic'
loop_
_space_group_symop_operation_xyz
x,y,z
-x,-y,-z
loop_
_atom_site_type_symbol
_atom_site_label
_atom_site_fract_x
_atom_site_fract_y
_atom_site_fract_z
Si Si1 0.122224 0.989091 0.880810
Si Si2 0.307330 0.640400 0.994981
Si Si3 0.371888 0.271149 0.052086
Si Si4 0.275849 0.715990 0.277670
Si Si5 0.085835 0.176628 0.454609
Si Si6 0.233568 0.239590 0.244925
Si Si7 0.241014 0.271776 0.556459
O O1 0.241173 0.739450 0.013364
O O2 0.104778 0.236463 0.637651
O O3 0.247447 0.900478 0.048015
O O4 0.899803 0.090745 0.812529
O O5 0.501507 0.623495 0.999454
O O6 0.127056 0.907030 0.714268
O O7 0.327140 0.372343 0.188742
O O8 0.345387 0.129141 0.244924
O O9 0.522102 0.018364 0.192209
O O10 0.150035 0.547150 0.790287
O O11 0.500000 0.500000 0.500000
O O12 0.221876 0.533192 0.375551
O O13 0.206635 0.086744 0.440284
O O14 0.178267 0.265261 0.459402
O O15 0.000000 0.500000 0.000000
#
# Coordination Sequence:
#
# PCOD9095278 Si02
#       7
#     2   2   2   2   2   2   2
#     4   9  22  40  57  83 111 141 185 230 272 329
#     4  10  21  38  58  81 112 147 185 228 274 323
#     4   9  20  36  57  84 111 147 190 225 267 325
#     4  11  23  38  60  85 109 143 183 226 281 332
#     4   9  20  38  57  79 113 150 183 226 276 318
#     4  10  20  35  56  84 115 148 186 227 269 322
#     4  10  22  39  58  82 113 147 181 226 278 327
#
# _framework density 22.827622000000002
#
# number of rings (size 3 to 8) (size 9 to 14) (size 15 to 20)
#    0.000    2.571    0.000    1.714    0.000   14.286 
#    0.000    8.571    0.000    0.000    0.000    0.000 
#    0.000    0.000    0.000    0.000    0.000    0.000 
#
# Total GULP energy -78217.738497 kJ/mol
# GULP energy per Si atom -5586.981321 kJ/mol
# Density = 2.277567 g / cm^3
# Si number density = 22.827622 Si / 1000 Ang^3
#
#
#
# Elastic Constant Matrix: (Units=GPa)
#
#
# Indices 1 2 3 4 5 6 
#
# 1 49.2014 16.7691 19.4207 9.3238 20.0019 -16.5017
# 2 16.7691 59.2936 15.5149 16.2621 4.3637 -28.1171
# 3 19.4207 15.5149 86.6517 15.0022 29.0327 -18.8534
# 4 9.3238 16.2621 15.0022 38.5031 -1.5434 -12.3744
# 5 20.0019 4.3637 29.0327 -1.5434 43.7095 -4.9442
# 6 -16.5017 -28.1171 -18.8534 -12.3744 -4.9442 40.2890
#
#
#
# Elastic Compliance Matrix: (Units=1/GPa)
#
#
# Indices 1 2 3 4 5 6 
#
# 1 0.029687 -0.002836 0.000598 -0.004323 -0.012999 0.007537
# 2 -0.002836 0.026637 0.000257 -0.005568 0.000064 0.015845
# 3 0.000598 0.000257 0.017351 -0.005743 -0.011418 0.005378
# 4 -0.004323 -0.005568 -0.005743 0.032784 0.007810 0.002684
# 5 -0.012999 0.000064 -0.011418 0.007810 0.036253 -0.003775
# 6 0.007537 0.015845 0.005378 0.002684 -0.003775 0.041844
#
#
# Mechanical properties :
#
#
# Convention : Reuss Voigt Hill
#
# Bulk Modulus (GPa) = 14.34502 33.17291 23.75896
# Shear Modulus (GPa) = 23.61223 34.06311 28.83767
#
# Velocity S-wave (km/s) = 3.21965 3.86708 3.55812
# Velocity P-wave (km/s) = 4.48545 5.87388 5.22598
#
# Compressibility (1/GPa) = 0.06971062
#
# Stress axis : x y z
#
# Youngs Moduli (GPa) = 33.68514 37.54242 57.63478
#
# Poissons Ratio (x) = 0.10647 -0.03446
# Poissons Ratio (y) = 0.09553 -0.01479
# Poissons Ratio (z) = -0.02014 -0.00963
#
# Static dielectric constant tensor:
#      x y z
#    x 1.844930 -0.001080 -0.001530 
#    y -0.001080 1.851430 -0.002000 
#    z -0.001530 -0.002000 1.891750 
# 
# From -- ./inp_files/315313.got.cif
#   From: 2010.05.17/outbox.cif.g08.bks.cpg/sg2_158_cif.got.tgz:315313.got - 2010.06.03 11:33:40.
