data_PCOD9095804
_publ_section_title
;
Structure prediction by ZEFSAII (Michael W. Deem and Ramdas Pophale) SiO2 
 PCOD9095804
Probable space group: P -1
;
_chemical_formula_sum "Si O2"
_cell_formula_units_Z 12
_cell_length_a 15.551961
_cell_length_b 9.356819
_cell_length_c 9.388969
_cell_angle_alpha 62.116750
_cell_angle_beta 140.680911
_cell_angle_gamma 96.838383
_cell_volume 689.604004
_symmetry_space_group_name_H-M "P -1"
_symmetry_group_IT_number 2
_symmetry_cell_setting 'triclinic'
loop_
_space_group_symop_operation_xyz
x,y,z
-x,-y,-z
loop_
_atom_site_type_symbol
_atom_site_label
_atom_site_fract_x
_atom_site_fract_y
_atom_site_fract_z
Si Si1 0.845658 0.460210 0.710217
Si Si2 0.679280 0.387055 0.281885
Si Si3 0.807051 0.685736 0.810493
Si Si4 0.821894 0.613857 0.193725
Si Si5 0.295968 0.170165 0.799053
Si Si6 0.645375 0.059774 0.274920
O O1 0.750764 0.383610 0.530810
O O2 0.794573 0.528999 0.772466
O O3 0.817625 0.646656 0.508288
O O4 0.022951 0.336691 0.987566
O O5 0.745943 0.490768 0.215901
O O6 0.711401 0.191086 0.358236
O O7 0.500000 0.500000 0.000000
O O8 0.695831 0.879438 0.517173
O O9 0.788704 0.659820 0.964858
O O10 0.756046 0.795040 0.121019
O O11 0.000000 0.500000 0.500000
O O12 0.302991 0.005478 0.790326
O O13 0.463767 0.157363 0.003606
#
# Coordination Sequence:
#
# PCOD9095804 Si02
#       6
#     2   2   2   2   2   2
#     4   9  18  36  59  80 114 154 189 214 294 348
#     4  11  20  38  61  84 113 154 191 228 285 345
#     4  10  20  35  60  86 112 148 193 236 276 338
#     4  11  20  38  61  84 113 154 191 228 285 345
#     4   9  18  36  59  80 114 154 189 214 294 348
#     4  10  20  35  60  86 112 148 193 236 276 338
#
# _framework density 17.401292000000002
#
# number of rings (size 3 to 8) (size 9 to 14) (size 15 to 20)
#    0.000    2.000    6.667    0.000    0.000    1.333 
#    0.000    3.333    0.000    0.000    0.000    0.000 
#    0.000    0.000    0.000    0.000    0.000    0.000 
#
# Total GULP energy -66836.051674 kJ/mol
# GULP energy per Si atom -5569.670973 kJ/mol
# Density = 1.736169 g / cm^3
# Si number density = 17.401292 Si / 1000 Ang^3
#
#
#
# Elastic Constant Matrix: (Units=GPa)
#
#
# Indices 1 2 3 4 5 6 
#
# 1 94.6119 46.7142 21.5783 11.7064 -12.1697 -27.3454
# 2 46.7142 141.9421 20.7512 31.7055 -5.1589 -30.8435
# 3 21.5783 20.7512 57.9298 12.4324 -0.1227 -3.8911
# 4 11.7064 31.7055 12.4324 32.5311 -7.5756 -6.9354
# 5 -12.1697 -5.1589 -0.1227 -7.5756 32.4223 12.6955
# 6 -27.3454 -30.8435 -3.8911 -6.9354 12.6955 36.5882
#
#
#
# Elastic Compliance Matrix: (Units=1/GPa)
#
#
# Indices 1 2 3 4 5 6 
#
# 1 0.015506 -0.002886 -0.004460 0.001231 0.002477 0.008056
# 2 -0.002886 0.011632 -0.000566 -0.009535 -0.004312 0.007278
# 3 -0.004460 -0.000566 0.020410 -0.006649 -0.002436 -0.002055
# 4 0.001231 -0.009535 -0.006649 0.043887 0.010393 -0.003112
# 5 0.002477 -0.004312 -0.002436 0.010393 0.038807 -0.013538
# 6 0.008056 0.007278 -0.002055 -0.003112 -0.013538 0.043376
#
#
# Mechanical properties :
#
#
# Convention : Reuss Voigt Hill
#
# Bulk Modulus (GPa) = 31.52099 52.50793 42.01446
# Shear Modulus (GPa) = 24.99789 34.00432 29.50110
#
# Velocity S-wave (km/s) = 3.79430 4.42535 4.12192
# Velocity P-wave (km/s) = 6.11139 7.50678 6.84474
#
# Compressibility (1/GPa) = 0.03172489
#
# Stress axis : x y z
#
# Youngs Moduli (GPa) = 64.49042 85.96976 48.99535
#
# Poissons Ratio (x) = 0.24808 0.21853
# Poissons Ratio (y) = 0.18610 0.02773
# Poissons Ratio (z) = 0.28764 0.04865
#
# Static dielectric constant tensor:
#      x y z
#    x 1.587660 -0.049000 -0.009200 
#    y -0.049000 1.632660 0.025310 
#    z -0.009200 0.025310 1.589380 
# 
# From -- ./inp_files/146030.got.cif
#   From: 2010.05.17/outbox.cif.g08.bks.cpg/sg2_74_cif.got.tgz:146030.got - 2010.06.03 11:33:40.
