data_PCOD9095281
_publ_section_title
;
Structure prediction by ZEFSAII (Michael W. Deem and Ramdas Pophale) SiO2 
 PCOD9095281
Probable space group: P -1
;
_chemical_formula_sum "Si O2"
_cell_formula_units_Z 12
_cell_length_a 5.383162
_cell_length_b 8.695508
_cell_length_c 11.489655
_cell_angle_alpha 112.903688
_cell_angle_beta 77.451491
_cell_angle_gamma 116.866773
_cell_volume 441.384456
_symmetry_space_group_name_H-M "P -1"
_symmetry_group_IT_number 2
_symmetry_cell_setting 'triclinic'
loop_
_space_group_symop_operation_xyz
x,y,z
-x,-y,-z
loop_
_atom_site_type_symbol
_atom_site_label
_atom_site_fract_x
_atom_site_fract_y
_atom_site_fract_z
Si Si1 0.893131 0.693898 0.454340
Si Si2 0.669367 0.602712 0.831538
Si Si3 0.209072 0.687589 0.659979
Si Si4 0.856557 0.642118 0.084093
Si Si5 0.644955 0.997238 0.607439
Si Si6 0.770792 0.983603 0.918542
O O1 0.694881 0.480288 0.393630
O O2 0.758545 0.837988 0.535525
O O3 0.065716 0.685091 0.548576
O O4 0.114266 0.798130 0.359598
O O5 0.957810 0.611880 0.756007
O O6 0.379782 0.426312 0.812627
O O7 0.657287 0.778070 0.822787
O O8 0.709357 0.646065 0.977491
O O9 0.414251 0.904377 0.704280
O O10 0.077722 0.849825 0.134909
O O11 0.000000 0.500000 0.000000
O O12 0.500000 0.000000 0.500000
O O13 0.500000 0.000000 0.000000
O O14 0.000000 0.000000 0.000000
#
# Coordination Sequence:
#
# PCOD9095281 Si02
#       6
#     2   2   2   2   2   2
#     4   9  19  36  57  81 115 150 183 238 288 344
#     4  10  22  36  56  87 112 154 198 243 295 356
#     4  10  20  35  56  85 113 147 195 232 290 346
#     4  10  20  38  58  78 116 152 194 246 298 348
#     4   9  18  35  57  76 110 150 186 231 290 344
#     4  10  20  38  62  82 114 155 198 247 304 353
#
# _framework density 27.187179
#
# number of rings (size 3 to 8) (size 9 to 14) (size 15 to 20)
#    0.000    2.333    1.667    0.500    0.000    2.667 
#    0.000    5.000    0.000    0.000    0.000    0.000 
#    0.000    0.000    0.000    0.000    0.000    0.000 
#
# Total GULP energy -67006.573559 kJ/mol
# GULP energy per Si atom -5583.881130 kJ/mol
# Density = 2.712530 g / cm^3
# Si number density = 27.187179 Si / 1000 Ang^3
#
#
#
# Elastic Constant Matrix: (Units=GPa)
#
#
# Indices 1 2 3 4 5 6 
#
# 1 125.4406 64.0952 13.7210 -0.4428 -26.1152 49.6254
# 2 64.0952 205.1559 26.3258 -1.1152 -6.2337 45.9585
# 3 13.7210 26.3258 63.1410 -31.9368 6.6581 22.0885
# 4 -0.4428 -1.1152 -31.9368 54.1207 0.9611 3.7267
# 5 -26.1152 -6.2337 6.6581 0.9611 51.4984 -6.4834
# 6 49.6254 45.9585 22.0885 3.7267 -6.4834 86.2627
#
#
#
# Elastic Compliance Matrix: (Units=1/GPa)
#
#
# Indices 1 2 3 4 5 6 
#
# 1 0.012553 -0.002508 -0.000275 0.000166 0.005413 -0.005415
# 2 -0.002508 0.006198 -0.002037 -0.000996 -0.000407 -0.001326
# 3 -0.000275 -0.002037 0.028690 0.017481 -0.005335 -0.007260
# 4 0.000166 -0.000996 0.017481 0.029220 -0.003543 -0.005569
# 5 0.005413 -0.000407 -0.005335 -0.003543 0.022913 0.000344
# 6 -0.005415 -0.001326 -0.007260 -0.005569 0.000344 0.017539
#
#
# Mechanical properties :
#
#
# Convention : Reuss Voigt Hill
#
# Bulk Modulus (GPa) = 26.45267 66.89129 46.67198
# Shear Modulus (GPa) = 35.87968 57.68273 46.78121
#
# Velocity S-wave (km/s) = 3.63675 4.61118 4.15264
# Velocity P-wave (km/s) = 5.23312 7.28066 6.34009
#
# Compressibility (1/GPa) = 0.03780337
#
# Stress axis : x y z
#
# Youngs Moduli (GPa) = 79.65951 161.33048 34.85491
#
# Poissons Ratio (x) = 0.40465 0.00957
# Poissons Ratio (y) = 0.19980 0.07098
# Poissons Ratio (z) = 0.02188 0.32856
#
# Static dielectric constant tensor:
#      x y z
#    x 1.950900 0.096090 -0.092040 
#    y 0.096090 2.092930 0.047580 
#    z -0.092040 0.047580 2.096380 
# 
# From -- ./inp_files/480032.got.cif
#   From: 2010.05.17/outbox.cif.g08.bks.cpg/sg2_241_cif.got.tgz:480032.got - 2010.06.03 11:33:40.
