data_PCOD9095042
_publ_section_title
;
Structure prediction by ZEFSAII (Michael W. Deem and Ramdas Pophale) SiO2 
 PCOD9095042
Probable space group: P -1
;
_chemical_formula_sum "Si O2"
_cell_formula_units_Z 16
_cell_length_a 11.979486
_cell_length_b 20.091167
_cell_length_c 24.539917
_cell_angle_alpha 17.996657
_cell_angle_beta 153.527751
_cell_angle_gamma 152.574814
_cell_volume 784.745173
_symmetry_space_group_name_H-M "P -1"
_symmetry_group_IT_number 2
_symmetry_cell_setting 'triclinic'
loop_
_space_group_symop_operation_xyz
x,y,z
-x,-y,-z
loop_
_atom_site_type_symbol
_atom_site_label
_atom_site_fract_x
_atom_site_fract_y
_atom_site_fract_z
Si Si1 0.247999 0.400232 0.691573
Si Si2 0.510546 0.379089 0.474551
Si Si3 0.056509 0.264078 0.823422
Si Si4 0.639873 0.858481 0.209589
Si Si5 0.422450 0.944804 0.572258
Si Si6 0.877994 0.535410 0.186301
Si Si7 0.055623 0.000763 0.199674
Si Si8 0.850758 0.834228 0.429571
O O1 0.480708 0.546697 0.642683
O O2 0.000000 0.500000 0.500000
O O3 0.270956 0.370910 0.788511
O O4 0.139577 0.157759 0.804338
O O5 0.781573 0.317069 0.650099
O O6 0.531593 0.603918 0.342995
O O7 0.274942 0.197959 0.540510
O O8 0.141045 0.360751 0.844120
O O9 0.000000 0.000000 0.000000
O O10 0.656202 0.893556 0.254063
O O11 0.935677 0.932691 0.259655
O O12 0.500000 0.000000 0.000000
O O13 0.367211 0.675724 0.765579
O O14 0.662806 0.046688 0.637766
O O15 0.146347 0.988016 0.434256
O O16 0.500000 0.000000 0.500000
O O17 0.103212 0.404585 0.384011
O O18 0.926380 0.742907 0.005184
#
# Coordination Sequence:
#
# PCOD9095042 Si02
#       8
#     2   2   2   2   2   2   2   2
#     4   9  21  33  54  83 114 151 191 232 281 342
#     4  10  20  35  53  82 121 147 188 240 294 349
#     4  11  20  36  58  85 118 156 193 237 292 349
#     4  11  21  30  53  84 123 150 179 231 308 353
#     4  10  21  37  57  83 117 156 196 234 296 345
#     4  10  21  34  58  87 118 147 196 237 296 345
#     4  11  19  36  54  86 116 152 196 236 280 353
#     4  10  21  36  55  83 120 153 185 242 304 346
#
# _framework density 20.388786
#
# number of rings (size 3 to 8) (size 9 to 14) (size 15 to 20)
#    0.750    1.000    3.750    1.500    5.250    0.000 
#    0.000    0.000    0.000    3.000    0.000    1.750 
#    0.000    0.000    0.000    0.000    0.000    0.000 
#
# Total GULP energy -89123.346010 kJ/mol
# GULP energy per Si atom -5570.209126 kJ/mol
# Density = 2.034238 g / cm^3
# Si number density = 20.388786 Si / 1000 Ang^3
#
#
#
# Elastic Constant Matrix: (Units=GPa)
#
#
# Indices 1 2 3 4 5 6 
#
# 1 107.1478 22.2388 -7.2991 -0.7871 -25.9973 26.7163
# 2 22.2388 34.3328 7.2516 5.0213 -1.1664 16.0726
# 3 -7.2991 7.2516 58.7006 -2.1983 1.8220 7.4199
# 4 -0.7871 5.0213 -2.1983 25.5552 4.2838 -0.1887
# 5 -25.9973 -1.1664 1.8220 4.2838 29.5224 -11.4906
# 6 26.7163 16.0726 7.4199 -0.1887 -11.4906 29.7273
#
#
#
# Elastic Compliance Matrix: (Units=1/GPa)
#
#
# Indices 1 2 3 4 5 6 
#
# 1 0.015184 -0.007125 0.003307 0.000387 0.010237 -0.006660
# 2 -0.007125 0.045448 -0.003673 -0.007678 -0.011620 -0.021792
# 3 0.003307 -0.003673 0.018805 0.002588 -0.001146 -0.006106
# 4 0.000387 -0.007678 0.002588 0.041842 -0.005722 0.001211
# 5 0.010237 -0.011620 -0.001146 -0.005722 0.049780 0.016573
# 6 -0.006660 -0.021792 -0.006106 0.001211 0.016573 0.059345
#
#
# Mechanical properties :
#
#
# Convention : Reuss Voigt Hill
#
# Bulk Modulus (GPa) = 15.51469 27.17376 21.34423
# Shear Modulus (GPa) = 18.73567 28.82697 23.78132
#
# Velocity S-wave (km/s) = 3.03466 3.76422 3.41895
# Velocity P-wave (km/s) = 4.46148 5.67884 5.10656
#
# Compressibility (1/GPa) = 0.06445506
#
# Stress axis : x y z
#
# Youngs Moduli (GPa) = 65.85751 22.00339 53.17788
#
# Poissons Ratio (x) = 0.15677 -0.17585
# Poissons Ratio (y) = 0.46924 0.19530
# Poissons Ratio (z) = -0.21778 0.08081
#
# Static dielectric constant tensor:
#      x y z
#    x 1.773670 0.056100 -0.006860 
#    y 0.056100 1.745680 -0.001140 
#    z -0.006860 -0.001140 1.758240 
# 
# From -- ./inp_files/610857.got.cif
#   From: 2010.05.17/outbox.cif.g08.bks.cpg/sg2_306_cif.got.tgz:610857.got - 2010.06.03 11:33:40.
