data_PCOD9095611
_publ_section_title
;
Structure prediction by ZEFSAII (Michael W. Deem and Ramdas Pophale) SiO2 
 PCOD9095611
Probable space group: P -1
;
_chemical_formula_sum "Si O2"
_cell_formula_units_Z 16
_cell_length_a 15.590188
_cell_length_b 8.437119
_cell_length_c 10.829827
_cell_angle_alpha 102.491088
_cell_angle_beta 46.997210
_cell_angle_gamma 66.815456
_cell_volume 663.436207
_symmetry_space_group_name_H-M "P -1"
_symmetry_group_IT_number 2
_symmetry_cell_setting 'triclinic'
loop_
_space_group_symop_operation_xyz
x,y,z
-x,-y,-z
loop_
_atom_site_type_symbol
_atom_site_label
_atom_site_fract_x
_atom_site_fract_y
_atom_site_fract_z
Si Si1 0.761460 0.410735 0.377713
Si Si2 0.165375 0.479089 0.453031
Si Si3 0.474835 0.960323 0.654759
Si Si4 0.069530 0.097298 0.847158
Si Si5 0.300056 0.762895 0.203103
Si Si6 0.086194 0.810998 0.232598
Si Si7 0.167304 0.359631 0.178837
Si Si8 0.715946 0.922779 0.563577
O O1 0.760908 0.445466 0.531695
O O2 0.595231 0.677008 0.521756
O O3 0.789387 0.188718 0.298800
O O4 0.945500 0.284010 0.112215
O O5 0.262648 0.322005 0.206326
O O6 0.958318 0.660352 0.652752
O O7 0.181351 0.334524 0.523394
O O8 0.500000 0.000000 0.500000
O O9 0.539625 0.036935 0.694394
O O10 0.271910 0.162103 0.932021
O O11 0.928292 0.172560 0.897798
O O12 0.175601 0.112878 0.661926
O O13 0.248813 0.747792 0.116387
O O14 0.309754 0.936264 0.269899
O O15 0.500000 0.500000 0.000000
O O16 0.108383 0.916226 0.484024
O O17 0.102999 0.605480 0.230003
#
# Coordination Sequence:
#
# PCOD9095611 Si02
#       8
#     2   2   2   2   2   2   2   2
#     4  10  24  40  66  95 123 179 210 276 331 388
#     4  10  23  39  65  91 127 173 213 261 330 384
#     4  11  25  42  69  96 128 172 220 274 335 383
#     4  10  21  43  66  91 134 166 227 264 327 410
#     4  10  20  35  58  94 126 164 219 259 328 386
#     4  10  21  37  65  90 129 178 208 278 329 384
#     4  11  22  41  63  96 134 162 224 272 318 404
#     4  10  22  41  62  94 123 176 216 269 323 399
#
# _framework density 24.116864
#
# number of rings (size 3 to 8) (size 9 to 14) (size 15 to 20)
#    0.000    1.750    2.500    1.500    7.000    3.000 
#    4.500    0.625    2.750    0.000    0.000    0.000 
#    0.000    0.000    0.000    0.000    0.000    0.000 
#
# Total GULP energy -89071.516921 kJ/mol
# GULP energy per Si atom -5566.969808 kJ/mol
# Density = 2.406197 g / cm^3
# Si number density = 24.116864 Si / 1000 Ang^3
#
#
#
# Elastic Constant Matrix: (Units=GPa)
#
#
# Indices 1 2 3 4 5 6 
#
# 1 72.5570 -8.5029 -0.8437 7.4778 0.6031 -23.3999
# 2 -8.5029 129.7226 39.0138 10.1761 7.3701 -20.8018
# 3 -0.8437 39.0138 104.3804 11.6545 17.1140 -9.5054
# 4 7.4778 10.1761 11.6545 36.7948 -3.9154 1.7942
# 5 0.6031 7.3701 17.1140 -3.9154 28.6152 -4.4383
# 6 -23.3999 -20.8018 -9.5054 1.7942 -4.4383 21.1641
#
#
#
# Elastic Compliance Matrix: (Units=1/GPa)
#
#
# Indices 1 2 3 4 5 6 
#
# 1 0.030836 0.009607 0.001912 -0.011625 0.001220 0.045636
# 2 0.009607 0.013141 -0.002129 -0.005994 0.000463 0.023186
# 3 0.001912 -0.002129 0.012461 -0.004702 -0.006878 0.004574
# 4 -0.011625 -0.005994 -0.004702 0.034405 0.005810 -0.022554
# 5 0.001220 0.000463 -0.006878 0.005810 0.040760 0.006770
# 6 0.045636 0.023186 0.004574 -0.022554 0.006770 0.125883
#
#
# Mechanical properties :
#
#
# Convention : Reuss Voigt Hill
#
# Bulk Modulus (GPa) = 13.29472 40.66604 26.98038
# Shear Modulus (GPa) = 18.95530 35.78102 27.36816
#
# Velocity S-wave (km/s) = 2.80657 3.85600 3.37235
# Velocity P-wave (km/s) = 4.00338 6.06000 5.13569
#
# Compressibility (1/GPa) = 0.07521781
#
# Stress axis : x y z
#
# Youngs Moduli (GPa) = 32.42949 76.09930 80.25131
#
# Poissons Ratio (x) = -0.73107 -0.15347
# Poissons Ratio (y) = -0.31154 0.17086
# Poissons Ratio (z) = -0.06202 0.16202
#
# Static dielectric constant tensor:
#      x y z
#    x 2.321540 0.108470 -0.240790 
#    y 0.108470 1.952480 -0.005200 
#    z -0.240790 -0.005200 2.126250 
# 
# From -- ./inp_files/461376.got.cif
#   From: 2010.05.17/outbox.cif.g08.bks.cpg/sg2_231_cif.got.tgz:461376.got - 2010.06.03 11:33:40.
