data_PCOD9095676
_publ_section_title
;
Structure prediction by ZEFSAII (Michael W. Deem and Ramdas Pophale) SiO2 
 PCOD9095676
Probable space group: P -1
;
_chemical_formula_sum "Si O2"
_cell_formula_units_Z 16
_cell_length_a 8.275619
_cell_length_b 16.057865
_cell_length_c 12.477088
_cell_angle_alpha 113.205218
_cell_angle_beta 112.491384
_cell_angle_gamma 125.891215
_cell_volume 699.505991
_symmetry_space_group_name_H-M "P -1"
_symmetry_group_IT_number 2
_symmetry_cell_setting 'triclinic'
loop_
_space_group_symop_operation_xyz
x,y,z
-x,-y,-z
loop_
_atom_site_type_symbol
_atom_site_label
_atom_site_fract_x
_atom_site_fract_y
_atom_site_fract_z
Si Si1 0.633824 0.964847 0.059781
Si Si2 0.704309 0.040194 0.350655
Si Si3 0.488189 0.809362 0.371357
Si Si4 0.858367 0.642883 0.104597
Si Si5 0.474949 0.603126 0.289548
Si Si6 0.539411 0.625941 0.557439
Si Si7 0.832886 0.054522 0.761994
Si Si8 0.341645 0.199659 0.132704
O O1 0.571704 0.933141 0.154385
O O2 0.480368 0.807742 0.881187
O O3 0.052774 0.162977 0.248892
O O4 0.500000 0.000000 0.000000
O O5 0.119440 0.246123 0.544735
O O6 0.634986 0.938998 0.379099
O O7 0.485803 0.035431 0.306928
O O8 0.458954 0.692709 0.272129
O O9 0.108921 0.680816 0.238002
O O10 0.712489 0.914354 0.591356
O O11 0.061665 0.827743 0.243732
O O12 0.500000 0.500000 0.000000
O O13 0.778507 0.577698 0.929681
O O14 0.369811 0.567457 0.368552
O O15 0.500000 0.500000 0.500000
O O16 0.446985 0.645182 0.648339
O O17 0.157600 0.178752 0.984378
O O18 0.000000 0.000000 0.000000
#
# Coordination Sequence:
#
# PCOD9095676 Si02
#       8
#     2   2   2   2   2   2   2   2
#     4  10  21  37  60  87 114 151 200 247 292 345
#     4  10  20  35  59  86 116 151 195 246 291 346
#     4  11  22  38  59  86 115 153 196 240 292 350
#     4  11  23  39  57  84 119 154 189 236 292 353
#     4  11  22  37  58  87 118 154 193 241 296 349
#     4  10  21  39  59  83 118 156 194 241 296 350
#     4  11  21  38  62  85 113 154 197 239 291 350
#     4  10  20  37  60  86 113 151 197 244 291 347
#
# _framework density 22.873284999999999
#
# number of rings (size 3 to 8) (size 9 to 14) (size 15 to 20)
#    0.000    1.500    0.000    8.250    0.000    2.000 
#    0.000    1.875    0.000    0.000    0.000    0.000 
#    0.000    0.000    0.000    0.000    0.000    0.000 
#
# Total GULP energy -89379.238517 kJ/mol
# GULP energy per Si atom -5586.202407 kJ/mol
# Density = 2.282122 g / cm^3
# Si number density = 22.873285 Si / 1000 Ang^3
#
#
#
# Elastic Constant Matrix: (Units=GPa)
#
#
# Indices 1 2 3 4 5 6 
#
# 1 101.8957 31.4788 34.8358 -12.6482 -24.0925 -8.8941
# 2 31.4788 49.5655 22.3102 -15.9171 -18.1615 -3.8083
# 3 34.8358 22.3102 91.9570 -23.9864 -31.3578 3.0670
# 4 -12.6482 -15.9171 -23.9864 33.0405 5.2270 -0.6285
# 5 -24.0925 -18.1615 -31.3578 5.2270 50.1068 1.1493
# 6 -8.8941 -3.8083 3.0670 -0.6285 1.1493 35.9130
#
#
#
# Elastic Compliance Matrix: (Units=1/GPa)
#
#
# Indices 1 2 3 4 5 6 
#
# 1 0.013537 -0.006284 -0.002991 -0.000331 0.002328 0.002861
# 2 -0.006284 0.030350 0.000294 0.011361 0.006940 0.001614
# 3 -0.002991 0.000294 0.017705 0.010427 0.008714 -0.002318
# 4 -0.000331 0.011361 0.010427 0.042238 0.006060 0.000778
# 5 0.002328 0.006940 0.008714 0.006060 0.028419 -0.000235
# 6 0.002861 0.001614 -0.002318 0.000778 -0.000235 0.028944
#
#
# Mechanical properties :
#
#
# Convention : Reuss Voigt Hill
#
# Bulk Modulus (GPa) = 22.92097 46.74086 34.83091
# Shear Modulus (GPa) = 25.81309 34.13162 29.97235
#
# Velocity S-wave (km/s) = 3.36300 3.86710 3.62382
# Velocity P-wave (km/s) = 5.01221 6.35754 5.72453
#
# Compressibility (1/GPa) = 0.04362818
#
# Stress axis : x y z
#
# Youngs Moduli (GPa) = 73.87040 32.94918 56.48021
#
# Poissons Ratio (x) = 0.20706 0.16896
# Poissons Ratio (y) = 0.46423 -0.01659
# Poissons Ratio (z) = 0.22098 -0.00968
#
# Static dielectric constant tensor:
#      x y z
#    x 1.840590 0.081830 -0.023720 
#    y 0.081830 1.809680 -0.012540 
#    z -0.023720 -0.012540 1.841630 
# 
# From -- ./inp_files/403142.got.cif
#   From: 2010.05.17/outbox.cif.g08.bks.cpg/sg2_202_cif.got.tgz:403142.got - 2010.06.03 11:33:40.
