data_PCOD9095389
_publ_section_title
;
Structure prediction by ZEFSAII (Michael W. Deem and Ramdas Pophale) SiO2 
 PCOD9095389
Probable space group: P -1
;
_chemical_formula_sum "Si O2"
_cell_formula_units_Z 15
_cell_length_a 13.782302
_cell_length_b 12.028075
_cell_length_c 10.126029
_cell_angle_alpha 75.204897
_cell_angle_beta 133.186210
_cell_angle_gamma 142.102067
_cell_volume 580.406085
_symmetry_space_group_name_H-M "P -1"
_symmetry_group_IT_number 2
_symmetry_cell_setting 'triclinic'
loop_
_space_group_symop_operation_xyz
x,y,z
-x,-y,-z
loop_
_atom_site_type_symbol
_atom_site_label
_atom_site_fract_x
_atom_site_fract_y
_atom_site_fract_z
Si Si1 0.539837 0.265084 0.134999
Si Si2 0.694625 0.587820 0.514109
Si Si3 0.319442 0.324092 0.004771
Si Si4 0.932467 0.279628 0.338053
Si Si5 0.000000 0.500000 0.000000
Si Si6 0.900882 0.515885 0.155289
Si Si7 0.193763 0.122643 0.270731
Si Si8 0.572789 0.031833 0.317330
O O1 0.329911 0.194914 0.024048
O O2 0.478020 0.086937 0.162570
O O3 0.814667 0.499021 0.400330
O O4 0.644819 0.360743 0.053059
O O5 0.488417 0.484527 0.243350
O O6 0.505064 0.335876 0.456229
O O7 0.762317 0.731589 0.643183
O O8 0.964145 0.745848 0.647329
O O9 0.500000 0.500000 0.000000
O O10 0.001862 0.116656 0.767867
O O11 0.694131 0.072928 0.280479
O O12 0.898569 0.372132 0.195472
O O13 0.919326 0.552134 0.007197
O O14 0.322830 0.778460 0.224351
O O15 0.175818 0.759562 0.412168
O O16 0.000000 0.000000 0.000000
#
# Coordination Sequence:
#
# PCOD9095389 Si02
#       8
#     2   2   2   2   1   2   2   2
#     4   8  17  37  59  75 105 150 186 222 269 322
#     4   9  18  36  59  81 107 144 187 230 275 330
#     4  10  20  35  57  85 111 142 186 234 281 327
#     4   8  16  35  61  78 101 147 189 219 267 330
#     4  12  22  30  50  84 118 142 174 222 274 326
#     4   9  19  36  53  79 112 143 180 221 268 327
#     4   9  19  35  55  79 110 143 184 230 276 326
#     4   9  19  36  56  79 111 145 181 224 268 328
#
# _framework density 25.843972999999998
#
# number of rings (size 3 to 8) (size 9 to 14) (size 15 to 20)
#    0.000    2.933    0.000    2.000    0.000    4.800 
#    0.000   14.667    0.000    0.000    0.000    0.000 
#    0.000    0.000    0.000    0.000    0.000    0.000 
#
# Total GULP energy -83513.442788 kJ/mol
# GULP energy per Si atom -5567.562853 kJ/mol
# Density = 2.578515 g / cm^3
# Si number density = 25.843973 Si / 1000 Ang^3
#
#
#
# Elastic Constant Matrix: (Units=GPa)
#
#
# Indices 1 2 3 4 5 6 
#
# 1 121.2162 16.0994 32.2100 11.1077 -19.5141 -7.7030
# 2 16.0994 72.1907 46.2482 26.5177 5.8931 5.2145
# 3 32.2100 46.2482 121.0240 37.6407 -22.7617 1.6875
# 4 11.1077 26.5177 37.6407 36.7637 -3.8502 12.4306
# 5 -19.5141 5.8931 -22.7617 -3.8502 29.3219 9.2530
# 6 -7.7030 5.2145 1.6875 12.4306 9.2530 20.4520
#
#
#
# Elastic Compliance Matrix: (Units=1/GPa)
#
#
# Indices 1 2 3 4 5 6 
#
# 1 0.009828 -0.002140 -0.000345 -0.001304 0.005754 0.002465
# 2 -0.002140 0.025907 -0.008209 -0.015241 -0.018434 0.010870
# 3 -0.000345 -0.008209 0.017237 -0.010623 0.013063 0.001087
# 4 -0.001304 -0.015241 -0.010623 0.065670 0.016122 -0.042936
# 5 0.005754 -0.018434 0.013063 0.016122 0.064348 -0.033122
# 6 0.002465 0.010870 0.001087 -0.042936 -0.033122 0.088044
#
#
# Mechanical properties :
#
#
# Convention : Reuss Voigt Hill
#
# Bulk Modulus (GPa) = 31.66048 55.94957 43.80503
# Shear Modulus (GPa) = 16.50447 31.96575 24.23511
#
# Velocity S-wave (km/s) = 2.52983 3.52074 3.06559
# Velocity P-wave (km/s) = 4.56187 6.18251 5.43296
#
# Compressibility (1/GPa) = 0.03158512
#
# Stress axis : x y z
#
# Youngs Moduli (GPa) = 101.75071 38.60033 58.01494
#
# Poissons Ratio (x) = 0.08260 0.01999
# Poissons Ratio (y) = 0.21773 0.47623
# Poissons Ratio (z) = 0.03506 0.31686
#
# Static dielectric constant tensor:
#      x y z
#    x 2.187120 0.127130 -0.035150 
#    y 0.127130 2.378210 -0.125060 
#    z -0.035150 -0.125060 2.069490 
# 
# From -- ./inp_files/450155.got.cif
#   From: 2010.05.17/outbox.cif.g08.bks.cpg/sg2_226_cif.got.tgz:450155.got - 2010.06.03 11:33:40.
