data_PCOD9095763
_publ_section_title
;
Structure prediction by ZEFSAII (Michael W. Deem and Ramdas Pophale) SiO2 
 PCOD9095763
Probable space group: P -1
;
_chemical_formula_sum "Si O2"
_cell_formula_units_Z 16
_cell_length_a 11.848355
_cell_length_b 12.184477
_cell_length_c 12.148974
_cell_angle_alpha 71.604715
_cell_angle_beta 105.503191
_cell_angle_gamma 44.084356
_cell_volume 768.144179
_symmetry_space_group_name_H-M "P -1"
_symmetry_group_IT_number 2
_symmetry_cell_setting 'triclinic'
loop_
_space_group_symop_operation_xyz
x,y,z
-x,-y,-z
loop_
_atom_site_type_symbol
_atom_site_label
_atom_site_fract_x
_atom_site_fract_y
_atom_site_fract_z
Si Si1 0.868733 0.336343 0.393105
Si Si2 0.643647 0.138336 0.398012
Si Si3 0.139626 0.899486 0.957107
Si Si4 0.601061 0.384386 0.179985
Si Si5 0.268253 0.735147 0.441267
Si Si6 0.694150 0.770519 0.708023
Si Si7 0.556768 0.132721 0.955105
Si Si8 0.730274 0.761906 0.980197
O O1 0.808990 0.291871 0.297920
O O2 0.815599 0.305423 0.497669
O O3 0.674666 0.607309 0.248742
O O4 0.137475 0.140557 0.485347
O O5 0.661794 0.201061 0.273926
O O6 0.676500 0.203620 0.483588
O O7 0.394555 0.285736 0.299619
O O8 0.958090 0.032164 0.767998
O O9 0.250771 0.930684 0.960039
O O10 0.369625 0.615953 0.120580
O O11 0.000000 0.000000 0.000000
O O12 0.500000 0.500000 0.000000
O O13 0.500000 0.500000 0.500000
O O14 0.677306 0.822085 0.816699
O O15 0.500000 0.000000 0.500000
O O16 0.985626 0.522521 0.838068
O O17 0.449582 0.174622 0.027836
O O18 0.673927 0.929387 0.977597
#
# Coordination Sequence:
#
# PCOD9095763 Si02
#       8
#     2   2   2   2   2   2   2   2
#     4  10  21  38  62  93 129 166 213 263 329 403
#     4  11  23  40  64  93 134 169 214 273 331 400
#     4  11  23  38  63  96 133 169 209 261 339 400
#     4  10  20  35  59  94 125 169 209 254 327 402
#     4  11  23  39  58 100 134 168 215 266 329 412
#     4  11  26  46  71  98 131 178 234 283 342 391
#     4  10  23  45  70  94 133 177 220 283 336 393
#     4  10  25  49  68  98 133 175 238 283 329 397
#
# _framework density 20.829421
#
# number of rings (size 3 to 8) (size 9 to 14) (size 15 to 20)
#    0.000    1.500    0.000    6.000    8.750    2.000 
#    2.250    1.875    0.000    0.000    0.000    0.000 
#    0.000    0.000    0.000    0.000    0.000    0.000 
#
# Total GULP energy -89236.939902 kJ/mol
# GULP energy per Si atom -5577.308744 kJ/mol
# Density = 2.078201 g / cm^3
# Si number density = 20.829421 Si / 1000 Ang^3
#
#
#
# Elastic Constant Matrix: (Units=GPa)
#
#
# Indices 1 2 3 4 5 6 
#
# 1 63.7315 40.5909 32.4435 -5.4018 10.7843 -17.9221
# 2 40.5909 117.7675 37.7934 -5.8106 4.2943 -23.1730
# 3 32.4435 37.7934 98.0769 13.9882 -0.0522 -1.7489
# 4 -5.4018 -5.8106 13.9882 31.5683 -4.3810 -2.5907
# 5 10.7843 4.2943 -0.0522 -4.3810 29.2634 -4.5196
# 6 -17.9221 -23.1730 -1.7489 -2.5907 -4.5196 27.9243
#
#
#
# Elastic Compliance Matrix: (Units=1/GPa)
#
#
# Indices 1 2 3 4 5 6 
#
# 1 0.028347 -0.003332 -0.009056 0.008556 -0.006436 0.014614
# 2 -0.003332 0.013026 -0.004430 0.004731 0.001416 0.009062
# 3 -0.009056 -0.004430 0.016182 -0.010145 0.001070 -0.009243
# 4 0.008556 0.004731 -0.010145 0.040171 0.004185 0.013186
# 5 -0.006436 0.001416 0.001070 0.004185 0.037516 0.003572
# 6 0.014614 0.009062 -0.009243 0.013186 0.003572 0.053933
#
#
# Mechanical properties :
#
#
# Convention : Reuss Voigt Hill
#
# Bulk Modulus (GPa) = 41.80791 55.69239 48.75015
# Shear Modulus (GPa) = 21.66535 29.00108 25.33321
#
# Velocity S-wave (km/s) = 3.22861 3.73542 3.49122
# Velocity P-wave (km/s) = 5.83212 6.73794 6.30133
#
# Compressibility (1/GPa) = 0.02391892
#
# Stress axis : x y z
#
# Youngs Moduli (GPa) = 35.27725 76.76871 61.79850
#
# Poissons Ratio (x) = 0.25577 0.55967
# Poissons Ratio (y) = 0.11753 0.27376
# Poissons Ratio (z) = 0.31949 0.34007
#
# Static dielectric constant tensor:
#      x y z
#    x 1.803730 -0.140570 0.087980 
#    y -0.140570 1.773260 0.027080 
#    z 0.087980 0.027080 1.753250 
# 
# From -- ./inp_files/428009.got.cif
#   From: 2010.05.17/outbox.cif.g08.bks.cpg/sg2_215_cif.got.tgz:428009.got - 2010.06.03 11:33:40.
