data_PCOD9095168
_publ_section_title
;
Structure prediction by ZEFSAII (Michael W. Deem and Ramdas Pophale) SiO2 
 PCOD9095168
Probable space group: P -1
;
_chemical_formula_sum "Si O2"
_cell_formula_units_Z 16
_cell_length_a 5.257302
_cell_length_b 17.074056
_cell_length_c 12.028915
_cell_angle_alpha 58.324203
_cell_angle_beta 71.265546
_cell_angle_gamma 56.157294
_cell_volume 762.586714
_symmetry_space_group_name_H-M "P -1"
_symmetry_group_IT_number 2
_symmetry_cell_setting 'triclinic'
loop_
_space_group_symop_operation_xyz
x,y,z
-x,-y,-z
loop_
_atom_site_type_symbol
_atom_site_label
_atom_site_fract_x
_atom_site_fract_y
_atom_site_fract_z
Si Si1 0.101423 0.558654 0.080218
Si Si2 0.593474 0.333243 0.906683
Si Si3 0.797149 0.622763 0.460814
Si Si4 0.510634 0.747021 0.606119
Si Si5 0.117749 0.085117 0.405422
Si Si6 0.742454 0.664842 0.852956
Si Si7 0.800591 0.259611 0.696276
Si Si8 0.332144 0.088121 0.622800
O O1 0.240578 0.603223 0.118140
O O2 0.276599 0.437505 0.112395
O O3 0.755574 0.585575 0.141847
O O4 0.035650 0.620658 0.925058
O O5 0.753221 0.260566 0.834105
O O6 0.534323 0.277700 0.063321
O O7 0.625104 0.646214 0.587144
O O8 0.524765 0.685122 0.363424
O O9 0.000000 0.500000 0.500000
O O10 0.033996 0.669010 0.398334
O O11 0.727675 0.724047 0.699168
O O12 0.525124 0.832675 0.458313
O O13 0.171583 0.803351 0.662086
O O14 0.227193 0.092198 0.507794
O O15 0.395311 0.031764 0.317619
O O16 0.000000 0.000000 0.500000
O O17 0.036237 0.144550 0.700357
#
# Coordination Sequence:
#
# PCOD9095168 Si02
#       8
#     2   2   2   2   2   2   2   2
#     4   9  20  37  50  80 102 154 197 226 265 310
#     4  10  20  36  55  76 105 150 194 227 263 318
#     4  11  24  37  50  84 116 155 181 226 277 333
#     4  10  20  35  55  84 114 146 182 236 280 336
#     4   9  17  35  57  79 110 137 185 230 289 335
#     4   9  21  33  54  78 109 144 196 230 276 309
#     4  11  22  38  57  78 115 149 193 220 276 341
#     4   9  19  35  55  84 108 144 181 233 286 340
#
# _framework density 20.98122
#
# number of rings (size 3 to 8) (size 9 to 14) (size 15 to 20)
#    0.750    1.500    1.250    1.500    3.500    1.000 
#    0.000    0.000    0.000    0.750    0.000    8.750 
#    0.000    0.000    0.000    0.000    0.000    0.000 
#
# Total GULP energy -89075.724797 kJ/mol
# GULP energy per Si atom -5567.232800 kJ/mol
# Density = 2.093347 g / cm^3
# Si number density = 20.981220 Si / 1000 Ang^3
#
#
#
# Elastic Constant Matrix: (Units=GPa)
#
#
# Indices 1 2 3 4 5 6 
#
# 1 99.6960 26.6165 2.7541 5.2184 21.4700 -0.1561
# 2 26.6165 131.1034 43.7886 48.0033 0.3419 -20.2512
# 3 2.7541 43.7886 76.1609 29.1355 10.7262 -3.4624
# 4 5.2184 48.0033 29.1355 34.6131 6.1552 -2.6772
# 5 21.4700 0.3419 10.7262 6.1552 14.4001 3.1408
# 6 -0.1561 -20.2512 -3.4624 -2.6772 3.1408 28.3544
#
#
#
# Elastic Compliance Matrix: (Units=1/GPa)
#
#
# Indices 1 2 3 4 5 6 
#
# 1 0.021829 -0.012918 0.006189 0.017043 -0.043720 -0.001898
# 2 -0.012918 0.027117 -0.005793 -0.036325 0.036022 0.011169
# 3 0.006189 -0.005793 0.022374 -0.007690 -0.022556 0.000401
# 4 0.017043 -0.036325 -0.007690 0.092136 -0.055600 -0.011931
# 5 -0.043720 0.036022 -0.022556 -0.055600 0.174749 -0.001874
# 6 -0.001898 0.011169 0.000401 -0.011931 -0.001874 0.042364
#
#
# Mechanical properties :
#
#
# Convention : Reuss Voigt Hill
#
# Bulk Modulus (GPa) = 21.60977 50.36432 35.98705
# Shear Modulus (GPa) = 11.87543 31.06027 21.46785
#
# Velocity S-wave (km/s) = 2.38166 3.85175 3.20221
# Velocity P-wave (km/s) = 4.22907 6.62102 5.55531
#
# Compressibility (1/GPa) = 0.04627535
#
# Stress axis : x y z
#
# Youngs Moduli (GPa) = 45.81138 36.87780 44.69516
#
# Poissons Ratio (x) = 0.47640 -0.27663
# Poissons Ratio (y) = 0.59180 0.25891
# Poissons Ratio (z) = -0.28354 0.21363
#
# Static dielectric constant tensor:
#      x y z
#    x 1.845470 -0.025640 -0.043950 
#    y -0.025640 1.821900 -0.000390 
#    z -0.043950 -0.000390 1.792050 
# 
# From -- ./inp_files/75746.got.cif
#   From: 2010.05.17/outbox.cif.g08.bks.cpg/sg2_38_cif.got.tgz:75746.got - 2010.06.03 11:33:40.
