data_PCOD9095840
_publ_section_title
;
Structure prediction by ZEFSAII (Michael W. Deem and Ramdas Pophale) SiO2 
 PCOD9095840
Probable space group: P -1
;
_chemical_formula_sum "Si O2"
_cell_formula_units_Z 16
_cell_length_a 9.051886
_cell_length_b 12.619145
_cell_length_c 7.112280
_cell_angle_alpha 100.856167
_cell_angle_beta 71.978950
_cell_angle_gamma 130.986262
_cell_volume 583.060042
_symmetry_space_group_name_H-M "P -1"
_symmetry_group_IT_number 2
_symmetry_cell_setting 'triclinic'
loop_
_space_group_symop_operation_xyz
x,y,z
-x,-y,-z
loop_
_atom_site_type_symbol
_atom_site_label
_atom_site_fract_x
_atom_site_fract_y
_atom_site_fract_z
Si Si1 0.682095 0.739327 0.167450
Si Si2 0.329486 0.489202 0.443301
Si Si3 0.991778 0.509944 0.233032
Si Si4 0.426090 0.105958 0.264345
Si Si5 0.742045 0.988590 0.331970
Si Si6 0.976267 0.718272 0.853361
Si Si7 0.228107 0.791870 0.120587
Si Si8 0.845279 0.812453 0.552045
O O1 0.459579 0.597193 0.257737
O O2 0.798375 0.786817 0.339834
O O3 0.704004 0.876325 0.161443
O O4 0.788132 0.715533 0.960238
O O5 0.500000 0.500000 0.500000
O O6 0.215791 0.530822 0.621301
O O7 0.176055 0.321182 0.412795
O O8 0.034708 0.409426 0.259850
O O9 0.165732 0.676007 0.260476
O O10 0.000000 0.500000 0.000000
O O11 0.312887 0.169774 0.303077
O O12 0.445171 0.100323 0.481197
O O13 0.310225 0.942923 0.205749
O O14 0.616314 0.190290 0.082131
O O15 0.822181 0.129625 0.244818
O O16 0.934981 0.055142 0.417064
O O17 0.028059 0.724563 0.057734
#
# Coordination Sequence:
#
# PCOD9095840 Si02
#       8
#     2   2   2   2   2   2   2   2
#     4  10  21  37  62  88 115 157 207 240 283 348
#     4  10  20  35  60  89 112 150 201 250 279 341
#     4  10  21  35  59  86 118 150 198 241 291 342
#     4  10  21  36  62  88 113 156 198 251 283 349
#     4  11  22  38  60  87 123 156 197 238 302 350
#     4  11  23  37  61  86 125 156 189 241 302 355
#     4  10  21  38  59  87 119 149 201 240 297 345
#     4  10  20  36  64  83 116 151 208 239 290 339
#
# _framework density 27.441427000000001
#
# number of rings (size 3 to 8) (size 9 to 14) (size 15 to 20)
#    0.000    1.750    0.000    7.125   12.250    0.500 
#    0.000    3.125    2.750    0.000    0.000    0.000 
#    0.000    0.000    0.000    0.000    0.000    0.000 
#
# Total GULP energy -89507.588697 kJ/mol
# GULP energy per Si atom -5594.224294 kJ/mol
# Density = 2.737897 g / cm^3
# Si number density = 27.441427 Si / 1000 Ang^3
#
#
#
# Elastic Constant Matrix: (Units=GPa)
#
#
# Indices 1 2 3 4 5 6 
#
# 1 76.2098 40.2340 59.8236 2.2330 -34.9406 -27.6321
# 2 40.2340 204.6164 52.7769 -11.4610 -37.8974 -36.1945
# 3 59.8236 52.7769 171.5448 19.8168 -52.6690 -22.3509
# 4 2.2330 -11.4610 19.8168 42.3929 -5.9609 3.0408
# 5 -34.9406 -37.8974 -52.6690 -5.9609 60.0950 8.1090
# 6 -27.6321 -36.1945 -22.3509 3.0408 8.1090 50.8678
#
#
#
# Elastic Compliance Matrix: (Units=1/GPa)
#
#
# Indices 1 2 3 4 5 6 
#
# 1 0.024321 -0.000187 -0.004635 0.001388 0.008809 0.009555
# 2 -0.000187 0.006436 -0.000801 0.002294 0.003002 0.003510
# 3 -0.004635 -0.000801 0.009709 -0.003876 0.004838 0.000639
# 4 0.001388 0.002294 -0.003876 0.026257 0.001616 -0.001144
# 5 0.008809 0.003002 0.004838 0.001616 0.027438 0.004576
# 6 0.009555 0.003510 0.000639 -0.001144 0.004576 0.026966
#
#
# Mechanical properties :
#
#
# Convention : Reuss Voigt Hill
#
# Bulk Modulus (GPa) = 34.22346 84.22667 59.22507
# Shear Modulus (GPa) = 35.18309 50.64024 42.91166
#
# Velocity S-wave (km/s) = 3.58455 4.30046 3.95872
# Velocity P-wave (km/s) = 5.44339 7.44436 6.52108
#
# Compressibility (1/GPa) = 0.02921972
#
# Stress axis : x y z
#
# Youngs Moduli (GPa) = 41.11618 155.37617 103.00131
#
# Poissons Ratio (x) = 0.02913 0.47740
# Poissons Ratio (y) = 0.00771 0.08248
# Poissons Ratio (z) = 0.19057 0.12442
#
# Static dielectric constant tensor:
#      x y z
#    x 2.480730 -0.000730 0.128790 
#    y -0.000730 2.231840 0.003780 
#    z 0.128790 0.003780 2.117000 
# 
# From -- ./inp_files/188321.got.cif
#   From: 2010.05.17/outbox.cif.g08.bks.cpg/sg2_95_cif.got.tgz:188321.got - 2010.06.03 11:33:40.
