data_PCOD9095951
_publ_section_title
;
Structure prediction by ZEFSAII (Michael W. Deem and Ramdas Pophale) SiO2 
 PCOD9095951
Probable space group: P -1
;
_chemical_formula_sum "Si O2"
_cell_formula_units_Z 16
_cell_length_a 10.639069
_cell_length_b 9.713772
_cell_length_c 7.390597
_cell_angle_alpha 92.360384
_cell_angle_beta 57.894041
_cell_angle_gamma 86.395504
_cell_volume 643.178036
_symmetry_space_group_name_H-M "P -1"
_symmetry_group_IT_number 2
_symmetry_cell_setting 'triclinic'
loop_
_space_group_symop_operation_xyz
x,y,z
-x,-y,-z
loop_
_atom_site_type_symbol
_atom_site_label
_atom_site_fract_x
_atom_site_fract_y
_atom_site_fract_z
Si Si1 0.610066 0.226745 0.184244
Si Si2 0.546101 0.032567 0.765040
Si Si3 0.899774 0.075268 0.923895
Si Si4 0.343286 0.596723 0.144435
Si Si5 0.156944 0.465180 0.979263
Si Si6 0.326851 0.421005 0.476869
Si Si7 0.261316 0.171857 0.922107
Si Si8 0.184941 0.146791 0.557965
O O1 0.528758 0.092231 0.289855
O O2 0.499007 0.355140 0.343719
O O3 0.781235 0.192244 0.108618
O O4 0.625019 0.255622 0.956536
O O5 0.719082 0.990960 0.595662
O O6 0.439880 0.168938 0.800825
O O7 0.500000 0.000000 0.000000
O O8 0.008714 0.133381 0.697258
O O9 0.801143 0.954239 0.929367
O O10 0.000000 0.000000 0.000000
O O11 0.299326 0.555863 0.377533
O O12 0.500000 0.500000 0.000000
O O13 0.217884 0.556339 0.096099
O O14 0.270610 0.452352 0.722812
O O15 0.169716 0.313911 0.051628
O O16 0.000000 0.500000 0.000000
O O17 0.239333 0.292723 0.455499
O O18 0.227902 0.152515 0.736683
#
# Coordination Sequence:
#
# PCOD9095951 Si02
#       8
#     2   2   2   2   2   2   2   2
#     4   9  20  38  60  89 121 163 206 259 316 380
#     4  10  20  35  61  87 119 159 203 254 310 375
#     4   9  18  34  61  88 117 155 202 258 317 370
#     4  10  23  41  68  89 130 167 218 260 317 373
#     4  11  25  41  65  98 128 168 218 264 316 381
#     4   9  21  42  64  92 127 170 211 260 318 383
#     4   9  20  37  59  84 123 158 202 257 313 375
#     4   9  18  35  61  88 120 156 208 250 319 375
#
# _framework density 24.876472
#
# number of rings (size 3 to 8) (size 9 to 14) (size 15 to 20)
#    0.000    2.500    0.000    0.375   10.500    5.500 
#    0.000    3.750    0.000    0.000    0.000    0.000 
#    0.000    0.000    0.000    0.000    0.000    0.000 
#
# Total GULP energy -89220.056757 kJ/mol
# GULP energy per Si atom -5576.253547 kJ/mol
# Density = 2.481985 g / cm^3
# Si number density = 24.876472 Si / 1000 Ang^3
#
#
#
# Elastic Constant Matrix: (Units=GPa)
#
#
# Indices 1 2 3 4 5 6 
#
# 1 97.1699 22.9833 28.0617 8.0941 -14.7389 -11.5330
# 2 22.9833 89.6498 16.9315 -8.7586 -12.8631 -13.2982
# 3 28.0617 16.9315 81.1130 3.3933 -36.4409 -6.4222
# 4 8.0941 -8.7586 3.3933 36.2397 -8.2056 -5.6398
# 5 -14.7389 -12.8631 -36.4409 -8.2056 33.6867 -3.8149
# 6 -11.5330 -13.2982 -6.4222 -5.6398 -3.8149 29.7578
#
#
#
# Elastic Compliance Matrix: (Units=1/GPa)
#
#
# Indices 1 2 3 4 5 6 
#
# 1 0.012390 -0.002272 -0.003036 -0.002365 0.001012 0.002813
# 2 -0.002272 0.014848 0.002932 0.007695 0.010768 0.009227
# 3 -0.003036 0.002932 0.028898 0.008422 0.034507 0.012390
# 4 -0.002365 0.007695 0.008422 0.036213 0.021415 0.013949
# 5 0.001012 0.010768 0.034507 0.021415 0.079835 0.026944
# 6 0.002813 0.009227 0.012390 0.013949 0.026944 0.047590
#
#
# Mechanical properties :
#
#
# Convention : Reuss Voigt Hill
#
# Bulk Modulus (GPa) = 19.46063 44.87619 32.16841
# Shear Modulus (GPa) = 20.69081 33.26724 26.97902
#
# Velocity S-wave (km/s) = 2.88712 3.66087 3.29678
# Velocity P-wave (km/s) = 4.35360 5.99567 5.23937
#
# Compressibility (1/GPa) = 0.05138580
#
# Stress axis : x y z
#
# Youngs Moduli (GPa) = 80.71276 67.34690 34.60462
#
# Poissons Ratio (x) = 0.15298 0.10506
# Poissons Ratio (y) = 0.18335 -0.10148
# Poissons Ratio (z) = 0.24504 -0.19749
#
# Static dielectric constant tensor:
#      x y z
#    x 2.083760 0.117740 -0.066250 
#    y 0.117740 2.159380 -0.017000 
#    z -0.066250 -0.017000 2.003830 
# 
# From -- ./inp_files/252791.got.cif
#   From: 2010.05.17/outbox.cif.g08.bks.cpg/sg2_127_cif.got.tgz:252791.got - 2010.06.03 11:33:40.
