data_PCOD9095801
_publ_section_title
;
Structure prediction by ZEFSAII (Michael W. Deem and Ramdas Pophale) SiO2 
 PCOD9095801
Probable space group: P -1
;
_chemical_formula_sum "Si O2"
_cell_formula_units_Z 12
_cell_length_a 10.232693
_cell_length_b 8.465924
_cell_length_c 11.409911
_cell_angle_alpha 66.231134
_cell_angle_beta 31.509223
_cell_angle_gamma 68.698957
_cell_volume 472.372917
_symmetry_space_group_name_H-M "P -1"
_symmetry_group_IT_number 2
_symmetry_cell_setting 'triclinic'
loop_
_space_group_symop_operation_xyz
x,y,z
-x,-y,-z
loop_
_atom_site_type_symbol
_atom_site_label
_atom_site_fract_x
_atom_site_fract_y
_atom_site_fract_z
Si Si1 0.499835 0.375321 0.427301
Si Si2 0.242444 0.392106 0.996987
Si Si3 0.276859 0.859610 0.288440
Si Si4 0.451561 0.980551 0.366960
Si Si5 0.969674 0.464581 0.398720
Si Si6 0.911259 0.975219 0.856895
O O1 0.500000 0.500000 0.500000
O O2 0.498960 0.187920 0.539953
O O3 0.262611 0.427554 0.512459
O O4 0.730993 0.445142 0.156841
O O5 0.082707 0.235719 0.108755
O O6 0.186611 0.485678 0.134575
O O7 0.502319 0.285463 0.849053
O O8 0.337648 0.958736 0.330381
O O9 0.049934 0.742591 0.531721
O O10 0.227932 0.952411 0.176035
O O11 0.192494 0.047853 0.612583
O O12 0.735701 0.025875 0.089974
O O13 0.000000 0.500000 0.500000
#
# Coordination Sequence:
#
# PCOD9095801 Si02
#       6
#     2   2   2   2   2   2
#     4  11  20  36  58  92 121 156 203 255 313 361
#     4  10  20  35  60  85 125 153 202 254 309 358
#     4  10  21  35  56  91 120 156 198 252 309 366
#     4  11  21  34  58  94 122 153 194 255 310 359
#     4  11  24  39  59  86 121 167 208 248 304 369
#     4  11  21  34  60  95 125 152 199 258 314 360
#
# _framework density 25.403658
#
# number of rings (size 3 to 8) (size 9 to 14) (size 15 to 20)
#    0.000    1.333    6.667    2.500    4.667    4.000 
#    0.000    0.000    0.000    2.000    0.000    0.000 
#    0.000    0.000    0.000    0.000    0.000    0.000 
#
# Total GULP energy -66809.336074 kJ/mol
# GULP energy per Si atom -5567.444673 kJ/mol
# Density = 2.534584 g / cm^3
# Si number density = 25.403658 Si / 1000 Ang^3
#
#
#
# Elastic Constant Matrix: (Units=GPa)
#
#
# Indices 1 2 3 4 5 6 
#
# 1 95.3142 43.9220 36.7229 8.1375 18.2140 -25.4769
# 2 43.9220 86.5272 31.5267 -23.3178 -1.7390 -37.7581
# 3 36.7229 31.5267 186.0074 -4.5371 12.2111 -8.1078
# 4 8.1375 -23.3178 -4.5371 29.7533 -27.8353 18.8591
# 5 18.2140 -1.7390 12.2111 -27.8353 12.1250 3.6396
# 6 -25.4769 -37.7581 -8.1078 18.8591 3.6396 39.3740
#
#
#
# Elastic Compliance Matrix: (Units=1/GPa)
#
#
# Indices 1 2 3 4 5 6 
#
# 1 0.008085 -0.001607 -0.002031 0.009690 0.012677 -0.002541
# 2 -0.001607 0.021299 -0.001963 -0.003664 -0.007396 0.021419
# 3 -0.002031 -0.001963 0.006066 0.000913 -0.000544 -0.002334
# 4 0.009690 -0.003664 0.000913 -0.005059 -0.030060 0.008146
# 5 0.012677 -0.007396 -0.000544 -0.030060 -0.011019 0.016415
# 6 -0.002541 0.021419 -0.002334 0.008146 0.016415 0.038394
#
#
# Mechanical properties :
#
#
# Convention : Reuss Voigt Hill
#
# Bulk Modulus (GPa) = 41.23822 65.79912 53.51867
# Shear Modulus (GPa) = 64.89263 33.29559 49.09411
#
# Velocity S-wave (km/s) = 5.05965 3.62423 4.40086
# Velocity P-wave (km/s) = 7.09942 6.59326 6.85102
#
# Compressibility (1/GPa) = 0.02424935
#
# Stress axis : x y z
#
# Youngs Moduli (GPa) = 123.67939 46.95127 164.85546
#
# Poissons Ratio (x) = 0.07545 0.33475
# Poissons Ratio (y) = 0.19874 0.32359
# Poissons Ratio (z) = 0.25114 0.09216
#
# Static dielectric constant tensor:
#      x y z
#    x 2.023820 0.026650 -0.132950 
#    y 0.026650 2.080040 0.040710 
#    z -0.132950 0.040710 2.169780 
# 
# From -- ./inp_files/22989.got.cif
#   From: 2010.05.17/outbox.cif.g08.bks.cpg/sg2_12_cif.got.tgz:22989.got - 2010.06.03 11:33:40.
