data_PCOD9095969
_publ_section_title
;
Structure prediction by ZEFSAII (Michael W. Deem and Ramdas Pophale) SiO2 
 PCOD9095969
Probable space group: P -1
;
_chemical_formula_sum "Si O2"
_cell_formula_units_Z 16
_cell_length_a 14.233033
_cell_length_b 20.694970
_cell_length_c 24.562146
_cell_angle_alpha 16.846059
_cell_angle_beta 28.633131
_cell_angle_gamma 20.066261
_cell_volume 702.708217
_symmetry_space_group_name_H-M "P -1"
_symmetry_group_IT_number 2
_symmetry_cell_setting 'triclinic'
loop_
_space_group_symop_operation_xyz
x,y,z
-x,-y,-z
loop_
_atom_site_type_symbol
_atom_site_label
_atom_site_fract_x
_atom_site_fract_y
_atom_site_fract_z
Si Si1 0.628457 0.020993 0.275216
Si Si2 0.285197 0.509523 0.473383
Si Si3 0.002230 0.399347 0.853659
Si Si4 0.105632 0.117963 0.135933
Si Si5 0.787622 0.205349 0.822847
Si Si6 0.279704 0.310416 0.400104
Si Si7 0.533458 0.719834 0.327152
Si Si8 0.451905 0.655409 0.048747
O O1 0.330098 0.357525 0.176155
O O2 0.661122 0.776098 0.494910
O O3 0.605963 0.082321 0.171918
O O4 0.907194 0.929045 0.221403
O O5 0.379910 0.501682 0.370902
O O6 0.506170 0.226672 0.631375
O O7 0.019202 0.560790 0.562778
O O8 0.193117 0.818149 0.301216
O O9 0.139903 0.495910 0.676914
O O10 0.093742 0.320157 0.933578
O O11 0.158600 0.071797 0.009474
O O12 0.784189 0.346746 0.132153
O O13 0.311349 0.020773 0.158396
O O14 0.666738 0.248064 0.908381
O O15 0.311437 0.546868 0.181248
O O16 0.500000 0.000000 0.500000
O O17 0.500000 0.500000 0.500000
#
# Coordination Sequence:
#
# PCOD9095969 Si02
#       8
#     2   2   2   2   2   2   2   2
#     4  10  23  37  60  90 119 158 196 238 295 355
#     4   9  19  35  55  86 113 150 199 245 289 346
#     4  10  20  36  62  86 116 156 196 248 297 346
#     4   9  19  37  58  85 113 151 200 247 289 342
#     4  10  22  39  56  87 127 157 192 235 301 363
#     4  11  21  35  62  88 121 154 199 243 297 346
#     4  10  20  35  61  89 112 146 206 255 289 338
#     4  11  23  39  59  88 128 160 191 244 294 360
#
# _framework density 22.769051999999999
#
# number of rings (size 3 to 8) (size 9 to 14) (size 15 to 20)
#    0.000    2.000    1.250    1.875    7.000    2.000 
#    2.250    1.250    0.000    0.000    0.000    0.000 
#    0.000    0.000    0.000    0.000    0.000    0.000 
#
# Total GULP energy -89261.035421 kJ/mol
# GULP energy per Si atom -5578.814714 kJ/mol
# Density = 2.271723 g / cm^3
# Si number density = 22.769052 Si / 1000 Ang^3
#
#
#
# Elastic Constant Matrix: (Units=GPa)
#
#
# Indices 1 2 3 4 5 6 
#
# 1 97.0682 45.7692 18.6291 -2.0893 53.2346 21.2695
# 2 45.7692 55.1917 33.6555 29.6575 -1.4980 5.1263
# 3 18.6291 33.6555 59.8210 11.3974 40.3043 22.7660
# 4 -2.0893 29.6575 11.3974 24.6698 6.6432 11.6647
# 5 53.2346 -1.4980 40.3043 6.6432 24.9385 -5.5925
# 6 21.2695 5.1263 22.7660 11.6647 -5.5925 8.6268
#
#
#
# Elastic Compliance Matrix: (Units=1/GPa)
#
#
# Indices 1 2 3 4 5 6 
#
# 1 0.007008 0.000114 -0.009367 -0.002488 0.003811 0.013209
# 2 0.000114 0.023497 0.009030 -0.016917 -0.014425 -0.024550
# 3 -0.009367 0.009030 0.016296 -0.021573 0.000962 0.004519
# 4 -0.002488 -0.016917 -0.021573 0.059515 0.025341 0.009073
# 5 0.003811 -0.014425 0.000962 0.025341 0.016795 -0.026741
# 6 0.013209 -0.024550 0.004519 0.009073 -0.026741 0.056410
#
#
# Mechanical properties :
#
#
# Convention : Reuss Voigt Hill
#
# Bulk Modulus (GPa) = 21.57307 45.35427 33.46367
# Shear Modulus (GPa) = 25.58618 19.24883 22.41751
#
# Velocity S-wave (km/s) = 3.35584 2.91072 3.14117
# Velocity P-wave (km/s) = 4.95084 5.59097 5.28061
#
# Compressibility (1/GPa) = 0.04635408
#
# Stress axis : x y z
#
# Youngs Moduli (GPa) = 142.69558 42.55862 61.36576
#
# Poissons Ratio (x) = -0.00485 0.57483
# Poissons Ratio (y) = -0.01627 -0.55413
# Poissons Ratio (z) = 1.33667 -0.38430
#
# Static dielectric constant tensor:
#      x y z
#    x 1.889370 0.019320 0.072670 
#    y 0.019320 1.823910 -0.000180 
#    z 0.072670 -0.000180 1.950870 
# 
# From -- ./inp_files/216734.got.cif
#   From: 2010.05.17/outbox.cif.g08.bks.cpg/sg2_109_cif.got.tgz:216734.got - 2010.06.03 11:33:40.
