data_PCOD9095341
_publ_section_title
;
Structure prediction by ZEFSAII (Michael W. Deem and Ramdas Pophale) SiO2 
 PCOD9095341
Probable space group: P -1
;
_chemical_formula_sum "Si O2"
_cell_formula_units_Z 16
_cell_length_a 8.732276
_cell_length_b 20.021850
_cell_length_c 16.462818
_cell_angle_alpha 18.657761
_cell_angle_beta 103.329123
_cell_angle_gamma 99.734708
_cell_volume 884.677724
_symmetry_space_group_name_H-M "P -1"
_symmetry_group_IT_number 2
_symmetry_cell_setting 'triclinic'
loop_
_space_group_symop_operation_xyz
x,y,z
-x,-y,-z
loop_
_atom_site_type_symbol
_atom_site_label
_atom_site_fract_x
_atom_site_fract_y
_atom_site_fract_z
Si Si1 0.559315 0.219516 0.768020
Si Si2 0.759094 0.620061 0.046101
Si Si3 0.365530 0.690666 0.729069
Si Si4 0.823531 0.013153 0.498782
Si Si5 0.478568 0.344440 0.798056
Si Si6 0.111428 0.381632 0.760682
Si Si7 0.539887 0.084764 0.255690
Si Si8 0.063537 0.806032 0.174539
O O1 0.510610 0.281964 0.781572
O O2 0.492315 0.411543 0.477048
O O3 0.749189 0.200433 0.806917
O O4 0.500000 0.000000 0.000000
O O5 0.585618 0.731285 0.928904
O O6 0.814586 0.789546 0.797570
O O7 0.733235 0.411857 0.233889
O O8 0.873529 0.599546 0.162438
O O9 0.247151 0.805381 0.652725
O O10 0.455059 0.875515 0.489953
O O11 0.500000 0.500000 0.000000
O O12 0.697683 0.041812 0.377283
O O13 0.000000 0.000000 0.500000
O O14 0.293404 0.340293 0.799462
O O15 0.570440 0.178167 0.063777
O O16 0.033847 0.603573 0.456939
O O17 0.020796 0.208904 0.905836
O O18 0.000000 0.000000 0.000000
#
# Coordination Sequence:
#
# PCOD9095341 Si02
#       8
#     2   2   2   2   2   2   2   2
#     4  10  20  36  56  83 113 149 190 233 285 340
#     4  10  20  38  60  82 111 155 201 240 285 354
#     4  11  19  38  65  84 112 154 205 241 286 353
#     4  11  23  37  56  87 123 152 186 248 304 343
#     4   9  20  36  57  80 112 147 191 235 281 338
#     4   9  20  36  57  83 109 148 194 236 285 337
#     4  10  20  37  60  84 111 152 197 241 289 350
#     4  10  20  35  57  81 116 149 187 238 288 343
#
# _framework density 18.085681999999998
#
# number of rings (size 3 to 8) (size 9 to 14) (size 15 to 20)
#    0.000    2.000    2.500    1.500    0.000    8.500 
#    0.000    0.000    0.000    0.000    0.000    0.000 
#    0.000    0.000    0.000    0.000    0.000    0.000 
#
# Total GULP energy -89167.235762 kJ/mol
# GULP energy per Si atom -5572.952235 kJ/mol
# Density = 1.804452 g / cm^3
# Si number density = 18.085682 Si / 1000 Ang^3
#
#
#
# Elastic Constant Matrix: (Units=GPa)
#
#
# Indices 1 2 3 4 5 6 
#
# 1 48.8010 42.6896 34.2262 2.0281 -7.2652 1.3757
# 2 42.6896 141.2747 80.5108 -0.3152 -2.8177 20.0784
# 3 34.2262 80.5108 113.8111 -0.2999 -7.9290 6.8388
# 4 2.0281 -0.3152 -0.2999 40.7775 -0.6498 -1.0251
# 5 -7.2652 -2.8177 -7.9290 -0.6498 18.8676 0.0153
# 6 1.3757 20.0784 6.8388 -1.0251 0.0153 27.9934
#
#
#
# Elastic Compliance Matrix: (Units=1/GPa)
#
#
# Indices 1 2 3 4 5 6 
#
# 1 0.031178 -0.008047 -0.003336 -0.001363 0.009351 0.005000
# 2 -0.008047 0.015314 -0.008193 0.000175 -0.004242 -0.008578
# 3 -0.003336 -0.008193 0.015741 0.000339 0.004117 0.002205
# 4 -0.001363 0.000175 0.000339 0.024622 0.000491 0.000760
# 5 0.009351 -0.004242 0.004117 0.000491 0.057714 0.001564
# 6 0.005000 -0.008578 0.002205 0.000760 0.001564 0.041118
#
#
# Mechanical properties :
#
#
# Convention : Reuss Voigt Hill
#
# Bulk Modulus (GPa) = 43.32622 68.74889 56.03756
# Shear Modulus (GPa) = 21.50236 27.29170 24.39703
#
# Velocity S-wave (km/s) = 3.45181 3.88883 3.67682
# Velocity P-wave (km/s) = 6.31623 7.63278 7.00550
#
# Compressibility (1/GPa) = 0.02308071
#
# Stress axis : x y z
#
# Youngs Moduli (GPa) = 32.07355 65.29960 63.53000
#
# Poissons Ratio (x) = 0.52548 0.21194
# Poissons Ratio (y) = 0.25810 0.52049
# Poissons Ratio (z) = 0.10700 0.53499
#
# Static dielectric constant tensor:
#      x y z
#    x 1.673320 0.032530 -0.030150 
#    y 0.032530 1.665620 -0.010120 
#    z -0.030150 -0.010120 1.681540 
# 
# From -- ./inp_files/94437.got.cif
#   From: 2010.05.17/outbox.cif.g08.bks.cpg/sg2_48_cif.got.tgz:94437.got - 2010.06.03 11:33:40.
