data_PCOD9095535
_publ_section_title
;
Structure prediction by ZEFSAII (Michael W. Deem and Ramdas Pophale) SiO2 
 PCOD9095535
Probable space group: P -1
;
_chemical_formula_sum "Si O2"
_cell_formula_units_Z 14
_cell_length_a 19.041873
_cell_length_b 5.058592
_cell_length_c 6.778470
_cell_angle_alpha 82.904975
_cell_angle_beta 121.971021
_cell_angle_gamma 114.927061
_cell_volume 498.066772
_symmetry_space_group_name_H-M "P -1"
_symmetry_group_IT_number 2
_symmetry_cell_setting 'triclinic'
loop_
_space_group_symop_operation_xyz
x,y,z
-x,-y,-z
loop_
_atom_site_type_symbol
_atom_site_label
_atom_site_fract_x
_atom_site_fract_y
_atom_site_fract_z
Si Si1 0.473865 0.134297 0.219363
Si Si2 0.910741 0.774133 0.783531
Si Si3 0.242657 0.350722 0.995615
Si Si4 0.330600 0.935141 0.323136
Si Si5 0.085730 0.425357 0.603642
Si Si6 0.196052 0.856882 0.421072
Si Si7 0.613195 0.450621 0.111707
O O1 0.419084 0.296452 0.011789
O O2 0.435012 0.108062 0.387545
O O3 0.442254 0.822873 0.091583
O O4 0.578288 0.336982 0.291571
O O5 0.936974 0.800123 0.589540
O O6 0.871752 0.423338 0.786658
O O7 0.830530 0.877380 0.679391
O O8 0.000000 0.000000 0.000000
O O9 0.296856 0.625927 0.191822
O O10 0.138689 0.313104 0.847990
O O11 0.283630 0.431764 0.825237
O O12 0.270327 0.093868 0.125018
O O13 0.297925 0.922614 0.501144
O O14 0.164863 0.729783 0.604340
O O15 0.000000 0.500000 0.500000
#
# Coordination Sequence:
#
# PCOD9095535 Si02
#       7
#     2   2   2   2   2   2   2
#     4   8  14  26  48  78 111 139 182 219 270 321
#     4  10  23  41  62  80 105 150 192 237 284 340
#     4  10  21  35  58  84 115 144 190 235 284 325
#     4  10  20  35  58  86 112 149 185 233 274 341
#     4  10  26  42  59  84 113 150 189 242 286 340
#     4  10  23  39  59  81 111 150 185 234 283 344
#     4   8  14  27  47  78 110 143 174 228 271 321
#
# _framework density 28.108681000000001
#
# number of rings (size 3 to 8) (size 9 to 14) (size 15 to 20)
#    0.857    1.714    0.000    1.286    4.000    1.714 
#    0.000    0.000    0.000    0.857    0.000    1.000 
#    0.000    0.000    0.000    0.000    0.000    0.000 
#
# Total GULP energy -78369.230115 kJ/mol
# GULP energy per Si atom -5597.802151 kJ/mol
# Density = 2.804470 g / cm^3
# Si number density = 28.108681 Si / 1000 Ang^3
#
#
#
# Elastic Constant Matrix: (Units=GPa)
#
#
# Indices 1 2 3 4 5 6 
#
# 1 240.0559 28.1720 33.5890 -13.0231 7.0746 3.6915
# 2 28.1720 133.3463 38.7046 7.7529 0.7865 -21.8603
# 3 33.5890 38.7046 83.4411 13.0382 9.8652 -11.9661
# 4 -13.0231 7.7529 13.0382 32.3943 2.2370 -12.0185
# 5 7.0746 0.7865 9.8652 2.2370 45.8364 -13.2230
# 6 3.6915 -21.8603 -11.9661 -12.0185 -13.2230 59.3750
#
#
#
# Elastic Compliance Matrix: (Units=1/GPa)
#
#
# Indices 1 2 3 4 5 6 
#
# 1 0.004695 -0.000643 -0.002022 0.002703 -0.000559 -0.000513
# 2 -0.000643 0.009220 -0.003785 0.000078 0.001632 0.003051
# 3 -0.002022 -0.003785 0.015834 -0.006058 -0.002708 0.000094
# 4 0.002703 0.000078 -0.006058 0.036635 0.000902 0.006256
# 5 -0.000559 0.001632 -0.002708 0.000902 0.024037 0.005625
# 6 -0.000513 0.003051 0.000094 0.006256 0.005625 0.020535
#
#
# Mechanical properties :
#
#
# Convention : Reuss Voigt Hill
#
# Bulk Modulus (GPa) = 59.35049 73.08606 66.21828
# Shear Modulus (GPa) = 38.61818 51.27965 44.94892
#
# Velocity S-wave (km/s) = 3.71062 4.27586 4.00323
# Velocity P-wave (km/s) = 6.28639 7.10176 6.70648
#
# Compressibility (1/GPa) = 0.01684906
#
# Stress axis : x y z
#
# Youngs Moduli (GPa) = 212.99041 108.46135 63.15355
#
# Poissons Ratio (x) = 0.06976 0.12767
# Poissons Ratio (y) = 0.13699 0.23906
# Poissons Ratio (z) = 0.43059 0.41057
#
# Static dielectric constant tensor:
#      x y z
#    x 2.224840 0.129530 -0.076000 
#    y 0.129530 2.202960 -0.139660 
#    z -0.076000 -0.139660 2.212160 
# 
# From -- ./inp_files/322659.got.cif
#   From: 2010.05.17/outbox.cif.g08.bks.cpg/sg2_162_cif.got.tgz:322659.got - 2010.06.03 11:33:40.
