data_PCOD9095447
_publ_section_title
;
Structure prediction by ZEFSAII (Michael W. Deem and Ramdas Pophale) SiO2 
 PCOD9095447
Probable space group: P -1
;
_chemical_formula_sum "Si O2"
_cell_formula_units_Z 14
_cell_length_a 16.017290
_cell_length_b 9.586060
_cell_length_c 8.178479
_cell_angle_alpha 47.866493
_cell_angle_beta 120.690533
_cell_angle_gamma 145.865910
_cell_volume 519.499306
_symmetry_space_group_name_H-M "P -1"
_symmetry_group_IT_number 2
_symmetry_cell_setting 'triclinic'
loop_
_space_group_symop_operation_xyz
x,y,z
-x,-y,-z
loop_
_atom_site_type_symbol
_atom_site_label
_atom_site_fract_x
_atom_site_fract_y
_atom_site_fract_z
Si Si1 0.697760 0.942630 0.463014
Si Si2 0.923733 0.627418 0.879249
Si Si3 0.554977 0.662938 0.201985
Si Si4 0.717922 0.388732 0.463813
Si Si5 0.948233 0.058893 0.581360
Si Si6 0.452378 0.900838 0.796021
Si Si7 0.186777 0.835813 0.120349
O O1 0.645397 0.766875 0.378786
O O2 0.577665 0.680207 0.674152
O O3 0.668853 0.119755 0.264177
O O4 0.860136 0.100918 0.540678
O O5 0.832245 0.328902 0.931968
O O6 0.031056 0.849057 0.659375
O O7 0.857371 0.731972 0.774921
O O8 0.027612 0.701630 0.068335
O O9 0.490627 0.782292 0.041862
O O10 0.676015 0.828922 0.048772
O O11 0.606398 0.232468 0.631739
O O12 0.767507 0.240641 0.633028
O O13 0.880206 0.722181 0.364669
O O14 0.617641 0.290350 0.287853
#
# Coordination Sequence:
#
# PCOD9095447 Si02
#       7
#     2   2   2   2   2   2   2
#     4  11  23  37  60  90 119 152 192 238 296 345
#     4   9  18  32  58  87 118 141 192 243 289 336
#     4  10  22  38  59  87 117 152 195 234 293 349
#     4   9  21  40  61  83 113 154 199 237 286 343
#     4  10  20  35  57  90 117 147 191 244 289 341
#     4  10  22  43  60  82 119 157 195 239 284 349
#     4   9  17  35  59  87 110 151 192 237 290 335
#
# _framework density 26.949024000000001
#
# number of rings (size 3 to 8) (size 9 to 14) (size 15 to 20)
#    0.000    2.286    1.429    0.429    2.000    7.429 
#    2.571    2.857    0.000    0.000    0.000    0.000 
#    0.000    0.000    0.000    0.000    0.000    0.000 
#
# Total GULP energy -78254.729357 kJ/mol
# GULP energy per Si atom -5589.623525 kJ/mol
# Density = 2.688769 g / cm^3
# Si number density = 26.949024 Si / 1000 Ang^3
#
#
#
# Elastic Constant Matrix: (Units=GPa)
#
#
# Indices 1 2 3 4 5 6 
#
# 1 88.7165 19.3175 5.6391 1.5512 35.0710 17.8281
# 2 19.3175 110.4462 28.3577 -3.4994 1.9570 20.3668
# 3 5.6391 28.3577 78.4727 2.0191 20.6333 -0.0700
# 4 1.5512 -3.4994 2.0191 38.6901 -0.0583 10.8270
# 5 35.0710 1.9570 20.6333 -0.0583 35.3032 7.3604
# 6 17.8281 20.3668 -0.0700 10.8270 7.3604 33.2197
#
#
#
# Elastic Compliance Matrix: (Units=1/GPa)
#
#
# Indices 1 2 3 4 5 6 
#
# 1 0.022604 -0.004638 0.006759 -0.000770 -0.025444 -0.003385
# 2 -0.004638 0.013448 -0.007309 0.004447 0.010114 -0.009461
# 3 0.006759 -0.007309 0.020106 -0.003812 -0.019409 0.006439
# 4 -0.000770 0.004447 -0.003812 0.030241 0.005594 -0.013417
# 5 -0.025444 0.010114 -0.019409 0.005594 0.066292 -0.009098
# 6 -0.003385 -0.009461 0.006439 -0.013417 -0.009098 0.044122
#
#
# Mechanical properties :
#
#
# Convention : Reuss Voigt Hill
#
# Bulk Modulus (GPa) = 21.84250 42.69603 32.26926
# Shear Modulus (GPa) = 22.47679 36.39735 29.43707
#
# Velocity S-wave (km/s) = 2.89112 3.67904 3.30862
# Velocity P-wave (km/s) = 4.38948 5.82450 5.15714
#
# Compressibility (1/GPa) = 0.04578231
#
# Stress axis : x y z
#
# Youngs Moduli (GPa) = 44.23911 74.35818 49.73654
#
# Poissons Ratio (x) = 0.34490 -0.33616
# Poissons Ratio (y) = 0.20520 0.36351
# Poissons Ratio (z) = -0.29901 0.54346
#
# Static dielectric constant tensor:
#      x y z
#    x 2.197780 -0.029670 0.000860 
#    y -0.029670 2.097370 -0.038620 
#    z 0.000860 -0.038620 2.081040 
# 
# From -- ./inp_files/332753.got.cif
#   From: 2010.05.17/outbox.cif.g08.bks.cpg/sg2_167_cif.got.tgz:332753.got - 2010.06.03 11:33:40.
