data_PCOD9095148
_publ_section_title
;
Structure prediction by ZEFSAII (Michael W. Deem and Ramdas Pophale) SiO2 
 PCOD9095148
Probable space group: P -1
;
_chemical_formula_sum "Si O2"
_cell_formula_units_Z 14
_cell_length_a 11.170620
_cell_length_b 16.650368
_cell_length_c 15.540856
_cell_angle_alpha 152.815065
_cell_angle_beta 154.125430
_cell_angle_gamma 38.413568
_cell_volume 574.248802
_symmetry_space_group_name_H-M "P -1"
_symmetry_group_IT_number 2
_symmetry_cell_setting 'triclinic'
loop_
_space_group_symop_operation_xyz
x,y,z
-x,-y,-z
loop_
_atom_site_type_symbol
_atom_site_label
_atom_site_fract_x
_atom_site_fract_y
_atom_site_fract_z
Si Si1 0.104515 0.195955 0.656469
Si Si2 0.165221 0.313182 0.077076
Si Si3 0.199731 0.939184 0.821669
Si Si4 0.371694 0.534467 0.083994
Si Si5 0.630546 0.110811 0.397717
Si Si6 0.579060 0.524642 0.427312
Si Si7 0.888102 0.655048 0.436172
O O1 0.871117 0.203539 0.437056
O O2 0.919438 0.177130 0.603177
O O3 0.285985 0.028014 0.608721
O O4 0.314296 0.368240 0.951440
O O5 0.315985 0.401912 0.176145
O O6 0.287837 0.409912 0.333431
O O7 0.841943 0.333213 0.894149
O O8 0.209806 0.112206 0.934044
O O9 0.951160 0.862370 0.650641
O O10 0.450085 0.986147 0.093646
O O11 0.677918 0.616303 0.341340
O O12 0.257673 0.450086 0.839084
O O13 0.480016 0.291362 0.481725
O O14 0.813366 0.419935 0.433757
#
# Coordination Sequence:
#
# PCOD9095148 Si02
#       7
#     2   2   2   2   2   2   2
#     4  10  20  35  56  80 109 143 180 225 273 320
#     4   9  17  29  54  77 107 142 179 223 272 311
#     4  10  21  33  55  84 108 141 181 229 266 322
#     4   9  17  35  52  77 111 147 177 220 270 331
#     4  10  20  35  55  82 109 140 181 228 272 318
#     4   9  17  31  50  79 108 141 179 222 269 325
#     4   9  19  31  54  79 109 145 182 216 274 324
#
# _framework density 24.379677000000001
#
# number of rings (size 3 to 8) (size 9 to 14) (size 15 to 20)
#    0.000    2.571    1.429    0.429    8.000    0.571 
#    0.000    5.000    0.000    0.000    0.000    0.000 
#    0.000    0.000    0.000    0.000    0.000    0.000 
#
# Total GULP energy -78077.998306 kJ/mol
# GULP energy per Si atom -5576.999879 kJ/mol
# Density = 2.432419 g / cm^3
# Si number density = 24.379677 Si / 1000 Ang^3
#
#
#
# Elastic Constant Matrix: (Units=GPa)
#
#
# Indices 1 2 3 4 5 6 
#
# 1 65.3406 7.5703 32.9736 -9.2093 29.8526 0.6384
# 2 7.5703 92.1606 15.2746 8.2827 9.8512 -3.9504
# 3 32.9736 15.2746 123.7933 -3.4972 22.5803 -3.2039
# 4 -9.2093 8.2827 -3.4972 42.1082 14.9146 -2.6287
# 5 29.8526 9.8512 22.5803 14.9146 59.5837 -14.2647
# 6 0.6384 -3.9504 -3.2039 -2.6287 -14.2647 26.0594
#
#
#
# Elastic Compliance Matrix: (Units=1/GPa)
#
#
# Indices 1 2 3 4 5 6 
#
# 1 0.026672 -0.001163 -0.003838 0.011085 -0.016727 -0.009340
# 2 -0.001163 0.011415 -0.001154 -0.002546 0.000110 0.001421
# 3 -0.003838 -0.001154 0.009572 0.000782 -0.001643 0.000275
# 4 0.011085 -0.002546 0.000782 0.031582 -0.014622 -0.005380
# 5 -0.016727 0.000110 -0.001643 -0.014622 0.033522 0.017099
# 6 -0.009340 0.001421 0.000275 -0.005380 0.017099 0.047669
#
#
# Mechanical properties :
#
#
# Convention : Reuss Voigt Hill
#
# Bulk Modulus (GPa) = 28.29029 43.65907 35.97468
# Shear Modulus (GPa) = 27.09650 40.58199 33.83924
#
# Velocity S-wave (km/s) = 3.33744 4.08436 3.72964
# Velocity P-wave (km/s) = 5.14593 6.33952 5.77365
#
# Compressibility (1/GPa) = 0.03534782
#
# Stress axis : x y z
#
# Youngs Moduli (GPa) = 37.49261 87.60127 104.47490
#
# Poissons Ratio (x) = 0.10191 0.40101
# Poissons Ratio (y) = 0.04362 0.12056
# Poissons Ratio (z) = 0.14391 0.10108
#
# Static dielectric constant tensor:
#      x y z
#    x 1.979740 0.021310 -0.069250 
#    y 0.021310 2.018440 -0.011560 
#    z -0.069250 -0.011560 1.969400 
# 
# From -- ./inp_files/170748.got.cif
#   From: 2010.05.17/outbox.cif.g08.bks.cpg/sg2_86_cif.got.tgz:170748.got - 2010.06.03 11:33:40.
