data_PCOD9095636
_publ_section_title
;
Structure prediction by ZEFSAII (Michael W. Deem and Ramdas Pophale) SiO2 
 PCOD9095636
Probable space group: P -1
;
_chemical_formula_sum "Si O2"
_cell_formula_units_Z 16
_cell_length_a 12.174196
_cell_length_b 14.239402
_cell_length_c 9.762850
_cell_angle_alpha 68.746169
_cell_angle_beta 144.367068
_cell_angle_gamma 127.684319
_cell_volume 746.438109
_symmetry_space_group_name_H-M "P -1"
_symmetry_group_IT_number 2
_symmetry_cell_setting 'triclinic'
loop_
_space_group_symop_operation_xyz
x,y,z
-x,-y,-z
loop_
_atom_site_type_symbol
_atom_site_label
_atom_site_fract_x
_atom_site_fract_y
_atom_site_fract_z
Si Si1 0.760843 0.819596 0.832891
Si Si2 0.369930 0.813015 0.976662
Si Si3 0.746691 0.049382 0.660161
Si Si4 0.458442 0.440208 0.841459
Si Si5 0.174376 0.531747 0.990962
Si Si6 0.205439 0.947680 0.593308
Si Si7 0.289692 0.173672 0.895737
Si Si8 0.325080 0.562857 0.428325
O O1 0.566435 0.694786 0.626895
O O2 0.760889 0.933000 0.718353
O O3 0.699118 0.812884 0.935977
O O4 0.019810 0.853673 0.069204
O O5 0.243288 0.672151 0.972751
O O6 0.213159 0.861318 0.759415
O O7 0.513415 0.830953 0.973839
O O8 0.570146 0.913052 0.229452
O O9 0.776815 0.100313 0.511389
O O10 0.500000 0.000000 0.500000
O O11 0.322513 0.294850 0.802929
O O12 0.330360 0.472829 0.587982
O O13 0.500000 0.500000 0.000000
O O14 0.704916 0.488690 0.998941
O O15 0.897866 0.438062 0.760839
O O16 0.280695 0.523925 0.245138
O O17 0.968781 0.937432 0.352469
#
# Coordination Sequence:
#
# PCOD9095636 Si02
#       8
#     2   2   2   2   2   2   2   2
#     4  10  21  37  58  84 116 153 195 245 294 355
#     4  10  20  37  57  84 114 153 193 241 295 350
#     4  10  21  37  56  85 117 150 194 244 294 356
#     4  11  22  40  61  89 121 158 205 251 304 356
#     4  10  24  40  62  88 124 162 203 254 298 362
#     4  10  20  35  59  83 114 149 194 240 297 352
#     4  10  20  37  56  85 115 149 194 247 293 348
#     4  11  22  42  61  89 122 160 205 247 306 360
#
# _framework density 21.435131999999999
#
# number of rings (size 3 to 8) (size 9 to 14) (size 15 to 20)
#    0.000    1.750    1.250    3.000    0.000    1.500 
#    2.250    6.250    0.000    0.000    0.000    0.000 
#    0.000    0.000    0.000    0.000    0.000    0.000 
#
# Total GULP energy -89374.919755 kJ/mol
# GULP energy per Si atom -5585.932485 kJ/mol
# Density = 2.138635 g / cm^3
# Si number density = 21.435132 Si / 1000 Ang^3
#
#
#
# Elastic Constant Matrix: (Units=GPa)
#
#
# Indices 1 2 3 4 5 6 
#
# 1 79.2207 -0.9923 25.4173 8.4407 1.3141 10.4143
# 2 -0.9923 50.0339 44.8407 -8.8123 -0.6777 4.4543
# 3 25.4173 44.8407 107.2512 8.2766 12.1384 4.3413
# 4 8.4407 -8.8123 8.2766 35.4440 11.8313 -1.6606
# 5 1.3141 -0.6777 12.1384 11.8313 20.6800 0.5272
# 6 10.4143 4.4543 4.3413 -1.6606 0.5272 23.5031
#
#
#
# Elastic Compliance Matrix: (Units=1/GPa)
#
#
# Indices 1 2 3 4 5 6 
#
# 1 0.015950 0.006383 -0.006479 -0.002605 0.004677 -0.007370
# 2 0.006383 0.040214 -0.019631 0.010589 0.006535 -0.006222
# 3 -0.006479 -0.019631 0.020407 -0.004794 -0.009536 0.002697
# 4 -0.002605 0.010589 -0.004794 0.039126 -0.019141 0.003227
# 5 0.004677 0.006535 -0.009536 -0.019141 0.064932 -0.004358
# 6 -0.007370 -0.006222 0.002697 0.003227 -0.004358 0.046820
#
#
# Mechanical properties :
#
#
# Convention : Reuss Voigt Hill
#
# Bulk Modulus (GPa) = 26.94080 41.67080 34.30580
# Shear Modulus (GPa) = 17.90359 27.07477 22.48918
#
# Velocity S-wave (km/s) = 2.89320 3.55787 3.24261
# Velocity P-wave (km/s) = 4.87407 6.02997 5.48257
#
# Compressibility (1/GPa) = 0.03711843
#
# Stress axis : x y z
#
# Youngs Moduli (GPa) = 62.69451 24.86724 49.00358
#
# Poissons Ratio (x) = -0.15874 0.31749
# Poissons Ratio (y) = -0.40020 0.96197
# Poissons Ratio (z) = 0.40619 0.48816
#
# Static dielectric constant tensor:
#      x y z
#    x 1.807190 0.018920 0.017340 
#    y 0.018920 1.775520 0.000300 
#    z 0.017340 0.000300 1.780990 
# 
# From -- ./inp_files/272750.got.cif
#   From: 2010.05.17/outbox.cif.g08.bks.cpg/sg2_137_cif.got.tgz:272750.got - 2010.06.03 11:33:40.
