data_PCOD9095700
_publ_section_title
;
Structure prediction by ZEFSAII (Michael W. Deem and Ramdas Pophale) SiO2 
 PCOD9095700
Probable space group: P -1
;
_chemical_formula_sum "Si O2"
_cell_formula_units_Z 16
_cell_length_a 15.423692
_cell_length_b 21.592599
_cell_length_c 12.457723
_cell_angle_alpha 160.292184
_cell_angle_beta 135.989479
_cell_angle_gamma 32.129363
_cell_volume 669.966680
_symmetry_space_group_name_H-M "P -1"
_symmetry_group_IT_number 2
_symmetry_cell_setting 'triclinic'
loop_
_space_group_symop_operation_xyz
x,y,z
-x,-y,-z
loop_
_atom_site_type_symbol
_atom_site_label
_atom_site_fract_x
_atom_site_fract_y
_atom_site_fract_z
Si Si1 0.263004 0.250506 0.803346
Si Si2 0.304185 0.003575 0.723263
Si Si3 0.362520 0.327567 0.220796
Si Si4 0.053646 0.454302 0.598375
Si Si5 0.674709 0.651630 0.197395
Si Si6 0.469557 0.574791 0.345529
Si Si7 0.817716 0.039288 0.668089
Si Si8 0.019044 0.849311 0.877264
O O1 0.222430 0.356881 0.821775
O O2 0.470935 0.949905 0.500944
O O3 0.139078 0.213497 0.669183
O O4 0.275658 0.400061 0.144649
O O5 0.422848 0.779753 0.552514
O O6 0.256430 0.909150 0.433076
O O7 0.406315 0.071923 0.876503
O O8 0.117345 0.272222 0.047059
O O9 0.507031 0.336274 0.378379
O O10 0.208665 0.548623 0.528702
O O11 0.222811 0.405594 0.696221
O O12 0.000000 0.500000 0.500000
O O13 0.097467 0.205389 0.282549
O O14 0.669604 0.443442 0.821655
O O15 0.655378 0.278738 0.991854
O O16 0.967888 0.029346 0.811192
O O17 0.000000 0.000000 0.000000
#
# Coordination Sequence:
#
# PCOD9095700 Si02
#       8
#     2   2   2   2   2   2   2   2
#     4   9  19  39  62  85 115 150 195 247 293 337
#     4  10  21  38  59  82 117 154 192 237 291 348
#     4   9  20  37  60  89 109 144 201 247 291 329
#     4  11  26  42  56  84 128 163 190 233 300 360
#     4  10  22  38  57  83 123 159 188 235 295 355
#     4  10  20  35  59  88 116 148 193 242 289 347
#     4   9  19  37  62  88 108 145 201 248 285 330
#     4  10  21  40  63  86 114 153 199 247 286 344
#
# _framework density 23.881785000000001
#
# number of rings (size 3 to 8) (size 9 to 14) (size 15 to 20)
#    0.000    2.250    0.000    1.500    3.500    3.000 
#    6.750    3.750    0.000    0.000    0.000    0.000 
#    0.000    0.000    0.000    0.000    0.000    0.000 
#
# Total GULP energy -89296.820072 kJ/mol
# GULP energy per Si atom -5581.051255 kJ/mol
# Density = 2.382743 g / cm^3
# Si number density = 23.881785 Si / 1000 Ang^3
#
#
#
# Elastic Constant Matrix: (Units=GPa)
#
#
# Indices 1 2 3 4 5 6 
#
# 1 33.3257 5.9410 17.3754 -9.6846 -0.9268 -4.3281
# 2 5.9410 105.1174 58.1360 -38.9876 16.9644 5.2182
# 3 17.3754 58.1360 101.4760 -38.2969 11.3163 -9.9447
# 4 -9.6846 -38.9876 -38.2969 59.1123 1.8376 1.9265
# 5 -0.9268 16.9644 11.3163 1.8376 29.2509 -5.2120
# 6 -4.3281 5.2182 -9.9447 1.9265 -5.2120 26.9460
#
#
#
# Elastic Compliance Matrix: (Units=1/GPa)
#
#
# Indices 1 2 3 4 5 6 
#
# 1 0.034003 0.001642 -0.005694 0.002769 0.002756 0.003377
# 2 0.001642 0.018756 -0.007647 0.008278 -0.009938 -0.008705
# 3 -0.005694 -0.007647 0.018209 0.005671 -0.001989 0.006497
# 4 0.002769 0.008278 0.005671 0.026876 -0.009084 -0.002744
# 5 0.002756 -0.009938 -0.001989 -0.009084 0.043276 0.010653
# 6 0.003377 -0.008705 0.006497 -0.002744 0.010653 0.043994
#
#
# Mechanical properties :
#
#
# Convention : Reuss Voigt Hill
#
# Bulk Modulus (GPa) = 21.02207 44.75821 32.89014
# Shear Modulus (GPa) = 22.28468 33.62630 27.95549
#
# Velocity S-wave (km/s) = 3.05802 3.75644 3.42508
# Velocity P-wave (km/s) = 4.61415 6.13162 5.42619
#
# Compressibility (1/GPa) = 0.04756905
#
# Stress axis : x y z
#
# Youngs Moduli (GPa) = 29.40925 53.31638 54.91722
#
# Poissons Ratio (x) = -0.08755 0.31272
# Poissons Ratio (y) = -0.04829 0.41997
# Poissons Ratio (z) = 0.16747 0.40773
#
# Static dielectric constant tensor:
#      x y z
#    x 2.006480 -0.079320 0.013660 
#    y -0.079320 1.944370 -0.017980 
#    z 0.013660 -0.017980 1.933470 
# 
# From -- ./inp_files/283292.got.cif
#   From: 2010.05.17/outbox.cif.g08.bks.cpg/sg2_142_cif.got.tgz:283292.got - 2010.06.03 11:33:40.
