data_PCOD9095347
_publ_section_title
;
Structure prediction by ZEFSAII (Michael W. Deem and Ramdas Pophale) SiO2 
 PCOD9095347
Probable space group: P -1
;
_chemical_formula_sum "Si O2"
_cell_formula_units_Z 12
_cell_length_a 11.131728
_cell_length_b 8.399722
_cell_length_c 7.416296
_cell_angle_alpha 70.379140
_cell_angle_beta 53.933115
_cell_angle_gamma 87.739674
_cell_volume 516.458152
_symmetry_space_group_name_H-M "P -1"
_symmetry_group_IT_number 2
_symmetry_cell_setting 'triclinic'
loop_
_space_group_symop_operation_xyz
x,y,z
-x,-y,-z
loop_
_atom_site_type_symbol
_atom_site_label
_atom_site_fract_x
_atom_site_fract_y
_atom_site_fract_z
Si Si1 0.313424 0.322750 0.725887
Si Si2 0.873016 0.780479 0.596836
Si Si3 0.833167 0.383240 0.223504
Si Si4 0.447133 0.178698 0.988505
Si Si5 0.293093 0.528043 0.336318
Si Si6 0.008226 0.888250 0.817886
O O1 0.279717 0.495475 0.791274
O O2 0.428079 0.245531 0.775390
O O3 0.353235 0.387526 0.463951
O O4 0.152079 0.187347 0.917381
O O5 0.824498 0.583248 0.653606
O O6 0.975126 0.816150 0.670167
O O7 0.715990 0.836891 0.769325
O O8 0.952479 0.907471 0.321457
O O9 0.790297 0.377828 0.475146
O O10 0.853643 0.198099 0.204405
O O11 0.000000 0.500000 0.000000
O O12 0.571160 0.328982 0.914664
O O13 0.500000 0.000000 0.000000
#
# Coordination Sequence:
#
# PCOD9095347 Si02
#       6
#     2   2   2   2   2   2
#     4   8  19  35  58  78 105 143 183 221 269 319
#     4  10  21  33  55  84 115 139 179 230 267 318
#     4   8  16  33  55  77 103 140 179 211 271 319
#     4  11  21  37  58  76 109 151 184 215 275 331
#     4  10  20  35  57  82 112 139 184 228 264 315
#     4   9  17  36  56  80 111 146 177 216 280 325
#
# _framework density 23.235185999999999
#
# number of rings (size 3 to 8) (size 9 to 14) (size 15 to 20)
#    1.000    1.667    0.000    2.000    0.000    1.333 
#    0.000    0.833    7.333    0.000    0.000    0.000 
#    0.000    0.000    0.000    0.000    0.000    0.000 
#
# Total GULP energy -66892.567001 kJ/mol
# GULP energy per Si atom -5574.380583 kJ/mol
# Density = 2.318230 g / cm^3
# Si number density = 23.235186 Si / 1000 Ang^3
#
#
#
# Elastic Constant Matrix: (Units=GPa)
#
#
# Indices 1 2 3 4 5 6 
#
# 1 67.8610 39.7448 7.6891 -7.0854 -0.5585 -8.0714
# 2 39.7448 64.6782 22.3139 -13.9710 0.0754 -0.7286
# 3 7.6891 22.3139 76.1144 -22.6164 -12.8690 -0.0232
# 4 -7.0854 -13.9710 -22.6164 31.5496 -2.5206 -3.3629
# 5 -0.5585 0.0754 -12.8690 -2.5206 25.5280 -0.1711
# 6 -8.0714 -0.7286 -0.0232 -3.3629 -0.1711 35.9091
#
#
#
# Elastic Compliance Matrix: (Units=1/GPa)
#
#
# Indices 1 2 3 4 5 6 
#
# 1 0.024336 -0.015600 0.002900 0.001377 0.002212 0.005295
# 2 -0.015600 0.027950 -0.005900 0.004129 -0.003008 -0.002571
# 3 0.002900 -0.005900 0.020789 0.014102 0.011966 0.001923
# 4 0.001377 0.004129 0.014102 0.045375 0.011639 0.004707
# 5 0.002212 -0.003008 0.011966 0.011639 0.046423 0.001755
# 6 0.005295 -0.002571 0.001923 0.004707 0.001755 0.029437
#
#
# Mechanical properties :
#
#
# Convention : Reuss Voigt Hill
#
# Bulk Modulus (GPa) = 27.87619 38.68325 33.27972
# Shear Modulus (GPa) = 20.53654 27.85773 24.19714
#
# Velocity S-wave (km/s) = 2.97620 3.46634 3.23057
# Velocity P-wave (km/s) = 4.88198 5.71886 5.31691
#
# Compressibility (1/GPa) = 0.03587290
#
# Stress axis : x y z
#
# Youngs Moduli (GPa) = 41.09131 35.77856 48.10259
#
# Poissons Ratio (x) = 0.55816 -0.13949
# Poissons Ratio (y) = 0.64104 0.28381
# Poissons Ratio (z) = -0.11915 0.21110
#
# Static dielectric constant tensor:
#      x y z
#    x 1.920100 0.008740 0.023070 
#    y 0.008740 1.896280 -0.017810 
#    z 0.023070 -0.017810 1.929030 
# 
# From -- ./inp_files/194465.got.cif
#   From: 2010.05.17/outbox.cif.g08.bks.cpg/sg2_98_cif.got.tgz:194465.got - 2010.06.03 11:33:40.
