data_PCOD9095196
_publ_section_title
;
Structure prediction by ZEFSAII (Michael W. Deem and Ramdas Pophale) SiO2 
 PCOD9095196
Probable space group: P -1
;
_chemical_formula_sum "Si O2"
_cell_formula_units_Z 14
_cell_length_a 5.299512
_cell_length_b 9.532891
_cell_length_c 12.351459
_cell_angle_alpha 90.893932
_cell_angle_beta 89.829869
_cell_angle_gamma 80.392992
_cell_volume 615.155837
_symmetry_space_group_name_H-M "P -1"
_symmetry_group_IT_number 2
_symmetry_cell_setting 'triclinic'
loop_
_space_group_symop_operation_xyz
x,y,z
-x,-y,-z
loop_
_atom_site_type_symbol
_atom_site_label
_atom_site_fract_x
_atom_site_fract_y
_atom_site_fract_z
Si Si1 0.226626 0.040465 0.248745
Si Si2 0.977487 0.245232 0.998387
Si Si3 0.558333 0.263603 0.679144
Si Si4 0.726737 0.021530 0.106469
Si Si5 0.856876 0.652031 0.771185
Si Si6 0.399310 0.553209 0.119974
Si Si7 0.968689 0.587855 0.390960
O O1 0.331515 0.903616 0.317900
O O2 0.454280 0.043022 0.162234
O O3 0.959207 0.020438 0.192757
O O4 0.188468 0.201780 0.294224
O O5 0.032219 0.313852 0.112401
O O6 0.207894 0.130040 0.953451
O O7 0.763479 0.147511 0.025495
O O8 0.882729 0.362902 0.911050
O O9 0.503445 0.329987 0.801827
O O10 0.783744 0.339079 0.631057
O O11 0.294668 0.302605 0.615461
O O12 0.610506 0.583340 0.806116
O O13 0.032198 0.530431 0.703701
O O14 0.500000 0.500000 0.000000
O O15 0.000000 0.500000 0.500000
#
# Coordination Sequence:
#
# PCOD9095196 Si02
#       7
#     2   2   2   2   2   2   2
#     4  11  22  41  61  93 131 164 212 255 311 371
#     4  10  20  35  55  91 130 175 216 244 304 366
#     4  11  24  42  69  95 124 168 210 255 323 382
#     4  10  22  35  58  88 133 178 205 252 294 370
#     4  10  24  38  63  93 130 168 217 263 313 367
#     4  11  21  34  57  95 132 175 211 255 301 377
#     4  11  25  49  70  93 122 162 211 272 327 377
#
# _framework density 22.758459999999999
#
# number of rings (size 3 to 8) (size 9 to 14) (size 15 to 20)
#    0.000    1.429    1.429    3.429    4.000    8.571 
#    0.000    1.429    0.000    0.000    0.000    0.000 
#    0.000    0.000    0.000    0.000    0.000    0.000 
#
# Total GULP energy -78247.762137 kJ/mol
# GULP energy per Si atom -5589.125867 kJ/mol
# Density = 2.270666 g / cm^3
# Si number density = 22.758460 Si / 1000 Ang^3
#
#
#
# Elastic Constant Matrix: (Units=GPa)
#
#
# Indices 1 2 3 4 5 6 
#
# 1 108.9095 17.3317 11.3631 -13.9715 -2.6010 -5.3101
# 2 17.3317 128.9154 24.0306 -27.1135 -8.6244 -4.5491
# 3 11.3631 24.0306 35.4036 -25.0106 2.2258 3.5394
# 4 -13.9715 -27.1135 -25.0106 27.1592 0.4475 0.7050
# 5 -2.6010 -8.6244 2.2258 0.4475 18.2696 -8.0576
# 6 -5.3101 -4.5491 3.5394 0.7050 -8.0576 24.9142
#
#
#
# Elastic Compliance Matrix: (Units=1/GPa)
#
#
# Indices 1 2 3 4 5 6 
#
# 1 0.010028 -0.000017 -0.000321 0.004729 0.002619 0.002893
# 2 -0.000017 0.010509 -0.002088 0.008338 0.006858 0.004194
# 3 -0.000321 -0.002088 0.094352 0.085693 -0.025432 -0.024503
# 4 0.004729 0.008338 0.085693 0.127264 -0.017250 -0.018824
# 5 0.002619 0.006858 -0.025432 -0.017250 0.075201 0.030232
# 6 0.002893 0.004194 -0.024503 -0.018824 0.030232 0.055311
#
#
# Mechanical properties :
#
#
# Convention : Reuss Voigt Hill
#
# Bulk Modulus (GPa) = 9.08769 42.07547 25.58158
# Shear Modulus (GPa) = 12.07162 28.76882 20.42022
#
# Velocity S-wave (km/s) = 2.30559 3.55927 2.99868
# Velocity P-wave (km/s) = 3.33008 5.95140 4.82227
#
# Compressibility (1/GPa) = 0.11003898
#
# Stress axis : x y z
#
# Youngs Moduli (GPa) = 99.71807 95.15700 10.59862
#
# Poissons Ratio (x) = 0.00158 0.00340
# Poissons Ratio (y) = 0.00165 0.02213
# Poissons Ratio (z) = 0.03200 0.19865
#
# Static dielectric constant tensor:
#      x y z
#    x 1.875180 0.024260 0.001950 
#    y 0.024260 1.921550 -0.006460 
#    z 0.001950 -0.006460 1.827490 
# 
# From -- ./inp_files/27853.got.cif
#   From: 2010.05.17/outbox.cif.g08.bks.cpg/sg2_14_cif.got.tgz:27853.got - 2010.06.03 11:33:40.
