data_PCOD9095953
_publ_section_title
;
Structure prediction by ZEFSAII (Michael W. Deem and Ramdas Pophale) SiO2 
 PCOD9095953
Probable space group: P -1
;
_chemical_formula_sum "Si O2"
_cell_formula_units_Z 14
_cell_length_a 7.801233
_cell_length_b 5.487634
_cell_length_c 13.632093
_cell_angle_alpha 77.623327
_cell_angle_beta 70.972241
_cell_angle_gamma 82.020050
_cell_volume 537.380823
_symmetry_space_group_name_H-M "P -1"
_symmetry_group_IT_number 2
_symmetry_cell_setting 'triclinic'
loop_
_space_group_symop_operation_xyz
x,y,z
-x,-y,-z
loop_
_atom_site_type_symbol
_atom_site_label
_atom_site_fract_x
_atom_site_fract_y
_atom_site_fract_z
Si Si1 0.220942 0.541342 0.890525
Si Si2 0.704957 0.696234 0.414091
Si Si3 0.379419 0.395454 0.211966
Si Si4 0.314040 0.114449 0.072667
Si Si5 0.120570 0.709649 0.087908
Si Si6 0.332845 0.869475 0.453108
Si Si7 0.914460 0.347933 0.617429
O O1 0.412097 0.579734 0.801154
O O2 0.055572 0.449505 0.865655
O O3 0.262021 0.330318 0.984270
O O4 0.165137 0.760324 0.960506
O O5 0.534212 0.815790 0.374224
O O6 0.684991 0.397930 0.462291
O O7 0.911517 0.721346 0.341587
O O8 0.682669 0.885175 0.497194
O O9 0.363339 0.143763 0.175536
O O10 0.295694 0.570032 0.122939
O O11 0.241607 0.478033 0.316046
O O12 0.131545 0.968202 0.118849
O O13 0.500000 0.000000 0.000000
O O14 0.177379 0.875849 0.399972
O O15 0.000000 0.500000 0.500000
#
# Coordination Sequence:
#
# PCOD9095953 Si02
#       7
#     2   2   2   2   2   2   2
#     4  10  20  35  61  87 120 155 195 242 310 371
#     4   9  18  36  61  85 111 152 204 263 313 367
#     4  11  22  38  58  87 123 160 204 252 302 364
#     4  11  18  37  62  89 123 156 193 249 310 371
#     4  10  20  37  59  88 119 156 193 248 305 372
#     4   9  18  36  61  85 112 151 206 260 316 363
#     4  10  22  40  59  83 119 164 208 257 311 368
#
# _framework density 26.052287
#
# number of rings (size 3 to 8) (size 9 to 14) (size 15 to 20)
#    0.000    2.000    2.857    1.714    0.000    1.143 
#   10.286    0.000    3.143    0.000    0.000    0.000 
#    0.000    0.000    0.000    0.000    0.000    0.000 
#
# Total GULP energy -77992.992319 kJ/mol
# GULP energy per Si atom -5570.928023 kJ/mol
# Density = 2.599299 g / cm^3
# Si number density = 26.052287 Si / 1000 Ang^3
#
#
#
# Elastic Constant Matrix: (Units=GPa)
#
#
# Indices 1 2 3 4 5 6 
#
# 1 160.5361 22.2500 32.7143 4.8546 -42.0659 28.3296
# 2 22.2500 76.1947 23.2981 10.4974 -0.8970 23.7086
# 3 32.7143 23.2981 96.6042 21.6052 -28.9165 16.2415
# 4 4.8546 10.4974 21.6052 31.7525 -6.2344 7.7302
# 5 -42.0659 -0.8970 -28.9165 -6.2344 39.0308 0.5117
# 6 28.3296 23.7086 16.2415 7.7302 0.5117 40.8098
#
#
#
# Elastic Compliance Matrix: (Units=1/GPa)
#
#
# Indices 1 2 3 4 5 6 
#
# 1 0.010951 -0.001301 0.001405 0.002363 0.013296 -0.008020
# 2 -0.001301 0.016950 -0.002943 -0.002308 -0.003466 -0.007292
# 3 0.001405 -0.002943 0.016794 -0.006983 0.012836 -0.004788
# 4 0.002363 -0.002308 -0.006983 0.038525 0.003537 -0.004862
# 5 0.013296 -0.003466 0.012836 0.003537 0.050125 -0.013624
# 6 -0.008020 -0.007292 -0.004788 -0.004862 -0.013624 0.037305
#
#
# Mechanical properties :
#
#
# Convention : Reuss Voigt Hill
#
# Bulk Modulus (GPa) = 25.62880 54.42885 40.02883
# Shear Modulus (GPa) = 26.40843 39.32348 32.86595
#
# Velocity S-wave (km/s) = 3.18727 3.88932 3.55567
# Velocity P-wave (km/s) = 4.83774 6.41144 5.67936
#
# Compressibility (1/GPa) = 0.03901860
#
# Stress axis : x y z
#
# Youngs Moduli (GPa) = 91.31658 58.99638 59.54344
#
# Poissons Ratio (x) = 0.07676 -0.08367
# Poissons Ratio (y) = 0.11881 0.17521
# Poissons Ratio (z) = -0.12831 0.17360
#
# Static dielectric constant tensor:
#      x y z
#    x 2.171650 0.010330 -0.120470 
#    y 0.010330 3.042930 0.153850 
#    z -0.120470 0.153850 2.202630 
# 
# From -- ./inp_files/35828.got.cif
#   From: 2010.05.17/outbox.cif.g08.bks.cpg/sg2_18_cif.got.tgz:35828.got - 2010.06.03 11:33:40.
