data_PCOD9095806
_publ_section_title
;
Structure prediction by ZEFSAII (Michael W. Deem and Ramdas Pophale) SiO2 
 PCOD9095806
Probable space group: P -1
;
_chemical_formula_sum "Si O2"
_cell_formula_units_Z 16
_cell_length_a 20.160301
_cell_length_b 8.515656
_cell_length_c 9.558789
_cell_angle_alpha 31.813394
_cell_angle_beta 83.827284
_cell_angle_gamma 86.756154
_cell_volume 858.167113
_symmetry_space_group_name_H-M "P -1"
_symmetry_group_IT_number 2
_symmetry_cell_setting 'triclinic'
loop_
_space_group_symop_operation_xyz
x,y,z
-x,-y,-z
loop_
_atom_site_type_symbol
_atom_site_label
_atom_site_fract_x
_atom_site_fract_y
_atom_site_fract_z
Si Si1 0.630188 0.580110 0.712448
Si Si2 0.170047 0.704410 0.043930
Si Si3 0.166206 0.834030 0.363737
Si Si4 0.951765 0.232153 0.771459
Si Si5 0.651644 0.273193 0.236601
Si Si6 0.510869 0.352169 0.258707
Si Si7 0.239355 0.367123 0.508522
Si Si8 0.801378 0.475410 0.130030
O O1 0.551615 0.544957 0.715803
O O2 0.681480 0.573058 0.577284
O O3 0.642928 0.916019 0.513976
O O4 0.645510 0.368525 0.001419
O O5 0.163735 0.621483 0.946940
O O6 0.211173 0.029394 0.806178
O O7 0.100311 0.702023 0.143409
O O8 0.210396 0.449351 0.301207
O O9 0.096778 0.859981 0.277464
O O10 0.209438 0.608748 0.434669
O O11 0.163760 0.682828 0.630038
O O12 0.196479 0.170485 0.116035
O O13 0.000000 0.500000 0.500000
O O14 0.000000 0.000000 0.000000
O O15 0.589419 0.406297 0.232102
O O16 0.723535 0.368998 0.209396
O O17 0.500000 0.000000 0.500000
O O18 0.500000 0.500000 0.000000
#
# Coordination Sequence:
#
# PCOD9095806 Si02
#       8
#     2   2   2   2   2   2   2   2
#     4  10  16  30  52  80 107 146 200 238 268 320
#     4  11  22  37  64  87 111 149 191 229 274 336
#     4  11  25  37  59  87 118 146 183 234 287 336
#     4  11  23  45  65  83 111 151 186 222 275 344
#     4  10  18  30  51  80 114 149 182 233 293 319
#     4   8  16  26  44  75 110 142 187 238 274 319
#     4  11  19  37  56  85 113 152 197 236 275 327
#     4  12  21  38  56  89 122 145 183 238 287 332
#
# _framework density 18.644387999999999
#
# number of rings (size 3 to 8) (size 9 to 14) (size 15 to 20)
#    0.000    1.500    2.500    5.250    0.000    0.000 
#    0.000    3.750    0.000    1.500    0.000    0.000 
#    0.000    0.000    0.000    0.000    0.000    0.000 
#
# Total GULP energy -89180.140736 kJ/mol
# GULP energy per Si atom -5573.758796 kJ/mol
# Density = 1.860195 g / cm^3
# Si number density = 18.644388 Si / 1000 Ang^3
#
#
#
# Elastic Constant Matrix: (Units=GPa)
#
#
# Indices 1 2 3 4 5 6 
#
# 1 103.4798 41.8049 23.7845 13.3716 -13.2186 -32.2659
# 2 41.8049 37.3838 15.4881 15.0560 4.9854 16.0771
# 3 23.7845 15.4881 112.3594 1.9958 3.4610 0.3231
# 4 13.3716 15.0560 1.9958 31.6598 -0.4084 -4.3114
# 5 -13.2186 4.9854 3.4610 -0.4084 28.8489 -1.1436
# 6 -32.2659 16.0771 0.3231 -4.3114 -1.1436 16.2317
#
#
#
# Elastic Compliance Matrix: (Units=1/GPa)
#
#
# Indices 1 2 3 4 5 6 
#
# 1 -0.001260 0.014474 -0.001396 -0.008963 -0.003809 -0.019462
# 2 0.014474 -0.004943 -0.002789 0.001258 0.009214 0.034707
# 3 -0.001396 -0.002789 0.009596 0.001301 -0.001289 0.000051
# 4 -0.008963 0.001258 0.001301 0.033192 -0.004430 -0.010584
# 5 -0.003809 0.009214 -0.001289 -0.004430 0.030796 -0.015680
# 6 -0.019462 0.034707 0.000051 -0.010584 -0.015680 -0.015373
#
#
# Mechanical properties :
#
#
# Convention : Reuss Voigt Hill
#
# Bulk Modulus (GPa) = 41.71339 46.15310 43.93325
# Shear Modulus (GPa) = 126.83696 26.82446 76.83071
#
# Velocity S-wave (km/s) = 8.25695 3.79719 6.42635
# Velocity P-wave (km/s) = 10.64541 6.63574 8.87011
#
# Compressibility (1/GPa) = 0.02397312
#
# Stress axis : x y z
#
# Youngs Moduli (GPa) = -793.85580 -202.30778 104.20617
#
# Poissons Ratio (x) = 2.92827 0.14548
# Poissons Ratio (y) = 11.49053 0.29059
# Poissons Ratio (z) = -1.10827 -0.56415
#
# Static dielectric constant tensor:
#      x y z
#    x 1.844310 -0.021850 -0.117870 
#    y -0.021850 1.640180 -0.007780 
#    z -0.117870 -0.007780 1.722850 
# 
# From -- ./inp_files/223661.got.cif
#   From: 2010.05.17/outbox.cif.g08.bks.cpg/sg2_112_cif.got.tgz:223661.got - 2010.06.03 11:33:40.
