data_PCOD9095745
_publ_section_title
;
Structure prediction by ZEFSAII (Michael W. Deem and Ramdas Pophale) SiO2 
 PCOD9095745
Probable space group: P -1
;
_chemical_formula_sum "Si O2"
_cell_formula_units_Z 14
_cell_length_a 9.558483
_cell_length_b 16.165013
_cell_length_c 6.829566
_cell_angle_alpha 103.192085
_cell_angle_beta 46.913613
_cell_angle_gamma 131.958058
_cell_volume 519.912491
_symmetry_space_group_name_H-M "P -1"
_symmetry_group_IT_number 2
_symmetry_cell_setting 'triclinic'
loop_
_space_group_symop_operation_xyz
x,y,z
-x,-y,-z
loop_
_atom_site_type_symbol
_atom_site_label
_atom_site_fract_x
_atom_site_fract_y
_atom_site_fract_z
Si Si1 0.962044 0.906834 0.193808
Si Si2 0.920936 0.074735 0.453723
Si Si3 0.757775 0.508979 0.000472
Si Si4 0.214236 0.334511 0.213748
Si Si5 0.304039 0.865742 0.828931
Si Si6 0.649214 0.300426 0.397404
Si Si7 0.978821 0.630511 0.229856
O O1 0.667836 0.778658 0.324543
O O2 0.954688 0.893472 0.431224
O O3 0.006843 0.022609 0.207365
O O4 0.210106 0.928326 0.889985
O O5 0.006848 0.191209 0.343636
O O6 0.590135 0.962747 0.723299
O O7 0.747289 0.604719 0.992431
O O8 0.071903 0.573982 0.701676
O O9 0.499389 0.390927 0.066548
O O10 0.747955 0.513800 0.248937
O O11 0.108806 0.379129 0.474947
O O12 0.342255 0.798166 0.610325
O O13 0.060070 0.750618 0.138024
O O14 0.744036 0.328949 0.089990
#
# Coordination Sequence:
#
# PCOD9095745 Si02
#       7
#     2   2   2   2   2   2   2
#     4  10  16  30  52  78 116 138 169 232 262 319
#     4  10  19  26  52  87 105 139 185 212 268 332
#     4   8  20  34  52  81 109 133 193 223 253 327
#     4  11  17  32  58  79 104 150 174 223 274 306
#     4   8  16  31  50  81 109 135 176 222 263 323
#     4   7  17  33  50  78 107 137 177 222 262 318
#     4   8  17  33  54  79 104 136 179 218 266 318
#
# _framework density 26.927609
#
# number of rings (size 3 to 8) (size 9 to 14) (size 15 to 20)
#    1.714    1.143    1.429    0.857    0.000    0.000 
#    0.000    7.143    0.000   12.857    0.000   16.000 
#    0.000    0.000    0.000    0.000    0.000    0.000 
#
# Total GULP energy -78091.855704 kJ/mol
# GULP energy per Si atom -5577.989693 kJ/mol
# Density = 2.686632 g / cm^3
# Si number density = 26.927609 Si / 1000 Ang^3
#
#
#
# Elastic Constant Matrix: (Units=GPa)
#
#
# Indices 1 2 3 4 5 6 
#
# 1 90.8493 14.1217 30.1499 5.0436 -18.1642 14.8278
# 2 14.1217 97.6032 21.4259 2.6630 -3.7294 -1.1419
# 3 30.1499 21.4259 69.9571 5.4552 -16.6817 15.1032
# 4 5.0436 2.6630 5.4552 41.4051 3.4197 -13.4239
# 5 -18.1642 -3.7294 -16.6817 3.4197 49.4364 -4.9061
# 6 14.8278 -1.1419 15.1032 -13.4239 -4.9061 43.9767
#
#
#
# Elastic Compliance Matrix: (Units=1/GPa)
#
#
# Indices 1 2 3 4 5 6 
#
# 1 0.013910 -0.001014 -0.003803 -0.002662 0.003556 -0.003826
# 2 -0.001014 0.011166 -0.003593 0.000567 -0.000586 0.001973
# 3 -0.003803 -0.003593 0.019897 -0.004412 0.004709 -0.006466
# 4 -0.002662 0.000567 -0.004412 0.028815 -0.003341 0.010851
# 5 0.003556 -0.000586 0.004709 -0.003341 0.023185 -0.001265
# 6 -0.003826 0.001973 -0.006466 0.010851 -0.001265 0.029472
#
#
# Mechanical properties :
#
#
# Convention : Reuss Voigt Hill
#
# Bulk Modulus (GPa) = 35.51933 43.31162 39.41548
# Shear Modulus (GPa) = 32.75489 39.81114 36.28301
#
# Velocity S-wave (km/s) = 3.49148 3.84923 3.67472
# Velocity P-wave (km/s) = 5.42893 5.98956 5.71612
#
# Compressibility (1/GPa) = 0.02815368
#
# Stress axis : x y z
#
# Youngs Moduli (GPa) = 71.89006 89.55580 50.25958
#
# Poissons Ratio (x) = 0.09082 0.19113
# Poissons Ratio (y) = 0.07290 0.18058
# Poissons Ratio (z) = 0.27338 0.32176
#
# Static dielectric constant tensor:
#      x y z
#    x 2.158140 -0.051110 0.021240 
#    y -0.051110 2.132220 0.035300 
#    z 0.021240 0.035300 2.068410 
# 
# From -- ./inp_files/201840.got.cif
#   From: 2010.05.17/outbox.cif.g08.bks.cpg/sg2_101_cif.got.tgz:201840.got - 2010.06.03 11:33:40.
