data_PCOD9095427
_publ_section_title
;
Structure prediction by ZEFSAII (Michael W. Deem and Ramdas Pophale) SiO2 
 PCOD9095427
Probable space group: P -1
;
_chemical_formula_sum "Si O2"
_cell_formula_units_Z 16
_cell_length_a 7.127433
_cell_length_b 14.112105
_cell_length_c 14.723039
_cell_angle_alpha 29.368645
_cell_angle_beta 81.444133
_cell_angle_gamma 97.737767
_cell_volume 602.166933
_symmetry_space_group_name_H-M "P -1"
_symmetry_group_IT_number 2
_symmetry_cell_setting 'triclinic'
loop_
_space_group_symop_operation_xyz
x,y,z
-x,-y,-z
loop_
_atom_site_type_symbol
_atom_site_label
_atom_site_fract_x
_atom_site_fract_y
_atom_site_fract_z
Si Si1 0.851988 0.055799 0.154499
Si Si2 0.498350 0.657020 0.950575
Si Si3 0.750188 0.284592 0.809055
Si Si4 0.359713 0.286845 0.403986
Si Si5 0.266958 0.038489 0.077592
Si Si6 0.789442 0.031899 0.481613
Si Si7 0.012142 0.476466 0.892322
Si Si8 0.908293 0.268152 0.498913
O O1 0.647435 0.816441 0.410912
O O2 0.239058 0.854529 0.159038
O O3 0.044277 0.045303 0.095126
O O4 0.977589 0.228732 0.087696
O O5 0.658314 0.912208 0.684940
O O6 0.500000 0.500000 0.000000
O O7 0.523832 0.541567 0.136930
O O8 0.247243 0.599436 0.024973
O O9 0.957295 0.543133 0.588933
O O10 0.490352 0.738325 0.152966
O O11 0.761390 0.162092 0.001880
O O12 0.107901 0.245082 0.461912
O O13 0.357643 0.121447 0.464526
O O14 0.277456 0.952784 0.249222
O O15 0.869267 0.298072 0.239395
O O16 0.000000 0.000000 0.500000
O O17 0.141809 0.607295 0.680038
#
# Coordination Sequence:
#
# PCOD9095427 Si02
#       8
#     2   2   2   2   2   2   2   2
#     4  10  22  41  60  93 137 156 203 265 311 369
#     4   9  17  33  57  83 111 157 213 253 297 357
#     4  10  21  39  66  92 121 162 208 248 314 379
#     4   9  19  36  56  87 122 165 202 249 314 357
#     4  10  21  40  66  91 119 167 205 248 316 379
#     4  11  18  34  62  86 118 168 212 254 300 357
#     4  10  20  35  57  87 125 163 204 255 308 357
#     4   9  18  35  58  90 123 155 207 256 300 363
#
# _framework density 26.570706999999999
#
# number of rings (size 3 to 8) (size 9 to 14) (size 15 to 20)
#    0.000    2.250    3.750    0.750    0.000    3.500 
#    0.000   10.000    0.000   13.500    0.000    0.000 
#    0.000    0.000    0.000    0.000    0.000    0.000 
#
# Total GULP energy -89383.930200 kJ/mol
# GULP energy per Si atom -5586.495637 kJ/mol
# Density = 2.651023 g / cm^3
# Si number density = 26.570707 Si / 1000 Ang^3
#
#
#
# Elastic Constant Matrix: (Units=GPa)
#
#
# Indices 1 2 3 4 5 6 
#
# 1 70.6371 10.4773 23.8768 16.1447 -20.3003 -23.6363
# 2 10.4773 130.4691 7.1076 -6.9154 0.6646 -19.1976
# 3 23.8768 7.1076 171.6204 17.4731 -0.7573 -11.8077
# 4 16.1447 -6.9154 17.4731 32.0230 -3.7425 7.5386
# 5 -20.3003 0.6646 -0.7573 -3.7425 33.2436 11.0061
# 6 -23.6363 -19.1976 -11.8077 7.5386 11.0061 30.2164
#
#
#
# Elastic Compliance Matrix: (Units=1/GPa)
#
#
# Indices 1 2 3 4 5 6 
#
# 1 0.029184 0.000296 -0.000325 -0.019529 0.007298 0.025103
# 2 0.000296 0.008605 0.000054 -0.000112 -0.002167 0.006537
# 3 -0.000325 0.000054 0.006630 -0.004678 -0.001986 0.004262
# 4 -0.019529 -0.000112 -0.004678 0.051526 0.004223 -0.031569
# 5 0.007298 -0.002167 -0.001986 0.004223 0.038870 -0.011656
# 6 0.025103 0.006537 0.004262 -0.031569 -0.011656 0.070671
#
#
# Mechanical properties :
#
#
# Convention : Reuss Voigt Hill
#
# Bulk Modulus (GPa) = 22.48774 50.62777 36.55776
# Shear Modulus (GPa) = 22.70053 41.18094 31.94073
#
# Velocity S-wave (km/s) = 2.92609 3.94110 3.47090
# Velocity P-wave (km/s) = 4.46069 6.30912 5.46364
#
# Compressibility (1/GPa) = 0.04446868
#
# Stress axis : x y z
#
# Youngs Moduli (GPa) = 34.26580 116.21313 150.81907
#
# Poissons Ratio (x) = -0.03435 0.04899
# Poissons Ratio (y) = -0.01013 -0.00816
# Poissons Ratio (z) = 0.01113 -0.00629
#
# Static dielectric constant tensor:
#      x y z
#    x 2.103420 0.040670 0.031690 
#    y 0.040670 2.157700 -0.066070 
#    z 0.031690 -0.066070 2.112930 
# 
# From -- ./inp_files/569483.got.cif
#   From: 2010.05.17/outbox.cif.g08.bks.cpg/sg2_285_cif.got.tgz:569483.got - 2010.06.03 11:33:40.
