data_PCOD9095475
_publ_section_title
;
Structure prediction by ZEFSAII (Michael W. Deem and Ramdas Pophale) SiO2 
 PCOD9095475
Probable space group: P -1
;
_chemical_formula_sum "Si O2"
_cell_formula_units_Z 16
_cell_length_a 9.447119
_cell_length_b 7.544807
_cell_length_c 13.299388
_cell_angle_alpha 128.848177
_cell_angle_beta 65.450885
_cell_angle_gamma 110.532697
_cell_volume 666.070585
_symmetry_space_group_name_H-M "P -1"
_symmetry_group_IT_number 2
_symmetry_cell_setting 'triclinic'
loop_
_space_group_symop_operation_xyz
x,y,z
-x,-y,-z
loop_
_atom_site_type_symbol
_atom_site_label
_atom_site_fract_x
_atom_site_fract_y
_atom_site_fract_z
Si Si1 0.974104 0.666777 0.973684
Si Si2 0.685961 0.947902 0.199606
Si Si3 0.756204 0.103974 0.922449
Si Si4 0.537769 0.755200 0.980943
Si Si5 0.557787 0.212120 0.628785
Si Si6 0.198757 0.539244 0.236631
Si Si7 0.755080 0.376645 0.461135
Si Si8 0.073782 0.224589 0.354387
O O1 0.846208 0.840391 0.093535
O O2 0.140205 0.829623 0.986009
O O3 0.925549 0.516750 0.836041
O O4 0.000000 0.500000 0.000000
O O5 0.576952 0.911303 0.121720
O O6 0.592262 0.791734 0.257827
O O7 0.703482 0.214362 0.324590
O O8 0.648062 0.296407 0.994632
O O9 0.866079 0.015824 0.773310
O O10 0.623718 0.892633 0.910517
O O11 0.642751 0.551454 0.884652
O O12 0.715096 0.223996 0.656517
O O13 0.615892 0.394023 0.588869
O O14 0.500000 0.000000 0.500000
O O15 0.124712 0.379084 0.293916
O O16 0.844845 0.634534 0.525082
O O17 0.888234 0.229218 0.415384
#
# Coordination Sequence:
#
# PCOD9095475 Si02
#       8
#     2   2   2   2   2   2   2   2
#     4  11  24  34  54  85 117 144 176 226 276 329
#     4  10  20  35  58  81 108 147 184 222 270 334
#     4  10  20  37  52  85 115 139 176 228 280 320
#     4   9  21  34  58  82 112 143 176 227 277 333
#     4   9  19  34  55  79 108 141 189 224 260 324
#     4   9  20  35  57  85 106 147 187 218 273 334
#     4   9  17  33  56  84 100 142 187 227 268 313
#     4   9  17  33  61  79 107 138 185 230 269 321
#
# _framework density 24.021478999999999
#
# number of rings (size 3 to 8) (size 9 to 14) (size 15 to 20)
#    0.000    2.500    1.250    0.000    5.250    2.500 
#    0.000    0.625    0.000   21.000    0.000    0.000 
#    0.000    0.000    0.000    0.000    0.000    0.000 
#
# Total GULP energy -89072.420851 kJ/mol
# GULP energy per Si atom -5567.026303 kJ/mol
# Density = 2.396680 g / cm^3
# Si number density = 24.021479 Si / 1000 Ang^3
#
#
#
# Elastic Constant Matrix: (Units=GPa)
#
#
# Indices 1 2 3 4 5 6 
#
# 1 134.1857 13.9195 55.3913 0.7725 16.0784 19.0149
# 2 13.9195 37.7028 18.6534 0.6454 -0.4400 2.4393
# 3 55.3913 18.6534 127.7311 6.8040 26.5683 4.6090
# 4 0.7725 0.6454 6.8040 25.8397 14.6231 5.0053
# 5 16.0784 -0.4400 26.5683 14.6231 44.1998 4.1374
# 6 19.0149 2.4393 4.6090 5.0053 4.1374 28.3861
#
#
#
# Elastic Compliance Matrix: (Units=1/GPa)
#
#
# Indices 1 2 3 4 5 6 
#
# 1 0.010290 -0.001597 -0.003764 0.003041 -0.001903 -0.006403
# 2 -0.001597 0.029402 -0.004333 -0.001679 0.004133 -0.001060
# 3 -0.003764 -0.004333 0.011187 0.000081 -0.005601 0.001880
# 4 0.003041 -0.001679 0.000081 0.049768 -0.016867 -0.008223
# 5 -0.001903 0.004133 -0.005601 -0.016867 0.032296 0.000096
# 6 -0.006403 -0.001060 0.001880 -0.008223 0.000096 0.040740
#
#
# Mechanical properties :
#
#
# Convention : Reuss Voigt Hill
#
# Bulk Modulus (GPa) = 31.75543 52.83866 42.29704
# Shear Modulus (GPa) = 24.56192 33.79548 29.17870
#
# Velocity S-wave (km/s) = 3.20112 3.75492 3.48902
# Velocity P-wave (km/s) = 5.18760 6.39088 5.82042
#
# Compressibility (1/GPa) = 0.03149067
#
# Stress axis : x y z
#
# Youngs Moduli (GPa) = 97.18511 34.01108 89.38945
#
# Poissons Ratio (x) = 0.05430 0.33647
# Poissons Ratio (y) = 0.15516 0.38736
# Poissons Ratio (z) = 0.36582 0.14738
#
# Static dielectric constant tensor:
#      x y z
#    x 1.978780 0.039600 0.007930 
#    y 0.039600 2.081320 0.038330 
#    z 0.007930 0.038330 2.067690 
# 
# From -- ./inp_files/207053.got.cif
#   From: 2010.05.17/outbox.cif.g08.bks.cpg/sg2_104_cif.got.tgz:207053.got - 2010.06.03 11:33:40.
