data_PCOD9095209
_publ_section_title
;
Structure prediction by ZEFSAII (Michael W. Deem and Ramdas Pophale) SiO2 
 PCOD9095209
Probable space group: P -1
;
_chemical_formula_sum "Si O2"
_cell_formula_units_Z 12
_cell_length_a 8.805517
_cell_length_b 9.077373
_cell_length_c 15.967405
_cell_angle_alpha 34.711836
_cell_angle_beta 129.488755
_cell_angle_gamma 106.498103
_cell_volume 470.892367
_symmetry_space_group_name_H-M "P -1"
_symmetry_group_IT_number 2
_symmetry_cell_setting 'triclinic'
loop_
_space_group_symop_operation_xyz
x,y,z
-x,-y,-z
loop_
_atom_site_type_symbol
_atom_site_label
_atom_site_fract_x
_atom_site_fract_y
_atom_site_fract_z
Si Si1 0.759986 0.837753 0.456616
Si Si2 0.236242 0.257244 0.315685
Si Si3 0.923375 0.087384 0.067221
Si Si4 0.078733 0.007844 0.718836
Si Si5 0.403096 0.497226 0.876780
Si Si6 0.304635 0.019948 0.105374
O O1 0.774800 0.654217 0.630983
O O2 0.927177 0.803106 0.453107
O O3 0.712022 0.144773 0.347874
O O4 0.541981 0.886194 0.303431
O O5 0.155027 0.571014 0.091859
O O6 0.054702 0.157759 0.277376
O O7 0.500000 0.000000 0.500000
O O8 0.715395 0.109349 0.929808
O O9 0.017572 0.852338 0.288510
O O10 0.134682 0.995809 0.120815
O O11 0.353566 0.768998 0.953554
O O12 0.500000 0.500000 0.000000
O O13 0.242799 0.362134 0.897036
#
# Coordination Sequence:
#
# PCOD9095209 Si02
#       6
#     2   2   2   2   2   2
#     4  10  20  36  58  83 111 143 181 230 276 319
#     4  12  23  35  56  85 116 143 177 227 280 327
#     4  11  21  36  58  83 111 145 183 225 271 327
#     4  10  20  35  56  79 106 145 190 223 260 321
#     4   8  16  34  57  78 103 141 187 225 259 315
#     4   9  20  37  59  81 108 145 187 226 268 322
#
# _framework density 25.483532
#
# number of rings (size 3 to 8) (size 9 to 14) (size 15 to 20)
#    0.000    2.333    0.000    6.000    0.000    3.333 
#    0.000    0.000    0.000    9.000    0.000    0.000 
#    0.000    0.000    0.000    0.000    0.000    0.000 
#
# Total GULP energy -66843.581993 kJ/mol
# GULP energy per Si atom -5570.298499 kJ/mol
# Density = 2.542553 g / cm^3
# Si number density = 25.483532 Si / 1000 Ang^3
#
#
#
# Elastic Constant Matrix: (Units=GPa)
#
#
# Indices 1 2 3 4 5 6 
#
# 1 136.9822 36.4670 40.8425 29.1273 -24.5183 -1.3798
# 2 36.4670 111.6274 30.9637 32.0984 -2.7700 12.6053
# 3 40.8425 30.9637 70.1345 31.3031 -34.3551 -13.1122
# 4 29.1273 32.0984 31.3031 48.4313 -10.2633 -0.4308
# 5 -24.5183 -2.7700 -34.3551 -10.2633 46.3563 12.3871
# 6 -1.3798 12.6053 -13.1122 -0.4308 12.3871 26.6958
#
#
#
# Elastic Compliance Matrix: (Units=1/GPa)
#
#
# Indices 1 2 3 4 5 6 
#
# 1 0.009489 -0.001396 -0.002760 -0.002427 0.002761 -0.001526
# 2 -0.001396 0.013271 -0.005979 -0.004876 -0.003375 -0.007788
# 3 -0.002760 -0.005979 0.035788 -0.013447 0.018691 0.011369
# 4 -0.002427 -0.004876 -0.013447 0.033251 -0.003583 -0.002229
# 5 0.002761 -0.003375 0.018691 -0.003583 0.037657 -0.006614
# 6 -0.001526 -0.007788 0.011369 -0.002229 -0.006614 0.049674
#
#
# Mechanical properties :
#
#
# Convention : Reuss Voigt Hill
#
# Bulk Modulus (GPa) = 26.12387 59.47671 42.80029
# Shear Modulus (GPa) = 23.56734 38.32807 30.94771
#
# Velocity S-wave (km/s) = 3.04436 3.88239 3.48863
# Velocity P-wave (km/s) = 4.75721 6.59449 5.74971
#
# Compressibility (1/GPa) = 0.03827917
#
# Stress axis : x y z
#
# Youngs Moduli (GPa) = 105.37997 75.35510 27.94253
#
# Poissons Ratio (x) = 0.10519 0.07711
# Poissons Ratio (y) = 0.14710 0.16706
# Poissons Ratio (z) = 0.29080 0.45053
#
# Static dielectric constant tensor:
#      x y z
#    x 1.609290 0.124540 -0.233100 
#    y 0.124540 1.966540 -0.092320 
#    z -0.233100 -0.092320 2.100900 
# 
# From -- ./inp_files/210929.got.cif
#   From: 2010.05.17/outbox.cif.g08.bks.cpg/sg2_106_cif.got.tgz:210929.got - 2010.06.03 11:33:40.
