data_PCOD9095081
_publ_section_title
;
Structure prediction by ZEFSAII (Michael W. Deem and Ramdas Pophale) SiO2 
 PCOD9095081
Probable space group: P -1
;
_chemical_formula_sum "Si O2"
_cell_formula_units_Z 14
_cell_length_a 14.112583
_cell_length_b 9.733648
_cell_length_c 16.139085
_cell_angle_alpha 138.401357
_cell_angle_beta 156.129100
_cell_angle_gamma 56.517484
_cell_volume 518.581831
_symmetry_space_group_name_H-M "P -1"
_symmetry_group_IT_number 2
_symmetry_cell_setting 'triclinic'
loop_
_space_group_symop_operation_xyz
x,y,z
-x,-y,-z
loop_
_atom_site_type_symbol
_atom_site_label
_atom_site_fract_x
_atom_site_fract_y
_atom_site_fract_z
Si Si1 0.247237 0.035423 0.332743
Si Si2 0.161720 0.471593 0.232292
Si Si3 0.899570 0.517122 0.336750
Si Si4 0.393488 0.259552 0.720366
Si Si5 0.372986 0.497536 0.234690
Si Si6 0.757485 0.203402 0.409711
Si Si7 0.322253 0.245228 0.929826
O O1 0.247218 0.058684 0.443832
O O2 0.350372 0.282885 0.479580
O O3 0.500000 0.000000 0.500000
O O4 0.976384 0.809359 0.984388
O O5 0.342174 0.515330 0.315541
O O6 0.302512 0.666280 0.504398
O O7 0.891669 0.487543 0.000970
O O8 0.799962 0.710563 0.356713
O O9 0.000000 0.500000 0.500000
O O10 0.127301 0.619698 0.496543
O O11 0.645994 0.285968 0.987755
O O12 0.514028 0.499088 0.868850
O O13 0.347264 0.271217 0.061357
O O14 0.019104 0.188507 0.645160
O O15 0.592293 0.935459 0.122830
#
# Coordination Sequence:
#
# PCOD9095081 Si02
#       7
#     2   2   2   2   2   2   2
#     4   9  16  29  50  78 113 140 183 238 269 340
#     4   9  16  27  44  75 111 141 180 227 280 335
#     4  10  20  35  54  80 115 147 185 233 279 338
#     4   9  19  35  55  85 108 146 191 227 285 332
#     4   8  15  26  42  71 105 141 182 222 281 331
#     4   9  17  30  48  78 111 140 182 231 278 327
#     4   8  15  30  49  74 109 136 181 235 267 333
#
# _framework density 26.996703
#
# number of rings (size 3 to 8) (size 9 to 14) (size 15 to 20)
#    0.000    3.143    0.000    2.571    2.000    0.000 
#   18.000    0.714    0.000    3.429    0.000    2.000 
#    0.000    9.857    0.000    0.000    0.000    0.000 
#
# Total GULP energy -78268.492711 kJ/mol
# GULP energy per Si atom -5590.606622 kJ/mol
# Density = 2.693526 g / cm^3
# Si number density = 26.996703 Si / 1000 Ang^3
#
#
#
# Elastic Constant Matrix: (Units=GPa)
#
#
# Indices 1 2 3 4 5 6 
#
# 1 205.9173 35.1185 69.8312 8.9178 -49.2238 -1.0915
# 2 35.1185 62.2194 52.3559 -2.1038 -25.0947 16.1452
# 3 69.8312 52.3559 125.5660 -6.7268 -43.0140 8.9764
# 4 8.9178 -2.1038 -6.7268 51.4697 1.3693 -15.9477
# 5 -49.2238 -25.0947 -43.0140 1.3693 56.2621 -6.7334
# 6 -1.0915 16.1452 8.9764 -15.9477 -6.7334 48.2110
#
#
#
# Elastic Compliance Matrix: (Units=1/GPa)
#
#
# Indices 1 2 3 4 5 6 
#
# 1 0.006753 -0.000531 -0.002274 -0.001323 0.004071 0.000885
# 2 -0.000531 0.027976 -0.009660 -0.002578 0.003745 -0.007912
# 3 -0.002274 -0.009660 0.015106 0.002428 0.005423 0.001931
# 4 -0.001323 -0.002578 0.002428 0.022270 -0.000067 0.007739
# 5 0.004071 0.003745 0.005423 -0.000067 0.027349 0.001626
# 6 0.000885 -0.007912 0.001931 0.007739 0.001626 0.025839
#
#
# Mechanical properties :
#
#
# Convention : Reuss Voigt Hill
#
# Bulk Modulus (GPa) = 40.14878 78.70154 59.42516
# Shear Modulus (GPa) = 31.54117 46.94836 39.24476
#
# Velocity S-wave (km/s) = 3.42180 4.17470 3.81686
# Velocity P-wave (km/s) = 5.52410 7.24245 6.44084
#
# Compressibility (1/GPa) = 0.02490736
#
# Stress axis : x y z
#
# Youngs Moduli (GPa) = 148.07872 35.74465 66.19951
#
# Poissons Ratio (x) = 0.01896 0.15053
# Poissons Ratio (y) = 0.07856 0.63946
# Poissons Ratio (z) = 0.33671 0.34528
#
# Static dielectric constant tensor:
#      x y z
#    x 2.054390 0.029260 -0.012430 
#    y 0.029260 2.254110 -0.030130 
#    z -0.012430 -0.030130 2.214630 
# 
# From -- ./inp_files/530190.got.cif
#   From: 2010.05.17/outbox.cif.g08.bks.cpg/sg2_266_cif.got.tgz:530190.got - 2010.06.03 11:33:40.
