data_PCOD9095957
_publ_section_title
;
Structure prediction by ZEFSAII (Michael W. Deem and Ramdas Pophale) SiO2 
 PCOD9095957
Probable space group: P -1
;
_chemical_formula_sum "Si O2"
_cell_formula_units_Z 16
_cell_length_a 11.854266
_cell_length_b 9.012128
_cell_length_c 14.326693
_cell_angle_alpha 83.263103
_cell_angle_beta 136.234952
_cell_angle_gamma 122.509461
_cell_volume 790.739114
_symmetry_space_group_name_H-M "P -1"
_symmetry_group_IT_number 2
_symmetry_cell_setting 'triclinic'
loop_
_space_group_symop_operation_xyz
x,y,z
-x,-y,-z
loop_
_atom_site_type_symbol
_atom_site_label
_atom_site_fract_x
_atom_site_fract_y
_atom_site_fract_z
Si Si1 0.357922 0.418223 0.328649
Si Si2 0.999371 0.558675 0.859103
Si Si3 0.256693 0.138839 0.136574
Si Si4 0.577857 0.693912 0.975054
Si Si5 0.291175 0.788703 0.845338
Si Si6 0.134411 0.011218 0.710598
Si Si7 0.670117 0.819481 0.378178
Si Si8 0.318596 0.826552 0.195580
O O1 0.500000 0.500000 0.500000
O O2 0.130669 0.362638 0.218776
O O3 0.339838 0.252543 0.276263
O O4 0.482969 0.597118 0.316553
O O5 0.820786 0.323426 0.790154
O O6 0.129547 0.623373 0.837306
O O7 0.184795 0.676057 0.039989
O O8 0.339338 0.276163 0.083447
O O9 0.312432 0.999153 0.171004
O O10 0.000000 0.000000 0.000000
O O11 0.391153 0.709035 0.856602
O O12 0.500000 0.500000 0.000000
O O13 0.766128 0.880475 0.139064
O O14 0.159051 0.848096 0.719408
O O15 0.500000 0.000000 0.000000
O O16 0.274518 0.165401 0.698517
O O17 0.889299 0.916906 0.557908
O O18 0.562860 0.914322 0.329482
#
# Coordination Sequence:
#
# PCOD9095957 Si02
#       8
#     2   2   2   2   2   2   2   2
#     4  11  24  41  64  90 129 166 217 262 324 381
#     4  10  20  37  62  92 120 173 209 265 308 389
#     4  12  25  40  66  94 129 169 213 267 319 377
#     4  11  24  39  64  97 130 163 210 271 317 376
#     4  10  20  35  61  87 122 159 215 254 315 373
#     4  10  20  38  64  90 127 167 216 254 317 384
#     4  10  21  38  63  92 126 172 208 261 318 387
#     4  10  20  37  61  91 129 162 219 259 320 371
#
# _framework density 20.234235000000002
#
# number of rings (size 3 to 8) (size 9 to 14) (size 15 to 20)
#    0.000    1.500    1.250    5.250    3.500    0.000 
#    0.000    5.000    0.000    6.750    0.000    0.000 
#    0.000    0.000    0.000    0.000    0.000    0.000 
#
# Total GULP energy -89310.763598 kJ/mol
# GULP energy per Si atom -5581.922725 kJ/mol
# Density = 2.018818 g / cm^3
# Si number density = 20.234235 Si / 1000 Ang^3
#
#
#
# Elastic Constant Matrix: (Units=GPa)
#
#
# Indices 1 2 3 4 5 6 
#
# 1 100.3081 28.1318 49.3931 2.8932 15.0659 14.4114
# 2 28.1318 71.1519 15.3456 -8.8801 6.1909 -6.1286
# 3 49.3931 15.3456 100.5529 -14.5656 17.0428 -7.8535
# 4 2.8932 -8.8801 -14.5656 20.8539 -6.4009 5.9417
# 5 15.0659 6.1909 17.0428 -6.4009 43.7891 -3.7650
# 6 14.4114 -6.1286 -7.8535 5.9417 -3.7650 31.7523
#
#
#
# Elastic Compliance Matrix: (Units=1/GPa)
#
#
# Indices 1 2 3 4 5 6 
#
# 1 0.019844 -0.007628 -0.010381 -0.011326 -0.004348 -0.011442
# 2 -0.007628 0.018085 0.002630 0.009164 0.000899 0.005995
# 3 -0.010381 0.002630 0.017143 0.012193 -0.001084 0.007049
# 4 -0.011326 0.009164 0.012193 0.064514 0.007175 -0.001296
# 5 -0.004348 0.000899 -0.001084 0.007175 0.025987 0.003618
# 6 -0.011442 0.005995 0.007049 -0.001296 0.003618 0.040259
#
#
# Mechanical properties :
#
#
# Convention : Reuss Voigt Hill
#
# Bulk Modulus (GPa) = 41.12634 50.86155 45.99395
# Shear Modulus (GPa) = 22.25240 31.22190 26.73715
#
# Velocity S-wave (km/s) = 3.31983 3.93240 3.63903
# Velocity P-wave (km/s) = 5.92151 6.76825 6.35899
#
# Compressibility (1/GPa) = 0.02431532
#
# Stress axis : x y z
#
# Youngs Moduli (GPa) = 50.39326 55.29489 58.33149
#
# Poissons Ratio (x) = 0.42177 0.60553
# Poissons Ratio (y) = 0.38439 -0.15342
# Poissons Ratio (z) = 0.52313 -0.14544
#
# Static dielectric constant tensor:
#      x y z
#    x 1.756900 -0.012880 -0.009030 
#    y -0.012880 1.789670 -0.030300 
#    z -0.009030 -0.030300 1.732410 
# 
# From -- ./inp_files/515550.got.cif
#   From: 2010.05.17/outbox.cif.g08.bks.cpg/sg2_258_cif.got.tgz:515550.got - 2010.06.03 11:33:40.
