data_PCOD9095444
_publ_section_title
;
Structure prediction by ZEFSAII (Michael W. Deem and Ramdas Pophale) SiO2 
 PCOD9095444
Probable space group: P -1
;
_chemical_formula_sum "Si O2"
_cell_formula_units_Z 14
_cell_length_a 11.296436
_cell_length_b 9.186977
_cell_length_c 11.921226
_cell_angle_alpha 52.089454
_cell_angle_beta 55.242382
_cell_angle_gamma 51.894668
_cell_volume 730.846756
_symmetry_space_group_name_H-M "P -1"
_symmetry_group_IT_number 2
_symmetry_cell_setting 'triclinic'
loop_
_space_group_symop_operation_xyz
x,y,z
-x,-y,-z
loop_
_atom_site_type_symbol
_atom_site_label
_atom_site_fract_x
_atom_site_fract_y
_atom_site_fract_z
Si Si1 0.445107 0.817052 0.094693
Si Si2 0.400612 0.406763 0.670165
Si Si3 0.112502 0.944440 0.855746
Si Si4 0.996222 0.375808 0.951160
Si Si5 0.907886 0.097554 0.678874
Si Si6 0.671069 0.959026 0.156464
Si Si7 0.950592 0.315451 0.342293
O O1 0.555323 0.636545 0.201706
O O2 0.271528 0.850715 0.215607
O O3 0.500000 0.000000 0.000000
O O4 0.424098 0.840098 0.960435
O O5 0.500000 0.500000 0.500000
O O6 0.419572 0.187695 0.714299
O O7 0.221045 0.561285 0.676539
O O8 0.262481 0.984476 0.793160
O O9 0.016267 0.069945 0.742230
O O10 0.131993 0.717441 0.928075
O O11 0.000000 0.000000 0.000000
O O12 0.169337 0.189131 0.929027
O O13 0.966339 0.530957 0.791156
O O14 0.000000 0.500000 0.000000
O O15 0.927505 0.256531 0.507980
O O16 0.964521 0.887210 0.679301
#
# Coordination Sequence:
#
# PCOD9095444 Si02
#       7
#     2   2   2   2   2   2   2
#     4  10  18  32  53  79 105 145 185 221 264 329
#     4  10  19  33  53  79 109 142 183 228 263 330
#     4  10  18  32  54  79 113 142 179 232 270 326
#     4  10  16  30  51  80 106 136 179 224 265 317
#     4  11  19  34  54  82 112 140 181 231 280 322
#     4   9  19  32  51  80 103 143 183 218 280 310
#     4  10  21  32  52  86 110 138 182 230 279 309
#
# _framework density 19.155863
#
# number of rings (size 3 to 8) (size 9 to 14) (size 15 to 20)
#    0.000    2.000    5.714    0.000    0.000    0.000 
#    0.000    7.857    0.000    1.714    0.000    0.000 
#    0.000    0.000    0.000    0.000    0.000    0.000 
#
# Total GULP energy -77946.000574 kJ/mol
# GULP energy per Si atom -5567.571470 kJ/mol
# Density = 1.911226 g / cm^3
# Si number density = 19.155863 Si / 1000 Ang^3
#
#
#
# Elastic Constant Matrix: (Units=GPa)
#
#
# Indices 1 2 3 4 5 6 
#
# 1 114.3335 18.1113 57.9089 -11.1565 19.6419 15.1974
# 2 18.1113 29.4120 21.4245 -10.7485 2.9753 9.2509
# 3 57.9089 21.4245 140.7669 -26.1576 22.4244 2.3930
# 4 -11.1565 -10.7485 -26.1576 23.5572 -2.3833 3.8125
# 5 19.6419 2.9753 22.4244 -2.3833 37.9564 -7.9943
# 6 15.1974 9.2509 2.3930 3.8125 -7.9943 22.7411
#
#
#
# Elastic Compliance Matrix: (Units=1/GPa)
#
#
# Indices 1 2 3 4 5 6 
#
# 1 0.013794 0.000038 -0.003615 0.003747 -0.007308 -0.012051
# 2 0.000038 0.055369 -0.001532 0.027598 -0.008004 -0.029828
# 3 -0.003615 -0.001532 0.011419 0.010048 -0.004420 -0.001401
# 4 0.003747 0.027598 0.010048 0.071780 -0.012075 -0.031066
# 5 -0.007308 -0.008004 -0.004420 -0.012075 0.037634 0.023859
# 6 -0.012051 -0.029828 -0.001401 -0.031066 0.023859 0.077903
#
#
# Mechanical properties :
#
#
# Convention : Reuss Voigt Hill
#
# Bulk Modulus (GPa) = 14.21178 53.26688 33.73933
# Shear Modulus (GPa) = 16.57969 29.32211 22.95090
#
# Velocity S-wave (km/s) = 2.94516 3.91668 3.46513
# Velocity P-wave (km/s) = 4.35894 6.95135 5.80179
#
# Compressibility (1/GPa) = 0.07036418
#
# Stress axis : x y z
#
# Youngs Moduli (GPa) = 72.49345 18.06050 87.56999
#
# Poissons Ratio (x) = -0.00069 0.31658
# Poissons Ratio (y) = -0.00276 0.13419
# Poissons Ratio (z) = 0.26208 0.02768
#
# Static dielectric constant tensor:
#      x y z
#    x 1.724470 0.002440 -0.010470 
#    y 0.002440 1.693660 -0.019850 
#    z -0.010470 -0.019850 1.739570 
# 
# From -- ./inp_files/312432.got.cif
#   From: 2010.05.17/outbox.cif.g08.bks.cpg/sg2_157_cif.got.tgz:312432.got - 2010.06.03 11:33:40.
