data_PCOD9095762
_publ_section_title
;
Structure prediction by ZEFSAII (Michael W. Deem and Ramdas Pophale) SiO2 
 PCOD9095762
Probable space group: P -1
;
_chemical_formula_sum "Si O2"
_cell_formula_units_Z 16
_cell_length_a 14.154479
_cell_length_b 14.419225
_cell_length_c 9.664820
_cell_angle_alpha 140.004281
_cell_angle_beta 114.264034
_cell_angle_gamma 95.506389
_cell_volume 824.243349
_symmetry_space_group_name_H-M "P -1"
_symmetry_group_IT_number 2
_symmetry_cell_setting 'triclinic'
loop_
_space_group_symop_operation_xyz
x,y,z
-x,-y,-z
loop_
_atom_site_type_symbol
_atom_site_label
_atom_site_fract_x
_atom_site_fract_y
_atom_site_fract_z
Si Si1 0.351555 0.935335 0.793053
Si Si2 0.980224 0.710069 0.129439
Si Si3 0.144452 0.580774 0.061734
Si Si4 0.324929 0.464516 0.340854
Si Si5 0.431134 0.214775 0.375238
Si Si6 0.711597 0.864412 0.199030
Si Si7 0.437310 0.546325 0.807018
Si Si8 0.583576 0.215575 0.724505
O O1 0.235346 0.710618 0.405449
O O2 0.353073 0.047520 0.793259
O O3 0.500000 0.000000 0.000000
O O4 0.316350 0.005133 0.981336
O O5 0.040744 0.614154 0.005223
O O6 0.944582 0.644744 0.196095
O O7 0.834794 0.627149 0.879255
O O8 0.117685 0.948764 0.464256
O O9 0.259932 0.673333 0.116626
O O10 0.438405 0.631166 0.482958
O O11 0.381061 0.541311 0.616733
O O12 0.315056 0.284041 0.100614
O O13 0.389895 0.332571 0.543278
O O14 0.490631 0.177871 0.494096
O O15 0.613966 0.720815 0.105060
O O16 0.395777 0.625264 0.983065
O O17 0.500000 0.000000 0.500000
#
# Coordination Sequence:
#
# PCOD9095762 Si02
#       8
#     2   2   2   2   2   2   2   2
#     4  11  17  31  59  87 120 144 201 256 289 341
#     4  10  20  36  59  86 120 158 201 254 295 354
#     4  10  22  36  56  89 121 158 201 249 307 355
#     4  11  19  37  63  92 117 155 210 250 298 352
#     4  11  21  38  62  90 126 156 200 251 307 350
#     4  10  20  35  59  94 119 153 207 249 297 358
#     4  11  23  39  61  96 127 155 195 257 306 368
#     4  12  24  38  59  92 129 161 198 248 313 367
#
# _framework density 19.411743000000001
#
# number of rings (size 3 to 8) (size 9 to 14) (size 15 to 20)
#    0.000    1.250    5.000    3.000    0.000    0.000 
#    0.000    0.625    0.000    5.250    0.000    0.000 
#    0.000    0.000    0.000    0.000    0.000    0.000 
#
# Total GULP energy -89185.686372 kJ/mol
# GULP energy per Si atom -5574.105398 kJ/mol
# Density = 1.936756 g / cm^3
# Si number density = 19.411743 Si / 1000 Ang^3
#
#
#
# Elastic Constant Matrix: (Units=GPa)
#
#
# Indices 1 2 3 4 5 6 
#
# 1 121.1538 25.8539 39.7051 1.2318 -0.7221 8.6688
# 2 25.8539 67.9020 13.5677 -1.1507 -0.5426 -2.2201
# 3 39.7051 13.5677 70.8754 2.1700 -3.6430 6.0472
# 4 1.2318 -1.1507 2.1700 24.3276 -2.9268 2.0685
# 5 -0.7221 -0.5426 -3.6430 -2.9268 35.5865 -3.1480
# 6 8.6688 -2.2201 6.0472 2.0685 -3.1480 33.0324
#
#
#
# Elastic Compliance Matrix: (Units=1/GPa)
#
#
# Indices 1 2 3 4 5 6 
#
# 1 0.010809 -0.003132 -0.005300 -0.000110 -0.000568 -0.002124
# 2 -0.003132 0.016322 -0.001569 0.000921 0.000293 0.002176
# 3 -0.005300 -0.001569 0.017633 -0.001058 0.001433 -0.001740
# 4 -0.000110 0.000921 -0.001058 0.041802 0.003162 -0.002032
# 5 -0.000568 0.000293 0.001433 0.003162 0.028716 0.002445
# 6 -0.002124 0.002176 -0.001740 -0.002032 0.002445 0.031656
#
#
# Mechanical properties :
#
#
# Convention : Reuss Voigt Hill
#
# Bulk Modulus (GPa) = 40.38434 46.46498 43.42466
# Shear Modulus (GPa) = 28.53946 30.64296 29.59121
#
# Velocity S-wave (km/s) = 3.83850 3.97744 3.90859
# Velocity P-wave (km/s) = 6.36354 6.71431 6.54128
#
# Compressibility (1/GPa) = 0.02476207
#
# Stress axis : x y z
#
# Youngs Moduli (GPa) = 92.51380 61.26579 56.71076
#
# Poissons Ratio (x) = 0.19191 0.30059
# Poissons Ratio (y) = 0.28979 0.08896
# Poissons Ratio (z) = 0.49036 0.09610
#
# Static dielectric constant tensor:
#      x y z
#    x 1.715790 -0.023270 -0.016590 
#    y -0.023270 1.722820 0.053290 
#    z -0.016590 0.053290 1.740900 
# 
# From -- ./inp_files/316103.got.cif
#   From: 2010.05.17/outbox.cif.g08.bks.cpg/sg2_159_cif.got.tgz:316103.got - 2010.06.03 11:33:40.
