data_PCOD9095233
_publ_section_title
;
Structure prediction by ZEFSAII (Michael W. Deem and Ramdas Pophale) SiO2 
 PCOD9095233
Probable space group: P -1
;
_chemical_formula_sum "Si O2"
_cell_formula_units_Z 12
_cell_length_a 6.547001
_cell_length_b 19.711497
_cell_length_c 22.631474
_cell_angle_alpha 16.928634
_cell_angle_beta 138.553799
_cell_angle_gamma 138.624498
_cell_volume 554.447777
_symmetry_space_group_name_H-M "P -1"
_symmetry_group_IT_number 2
_symmetry_cell_setting 'triclinic'
loop_
_space_group_symop_operation_xyz
x,y,z
-x,-y,-z
loop_
_atom_site_type_symbol
_atom_site_label
_atom_site_fract_x
_atom_site_fract_y
_atom_site_fract_z
Si Si1 0.177290 0.843255 0.083833
Si Si2 0.031310 0.348625 0.035846
Si Si3 0.256810 0.560743 0.226725
Si Si4 0.644069 0.133907 0.326112
Si Si5 0.014147 0.286552 0.724985
Si Si6 0.180157 0.039579 0.603573
O O1 0.102307 0.648177 0.179230
O O2 0.192263 0.729159 0.247241
O O3 0.500000 0.000000 0.000000
O O4 0.953481 0.036910 0.885093
O O5 0.331501 0.218090 0.208836
O O6 0.135686 0.620098 0.851599
O O7 0.798188 0.186539 0.163699
O O8 0.907419 0.361564 0.931947
O O9 0.622823 0.673142 0.209852
O O10 0.235497 0.278745 0.453683
O O11 0.841125 0.030334 0.505770
O O12 0.594254 0.959697 0.404722
O O13 0.000000 0.500000 0.500000
#
# Coordination Sequence:
#
# PCOD9095233 Si02
#       6
#     2   2   2   2   2   2
#     4   9  21  41  60  83 114 145 185 233 285 343
#     4  10  20  36  56  78 113 149 183 232 279 324
#     4  10  23  35  53  88 113 141 189 232 279 336
#     4   9  20  36  54  80 108 149 192 223 274 331
#     4  10  22  40  62  83 111 151 188 230 286 342
#     4  10  20  35  56  81 112 146 187 231 274 329
#
# _framework density 21.643156000000001
#
# number of rings (size 3 to 8) (size 9 to 14) (size 15 to 20)
#    0.000    2.333    0.000    1.000    0.000   12.000 
#    0.000    3.333    0.000    0.000    0.000    0.000 
#    0.000    0.000    0.000    0.000    0.000    0.000 
#
# Total GULP energy -66955.416046 kJ/mol
# GULP energy per Si atom -5579.618004 kJ/mol
# Density = 2.159390 g / cm^3
# Si number density = 21.643156 Si / 1000 Ang^3
#
#
#
# Elastic Constant Matrix: (Units=GPa)
#
#
# Indices 1 2 3 4 5 6 
#
# 1 87.3609 33.8789 40.5729 -7.7836 -14.1577 -33.7656
# 2 33.8789 50.6566 21.4383 -22.8518 3.9599 -30.4301
# 3 40.5729 21.4383 98.2018 -0.4552 -17.9918 -30.0775
# 4 -7.7836 -22.8518 -0.4552 23.7237 -7.1778 15.4515
# 5 -14.1577 3.9599 -17.9918 -7.1778 39.3541 -0.1168
# 6 -33.7656 -30.4301 -30.0775 15.4515 -0.1168 39.8539
#
#
#
# Elastic Compliance Matrix: (Units=1/GPa)
#
#
# Indices 1 2 3 4 5 6 
#
# 1 0.021412 -0.011316 -0.001505 -0.009947 0.006376 0.012240
# 2 -0.011316 0.055760 -0.003324 0.038589 -0.004117 0.015506
# 3 -0.001505 -0.003324 0.016227 -0.009670 0.005484 0.012198
# 4 -0.009947 0.038589 -0.009670 0.091437 0.004731 -0.021697
# 5 0.006376 -0.004117 0.005484 0.004731 0.031502 0.004655
# 6 0.012240 0.015506 0.012198 -0.021697 0.004655 0.064932
#
#
# Mechanical properties :
#
#
# Convention : Reuss Voigt Hill
#
# Bulk Modulus (GPa) = 16.36442 47.55550 31.95996
# Shear Modulus (GPa) = 14.97321 29.94163 22.45742
#
# Velocity S-wave (km/s) = 2.63310 3.72347 3.22471
# Velocity P-wave (km/s) = 4.10143 6.36443 5.35386
#
# Compressibility (1/GPa) = 0.06110818
#
# Stress axis : x y z
#
# Youngs Moduli (GPa) = 46.70256 17.93399 61.62730
#
# Poissons Ratio (x) = 0.20294 0.09277
# Poissons Ratio (y) = 0.52849 0.20483
# Poissons Ratio (z) = 0.07030 0.05961
#
# Static dielectric constant tensor:
#      x y z
#    x 1.817210 -0.000400 -0.003240 
#    y -0.000400 1.811010 -0.033320 
#    z -0.003240 -0.033320 1.795270 
# 
# From -- ./inp_files/9925.got.cif
#   From: 2010.05.17/outbox.cif.g08.bks.cpg/sg2_5_cif.got.tgz:9925.got - 2010.06.03 11:33:40.
