data_PCOD9095626
_publ_section_title
;
Structure prediction by ZEFSAII (Michael W. Deem and Ramdas Pophale) SiO2 
 PCOD9095626
Probable space group: P -1
;
_chemical_formula_sum "Si O2"
_cell_formula_units_Z 16
_cell_length_a 18.957062
_cell_length_b 6.027833
_cell_length_c 7.345416
_cell_angle_alpha 67.761303
_cell_angle_beta 49.542074
_cell_angle_gamma 77.783209
_cell_volume 590.460687
_symmetry_space_group_name_H-M "P -1"
_symmetry_group_IT_number 2
_symmetry_cell_setting 'triclinic'
loop_
_space_group_symop_operation_xyz
x,y,z
-x,-y,-z
loop_
_atom_site_type_symbol
_atom_site_label
_atom_site_fract_x
_atom_site_fract_y
_atom_site_fract_z
Si Si1 0.414326 0.487646 0.284562
Si Si2 0.540615 0.831887 0.132997
Si Si3 0.994181 0.891716 0.245532
Si Si4 0.011913 0.620307 0.743320
Si Si5 0.727891 0.661758 0.683571
Si Si6 0.202179 0.884682 0.821419
Si Si7 0.650426 0.941157 0.251129
Si Si8 0.812264 0.613517 0.941092
O O1 0.455722 0.631795 0.346382
O O2 0.318955 0.534367 0.319826
O O3 0.396762 0.219751 0.464283
O O4 0.500000 0.500000 0.000000
O O5 0.575997 0.966073 0.212364
O O6 0.635247 0.744016 0.914296
O O7 0.500000 0.000000 0.000000
O O8 0.961178 0.612967 0.348421
O O9 0.944846 0.108101 0.370040
O O10 0.106318 0.891928 0.095047
O O11 0.000000 0.000000 0.000000
O O12 0.918741 0.690952 0.772854
O O13 0.000000 0.500000 0.000000
O O14 0.778091 0.885663 0.415522
O O15 0.788172 0.579331 0.778227
O O16 0.193712 0.617391 0.840643
O O17 0.293151 0.851359 0.804790
O O18 0.736376 0.791556 0.081214
#
# Coordination Sequence:
#
# PCOD9095626 Si02
#       8
#     2   2   2   2   2   2   2   2
#     4   9  19  37  51  73 109 140 185 243 299 350
#     4  10  21  34  53  80 107 145 189 247 307 358
#     4   9  17  32  59  88 121 159 201 244 302 365
#     4   9  17  32  58  89 119 160 201 244 303 364
#     4   9  21  38  53  82 113 147 197 251 293 369
#     4  10  20  36  58  84 113 150 201 237 304 358
#     4  10  20  36  57  80 107 150 195 241 300 368
#     4  10  20  35  59  82 114 153 194 245 300 357
#
# _framework density 27.097484999999999
#
# number of rings (size 3 to 8) (size 9 to 14) (size 15 to 20)
#    0.000    2.500    1.250    0.375    3.500    0.000 
#    0.000    1.875    0.000   13.500    0.000    0.000 
#    0.000    0.000    0.000    0.000    0.000    0.000 
#
# Total GULP energy -89109.575582 kJ/mol
# GULP energy per Si atom -5569.348474 kJ/mol
# Density = 2.703581 g / cm^3
# Si number density = 27.097485 Si / 1000 Ang^3
#
#
#
# Elastic Constant Matrix: (Units=GPa)
#
#
# Indices 1 2 3 4 5 6 
#
# 1 146.5097 17.8079 17.7941 11.7326 22.9308 -4.9838
# 2 17.8079 121.1076 41.4987 -15.2081 -15.5899 3.2945
# 3 17.7941 41.4987 81.8908 2.4709 5.8817 5.0368
# 4 11.7326 -15.2081 2.4709 33.4848 -5.4280 -1.6334
# 5 22.9308 -15.5899 5.8817 -5.4280 40.7927 1.2194
# 6 -4.9838 3.2945 5.0368 -1.6334 1.2194 35.0768
#
#
#
# Elastic Compliance Matrix: (Units=1/GPa)
#
#
# Indices 1 2 3 4 5 6 
#
# 1 0.008713 -0.002932 0.000155 -0.005428 -0.006807 0.001475
# 2 -0.002932 0.013420 -0.007051 0.009078 0.009018 -0.000555
# 3 0.000155 -0.007051 0.016442 -0.005500 -0.005833 -0.001730
# 4 -0.005428 0.009078 -0.005500 0.038330 0.012398 0.000520
# 5 -0.006807 0.009018 -0.005833 0.012398 0.034326 -0.001593
# 6 0.001475 -0.000555 -0.001730 0.000520 -0.001593 0.029099
#
#
# Mechanical properties :
#
#
# Convention : Reuss Voigt Hill
#
# Bulk Modulus (GPa) = 52.85866 55.96772 54.41319
# Shear Modulus (GPa) = 30.06714 40.03135 35.04924
#
# Velocity S-wave (km/s) = 3.33467 3.84775 3.60036
# Velocity P-wave (km/s) = 5.86309 6.35919 6.11617
#
# Compressibility (1/GPa) = 0.01891837
#
# Stress axis : x y z
#
# Youngs Moduli (GPa) = 114.76599 74.51325 60.81857
#
# Poissons Ratio (x) = 0.21849 -0.00940
# Poissons Ratio (y) = 0.33651 0.42885
# Poissons Ratio (z) = -0.01773 0.52541
#
# Static dielectric constant tensor:
#      x y z
#    x 1.927060 -0.133730 0.521730 
#    y -0.133730 2.371520 0.620790 
#    z 0.521730 0.620790 1.209810 
# 
# From -- ./inp_files/339614.got.cif
#   From: 2010.05.17/outbox.cif.g08.bks.cpg/sg2_170_cif.got.tgz:339614.got - 2010.06.03 11:33:40.
