data_PCOD9095345
_publ_section_title
;
Structure prediction by ZEFSAII (Michael W. Deem and Ramdas Pophale) SiO2 
 PCOD9095345
Probable space group: P -1
;
_chemical_formula_sum "Si O2"
_cell_formula_units_Z 12
_cell_length_a 12.443216
_cell_length_b 13.657496
_cell_length_c 9.452027
_cell_angle_alpha 40.223140
_cell_angle_beta 123.512438
_cell_angle_gamma 150.634678
_cell_volume 474.987763
_symmetry_space_group_name_H-M "P -1"
_symmetry_group_IT_number 2
_symmetry_cell_setting 'triclinic'
loop_
_space_group_symop_operation_xyz
x,y,z
-x,-y,-z
loop_
_atom_site_type_symbol
_atom_site_label
_atom_site_fract_x
_atom_site_fract_y
_atom_site_fract_z
Si Si1 0.159114 0.289978 0.995405
Si Si2 0.835956 0.460113 0.755504
Si Si3 0.191523 0.219966 0.523101
Si Si4 0.439492 0.019983 0.710557
Si Si5 0.489099 0.411530 0.295605
Si Si6 0.811130 0.328040 0.425972
O O1 0.246698 0.342124 0.842358
O O2 0.176113 0.484733 0.817059
O O3 0.351328 0.396111 0.116019
O O4 0.909184 0.981386 0.201196
O O5 0.819057 0.614358 0.628617
O O6 0.642343 0.243455 0.731013
O O7 0.083248 0.667076 0.629988
O O8 0.758467 0.269732 0.033968
O O9 0.431990 0.402706 0.422800
O O10 0.000000 0.000000 0.500000
O O11 0.384919 0.140427 0.499427
O O12 0.564639 0.059371 0.625203
O O13 0.000000 0.500000 0.500000
#
# Coordination Sequence:
#
# PCOD9095345 Si02
#       6
#     2   2   2   2   2   2
#     4   9  18  35  56  76 109 145 179 225 267 319
#     4  10  20  35  57  82 110 143 180 225 270 319
#     4  10  21  36  54  80 112 146 180 220 270 322
#     4   9  19  36  57  82 109 141 182 224 270 320
#     4   9  18  35  55  78 109 144 181 220 268 322
#     4   9  18  35  57  81 109 141 180 225 272 322
#
# _framework density 25.263809999999999
#
# number of rings (size 3 to 8) (size 9 to 14) (size 15 to 20)
#    0.000    2.667    0.000    1.000    0.000    2.000 
#    0.000   20.833    0.000   18.000    0.000    0.000 
#    0.000    0.000    0.000    0.000    0.000    0.000 
#
# Total GULP energy -67159.559682 kJ/mol
# GULP energy per Si atom -5596.629973 kJ/mol
# Density = 2.520631 g / cm^3
# Si number density = 25.263810 Si / 1000 Ang^3
#
#
#
# Elastic Constant Matrix: (Units=GPa)
#
#
# Indices 1 2 3 4 5 6 
#
# 1 258.0182 39.0251 104.2009 -21.6691 -32.1074 -13.6842
# 2 39.0251 69.2984 35.6359 -9.9275 0.1200 -6.9182
# 3 104.2009 35.6359 180.8300 -6.7949 -10.4254 -2.5675
# 4 -21.6691 -9.9275 -6.7949 40.2741 14.5867 -3.9746
# 5 -32.1074 0.1200 -10.4254 14.5867 53.2637 7.0354
# 6 -13.6842 -6.9182 -2.5675 -3.9746 7.0354 46.5670
#
#
#
# Elastic Compliance Matrix: (Units=1/GPa)
#
#
# Indices 1 2 3 4 5 6 
#
# 1 0.005696 -0.001456 -0.002789 0.001494 0.002339 0.001078
# 2 -0.001456 0.017509 -0.002577 0.004477 -0.003027 0.002871
# 3 -0.002789 -0.002577 0.007606 -0.001018 0.000211 -0.000902
# 4 0.001494 0.004477 -0.001018 0.030001 -0.008164 0.004842
# 5 0.002339 -0.003027 0.000211 -0.008164 0.022986 -0.003920
# 6 0.001078 0.002871 -0.000902 0.004842 -0.003920 0.023174
#
#
# Mechanical properties :
#
#
# Convention : Reuss Voigt Hill
#
# Bulk Modulus (GPa) = 58.25099 96.20784 77.22941
# Shear Modulus (GPa) = 39.57655 49.97326 44.77491
#
# Velocity S-wave (km/s) = 3.96224 4.45236 4.21443
# Velocity P-wave (km/s) = 6.63623 8.03712 7.37004
#
# Compressibility (1/GPa) = 0.01716709
#
# Stress axis : x y z
#
# Youngs Moduli (GPa) = 175.56158 57.11469 131.47226
#
# Poissons Ratio (x) = 0.08315 0.36668
# Poissons Ratio (y) = 0.25559 0.33881
# Poissons Ratio (z) = 0.48965 0.14719
#
# Static dielectric constant tensor:
#      x y z
#    x 2.002040 -0.001800 -0.091540 
#    y -0.001800 2.133520 0.019160 
#    z -0.091540 0.019160 1.923780 
# 
# From -- ./inp_files/151202.got.cif
#   From: 2010.05.17/outbox.cif.g08.bks.cpg/sg2_76_cif.got.tgz:151202.got - 2010.06.03 11:33:40.
