data_PCOD9095004
_publ_section_title
;
Structure prediction by ZEFSAII (Michael W. Deem and Ramdas Pophale) SiO2 
 PCOD9095004
Probable space group: P -1
;
_chemical_formula_sum "Si O2"
_cell_formula_units_Z 14
_cell_length_a 9.431327
_cell_length_b 12.818838
_cell_length_c 13.736184
_cell_angle_alpha 136.343411
_cell_angle_beta 138.026777
_cell_angle_gamma 29.633283
_cell_volume 533.948511
_symmetry_space_group_name_H-M "P -1"
_symmetry_group_IT_number 2
_symmetry_cell_setting 'triclinic'
loop_
_space_group_symop_operation_xyz
x,y,z
-x,-y,-z
loop_
_atom_site_type_symbol
_atom_site_label
_atom_site_fract_x
_atom_site_fract_y
_atom_site_fract_z
Si Si1 0.667081 0.149995 0.042663
Si Si2 0.852528 0.346414 0.499823
Si Si3 0.195711 0.089962 0.325511
Si Si4 0.222226 0.209870 0.227505
Si Si5 0.404909 0.373735 0.864544
Si Si6 0.707735 0.064145 0.219985
Si Si7 0.180252 0.758916 0.391621
O O1 0.586251 0.118244 0.084207
O O2 0.858106 0.203659 0.197469
O O3 0.422933 0.308871 0.942034
O O4 0.864091 0.917357 0.934802
O O5 0.752529 0.220636 0.358007
O O6 0.547404 0.585663 0.466229
O O7 0.899365 0.330719 0.630041
O O8 0.139894 0.195636 0.472147
O O9 0.313497 0.146094 0.342822
O O10 0.383735 0.839494 0.239130
O O11 0.477618 0.125974 0.225856
O O12 0.935046 0.463057 0.239638
O O13 0.500000 0.500000 0.000000
O O14 0.028831 0.819142 0.247958
O O15 0.000000 0.000000 0.500000
#
# Coordination Sequence:
#
# PCOD9095004 Si02
#       7
#     2   2   2   2   2   2   2
#     4  10  20  35  52  81 112 155 202 224 268 341
#     4   9  20  38  63  87 106 142 194 235 281 351
#     4  10  20  35  56  86 110 148 201 227 271 341
#     4  11  21  34  53  82 123 153 185 234 278 325
#     4  11  19  34  56  77 116 158 190 233 266 317
#     4  10  22  35  55  86 117 148 184 237 290 330
#     4   9  19  40  64  83 109 141 186 243 292 333
#
# _framework density 26.219754999999999
#
# number of rings (size 3 to 8) (size 9 to 14) (size 15 to 20)
#    0.000    2.000    2.857    1.286    0.000    8.571 
#    0.000    0.714    0.000    8.571    0.000    0.000 
#    0.000    0.000    0.000    0.000    0.000    0.000 
#
# Total GULP energy -78219.687681 kJ/mol
# GULP energy per Si atom -5587.120549 kJ/mol
# Density = 2.616008 g / cm^3
# Si number density = 26.219755 Si / 1000 Ang^3
#
#
#
# Elastic Constant Matrix: (Units=GPa)
#
#
# Indices 1 2 3 4 5 6 
#
# 1 156.0203 41.6961 33.8145 -4.1321 -38.2992 15.3815
# 2 41.6961 172.8068 33.7304 -18.5881 -27.3306 11.9074
# 3 33.8145 33.7304 87.0229 -6.0327 -13.7611 5.2403
# 4 -4.1321 -18.5881 -6.0327 33.6806 5.6144 3.0245
# 5 -38.2992 -27.3306 -13.7611 5.6144 46.1976 -1.6977
# 6 15.3815 11.9074 5.2403 3.0245 -1.6977 30.1948
#
#
#
# Elastic Compliance Matrix: (Units=1/GPa)
#
#
# Indices 1 2 3 4 5 6 
#
# 1 0.008902 -0.000527 -0.002054 -0.000305 0.006362 -0.003582
# 2 -0.000527 0.007237 -0.001774 0.003362 0.002817 -0.002456
# 3 -0.002054 -0.001774 0.013249 0.001021 0.001048 -0.000597
# 4 -0.000305 0.003362 0.001021 0.032462 -0.002078 -0.004716
# 5 0.006362 0.002817 0.001048 -0.002078 0.029053 -0.002692
# 6 -0.003582 -0.002456 -0.000597 -0.004716 -0.002692 0.036336
#
#
# Mechanical properties :
#
#
# Convention : Reuss Voigt Hill
#
# Bulk Modulus (GPa) = 48.35942 70.48133 59.42037
# Shear Modulus (GPa) = 35.00367 42.45519 38.72943
#
# Velocity S-wave (km/s) = 3.65774 4.02830 3.84749
# Velocity P-wave (km/s) = 6.02683 6.96962 6.51530
#
# Compressibility (1/GPa) = 0.02067850
#
# Stress axis : x y z
#
# Youngs Moduli (GPa) = 112.33082 138.18606 75.47464
#
# Poissons Ratio (x) = 0.07280 0.15505
# Poissons Ratio (y) = 0.05918 0.13387
# Poissons Ratio (z) = 0.23077 0.24511
#
# Static dielectric constant tensor:
#      x y z
#    x 2.107010 0.008670 -0.000470 
#    y 0.008670 2.078700 -0.068660 
#    z -0.000470 -0.068660 2.327770 
# 
# From -- ./inp_files/31327.got.cif
#   From: 2010.05.17/outbox.cif.g08.bks.cpg/sg2_16_cif.got.tgz:31327.got - 2010.06.03 11:33:40.
