data_PCOD9095084
_publ_section_title
;
Structure prediction by ZEFSAII (Michael W. Deem and Ramdas Pophale) SiO2 
 PCOD9095084
Probable space group: P -1
;
_chemical_formula_sum "Si O2"
_cell_formula_units_Z 16
_cell_length_a 11.726511
_cell_length_b 11.276175
_cell_length_c 13.312704
_cell_angle_alpha 113.535610
_cell_angle_beta 47.296671
_cell_angle_gamma 143.776205
_cell_volume 718.824071
_symmetry_space_group_name_H-M "P -1"
_symmetry_group_IT_number 2
_symmetry_cell_setting 'triclinic'
loop_
_space_group_symop_operation_xyz
x,y,z
-x,-y,-z
loop_
_atom_site_type_symbol
_atom_site_label
_atom_site_fract_x
_atom_site_fract_y
_atom_site_fract_z
Si Si1 0.780407 0.387174 0.013792
Si Si2 0.160165 0.280737 0.980218
Si Si3 0.930212 0.996352 0.211458
Si Si4 0.703814 0.640735 0.737427
Si Si5 0.479423 0.861551 0.533811
Si Si6 0.540900 0.695489 0.669939
Si Si7 0.845631 0.108975 0.558998
Si Si8 0.934953 0.593137 0.291027
O O1 0.824791 0.307421 0.878330
O O2 0.826325 0.558212 0.994432
O O3 0.535250 0.244347 0.182369
O O4 0.000000 0.500000 0.000000
O O5 0.453312 0.425917 0.870259
O O6 0.077511 0.148671 0.884953
O O7 0.994405 0.133114 0.125162
O O8 0.671496 0.879069 0.378312
O O9 0.162139 0.161334 0.207748
O O10 0.610924 0.625124 0.677345
O O11 0.944635 0.712546 0.590112
O O12 0.578958 0.973679 0.622483
O O13 0.500000 0.000000 0.500000
O O14 0.207408 0.614614 0.631174
O O15 0.295477 0.511309 0.681481
O O16 0.781711 0.912981 0.540296
O O17 0.953758 0.231327 0.638950
#
# Coordination Sequence:
#
# PCOD9095084 Si02
#       8
#     2   2   2   2   2   2   2   2
#     4   9  19  36  56  79 110 144 182 227 272 319
#     4  10  20  37  57  80 109 145 184 227 274 322
#     4  10  21  36  58  82 109 146 183 224 276 325
#     4  10  20  35  54  81 111 140 181 224 269 327
#     4  10  21  38  56  80 112 142 181 229 272 325
#     4   9  20  35  53  78 109 143 179 225 272 320
#     4  10  21  35  55  80 108 142 181 222 272 328
#     4  10  20  36  54  78 109 142 181 223 272 323
#
# _framework density 22.258575
#
# number of rings (size 3 to 8) (size 9 to 14) (size 15 to 20)
#    0.000    2.250    0.000    2.250    0.000    4.500 
#    0.000   12.500    0.000    0.000    0.000    0.000 
#    0.000    0.000    0.000    0.000    0.000    0.000 
#
# Total GULP energy -89127.866462 kJ/mol
# GULP energy per Si atom -5570.491654 kJ/mol
# Density = 2.220791 g / cm^3
# Si number density = 22.258575 Si / 1000 Ang^3
#
#
#
# Elastic Constant Matrix: (Units=GPa)
#
#
# Indices 1 2 3 4 5 6 
#
# 1 50.5751 7.6254 -13.9770 8.5756 19.5625 -2.5266
# 2 7.6254 85.2210 16.8694 14.4129 8.5771 26.2383
# 3 -13.9770 16.8694 96.9755 4.6285 3.9450 5.9615
# 4 8.5756 14.4129 4.6285 36.7475 1.3119 10.3747
# 5 19.5625 8.5771 3.9450 1.3119 27.6401 0.4879
# 6 -2.5266 26.2383 5.9615 10.3747 0.4879 14.6228
#
#
#
# Elastic Compliance Matrix: (Units=1/GPa)
#
#
# Indices 1 2 3 4 5 6 
#
# 1 0.035678 -0.009187 0.006462 -0.013226 -0.023228 0.030173
# 2 -0.009187 0.030914 -0.003233 0.007770 -0.001918 -0.061188
# 3 0.006462 -0.003233 0.011891 -0.002732 -0.005211 0.004182
# 4 -0.013226 0.007770 -0.002732 0.039639 0.006225 -0.043444
# 5 -0.023228 -0.001918 -0.005211 0.006225 0.053745 -0.004656
# 6 0.030173 -0.061188 0.004182 -0.043444 -0.004656 0.212665
#
#
# Mechanical properties :
#
#
# Convention : Reuss Voigt Hill
#
# Bulk Modulus (GPa) = 15.02250 28.20079 21.61164
# Shear Modulus (GPa) = 11.94352 30.61900 21.28126
#
# Velocity S-wave (km/s) = 2.31893 3.71294 3.09543
# Velocity P-wave (km/s) = 3.73278 5.57480 4.74405
#
# Compressibility (1/GPa) = 0.06656682
#
# Stress axis : x y z
#
# Youngs Moduli (GPa) = 28.02851 32.34763 84.09792
#
# Poissons Ratio (x) = 0.29717 -0.54341
# Poissons Ratio (y) = 0.25749 0.27189
# Poissons Ratio (z) = -0.18111 0.10458
#
# Static dielectric constant tensor:
#      x y z
#    x 1.859360 -0.006160 -0.017430 
#    y -0.006160 1.811460 0.005080 
#    z -0.017430 0.005080 1.930630 
# 
# From -- ./inp_files/69875.got.cif
#   From: 2010.05.17/outbox.cif.g08.bks.cpg/sg2_35_cif.got.tgz:69875.got - 2010.06.03 11:33:40.
