data_PCOD9095983
_publ_section_title
;
Structure prediction by ZEFSAII (Michael W. Deem and Ramdas Pophale) SiO2 
 PCOD9095983
Probable space group: P -1
;
_chemical_formula_sum "Si O2"
_cell_formula_units_Z 16
_cell_length_a 20.839346
_cell_length_b 11.613713
_cell_length_c 9.389195
_cell_angle_alpha 125.046749
_cell_angle_beta 105.234959
_cell_angle_gamma 32.634174
_cell_volume 868.754600
_symmetry_space_group_name_H-M "P -1"
_symmetry_group_IT_number 2
_symmetry_cell_setting 'triclinic'
loop_
_space_group_symop_operation_xyz
x,y,z
-x,-y,-z
loop_
_atom_site_type_symbol
_atom_site_label
_atom_site_fract_x
_atom_site_fract_y
_atom_site_fract_z
Si Si1 0.714157 0.289825 0.703074
Si Si2 0.970572 0.826067 0.711967
Si Si3 0.187761 0.043985 0.734478
Si Si4 0.475661 0.378778 0.914858
Si Si5 0.786746 0.092878 0.029085
Si Si6 0.223890 0.215775 0.292725
Si Si7 0.126688 0.454273 0.102896
Si Si8 0.090484 0.826940 0.286051
O O1 0.710318 0.198093 0.499191
O O2 0.771901 0.335528 0.724974
O O3 0.581517 0.542243 0.903529
O O4 0.839241 0.004111 0.675072
O O5 0.104605 0.486903 0.520716
O O6 0.917335 0.924777 0.912030
O O7 0.982455 0.955125 0.731769
O O8 0.209948 0.923936 0.811667
O O9 0.031331 0.296116 0.777041
O O10 0.191550 0.202796 0.879716
O O11 0.624374 0.036367 0.738501
O O12 0.500000 0.500000 0.000000
O O13 0.351221 0.577518 0.875701
O O14 0.788903 0.925905 0.856736
O O15 0.199906 0.337933 0.214725
O O16 0.123879 0.603474 0.121131
O O17 0.000000 0.000000 0.500000
#
# Coordination Sequence:
#
# PCOD9095983 Si02
#       8
#     2   2   2   2   2   2   2   2
#     4   9  18  33  57  78 102 143 176 212 265 310
#     4   9  17  30  54  77 101 136 180 211 259 309
#     4  10  18  31  55  81 112 129 172 225 272 304
#     4   9  19  35  51  77 108 141 181 217 255 312
#     4   9  19  31  48  78 108 138 169 221 266 313
#     4  10  16  30  53  76 107 132 182 222 251 301
#     4  10  18  31  50  85 108 131 166 227 265 302
#     4  10  16  31  56  77 109 134 178 218 254 320
#
# _framework density 18.417169000000001
#
# number of rings (size 3 to 8) (size 9 to 14) (size 15 to 20)
#    0.750    1.750    3.750    0.375    0.000    0.000 
#    0.000    6.875    0.000    0.000    0.000    4.375 
#    0.000    0.000    0.000    0.000    0.000    0.000 
#
# Total GULP energy -89088.794573 kJ/mol
# GULP energy per Si atom -5568.049661 kJ/mol
# Density = 1.837525 g / cm^3
# Si number density = 18.417169 Si / 1000 Ang^3
#
#
#
# Elastic Constant Matrix: (Units=GPa)
#
#
# Indices 1 2 3 4 5 6 
#
# 1 52.6991 1.0541 15.3247 -2.8403 -9.6612 14.1382
# 2 1.0541 78.1353 30.7973 10.0801 -2.4116 6.1982
# 3 15.3247 30.7973 50.4579 0.2773 -12.1996 1.1799
# 4 -2.8403 10.0801 0.2773 26.4063 -1.2892 -9.2425
# 5 -9.6612 -2.4116 -12.1996 -1.2892 23.2811 -0.6768
# 6 14.1382 6.1982 1.1799 -9.2425 -0.6768 19.9018
#
#
#
# Elastic Compliance Matrix: (Units=1/GPa)
#
#
# Indices 1 2 3 4 5 6 
#
# 1 0.030030 0.007628 -0.011682 -0.008667 0.005871 -0.026842
# 2 0.007628 0.022320 -0.016524 -0.014073 -0.004486 -0.018078
# 3 -0.011682 -0.016524 0.036273 0.011281 0.013567 0.016995
# 4 -0.008667 -0.014073 0.011281 0.054863 0.004928 0.035518
# 5 0.005871 -0.004486 0.013567 0.004928 0.052321 0.000490
# 6 -0.026842 -0.018078 0.016995 0.035518 0.000490 0.090450
#
#
# Mechanical properties :
#
#
# Convention : Reuss Voigt Hill
#
# Bulk Modulus (GPa) = 21.06735 30.62716 25.84726
# Shear Modulus (GPa) = 14.56730 22.85892 18.71311
#
# Velocity S-wave (km/s) = 2.81546 3.52685 3.19104
# Velocity P-wave (km/s) = 4.69392 5.76634 5.25755
#
# Compressibility (1/GPa) = 0.04746682
#
# Stress axis : x y z
#
# Youngs Moduli (GPa) = 33.29964 44.80369 27.56898
#
# Poissons Ratio (x) = -0.34176 0.32205
# Poissons Ratio (y) = -0.25401 0.45555
# Poissons Ratio (z) = 0.38899 0.74034
#
# Static dielectric constant tensor:
#      x y z
#    x 1.653080 0.008840 -0.000560 
#    y 0.008840 1.673000 -0.004220 
#    z -0.000560 -0.004220 1.629020 
# 
# From -- ./inp_files/353129.got.cif
#   From: 2010.05.17/outbox.cif.g08.bks.cpg/sg2_177_cif.got.tgz:353129.got - 2010.06.03 11:33:40.
