data_PCOD9095500
_publ_section_title
;
Structure prediction by ZEFSAII (Michael W. Deem and Ramdas Pophale) SiO2 
 PCOD9095500
Probable space group: P -1
;
_chemical_formula_sum "Si O2"
_cell_formula_units_Z 16
_cell_length_a 19.002853
_cell_length_b 18.669005
_cell_length_c 12.214142
_cell_angle_alpha 27.155045
_cell_angle_beta 152.624971
_cell_angle_gamma 146.830586
_cell_volume 886.325085
_symmetry_space_group_name_H-M "P -1"
_symmetry_group_IT_number 2
_symmetry_cell_setting 'triclinic'
loop_
_space_group_symop_operation_xyz
x,y,z
-x,-y,-z
loop_
_atom_site_type_symbol
_atom_site_label
_atom_site_fract_x
_atom_site_fract_y
_atom_site_fract_z
Si Si1 0.682196 0.030720 0.683220
Si Si2 0.296294 0.421652 0.213846
Si Si3 0.832535 0.905116 0.441961
Si Si4 0.785752 0.775545 0.325886
Si Si5 0.354092 0.569745 0.333718
Si Si6 0.154976 0.832656 0.729714
Si Si7 0.126173 0.898852 0.346793
Si Si8 0.866224 0.367690 0.437717
O O1 0.716375 0.028321 0.603834
O O2 0.779973 0.212158 0.601130
O O3 0.500000 0.000000 0.500000
O O4 0.753956 0.896521 0.025108
O O5 0.163071 0.258798 0.264747
O O6 0.311599 0.515469 0.223048
O O7 0.458926 0.368849 0.488740
O O8 0.258812 0.538570 0.910553
O O9 0.739184 0.844778 0.283795
O O10 0.776071 0.025055 0.283627
O O11 0.000000 0.000000 0.500000
O O12 0.689932 0.593091 0.434421
O O13 0.970015 0.772101 0.585784
O O14 0.252717 0.695535 0.056329
O O15 0.154637 0.893917 0.521036
O O16 0.072115 0.719924 0.462385
O O17 0.000000 0.000000 0.000000
O O18 0.000000 0.500000 0.500000
#
# Coordination Sequence:
#
# PCOD9095500 Si02
#       8
#     2   2   2   2   2   2   2   2
#     4  10  21  38  63  89 117 159 202 244 299 364
#     4  10  20  37  55  83 117 152 199 243 301 359
#     4   9  22  34  58  82 117 152 189 247 302 350
#     4  10  20  36  58  84 121 150 198 244 300 361
#     4  10  20  35  58  83 114 154 196 251 296 353
#     4  11  19  38  58  86 115 152 207 241 299 356
#     4  10  21  37  61  91 111 160 201 251 290 353
#     4  10  22  36  63  89 117 160 203 243 299 359
#
# _framework density 18.052067999999998
#
# number of rings (size 3 to 8) (size 9 to 14) (size 15 to 20)
#    0.750    1.250    2.500    1.125    5.250    1.500 
#    0.000    0.000    0.000    0.750    0.000    0.000 
#    0.000    0.000    0.000    0.000    0.000    0.000 
#
# Total GULP energy -89095.758065 kJ/mol
# GULP energy per Si atom -5568.484879 kJ/mol
# Density = 1.801098 g / cm^3
# Si number density = 18.052068 Si / 1000 Ang^3
#
#
#
# Elastic Constant Matrix: (Units=GPa)
#
#
# Indices 1 2 3 4 5 6 
#
# 1 93.9570 40.4643 31.7862 -11.8086 5.1479 -3.6568
# 2 40.4643 66.0875 48.7808 -15.2092 5.3663 -1.4169
# 3 31.7862 48.7808 110.5962 -17.9922 6.5494 1.3184
# 4 -11.8086 -15.2092 -17.9922 20.0881 6.4014 2.3593
# 5 5.1479 5.3663 6.5494 6.4014 34.2725 -5.0198
# 6 -3.6568 -1.4169 1.3184 2.3593 -5.0198 28.4320
#
#
#
# Elastic Compliance Matrix: (Units=1/GPa)
#
#
# Indices 1 2 3 4 5 6 
#
# 1 0.014627 -0.008142 -0.000133 0.002582 -0.001225 0.001051
# 2 -0.008142 0.029255 -0.008520 0.011074 -0.003916 -0.000804
# 3 -0.000133 -0.008520 0.014271 0.007511 -0.003110 -0.002276
# 4 0.002582 0.011074 0.007511 0.073360 -0.018552 -0.008827
# 5 -0.001225 -0.003916 -0.003110 -0.018552 0.035138 0.007535
# 6 0.001051 -0.000804 -0.002276 -0.008827 0.007535 0.037435
#
#
# Mechanical properties :
#
#
# Convention : Reuss Voigt Hill
#
# Bulk Modulus (GPa) = 40.71035 56.96704 48.83870
# Shear Modulus (GPa) = 20.33648 26.53250 23.43449
#
# Velocity S-wave (km/s) = 3.36005 3.83792 3.60691
# Velocity P-wave (km/s) = 6.13627 7.15997 6.66779
#
# Compressibility (1/GPa) = 0.02456378
#
# Stress axis : x y z
#
# Youngs Moduli (GPa) = 68.36679 34.18230 70.06998
#
# Poissons Ratio (x) = 0.27830 0.00930
# Poissons Ratio (y) = 0.55661 0.59703
# Poissons Ratio (z) = 0.00908 0.29125
#
# Static dielectric constant tensor:
#      x y z
#    x 1.639810 0.008130 -0.002400 
#    y 0.008130 1.662240 -0.002310 
#    z -0.002400 -0.002310 1.611730 
# 
# From -- ./inp_files/466416.got.cif
#   From: 2010.05.17/outbox.cif.g08.bks.cpg/sg2_234_cif.got.tgz:466416.got - 2010.06.03 11:33:40.
