data_PCOD9095386
_publ_section_title
;
Structure prediction by ZEFSAII (Michael W. Deem and Ramdas Pophale) SiO2 
 PCOD9095386
Probable space group: P -1
;
_chemical_formula_sum "Si O2"
_cell_formula_units_Z 16
_cell_length_a 11.857386
_cell_length_b 19.827469
_cell_length_c 5.485605
_cell_angle_alpha 63.398093
_cell_angle_beta 134.230585
_cell_angle_gamma 138.414500
_cell_volume 605.900383
_symmetry_space_group_name_H-M "P -1"
_symmetry_group_IT_number 2
_symmetry_cell_setting 'triclinic'
loop_
_space_group_symop_operation_xyz
x,y,z
-x,-y,-z
loop_
_atom_site_type_symbol
_atom_site_label
_atom_site_fract_x
_atom_site_fract_y
_atom_site_fract_z
Si Si1 0.007199 0.936345 0.423663
Si Si2 0.591595 0.675225 0.727266
Si Si3 0.251864 0.566341 0.773848
Si Si4 0.647402 0.856826 0.614455
Si Si5 0.847250 0.626318 0.946994
Si Si6 0.593384 0.066589 0.282695
Si Si7 0.694496 0.250871 0.344824
Si Si8 0.043198 0.231436 0.496626
O O1 0.996875 0.847100 0.639144
O O2 0.807789 0.883063 0.031169
O O3 0.000000 0.000000 0.500000
O O4 0.227621 0.029781 0.471819
O O5 0.352151 0.592935 0.610470
O O6 0.633579 0.776536 0.562217
O O7 0.683701 0.640051 0.750523
O O8 0.732949 0.704732 0.135580
O O9 0.274112 0.492525 0.051666
O O10 0.340398 0.670706 0.868621
O O11 0.000000 0.500000 0.500000
O O12 0.420482 0.800842 0.484225
O O13 0.050705 0.682635 0.346865
O O14 0.956021 0.688061 0.760038
O O15 0.577381 0.153410 0.147556
O O16 0.852507 0.147072 0.528469
O O17 0.500000 0.000000 0.500000
O O18 0.500000 0.000000 0.000000
#
# Coordination Sequence:
#
# PCOD9095386 Si02
#       8
#     2   2   2   2   2   2   2   2
#     4  10  20  35  57  84 121 171 225 271 341 413
#     4  10  20  40  67  94 137 174 233 291 358 426
#     4   9  21  41  74  99 132 185 234 296 363 428
#     4   9  20  37  58  84 125 173 217 281 337 414
#     4  11  21  41  68  97 137 179 239 295 357 425
#     4  12  26  43  70 102 146 193 237 295 359 429
#     4  10  21  43  65  94 136 177 232 291 348 426
#     4  11  24  38  62  99 136 180 233 294 351 422
#
# _framework density 26.406983
#
# number of rings (size 3 to 8) (size 9 to 14) (size 15 to 20)
#    0.000    1.750    1.250    2.625    1.750    0.500 
#    0.000    0.625   11.000    0.000    0.000    0.000 
#    0.000    0.000    0.000    0.000    0.000    0.000 
#
# Total GULP energy -89410.193909 kJ/mol
# GULP energy per Si atom -5588.137119 kJ/mol
# Density = 2.634688 g / cm^3
# Si number density = 26.406983 Si / 1000 Ang^3
#
#
#
# Elastic Constant Matrix: (Units=GPa)
#
#
# Indices 1 2 3 4 5 6 
#
# 1 137.8213 65.7670 24.9438 2.5329 11.7116 1.2997
# 2 65.7670 176.0468 32.8121 -29.2037 -5.7448 -12.8906
# 3 24.9438 32.8121 54.0852 10.5889 -7.4866 -8.0875
# 4 2.5329 -29.2037 10.5889 48.1144 0.9753 13.4180
# 5 11.7116 -5.7448 -7.4866 0.9753 39.0769 4.9818
# 6 1.2997 -12.8906 -8.0875 13.4180 4.9818 61.7764
#
#
#
# Elastic Compliance Matrix: (Units=1/GPa)
#
#
# Indices 1 2 3 4 5 6 
#
# 1 0.009850 -0.003703 -0.002530 -0.001972 -0.003859 -0.000572
# 2 -0.003703 0.009185 -0.005079 0.006940 0.001350 -0.000287
# 3 -0.002530 -0.005079 0.025953 -0.009918 0.004700 0.004166
# 4 -0.001972 0.006940 -0.009918 0.028985 -0.000237 -0.006085
# 5 -0.003859 0.001350 0.004700 -0.000237 0.028009 -0.001229
# 6 -0.000572 -0.000287 0.004166 -0.006085 -0.001229 0.018106
#
#
# Mechanical properties :
#
#
# Convention : Reuss Voigt Hill
#
# Bulk Modulus (GPa) = 44.71518 68.33323 56.52421
# Shear Modulus (GPa) = 33.29651 46.08891 39.69271
#
# Velocity S-wave (km/s) = 3.55476 4.18225 3.88121
# Velocity P-wave (km/s) = 5.81535 7.01817 6.44488
#
# Compressibility (1/GPa) = 0.02236377
#
# Stress axis : x y z
#
# Youngs Moduli (GPa) = 101.51890 108.87664 38.53149
#
# Poissons Ratio (x) = 0.40320 0.09748
# Poissons Ratio (y) = 0.37595 0.19570
# Poissons Ratio (z) = 0.25683 0.55297
#
# Static dielectric constant tensor:
#      x y z
#    x 2.291690 -0.007910 0.007480 
#    y -0.007910 2.046900 -0.033640 
#    z 0.007480 -0.033640 2.095720 
# 
# From -- ./inp_files/83107.got.cif
#   From: 2010.05.17/outbox.cif.g08.bks.cpg/sg2_42_cif.got.tgz:83107.got - 2010.06.03 11:33:40.
