data_PCOD9095877
_publ_section_title
;
Structure prediction by ZEFSAII (Michael W. Deem and Ramdas Pophale) SiO2 
 PCOD9095877
Probable space group: P -1
;
_chemical_formula_sum "Si O2"
_cell_formula_units_Z 16
_cell_length_a 14.924041
_cell_length_b 14.705417
_cell_length_c 8.291898
_cell_angle_alpha 122.186502
_cell_angle_beta 79.793602
_cell_angle_gamma 49.611254
_cell_volume 687.362728
_symmetry_space_group_name_H-M "P -1"
_symmetry_group_IT_number 2
_symmetry_cell_setting 'triclinic'
loop_
_space_group_symop_operation_xyz
x,y,z
-x,-y,-z
loop_
_atom_site_type_symbol
_atom_site_label
_atom_site_fract_x
_atom_site_fract_y
_atom_site_fract_z
Si Si1 0.138655 0.500068 0.385907
Si Si2 0.671680 0.730830 0.563053
Si Si3 0.720802 0.984160 0.133099
Si Si4 0.972260 0.067268 0.830203
Si Si5 0.947132 0.801940 0.206536
Si Si6 0.756088 0.375739 0.517833
Si Si7 0.365499 0.739163 0.837057
Si Si8 0.076385 0.347557 0.687121
O O1 0.103369 0.465994 0.208834
O O2 0.301893 0.308232 0.289735
O O3 0.167972 0.591849 0.408210
O O4 0.922903 0.718683 0.748746
O O5 0.466829 0.897745 0.717649
O O6 0.728869 0.794129 0.569671
O O7 0.850738 0.470157 0.180864
O O8 0.683809 0.126743 0.164561
O O9 0.776157 0.960701 0.275128
O O10 0.002213 0.125476 0.741687
O O11 0.874065 0.232773 0.173761
O O12 0.824958 0.122121 0.899999
O O13 0.179508 0.794739 0.560669
O O14 0.888780 0.806878 0.397002
O O15 0.519456 0.632167 0.808652
O O16 0.500000 0.500000 0.500000
O O17 0.000000 0.500000 0.000000
#
# Coordination Sequence:
#
# PCOD9095877 Si02
#       8
#     2   2   2   2   2   2   2   2
#     4  11  20  38  60  86 116 142 192 244 281 329
#     4  10  20  38  61  86 108 147 192 240 288 324
#     4  11  19  33  61  88 116 140 189 243 281 329
#     4  10  16  30  52  84 119 144 181 225 278 337
#     4  10  20  37  56  84 119 155 187 224 279 345
#     4  10  17  29  54  87 112 144 183 233 282 320
#     4  10  17  26  52  89 116 142 181 232 276 329
#     4  10  24  42  60  79 113 158 192 230 290 343
#
# _framework density 23.277377000000001
#
# number of rings (size 3 to 8) (size 9 to 14) (size 15 to 20)
#    0.000    1.750    5.000    2.625    0.000    1.000 
#    0.000    3.125    0.000    0.750    0.000    0.000 
#    0.000    0.000    0.000    0.000    0.000    0.000 
#
# Total GULP energy -89441.185544 kJ/mol
# GULP energy per Si atom -5590.074097 kJ/mol
# Density = 2.322440 g / cm^3
# Si number density = 23.277377 Si / 1000 Ang^3
#
#
#
# Elastic Constant Matrix: (Units=GPa)
#
#
# Indices 1 2 3 4 5 6 
#
# 1 137.6263 47.8048 18.7025 0.7693 -38.8374 9.1316
# 2 47.8048 85.3026 20.3363 16.8577 -19.4211 13.6948
# 3 18.7025 20.3363 39.6886 22.7046 -4.7709 -9.3940
# 4 0.7693 16.8577 22.7046 22.7986 -15.4726 -7.5833
# 5 -38.8374 -19.4211 -4.7709 -15.4726 31.3314 3.9416
# 6 9.1316 13.6948 -9.3940 -7.5833 3.9416 60.9798
#
#
#
# Elastic Compliance Matrix: (Units=1/GPa)
#
#
# Indices 1 2 3 4 5 6 
#
# 1 -0.017828 0.001304 0.056874 -0.097527 -0.061165 0.002963
# 2 0.001304 0.017097 -0.016026 0.012666 0.016785 -0.006014
# 3 0.056874 -0.016026 -0.087184 0.192446 0.142785 -0.003645
# 4 -0.097527 0.012666 0.192446 -0.310098 -0.239176 0.018303
# 5 -0.061165 0.016785 0.142785 -0.239176 -0.130634 0.006086
# 6 0.002963 -0.006014 -0.003645 0.018303 0.006086 0.018627
#
#
# Mechanical properties :
#
#
# Convention : Reuss Voigt Hill
#
# Bulk Modulus (GPa) = -276.89576 48.47829 -114.20874
# Shear Modulus (GPa) = -8.39592 34.74023 13.17215
#
# Velocity S-wave (km/s) = -1.90125 3.86741 2.38140
# Velocity P-wave (km/s) = 11.13700 6.38859 6.45053
#
# Compressibility (1/GPa) = -0.00361147
#
# Stress axis : x y z
#
# Youngs Moduli (GPa) = -56.09272 58.49077 -11.47001
#
# Poissons Ratio (x) = -0.07628 0.65234
# Poissons Ratio (y) = 0.07315 -0.18382
# Poissons Ratio (z) = 3.19020 0.93738
#
# Static dielectric constant tensor:
#      x y z
#    x 1.931360 0.000250 0.011290 
#    y 0.000250 1.911840 -0.005270 
#    z 0.011290 -0.005270 1.903710 
# 
# From -- ./inp_files/313692.got.cif
#   From: 2010.05.17/outbox.cif.g08.bks.cpg/sg2_157_cif.got.tgz:313692.got - 2010.06.03 11:33:40.
