data_PCOD9095732
_publ_section_title
;
Structure prediction by ZEFSAII (Michael W. Deem and Ramdas Pophale) SiO2 
 PCOD9095732
Probable space group: P -1
;
_chemical_formula_sum "Si O2"
_cell_formula_units_Z 16
_cell_length_a 23.646040
_cell_length_b 17.436198
_cell_length_c 12.711523
_cell_angle_alpha 36.065681
_cell_angle_beta 26.374347
_cell_angle_gamma 19.092924
_cell_volume 734.650167
_symmetry_space_group_name_H-M "P -1"
_symmetry_group_IT_number 2
_symmetry_cell_setting 'triclinic'
loop_
_space_group_symop_operation_xyz
x,y,z
-x,-y,-z
loop_
_atom_site_type_symbol
_atom_site_label
_atom_site_fract_x
_atom_site_fract_y
_atom_site_fract_z
Si Si1 0.938632 0.333574 0.789205
Si Si2 0.533311 0.783993 0.105698
Si Si3 0.308818 0.490294 0.204264
Si Si4 0.108471 0.952380 0.047159
Si Si5 0.627054 0.633951 0.544343
Si Si6 0.523226 0.080455 0.715556
Si Si7 0.254679 0.731618 0.340111
Si Si8 0.323946 0.704384 0.479239
O O1 0.775727 0.498072 0.776496
O O2 0.798333 0.518376 0.916537
O O3 0.201508 0.155500 0.519595
O O4 0.971425 0.151638 0.963939
O O5 0.509072 0.806858 0.248010
O O6 0.361953 0.825867 0.291196
O O7 0.465716 0.984270 0.953874
O O8 0.161096 0.753884 0.166004
O O9 0.290150 0.412864 0.422424
O O10 0.578986 0.308693 0.950165
O O11 0.355931 0.814280 0.798551
O O12 0.938985 0.108756 0.256787
O O13 0.628003 0.737096 0.334243
O O14 0.768315 0.382915 0.554251
O O15 0.389629 0.593698 0.379042
O O16 0.000000 0.000000 0.500000
O O17 0.500000 0.500000 0.500000
#
# Coordination Sequence:
#
# PCOD9095732 Si02
#       8
#     2   2   2   2   2   2   2   2
#     4  11  21  39  66  90 122 158 207 251 301 358
#     4  11  22  41  63  93 119 156 212 252 302 354
#     4  11  20  37  56  90 126 157 197 244 308 368
#     4  10  20  35  59  90 122 161 194 244 310 359
#     4  10  22  39  58  86 125 165 195 240 310 366
#     4  10  24  42  65  85 123 162 205 257 297 355
#     4  11  21  34  56  86 122 156 190 245 303 364
#     4  12  20  34  59  92 120 143 199 257 296 351
#
# _framework density 21.779074000000001
#
# number of rings (size 3 to 8) (size 9 to 14) (size 15 to 20)
#    0.000    1.250    2.500    5.250    0.000    2.000 
#    0.000    0.625    0.000    9.000    0.000    0.000 
#    0.000    0.000    0.000    0.000    0.000    0.000 
#
# Total GULP energy -89340.123194 kJ/mol
# GULP energy per Si atom -5583.757700 kJ/mol
# Density = 2.172950 g / cm^3
# Si number density = 21.779074 Si / 1000 Ang^3
#
#
#
# Elastic Constant Matrix: (Units=GPa)
#
#
# Indices 1 2 3 4 5 6 
#
# 1 56.1716 22.6704 14.1438 -9.3784 30.2535 -10.3495
# 2 22.6704 70.3231 27.0262 5.2293 13.3333 -14.0969
# 3 14.1438 27.0262 66.9683 -10.0669 26.0773 -2.9528
# 4 -9.3784 5.2293 -10.0669 39.8853 0.2785 11.2302
# 5 30.2535 13.3333 26.0773 0.2785 34.5747 -7.9725
# 6 -10.3495 -14.0969 -2.9528 11.2302 -7.9725 28.0579
#
#
#
# Elastic Compliance Matrix: (Units=1/GPa)
#
#
# Indices 1 2 3 4 5 6 
#
# 1 0.055127 -0.020370 0.024222 0.026622 -0.062501 -0.015766
# 2 -0.020370 0.028796 -0.019572 -0.019349 0.026273 0.020104
# 3 0.024222 -0.019572 0.039147 0.024129 -0.047996 -0.020074
# 4 0.026622 -0.019349 0.024129 0.048210 -0.040944 -0.028292
# 5 -0.062501 0.026273 -0.047996 -0.040944 0.118090 0.035037
# 6 -0.015766 0.020104 -0.020074 -0.028292 0.035037 0.059093
#
#
# Mechanical properties :
#
#
# Convention : Reuss Voigt Hill
#
# Bulk Modulus (GPa) = 10.91336 35.68263 23.29799
# Shear Modulus (GPa) = 12.18186 29.14509 20.66348
#
# Velocity S-wave (km/s) = 2.36760 3.66213 3.08356
# Velocity P-wave (km/s) = 3.53495 5.85671 4.83720
#
# Compressibility (1/GPa) = 0.09163082
#
# Stress axis : x y z
#
# Youngs Moduli (GPa) = 18.13984 34.72692 25.54484
#
# Poissons Ratio (x) = 0.70740 -0.61876
# Poissons Ratio (y) = 0.36952 0.49995
# Poissons Ratio (z) = -0.43939 0.67966
#
# Static dielectric constant tensor:
#      x y z
#    x 2.063090 0.126790 0.082400 
#    y 0.126790 1.939050 0.025360 
#    z 0.082400 0.025360 1.827020 
# 
# From -- ./inp_files/234800.got.cif
#   From: 2010.05.17/outbox.cif.g08.bks.cpg/sg2_118_cif.got.tgz:234800.got - 2010.06.03 11:33:40.
