data_PCOD9095303
_publ_section_title
;
Structure prediction by ZEFSAII (Michael W. Deem and Ramdas Pophale) SiO2 
 PCOD9095303
Probable space group: P -1
;
_chemical_formula_sum "Si O2"
_cell_formula_units_Z 14
_cell_length_a 11.100297
_cell_length_b 8.098053
_cell_length_c 9.464802
_cell_angle_alpha 76.862082
_cell_angle_beta 93.149914
_cell_angle_gamma 142.196679
_cell_volume 496.654350
_symmetry_space_group_name_H-M "P -1"
_symmetry_group_IT_number 2
_symmetry_cell_setting 'triclinic'
loop_
_space_group_symop_operation_xyz
x,y,z
-x,-y,-z
loop_
_atom_site_type_symbol
_atom_site_label
_atom_site_fract_x
_atom_site_fract_y
_atom_site_fract_z
Si Si1 0.881321 0.105205 0.126880
Si Si2 0.139957 0.280830 0.694116
Si Si3 0.425890 0.078680 0.392492
Si Si4 0.034020 0.485599 0.795181
Si Si5 0.714749 0.757752 0.543555
Si Si6 0.431063 0.536466 0.119536
Si Si7 0.434310 0.838405 0.886343
O O1 0.993601 0.343318 0.211167
O O2 0.927426 0.955941 0.171031
O O3 0.635127 0.822311 0.159141
O O4 0.928224 0.259772 0.956845
O O5 0.374053 0.583297 0.687375
O O6 0.036724 0.349106 0.694627
O O7 0.151839 0.215763 0.550544
O O8 0.271266 0.021578 0.479642
O O9 0.378600 0.977723 0.245838
O O10 0.500000 0.000000 0.500000
O O11 0.269758 0.748477 0.803914
O O12 0.500000 0.500000 0.500000
O O13 0.702372 0.684749 0.719459
O O14 0.500000 0.500000 0.000000
O O15 0.328210 0.561602 0.009991
O O16 0.500000 0.000000 0.000000
#
# Coordination Sequence:
#
# PCOD9095303 Si02
#       7
#     2   2   2   2   2   2   2
#     4  11  21  40  64  85 131 165 211 247 311 385
#     4  10  21  35  58  87 120 159 211 250 298 362
#     4  10  21  34  56  90 122 162 201 252 312 366
#     4  10  23  39  60  94 120 172 205 255 304 383
#     4  10  20  35  56  89 121 161 204 255 305 369
#     4  12  21  39  61  94 122 158 205 263 315 358
#     4  11  22  35  58  93 125 147 204 267 311 349
#
# _framework density 28.18862
#
# number of rings (size 3 to 8) (size 9 to 14) (size 15 to 20)
#    0.000    1.429    5.714    1.286    8.000    0.000 
#    0.000    0.000    0.000    3.429    0.000    9.000 
#    0.000    0.000    0.000    0.000    0.000    0.000 
#
# Total GULP energy -78073.123008 kJ/mol
# GULP energy per Si atom -5576.651643 kJ/mol
# Density = 2.812446 g / cm^3
# Si number density = 28.188620 Si / 1000 Ang^3
#
#
#
# Elastic Constant Matrix: (Units=GPa)
#
#
# Indices 1 2 3 4 5 6 
#
# 1 98.5681 35.2367 38.3403 16.4599 -22.2070 -41.5689
# 2 35.2367 130.6133 36.8056 15.2355 -2.3645 -38.7265
# 3 38.3403 36.8056 201.3889 12.7123 -27.3005 -36.1419
# 4 16.4599 15.2355 12.7123 49.6413 -4.7255 -7.8229
# 5 -22.2070 -2.3645 -27.3005 -4.7255 57.6706 11.8967
# 6 -41.5689 -38.7265 -36.1419 -7.8229 11.8967 58.8893
#
#
#
# Elastic Compliance Matrix: (Units=1/GPa)
#
#
# Indices 1 2 3 4 5 6 
#
# 1 0.015878 -0.001031 -0.000514 -0.003036 0.003711 0.009062
# 2 -0.001031 0.009939 -0.000749 -0.001814 -0.001614 0.005433
# 3 -0.000514 -0.000749 0.005926 -0.000560 0.002058 0.002291
# 4 -0.003036 -0.001814 -0.000560 0.021756 0.000456 -0.000882
# 5 0.003711 -0.001614 0.002058 0.000456 0.019951 -0.001149
# 6 0.009062 0.005433 0.002291 -0.000882 -0.001149 0.028472
#
#
# Mechanical properties :
#
#
# Convention : Reuss Voigt Hill
#
# Bulk Modulus (GPa) = 36.82457 72.37061 54.59759
# Shear Modulus (GPa) = 43.26719 54.58607 48.92663
#
# Velocity S-wave (km/s) = 3.92205 4.40529 4.17068
# Velocity P-wave (km/s) = 5.79672 7.18366 6.52713
#
# Compressibility (1/GPa) = 0.02715578
#
# Stress axis : x y z
#
# Youngs Moduli (GPa) = 62.97941 100.61574 168.75325
#
# Poissons Ratio (x) = 0.10370 0.08666
# Poissons Ratio (y) = 0.06491 0.12645
# Poissons Ratio (z) = 0.03234 0.07539
#
# Static dielectric constant tensor:
#      x y z
#    x 2.442740 -0.083380 -0.173680 
#    y -0.083380 2.403080 0.088320 
#    z -0.173680 0.088320 2.308070 
# 
# From -- ./inp_files/284029.got.cif
#   From: 2010.05.17/outbox.cif.g08.bks.cpg/sg2_143_cif.got.tgz:284029.got - 2010.06.03 11:33:40.
