data_PCOD9095483
_publ_section_title
;
Structure prediction by ZEFSAII (Michael W. Deem and Ramdas Pophale) SiO2 
 PCOD9095483
Probable space group: P -1
;
_chemical_formula_sum "Si O2"
_cell_formula_units_Z 16
_cell_length_a 8.319363
_cell_length_b 24.323110
_cell_length_c 5.153627
_cell_angle_alpha 37.732962
_cell_angle_beta 66.182473
_cell_angle_gamma 67.070352
_cell_volume 579.242555
_symmetry_space_group_name_H-M "P -1"
_symmetry_group_IT_number 2
_symmetry_cell_setting 'triclinic'
loop_
_space_group_symop_operation_xyz
x,y,z
-x,-y,-z
loop_
_atom_site_type_symbol
_atom_site_label
_atom_site_fract_x
_atom_site_fract_y
_atom_site_fract_z
Si Si1 0.585046 0.270140 0.606791
Si Si2 0.195315 0.530528 0.296087
Si Si3 0.164410 0.033959 0.606518
Si Si4 0.897748 0.171763 0.071322
Si Si5 0.700971 0.837412 0.526966
Si Si6 0.022645 0.304078 0.934776
Si Si7 0.593670 0.118987 0.790081
Si Si8 0.684058 0.568087 0.907661
O O1 0.566334 0.221234 0.529100
O O2 0.503625 0.374072 0.249023
O O3 0.780426 0.233782 0.713111
O O4 0.447847 0.223471 0.049286
O O5 0.275960 0.513379 0.020611
O O6 0.000000 0.500000 0.500000
O O7 0.137850 0.626016 0.116603
O O8 0.301237 0.465660 0.681569
O O9 0.251214 0.099710 0.503795
O O10 0.064746 0.093961 0.213942
O O11 0.314873 0.948250 0.798599
O O12 0.000000 0.000000 0.000000
O O13 0.746811 0.115273 0.493434
O O14 0.958946 0.237659 0.007955
O O15 0.593258 0.895677 0.154716
O O16 0.870310 0.760206 0.675783
O O17 0.165325 0.364712 0.489918
#
# Coordination Sequence:
#
# PCOD9095483 Si02
#       8
#     2   2   2   2   2   2   2   2
#     4  10  22  36  56  82 114 159 192 242 296 359
#     4  10  20  37  61  92 118 157 200 256 300 356
#     4   9  18  36  59  83 114 149 191 243 299 351
#     4   9  20  39  54  81 120 148 195 243 298 355
#     4   9  19  36  57  82 115 147 192 245 288 360
#     4   9  18  37  58  84 113 153 194 246 301 351
#     4  10  20  35  58  82 112 156 193 237 297 358
#     4  10  22  38  62  89 121 156 206 250 301 356
#
# _framework density 27.62228
#
# number of rings (size 3 to 8) (size 9 to 14) (size 15 to 20)
#    0.000    2.500    0.000    1.875    7.000    1.000 
#    6.750    8.750    0.000    0.000    0.000    0.000 
#    0.000    0.000    0.000    0.000    0.000    0.000 
#
# Total GULP energy -89577.105809 kJ/mol
# GULP energy per Si atom -5598.569113 kJ/mol
# Density = 2.755941 g / cm^3
# Si number density = 27.622280 Si / 1000 Ang^3
#
#
#
# Elastic Constant Matrix: (Units=GPa)
#
#
# Indices 1 2 3 4 5 6 
#
# 1 182.7124 46.4401 32.7000 -6.7870 24.9128 -17.8622
# 2 46.4401 112.3171 -0.0554 -17.1779 22.8163 -0.3410
# 3 32.7000 -0.0554 120.9856 -8.2261 19.7081 11.1882
# 4 -6.7870 -17.1779 -8.2261 36.8226 -0.7271 9.0266
# 5 24.9128 22.8163 19.7081 -0.7271 37.8744 3.1722
# 6 -17.8622 -0.3410 11.1882 9.0266 3.1722 52.8548
#
#
#
# Elastic Compliance Matrix: (Units=1/GPa)
#
#
# Indices 1 2 3 4 5 6 
#
# 1 0.007057 -0.002602 -0.001886 -0.001142 -0.002375 0.003105
# 2 -0.002602 0.012258 0.002386 0.006119 -0.006634 -0.001952
# 3 -0.001886 0.002386 0.010152 0.003690 -0.005149 -0.003092
# 4 -0.001142 0.006119 0.003690 0.032119 -0.003703 -0.006391
# 5 -0.002375 -0.006634 -0.005149 -0.003703 0.034671 -0.001204
# 6 0.003105 -0.001952 -0.003092 -0.006391 -0.001204 0.021775
#
#
# Mechanical properties :
#
#
# Convention : Reuss Voigt Hill
#
# Bulk Modulus (GPa) = 39.58444 63.79825 51.69134
# Shear Modulus (GPa) = 38.26832 47.97237 43.12034
#
# Velocity S-wave (km/s) = 3.72615 4.17193 3.95533
# Velocity P-wave (km/s) = 5.73359 6.80834 6.29394
#
# Compressibility (1/GPa) = 0.02526245
#
# Stress axis : x y z
#
# Youngs Moduli (GPa) = 141.70528 81.58083 98.50237
#
# Poissons Ratio (x) = 0.21224 0.18582
# Poissons Ratio (y) = 0.36866 -0.23502
# Poissons Ratio (z) = 0.26732 -0.19465
#
# Static dielectric constant tensor:
#      x y z
#    x 2.176460 -0.038000 -0.093960 
#    y -0.038000 2.124940 0.038000 
#    z -0.093960 0.038000 2.269640 
# 
# From -- ./inp_files/56286.got.cif
#   From: 2010.05.17/outbox.cif.g08.bks.cpg/sg2_29_cif.got.tgz:56286.got - 2010.06.03 11:33:40.
