data_PCOD9095231
_publ_section_title
;
Structure prediction by ZEFSAII (Michael W. Deem and Ramdas Pophale) SiO2 
 PCOD9095231
Probable space group: P -1
;
_chemical_formula_sum "Si O2"
_cell_formula_units_Z 10
_cell_length_a 8.756395
_cell_length_b 9.935342
_cell_length_c 7.520296
_cell_angle_alpha 64.685217
_cell_angle_beta 55.672449
_cell_angle_gamma 42.540187
_cell_volume 365.212798
_symmetry_space_group_name_H-M "P -1"
_symmetry_group_IT_number 2
_symmetry_cell_setting 'triclinic'
loop_
_space_group_symop_operation_xyz
x,y,z
-x,-y,-z
loop_
_atom_site_type_symbol
_atom_site_label
_atom_site_fract_x
_atom_site_fract_y
_atom_site_fract_z
Si Si1 0.268548 0.041603 0.499832
Si Si2 0.886384 0.414640 0.723476
Si Si3 0.612261 0.767695 0.934482
Si Si4 0.558020 0.370429 0.361259
Si Si5 0.888875 0.887247 0.815726
O O1 0.448091 0.805445 0.509604
O O2 0.079457 0.114962 0.417299
O O3 0.403453 0.117813 0.295157
O O4 0.098880 0.176854 0.701233
O O5 0.779258 0.539960 0.903857
O O6 0.645236 0.489812 0.732312
O O7 0.000000 0.500000 0.500000
O O8 0.757808 0.794214 0.964508
O O9 0.334063 0.886268 0.108295
O O10 0.500000 0.500000 0.500000
O O11 0.848219 0.232010 0.202617
#
# Coordination Sequence:
#
# PCOD9095231 Si02
#       5
#     2   2   2   2   2
#     4   9  19  36  60  77 106 144 178 220 263 318
#     4  10  20  35  56  81 111 137 180 223 264 314
#     4   8  18  36  57  77 114 139 170 226 270 310
#     4  12  21  33  60  82 104 144 186 216 263 319
#     4   9  18  36  58  78 111 140 175 222 267 317
#
# _framework density 27.381298000000001
#
# number of rings (size 3 to 8) (size 9 to 14) (size 15 to 20)
#    1.200    1.200    2.000    0.600    0.000    4.000 
#    0.000    2.000    4.400    0.000    0.000    0.000 
#    0.000    0.000    0.000    0.000    0.000    0.000 
#
# Total GULP energy -55909.727917 kJ/mol
# GULP energy per Si atom -5590.972792 kJ/mol
# Density = 2.731898 g / cm^3
# Si number density = 27.381298 Si / 1000 Ang^3
#
#
#
# Elastic Constant Matrix: (Units=GPa)
#
#
# Indices 1 2 3 4 5 6 
#
# 1 115.5564 23.1479 20.8252 14.2539 -26.9858 -10.2907
# 2 23.1479 142.7044 36.9034 25.0295 11.1633 13.9298
# 3 20.8252 36.9034 118.8296 45.3052 -11.3031 7.8301
# 4 14.2539 25.0295 45.3052 52.0500 6.3114 -1.5351
# 5 -26.9858 11.1633 -11.3031 6.3114 34.3510 21.3741
# 6 -10.2907 13.9298 7.8301 -1.5351 21.3741 45.7871
#
#
#
# Elastic Compliance Matrix: (Units=1/GPa)
#
#
# Indices 1 2 3 4 5 6 
#
# 1 0.012785 -0.002421 0.003017 -0.007036 0.015978 -0.004601
# 2 -0.002421 0.008596 -0.002417 -0.000758 -0.005111 -0.000385
# 3 0.003017 -0.002417 0.018219 -0.018243 0.019649 -0.011486
# 4 -0.007036 -0.000758 -0.018243 0.041447 -0.029406 0.016886
# 5 0.015978 -0.005111 0.019649 -0.029406 0.077086 -0.035185
# 6 -0.004601 -0.000385 -0.011486 0.016886 -0.035185 0.039879
#
#
# Mechanical properties :
#
#
# Convention : Reuss Voigt Hill
#
# Bulk Modulus (GPa) = 27.81055 59.87148 43.84102
# Shear Modulus (GPa) = 23.40418 46.18522 34.79470
#
# Velocity S-wave (km/s) = 2.92678 4.11145 3.56862
# Velocity P-wave (km/s) = 4.64761 6.66724 5.74684
#
# Compressibility (1/GPa) = 0.03595758
#
# Stress axis : x y z
#
# Youngs Moduli (GPa) = 78.21896 116.33853 54.88895
#
# Poissons Ratio (x) = 0.28162 -0.16559
# Poissons Ratio (y) = 0.18934 0.13266
# Poissons Ratio (z) = -0.23598 0.28117
#
# Static dielectric constant tensor:
#      x y z
#    x 2.137690 0.011880 0.034720 
#    y 0.011880 2.151960 -0.119600 
#    z 0.034720 -0.119600 2.175110 
# 
# From -- ./inp_files/59078.got.cif
#   From: 2010.05.17/outbox.cif.g08.bks.cpg/sg2_30_cif.got.tgz:59078.got - 2010.06.03 11:33:40.
