data_PCOD9095632
_publ_section_title
;
Structure prediction by ZEFSAII (Michael W. Deem and Ramdas Pophale) SiO2 
 PCOD9095632
Probable space group: P -1
;
_chemical_formula_sum "Si O2"
_cell_formula_units_Z 16
_cell_length_a 12.467594
_cell_length_b 8.400256
_cell_length_c 10.576362
_cell_angle_alpha 101.278670
_cell_angle_beta 120.525902
_cell_angle_gamma 102.924723
_cell_volume 864.616051
_symmetry_space_group_name_H-M "P -1"
_symmetry_group_IT_number 2
_symmetry_cell_setting 'triclinic'
loop_
_space_group_symop_operation_xyz
x,y,z
-x,-y,-z
loop_
_atom_site_type_symbol
_atom_site_label
_atom_site_fract_x
_atom_site_fract_y
_atom_site_fract_z
Si Si1 0.133459 0.582264 0.178577
Si Si2 0.775265 0.726977 0.162809
Si Si3 0.380992 0.464419 0.718342
Si Si4 0.884314 0.600112 0.610049
Si Si5 0.155796 0.883355 0.726839
Si Si6 0.070269 0.743424 0.398286
Si Si7 0.403103 0.799422 0.933421
Si Si8 0.634291 0.395149 0.857236
O O1 0.132085 0.431391 0.253917
O O2 0.125162 0.736066 0.289188
O O3 0.268993 0.647125 0.188949
O O4 0.000000 0.500000 0.000000
O O5 0.674728 0.653302 0.208276
O O6 0.921709 0.740192 0.297674
O O7 0.786485 0.918296 0.159821
O O8 0.725179 0.583174 0.001556
O O9 0.256025 0.427703 0.544242
O O10 0.430502 0.663261 0.833503
O O11 0.501920 0.417695 0.728439
O O12 0.928819 0.439045 0.573747
O O13 0.004402 0.777615 0.668166
O O14 0.152323 0.886945 0.572048
O O15 0.251583 0.786168 0.813897
O O16 0.407571 0.737842 0.069931
O O17 0.500000 0.000000 0.000000
#
# Coordination Sequence:
#
# PCOD9095632 Si02
#       8
#     2   2   2   2   2   2   2   2
#     4  10  20  38  60  79 111 159 195 220 287 349
#     4  11  21  35  60  91 115 146 187 245 289 328
#     4  11  21  37  56  86 118 147 193 236 291 331
#     4  10  21  35  59  85 110 157 189 235 281 330
#     4  12  20  35  60  91 117 141 196 247 282 324
#     4  10  20  35  59  83 112 150 189 237 282 329
#     4  11  21  37  60  87 113 148 195 239 287 333
#     4  11  22  39  59  81 122 154 185 232 286 350
#
# _framework density 18.505324999999999
#
# number of rings (size 3 to 8) (size 9 to 14) (size 15 to 20)
#    0.750    0.500    3.750    6.000    0.000    0.500 
#    0.000    0.625    2.750    6.750    0.000    0.000 
#    0.000    0.000    0.000    0.000    0.000    0.000 
#
# Total GULP energy -89246.540796 kJ/mol
# GULP energy per Si atom -5577.908800 kJ/mol
# Density = 1.846321 g / cm^3
# Si number density = 18.505325 Si / 1000 Ang^3
#
#
#
# Elastic Constant Matrix: (Units=GPa)
#
#
# Indices 1 2 3 4 5 6 
#
# 1 107.4312 22.0229 28.6000 -10.3593 12.0640 4.5172
# 2 22.0229 67.3540 20.2819 10.8115 -0.6958 1.9336
# 3 28.6000 20.2819 60.1145 -15.7880 2.5834 7.8306
# 4 -10.3593 10.8115 -15.7880 27.6838 -7.7040 3.5742
# 5 12.0640 -0.6958 2.5834 -7.7040 27.8249 -12.1532
# 6 4.5172 1.9336 7.8306 3.5742 -12.1532 17.1405
#
#
#
# Elastic Compliance Matrix: (Units=1/GPa)
#
#
# Indices 1 2 3 4 5 6 
#
# 1 0.012219 -0.003775 -0.002201 0.003693 -0.007653 -0.007986
# 2 -0.003775 0.021986 -0.011348 -0.016942 0.002475 0.008987
# 3 -0.002201 -0.011348 0.030067 0.022011 -0.004663 -0.019772
# 4 0.003693 -0.016942 0.022011 0.060329 0.004575 -0.018454
# 5 -0.007653 0.002475 -0.004663 0.004575 0.061264 0.046353
# 6 -0.007986 0.008987 -0.019772 -0.018454 0.046353 0.105179
#
#
# Mechanical properties :
#
#
# Convention : Reuss Voigt Hill
#
# Bulk Modulus (GPa) = 33.75626 41.85658 37.80642
# Shear Modulus (GPa) = 14.90013 25.46283 20.18148
#
# Velocity S-wave (km/s) = 2.84065 3.71344 3.30597
# Velocity P-wave (km/s) = 5.38888 6.40733 5.92005
#
# Compressibility (1/GPa) = 0.02962413
#
# Stress axis : x y z
#
# Youngs Moduli (GPa) = 81.83715 45.48413 33.25873
#
# Poissons Ratio (x) = 0.17172 0.07319
# Poissons Ratio (y) = 0.30896 0.37742
# Poissons Ratio (z) = 0.18010 0.51616
#
# Static dielectric constant tensor:
#      x y z
#    x 1.642940 -0.007370 0.002860 
#    y -0.007370 1.635350 -0.004870 
#    z 0.002860 -0.004870 1.650680 
# 
# From -- ./inp_files/417633.got.cif
#   From: 2010.05.17/outbox.cif.g08.bks.cpg/sg2_209_cif.got.tgz:417633.got - 2010.06.03 11:33:40.
