data_PCOD9095830
_publ_section_title
;
Structure prediction by ZEFSAII (Michael W. Deem and Ramdas Pophale) SiO2 
 PCOD9095830
Probable space group: P -1
;
_chemical_formula_sum "Si O2"
_cell_formula_units_Z 14
_cell_length_a 9.300579
_cell_length_b 17.805555
_cell_length_c 6.443682
_cell_angle_alpha 104.896904
_cell_angle_beta 49.824116
_cell_angle_gamma 127.683489
_cell_volume 628.397723
_symmetry_space_group_name_H-M "P -1"
_symmetry_group_IT_number 2
_symmetry_cell_setting 'triclinic'
loop_
_space_group_symop_operation_xyz
x,y,z
-x,-y,-z
loop_
_atom_site_type_symbol
_atom_site_label
_atom_site_fract_x
_atom_site_fract_y
_atom_site_fract_z
Si Si1 0.514180 0.415615 0.848184
Si Si2 0.978671 0.303546 0.301078
Si Si3 0.856221 0.001486 0.448493
Si Si4 0.803770 0.397742 0.225866
Si Si5 0.695278 0.330083 0.854627
Si Si6 0.303579 0.131334 0.873508
Si Si7 0.615078 0.081738 0.625553
O O1 0.639044 0.415470 0.523262
O O2 0.233282 0.329948 0.045501
O O3 0.500000 0.500000 0.000000
O O4 0.681343 0.415538 0.861779
O O5 0.910441 0.352559 0.229129
O O6 0.932860 0.343565 0.581703
O O7 0.800035 0.187306 0.421854
O O8 0.718242 0.045950 0.665326
O O9 0.043202 0.081311 0.160952
O O10 0.000000 0.000000 0.500000
O O11 0.710689 0.902102 0.374850
O O12 0.655666 0.318386 0.125982
O O13 0.000000 0.500000 0.000000
O O14 0.487832 0.243879 0.840343
O O15 0.406776 0.087122 0.889108
O O16 0.500000 0.000000 0.500000
#
# Coordination Sequence:
#
# PCOD9095830 Si02
#       7
#     2   2   2   2   2   2   2
#     4  11  23  39  63  91 125 163 205 262 322 376
#     4  10  22  41  62  89 125 165 209 260 314 371
#     4  10  20  35  60  88 118 157 205 254 305 365
#     4  11  24  41  64  93 124 165 214 260 316 381
#     4  10  22  40  60  87 125 162 204 258 313 374
#     4   9  20  38  56  83 122 159 199 253 311 365
#     4   9  19  38  60  85 122 163 203 252 309 365
#
# _framework density 22.278886
#
# number of rings (size 3 to 8) (size 9 to 14) (size 15 to 20)
#    0.000    2.000    0.000    2.571    0.000   10.857 
#    0.000   10.000    0.000    0.000    0.000    0.000 
#    0.000    0.000    0.000    0.000    0.000    0.000 
#
# Total GULP energy -77943.518136 kJ/mol
# GULP energy per Si atom -5567.394153 kJ/mol
# Density = 2.222818 g / cm^3
# Si number density = 22.278886 Si / 1000 Ang^3
#
#
#
# Elastic Constant Matrix: (Units=GPa)
#
#
# Indices 1 2 3 4 5 6 
#
# 1 125.9998 42.8807 51.9164 18.6153 -7.7143 -17.6796
# 2 42.8807 93.2359 35.8221 2.1947 4.7170 -0.2363
# 3 51.9164 35.8221 126.5745 4.1528 -24.1092 -0.1261
# 4 18.6153 2.1947 4.1528 31.4724 2.5134 -5.9783
# 5 -7.7143 4.7170 -24.1092 2.5134 42.5305 5.4098
# 6 -17.6796 -0.2363 -0.1261 -5.9783 5.4098 38.9414
#
#
#
# Elastic Compliance Matrix: (Units=1/GPa)
#
#
# Indices 1 2 3 4 5 6 
#
# 1 0.012367 -0.004169 -0.003626 -0.005694 0.000395 0.004649
# 2 -0.004169 0.013985 -0.003089 0.002044 -0.004059 -0.000940
# 3 -0.003626 -0.003089 0.011512 -0.000169 0.006547 -0.002563
# 4 -0.005694 0.002044 -0.000169 0.036000 -0.003928 0.003499
# 5 0.000395 -0.004059 0.006547 -0.003928 0.028536 -0.004391
# 6 0.004649 -0.000940 -0.002563 0.003499 -0.004391 0.028923
#
#
# Mechanical properties :
#
#
# Convention : Reuss Voigt Hill
#
# Bulk Modulus (GPa) = 62.12830 67.44984 64.78907
# Shear Modulus (GPa) = 31.55454 36.93495 34.24474
#
# Velocity S-wave (km/s) = 3.76752 4.07608 3.92483
# Velocity P-wave (km/s) = 6.84637 7.24524 7.04863
#
# Compressibility (1/GPa) = 0.01609573
#
# Stress axis : x y z
#
# Youngs Moduli (GPa) = 80.86015 71.50752 86.86659
#
# Poissons Ratio (x) = 0.29810 0.31497
# Poissons Ratio (y) = 0.33709 0.26834
# Poissons Ratio (z) = 0.29319 0.22089
#
# Static dielectric constant tensor:
#      x y z
#    x 1.902870 -0.017420 -0.004680 
#    y -0.017420 1.978490 -0.044610 
#    z -0.004680 -0.044610 1.843840 
# 
# From -- ./inp_files/53210.got.cif
#   From: 2010.05.17/outbox.cif.g08.bks.cpg/sg2_27_cif.got.tgz:53210.got - 2010.06.03 11:33:40.
