data_PCOD9095210
_publ_section_title
;
Structure prediction by ZEFSAII (Michael W. Deem and Ramdas Pophale) SiO2 
 PCOD9095210
Probable space group: P -1
;
_chemical_formula_sum "Si O2"
_cell_formula_units_Z 14
_cell_length_a 5.599880
_cell_length_b 15.954129
_cell_length_c 7.814291
_cell_angle_alpha 121.454202
_cell_angle_beta 103.003254
_cell_angle_gamma 72.707446
_cell_volume 566.535147
_symmetry_space_group_name_H-M "P -1"
_symmetry_group_IT_number 2
_symmetry_cell_setting 'triclinic'
loop_
_space_group_symop_operation_xyz
x,y,z
-x,-y,-z
loop_
_atom_site_type_symbol
_atom_site_label
_atom_site_fract_x
_atom_site_fract_y
_atom_site_fract_z
Si Si1 0.239532 0.566309 0.461606
Si Si2 0.994002 0.886088 0.920512
Si Si3 0.068144 0.879694 0.337394
Si Si4 0.466332 0.181297 0.121151
Si Si5 0.566524 0.882404 0.341338
Si Si6 0.955446 0.632409 0.797639
Si Si7 0.224021 0.563250 0.080941
O O1 0.500000 0.500000 0.500000
O O2 0.109974 0.643553 0.665316
O O3 0.263564 0.606166 0.319029
O O4 0.071172 0.482489 0.327196
O O5 0.026850 0.869450 0.114681
O O6 0.243287 0.829538 0.799834
O O7 0.716556 0.863124 0.827242
O O8 0.000000 0.000000 0.000000
O O9 0.363148 0.837203 0.363042
O O10 0.860379 0.838355 0.365310
O O11 0.000000 0.000000 0.500000
O O12 0.313591 0.294124 0.178114
O O13 0.475879 0.126490 0.878991
O O14 0.500000 0.000000 0.500000
O O15 0.116134 0.643204 0.002098
O O16 0.500000 0.500000 0.000000
O O17 0.000000 0.500000 0.000000
#
# Coordination Sequence:
#
# PCOD9095210 Si02
#       7
#     2   2   2   2   2   2   2
#     4  10  20  37  64  90 127 172 205 249 315 386
#     4  10  20  35  56  79 107 150 195 240 301 366
#     4   8  14  26  47  68  90 125 171 217 262 334
#     4  10  21  34  58  83 115 152 198 254 299 358
#     4   8  14  27  47  72  96 133 177 223 274 339
#     4  10  22  37  61  92 127 167 208 261 313 365
#     4  10  20  36  60  91 119 163 210 244 304 385
#
# _framework density 24.711618000000001
#
# number of rings (size 3 to 8) (size 9 to 14) (size 15 to 20)
#    0.000    2.571    1.429    0.429    2.000    0.000 
#    0.000    0.000   25.143    0.000    0.000    0.000 
#    0.000    0.000    0.000    0.000    0.000    0.000 
#
# Total GULP energy -78084.537044 kJ/mol
# GULP energy per Si atom -5577.466932 kJ/mol
# Density = 2.465537 g / cm^3
# Si number density = 24.711618 Si / 1000 Ang^3
#
#
#
# Elastic Constant Matrix: (Units=GPa)
#
#
# Indices 1 2 3 4 5 6 
#
# 1 250.1412 36.4246 25.3906 3.8921 -37.3203 -25.2109
# 2 36.4246 82.6394 25.6532 -1.4558 -15.0559 -5.7239
# 3 25.3906 25.6532 91.9322 -17.4427 -28.8519 -7.8995
# 4 3.8921 -1.4558 -17.4427 27.7330 -0.2283 -0.2552
# 5 -37.3203 -15.0559 -28.8519 -0.2283 36.5396 14.6386
# 6 -25.2109 -5.7239 -7.8995 -0.2552 14.6386 37.6080
#
#
#
# Elastic Compliance Matrix: (Units=1/GPa)
#
#
# Indices 1 2 3 4 5 6 
#
# 1 0.004952 -0.001447 0.000373 -0.000488 0.004124 0.001569
# 2 -0.001447 0.014024 -0.003121 -0.001010 0.001930 -0.000249
# 3 0.000373 -0.003121 0.018070 0.011249 0.014184 -0.001874
# 4 -0.000488 -0.001010 0.011249 0.043209 0.008727 -0.001222
# 5 0.004124 0.001930 0.014184 0.008727 0.048796 -0.012897
# 6 0.001569 -0.000249 -0.001874 -0.001222 -0.012897 0.032222
#
#
# Mechanical properties :
#
#
# Convention : Reuss Voigt Hill
#
# Bulk Modulus (GPa) = 34.89788 66.62772 50.76280
# Shear Modulus (GPa) = 27.89948 42.85907 35.37927
#
# Velocity S-wave (km/s) = 3.36371 4.16909 3.78787
# Velocity P-wave (km/s) = 5.40729 7.08490 6.30216
#
# Compressibility (1/GPa) = 0.02865504
#
# Stress axis : x y z
#
# Youngs Moduli (GPa) = 201.95564 71.30705 55.33922
#
# Poissons Ratio (x) = 0.10316 -0.02062
# Poissons Ratio (y) = 0.29218 0.17272
# Poissons Ratio (z) = -0.07524 0.22256
#
# Static dielectric constant tensor:
#      x y z
#    x 2.051380 0.075450 0.002450 
#    y 0.075450 1.975010 -0.034240 
#    z 0.002450 -0.034240 1.987100 
# 
# From -- ./inp_files/49388.got.cif
#   From: 2010.05.17/outbox.cif.g08.bks.cpg/sg2_25_cif.got.tgz:49388.got - 2010.06.03 11:33:40.
