data_PCOD9095340
_publ_section_title
;
Structure prediction by ZEFSAII (Michael W. Deem and Ramdas Pophale) SiO2 
 PCOD9095340
Probable space group: P -1
;
_chemical_formula_sum "Si O2"
_cell_formula_units_Z 14
_cell_length_a 9.025191
_cell_length_b 12.011427
_cell_length_c 12.151508
_cell_angle_alpha 32.955651
_cell_angle_beta 73.420031
_cell_angle_gamma 95.067386
_cell_volume 534.109764
_symmetry_space_group_name_H-M "P -1"
_symmetry_group_IT_number 2
_symmetry_cell_setting 'triclinic'
loop_
_space_group_symop_operation_xyz
x,y,z
-x,-y,-z
loop_
_atom_site_type_symbol
_atom_site_label
_atom_site_fract_x
_atom_site_fract_y
_atom_site_fract_z
Si Si1 0.466489 0.007026 0.712943
Si Si2 0.173487 0.991846 0.182196
Si Si3 0.293316 0.218123 0.183238
Si Si4 0.804019 0.444346 0.411259
Si Si5 0.182121 0.949829 0.967239
Si Si6 0.677472 0.773552 0.589951
Si Si7 0.363683 0.509671 0.376610
O O1 0.640536 0.307994 0.464381
O O2 0.338558 0.017457 0.638534
O O3 0.572655 0.882009 0.768500
O O4 0.323704 0.880566 0.956486
O O5 0.147050 0.105394 0.202840
O O6 0.124272 0.727436 0.459683
O O7 0.408784 0.237765 0.903712
O O8 0.100757 0.904575 0.144923
O O9 0.213013 0.149796 0.380590
O O10 0.450364 0.530551 0.874259
O O11 0.715040 0.399653 0.589734
O O12 0.982818 0.750470 0.103569
O O13 0.317520 0.258914 0.659888
O O14 0.728347 0.644085 0.593636
#
# Coordination Sequence:
#
# PCOD9095340 Si02
#       7
#     2   2   2   2   2   2   2
#     4  10  21  36  62  82 115 150 188 238 290 336
#     4  10  20  35  57  81 116 147 183 237 281 335
#     4   9  19  34  58  84 108 151 197 231 278 339
#     4  11  22  35  56  91 115 147 188 232 293 345
#     4  11  22  35  56  91 115 147 188 232 293 345
#     4   9  19  34  58  84 108 151 197 231 278 339
#     4  10  20  35  57  81 116 147 183 237 281 335
#
# _framework density 26.211841
#
# number of rings (size 3 to 8) (size 9 to 14) (size 15 to 20)
#    0.000    2.000    1.429    2.143    8.000    0.000 
#    0.000    0.000    0.000   22.286    0.000    0.000 
#    0.000    0.000    0.000    0.000    0.000    0.000 
#
# Total GULP energy -78084.743115 kJ/mol
# GULP energy per Si atom -5577.481651 kJ/mol
# Density = 2.615218 g / cm^3
# Si number density = 26.211841 Si / 1000 Ang^3
#
#
#
# Elastic Constant Matrix: (Units=GPa)
#
#
# Indices 1 2 3 4 5 6 
#
# 1 36.5072 16.6791 10.5041 10.5820 -2.7722 4.9459
# 2 16.6791 147.8879 12.9283 30.1026 -4.8904 26.8409
# 3 10.5041 12.9283 70.4902 10.6759 5.1980 0.4047
# 4 10.5820 30.1026 10.6759 51.0823 3.5264 1.9246
# 5 -2.7722 -4.8904 5.1980 3.5264 36.5165 6.2593
# 6 4.9459 26.8409 0.4047 1.9246 6.2593 53.0555
#
#
#
# Elastic Compliance Matrix: (Units=1/GPa)
#
#
# Indices 1 2 3 4 5 6 
#
# 1 0.031250 -0.001669 -0.003867 -0.004842 0.003558 -0.002284
# 2 -0.001669 0.008863 -0.000815 -0.004705 0.002390 -0.004433
# 3 -0.003867 -0.000815 0.015369 -0.001790 -0.002593 0.001026
# 4 -0.004842 -0.004705 -0.001790 0.023875 -0.003457 0.002387
# 5 0.003558 0.002390 -0.002593 -0.003457 0.029514 -0.004878
# 6 -0.002284 -0.004433 0.001026 0.002387 -0.004878 0.021785
#
#
# Mechanical properties :
#
#
# Convention : Reuss Voigt Hill
#
# Bulk Modulus (GPa) = 23.37538 37.23425 30.30482
# Shear Modulus (GPa) = 31.72275 42.44911 37.08593
#
# Velocity S-wave (km/s) = 3.48263 4.02862 3.76554
# Velocity P-wave (km/s) = 5.01087 5.98963 5.52198
#
# Compressibility (1/GPa) = 0.04278005
#
# Stress axis : x y z
#
# Youngs Moduli (GPa) = 32.00024 112.83340 65.06806
#
# Poissons Ratio (x) = 0.18829 0.25159
# Poissons Ratio (y) = 0.05340 0.05304
# Poissons Ratio (z) = 0.12373 0.09197
#
# Static dielectric constant tensor:
#      x y z
#    x 2.207390 0.043010 0.008160 
#    y 0.043010 2.090200 0.040750 
#    z 0.008160 0.040750 1.997640 
# 
# From -- ./inp_files/181268.got.cif
#   From: 2010.05.17/outbox.cif.g08.bks.cpg/sg2_91_cif.got.tgz:181268.got - 2010.06.03 11:33:40.
