data_PCOD9095118
_publ_section_title
;
Structure prediction by ZEFSAII (Michael W. Deem and Ramdas Pophale) SiO2 
 PCOD9095118
Probable space group: P -1
;
_chemical_formula_sum "Si O2"
_cell_formula_units_Z 16
_cell_length_a 13.993159
_cell_length_b 13.249076
_cell_length_c 12.626388
_cell_angle_alpha 158.206018
_cell_angle_beta 128.154166
_cell_angle_gamma 49.542277
_cell_volume 660.319531
_symmetry_space_group_name_H-M "P -1"
_symmetry_group_IT_number 2
_symmetry_cell_setting 'triclinic'
loop_
_space_group_symop_operation_xyz
x,y,z
-x,-y,-z
loop_
_atom_site_type_symbol
_atom_site_label
_atom_site_fract_x
_atom_site_fract_y
_atom_site_fract_z
Si Si1 0.337252 0.753905 0.762071
Si Si2 0.740737 0.239926 0.964885
Si Si3 0.094102 0.318672 0.976363
Si Si4 0.602990 0.962619 0.440035
Si Si5 0.509475 0.526586 0.843874
Si Si6 0.070123 0.797345 0.591700
Si Si7 0.363355 0.236502 0.137582
Si Si8 0.105990 0.307748 0.457392
O O1 0.456612 0.651799 0.818430
O O2 0.201498 0.725935 0.676111
O O3 0.363542 0.551029 0.478038
O O4 0.311598 0.085480 0.051779
O O5 0.709877 0.079165 0.682277
O O6 0.809147 0.963078 0.809178
O O7 0.609474 0.390518 0.077593
O O8 0.814707 0.479302 0.238504
O O9 0.068901 0.522961 0.258133
O O10 0.246248 0.258200 0.996021
O O11 0.000000 0.500000 0.000000
O O12 0.067657 0.033288 0.728582
O O13 0.550635 0.193928 0.540360
O O14 0.500000 0.000000 0.500000
O O15 0.612532 0.665568 0.102315
O O16 0.960967 0.838960 0.642443
O O17 0.500000 0.000000 0.000000
O O18 0.000000 0.500000 0.500000
#
# Coordination Sequence:
#
# PCOD9095118 Si02
#       8
#     2   2   2   2   2   2   2   2
#     4  10  21  37  61  88 117 151 192 249 304 365
#     4  11  22  37  56  81 119 164 206 255 303 350
#     4  10  21  41  67  89 119 165 207 252 317 388
#     4  10  20  35  55  78 110 154 201 247 293 354
#     4  11  20  36  59  84 112 155 207 245 294 369
#     4  10  22  39  60  91 123 157 208 254 302 374
#     4  10  21  39  62  90 121 150 191 252 318 377
#     4  12  24  38  58  87 124 166 207 256 307 357
#
# _framework density 24.230692000000001
#
# number of rings (size 3 to 8) (size 9 to 14) (size 15 to 20)
#    0.000    1.500    0.000    7.125    0.000    3.000 
#    0.000    5.000    0.000    1.500    0.000    0.000 
#    0.000    0.000    0.000    0.000    0.000    0.000 
#
# Total GULP energy -89166.910837 kJ/mol
# GULP energy per Si atom -5572.931927 kJ/mol
# Density = 2.417554 g / cm^3
# Si number density = 24.230692 Si / 1000 Ang^3
#
#
#
# Elastic Constant Matrix: (Units=GPa)
#
#
# Indices 1 2 3 4 5 6 
#
# 1 39.1119 23.2138 16.4755 -10.6009 11.2011 -20.0792
# 2 23.2138 114.8572 18.6659 9.3596 -3.2207 -12.8419
# 3 16.4755 18.6659 125.0060 14.5787 16.9620 -6.3307
# 4 -10.6009 9.3596 14.5787 50.8790 1.1040 4.9817
# 5 11.2011 -3.2207 16.9620 1.1040 20.0781 -1.1614
# 6 -20.0792 -12.8419 -6.3307 4.9817 -1.1614 33.7234
#
#
#
# Elastic Compliance Matrix: (Units=1/GPa)
#
#
# Indices 1 2 3 4 5 6 
#
# 1 0.060140 -0.010638 -0.001987 0.012990 -0.032653 0.028341
# 2 -0.010638 0.011475 -0.001101 -0.004080 0.008857 -0.001263
# 3 -0.001987 -0.001101 0.009750 -0.002891 -0.007123 0.000410
# 4 0.012990 -0.004080 -0.002891 0.023901 -0.006665 0.001878
# 5 -0.032653 0.008857 -0.007123 -0.006665 0.075026 -0.013838
# 6 0.028341 -0.001263 0.000410 0.001878 -0.013838 0.045369
#
#
# Mechanical properties :
#
#
# Convention : Reuss Voigt Hill
#
# Bulk Modulus (GPa) = 18.54806 43.96506 31.25656
# Shear Modulus (GPa) = 18.44443 35.64409 27.04426
#
# Velocity S-wave (km/s) = 2.76198 3.83956 3.34446
# Velocity P-wave (km/s) = 4.22407 6.15143 5.27650
#
# Compressibility (1/GPa) = 0.05391401
#
# Stress axis : x y z
#
# Youngs Moduli (GPa) = 16.62780 87.14570 102.56114
#
# Poissons Ratio (x) = 0.92701 0.20378
# Poissons Ratio (y) = 0.17688 0.11295
# Poissons Ratio (z) = 0.03304 0.09598
#
# Static dielectric constant tensor:
#      x y z
#    x 2.030320 -0.046060 0.043100 
#    y -0.046060 2.092830 -0.038480 
#    z 0.043100 -0.038480 1.861300 
# 
# From -- ./inp_files/534686.got.cif
#   From: 2010.05.17/outbox.cif.g08.bks.cpg/sg2_268_cif.got.tgz:534686.got - 2010.06.03 11:33:40.
