data_PCOD9095633
_publ_section_title
;
Structure prediction by ZEFSAII (Michael W. Deem and Ramdas Pophale) SiO2 
 PCOD9095633
Probable space group: P -1
;
_chemical_formula_sum "Si O2"
_cell_formula_units_Z 16
_cell_length_a 10.068317
_cell_length_b 7.032927
_cell_length_c 10.741946
_cell_angle_alpha 95.877023
_cell_angle_beta 58.575639
_cell_angle_gamma 108.940487
_cell_volume 611.819830
_symmetry_space_group_name_H-M "P -1"
_symmetry_group_IT_number 2
_symmetry_cell_setting 'triclinic'
loop_
_space_group_symop_operation_xyz
x,y,z
-x,-y,-z
loop_
_atom_site_type_symbol
_atom_site_label
_atom_site_fract_x
_atom_site_fract_y
_atom_site_fract_z
Si Si1 0.991949 0.716807 0.402653
Si Si2 0.494607 0.263293 0.119429
Si Si3 0.118217 0.193934 0.298950
Si Si4 0.527768 0.183848 0.821612
Si Si5 0.841625 0.930662 0.989247
Si Si6 0.349149 0.607719 0.468870
Si Si7 0.033436 0.641139 0.117272
Si Si8 0.326427 0.504527 0.725889
O O1 0.997238 0.717750 0.552169
O O2 0.795924 0.604316 0.481791
O O3 0.059500 0.606117 0.250440
O O4 0.059216 0.953600 0.348214
O O5 0.315578 0.289045 0.228812
O O6 0.631315 0.398107 0.153333
O O7 0.462321 0.033124 0.160789
O O8 0.549140 0.296990 0.951674
O O9 0.111253 0.194433 0.153262
O O10 0.645356 0.267344 0.652146
O O11 0.340450 0.169077 0.877586
O O12 0.833145 0.144863 0.957378
O O13 0.000000 0.000000 0.000000
O O14 0.328246 0.670239 0.626994
O O15 0.526133 0.579187 0.379664
O O16 0.850158 0.660990 0.209442
O O17 0.000000 0.500000 0.000000
#
# Coordination Sequence:
#
# PCOD9095633 Si02
#       8
#     2   2   2   2   2   2   2   2
#     4   9  18  36  61  81 113 150 198 242 287 347
#     4  10  20  38  58  85 118 161 194 234 300 356
#     4   9  18  36  63  83 111 160 198 239 289 355
#     4  10  22  37  58  86 124 154 193 246 294 349
#     4  10  20  37  58  86 116 153 203 240 285 348
#     4  10  20  36  57  90 117 148 196 246 290 347
#     4  10  20  35  59  83 112 152 193 240 291 350
#     4  10  20  35  60  84 116 155 192 239 297 348
#
# _framework density 26.151491
#
# number of rings (size 3 to 8) (size 9 to 14) (size 15 to 20)
#    0.000    2.250    1.250    1.500    0.000    3.000 
#    2.250    0.625    0.000    0.000    0.000    0.000 
#    0.000    0.000    0.000    0.000    0.000    0.000 
#
# Total GULP energy -89166.287658 kJ/mol
# GULP energy per Si atom -5572.892979 kJ/mol
# Density = 2.609197 g / cm^3
# Si number density = 26.151491 Si / 1000 Ang^3
#
#
#
# Elastic Constant Matrix: (Units=GPa)
#
#
# Indices 1 2 3 4 5 6 
#
# 1 77.7430 8.8655 53.4300 -6.8554 2.1274 22.0536
# 2 8.8655 81.1674 48.3019 -10.9688 5.7631 3.6164
# 3 53.4300 48.3019 165.6903 -7.4655 17.0946 10.0261
# 4 -6.8554 -10.9688 -7.4655 60.0496 6.9647 -1.6802
# 5 2.1274 5.7631 17.0946 6.9647 51.1372 0.6009
# 6 22.0536 3.6164 10.0261 -1.6802 0.6009 36.2613
#
#
#
# Elastic Compliance Matrix: (Units=1/GPa)
#
#
# Indices 1 2 3 4 5 6 
#
# 1 0.020273 0.002323 -0.006606 0.001500 0.001024 -0.010682
# 2 0.002323 0.015485 -0.005013 0.002486 -0.000488 -0.001448
# 3 -0.006606 -0.005013 0.009760 -0.000123 -0.002428 0.001854
# 4 0.001500 0.002486 -0.000123 0.017568 -0.002691 -0.000267
# 5 0.001024 -0.000488 -0.002428 -0.002691 0.020750 -0.000372
# 6 -0.010682 -0.001448 0.001854 -0.000267 -0.000372 0.033700
#
#
# Mechanical properties :
#
#
# Convention : Reuss Voigt Hill
#
# Bulk Modulus (GPa) = 37.14120 60.64396 48.89258
# Shear Modulus (GPa) = 34.45826 43.75651 39.10738
#
# Velocity S-wave (km/s) = 3.63387 4.09491 3.87126
# Velocity P-wave (km/s) = 5.64268 6.75259 6.22243
#
# Compressibility (1/GPa) = 0.02692428
#
# Stress axis : x y z
#
# Youngs Moduli (GPa) = 49.32752 64.57860 102.46011
#
# Poissons Ratio (x) = -0.15001 0.67687
# Poissons Ratio (y) = -0.11458 0.51366
# Poissons Ratio (z) = 0.32587 0.32375
#
# Static dielectric constant tensor:
#      x y z
#    x 2.150650 -0.101730 0.124090 
#    y -0.101730 2.078740 0.036140 
#    z 0.124090 0.036140 2.190230 
# 
# From -- ./inp_files/417552.got.cif
#   From: 2010.05.17/outbox.cif.g08.bks.cpg/sg2_209_cif.got.tgz:417552.got - 2010.06.03 11:33:40.
