data_PCOD9095984
_publ_section_title
;
Structure prediction by ZEFSAII (Michael W. Deem and Ramdas Pophale) SiO2 
 PCOD9095984
Probable space group: P -1
;
_chemical_formula_sum "Si O2"
_cell_formula_units_Z 16
_cell_length_a 12.320225
_cell_length_b 8.771977
_cell_length_c 17.633026
_cell_angle_alpha 99.170299
_cell_angle_beta 47.081699
_cell_angle_gamma 62.029363
_cell_volume 828.736195
_symmetry_space_group_name_H-M "P -1"
_symmetry_group_IT_number 2
_symmetry_cell_setting 'triclinic'
loop_
_space_group_symop_operation_xyz
x,y,z
-x,-y,-z
loop_
_atom_site_type_symbol
_atom_site_label
_atom_site_fract_x
_atom_site_fract_y
_atom_site_fract_z
Si Si1 0.335716 0.828488 0.388881
Si Si2 0.456329 0.731256 0.002583
Si Si3 0.718818 0.260758 0.427967
Si Si4 0.762973 0.637296 0.076556
Si Si5 0.149374 0.694149 0.117681
Si Si6 0.843143 0.332708 0.605626
Si Si7 0.459142 0.128492 0.155031
Si Si8 0.906405 0.829894 0.687650
O O1 0.375532 0.729552 0.446358
O O2 0.553983 0.747755 0.242889
O O3 0.290463 0.719588 0.346298
O O4 0.068047 0.134137 0.541859
O O5 0.339431 0.679287 0.014772
O O6 0.317368 0.870790 0.159658
O O7 0.737583 0.478437 0.873708
O O8 0.410324 0.915833 0.985894
O O9 0.500000 0.500000 0.500000
O O10 0.882112 0.277928 0.368453
O O11 0.890935 0.990696 0.283307
O O12 0.630881 0.880302 0.107164
O O13 0.845109 0.431631 0.963539
O O14 0.000000 0.500000 0.000000
O O15 0.648078 0.629100 0.735546
O O16 0.988825 0.241707 0.451324
O O17 0.218944 0.231305 0.252803
#
# Coordination Sequence:
#
# PCOD9095984 Si02
#       8
#     2   2   2   2   2   2   2   2
#     4  10  21  43  64  89 120 163 210 251 299 366
#     4  10  20  38  68  91 116 160 210 257 298 355
#     4  10  23  41  63  90 118 161 209 251 303 369
#     4  12  27  41  58  92 137 164 197 250 316 372
#     4  10  21  43  64  89 120 163 210 251 299 366
#     4  10  20  38  68  91 116 160 210 257 298 355
#     4  12  22  37  60  97 124 157 205 254 314 360
#     4  10  20  35  61  90 121 150 203 262 296 355
#
# _framework density 19.306505000000001
#
# number of rings (size 3 to 8) (size 9 to 14) (size 15 to 20)
#    0.000    1.500    2.500    2.250    0.000    6.000 
#    0.000    2.500    0.000    0.000    0.000    0.000 
#    0.000    0.000    0.000    0.000    0.000    0.000 
#
# Total GULP energy -89221.560148 kJ/mol
# GULP energy per Si atom -5576.347509 kJ/mol
# Density = 1.926256 g / cm^3
# Si number density = 19.306505 Si / 1000 Ang^3
#
#
#
# Elastic Constant Matrix: (Units=GPa)
#
#
# Indices 1 2 3 4 5 6 
#
# 1 101.5710 47.0853 42.3628 7.4767 -5.1234 -3.6284
# 2 47.0853 99.7920 40.8234 10.0314 -13.6900 -16.3743
# 3 42.3628 40.8234 89.1814 9.0921 4.0406 -16.8762
# 4 7.4767 10.0314 9.0921 34.0904 3.7179 -5.8173
# 5 -5.1234 -13.6900 4.0406 3.7179 33.6882 3.8798
# 6 -3.6284 -16.3743 -16.8762 -5.8173 3.8798 31.2504
#
#
#
# Elastic Compliance Matrix: (Units=1/GPa)
#
#
# Indices 1 2 3 4 5 6 
#
# 1 0.014369 -0.005004 -0.005274 -0.001139 0.001392 -0.004187
# 2 -0.005004 0.015805 -0.004064 -0.002375 0.005913 0.004329
# 3 -0.005274 -0.004064 0.017213 -0.000445 -0.005290 0.007127
# 4 -0.001139 -0.002375 -0.000445 0.031808 -0.005165 0.004945
# 5 0.001392 0.005913 -0.005290 -0.005165 0.034054 -0.004786
# 6 -0.004187 0.004329 0.007127 0.004945 -0.004786 0.039146
#
#
# Mechanical properties :
#
#
# Convention : Reuss Voigt Hill
#
# Bulk Modulus (GPa) = 53.47084 61.23191 57.35137
# Shear Modulus (GPa) = 26.69317 30.49066 28.59191
#
# Velocity S-wave (km/s) = 3.72237 3.97835 3.85248
# Velocity P-wave (km/s) = 6.79931 7.27238 7.03982
#
# Compressibility (1/GPa) = 0.01870178
#
# Stress axis : x y z
#
# Youngs Moduli (GPa) = 69.59323 63.27251 58.09621
#
# Poissons Ratio (x) = 0.31659 0.30642
# Poissons Ratio (y) = 0.34822 0.23612
# Poissons Ratio (z) = 0.36706 0.25716
#
# Static dielectric constant tensor:
#      x y z
#    x 1.697950 0.012440 0.016550 
#    y 0.012440 1.683780 -0.008290 
#    z 0.016550 -0.008290 1.703910 
# 
# From -- ./inp_files/559039.got.cif
#   From: 2010.05.17/outbox.cif.g08.bks.cpg/sg2_280_cif.got.tgz:559039.got - 2010.06.03 11:33:40.
