data_PCOD9095221
_publ_section_title
;
Structure prediction by ZEFSAII (Michael W. Deem and Ramdas Pophale) SiO2 
 PCOD9095221
Probable space group: P -1
;
_chemical_formula_sum "Si O2"
_cell_formula_units_Z 16
_cell_length_a 14.365550
_cell_length_b 21.221827
_cell_length_c 11.270129
_cell_angle_alpha 38.451978
_cell_angle_beta 150.325391
_cell_angle_gamma 148.864522
_cell_volume 869.022396
_symmetry_space_group_name_H-M "P -1"
_symmetry_group_IT_number 2
_symmetry_cell_setting 'triclinic'
loop_
_space_group_symop_operation_xyz
x,y,z
-x,-y,-z
loop_
_atom_site_type_symbol
_atom_site_label
_atom_site_fract_x
_atom_site_fract_y
_atom_site_fract_z
Si Si1 0.877388 0.958993 0.272799
Si Si2 0.036978 0.225151 0.977102
Si Si3 0.074217 0.114493 0.824786
Si Si4 0.271365 0.864855 0.470202
Si Si5 0.430206 0.699421 0.832184
Si Si6 0.639176 0.939438 0.251588
Si Si7 0.010494 0.442421 0.720121
Si Si8 0.473959 0.719394 0.572160
O O1 0.867624 0.914474 0.194954
O O2 0.659791 0.888400 0.222707
O O3 0.937815 0.096908 0.123934
O O4 0.092940 0.966186 0.557592
O O5 0.308606 0.287997 0.174569
O O6 0.007085 0.321830 0.868704
O O7 0.903901 0.185796 0.761638
O O8 0.863371 0.126970 0.581494
O O9 0.305861 0.239730 0.938502
O O10 0.000000 0.000000 0.000000
O O11 0.348330 0.773231 0.703248
O O12 0.500000 0.000000 0.500000
O O13 0.249583 0.555067 0.870903
O O14 0.429961 0.729374 0.647607
O O15 0.540833 0.837995 0.395590
O O16 0.500000 0.000000 0.000000
O O17 0.000000 0.500000 0.500000
O O18 0.766204 0.394806 0.577756
#
# Coordination Sequence:
#
# PCOD9095221 Si02
#       8
#     2   2   2   2   2   2   2   2
#     4  10  22  36  54  87 112 144 191 225 280 342
#     4  11  19  34  54  76 117 149 179 228 279 329
#     4  12  21  36  55  79 119 152 173 225 284 346
#     4  12  22  30  53  81 113 153 177 214 280 338
#     4  11  22  36  53  88 118 143 188 222 281 346
#     4  10  21  35  58  80 110 146 189 237 277 325
#     4  10  21  33  54  81 115 148 189 233 268 336
#     4  10  20  35  56  80 113 146 186 230 281 327
#
# _framework density 18.411493
#
# number of rings (size 3 to 8) (size 9 to 14) (size 15 to 20)
#    0.000    1.250    6.250    1.500    0.000    4.000 
#    0.000    0.000    0.000    0.750    0.000   13.125 
#    0.000    0.000    0.000    0.000    0.000    0.000 
#
# Total GULP energy -89180.701156 kJ/mol
# GULP energy per Si atom -5573.793822 kJ/mol
# Density = 1.836959 g / cm^3
# Si number density = 18.411493 Si / 1000 Ang^3
#
#
#
# Elastic Constant Matrix: (Units=GPa)
#
#
# Indices 1 2 3 4 5 6 
#
# 1 92.8244 25.5340 24.8008 6.4484 6.2173 2.5607
# 2 25.5340 92.7518 23.4961 22.8559 13.5470 0.6808
# 3 24.8008 23.4961 75.7120 8.4765 22.5111 5.2280
# 4 6.4484 22.8559 8.4765 26.7676 4.4263 9.4919
# 5 6.2173 13.5470 22.5111 4.4263 31.9090 3.7056
# 6 2.5607 0.6808 5.2280 9.4919 3.7056 22.2905
#
#
#
# Elastic Compliance Matrix: (Units=1/GPa)
#
#
# Indices 1 2 3 4 5 6 
#
# 1 0.012410 -0.002884 -0.003584 0.000754 0.001352 -0.001043
# 2 -0.002884 0.016057 -0.001783 -0.014294 -0.003825 0.006982
# 3 -0.003584 -0.001783 0.018515 -0.001063 -0.011279 -0.001548
# 4 0.000754 -0.014294 -0.001063 0.058131 0.001441 -0.024394
# 5 0.001352 -0.003825 -0.011279 0.001441 0.041018 -0.004825
# 6 -0.001043 0.006982 -0.001548 -0.024394 -0.004825 0.056322
#
#
# Mechanical properties :
#
#
# Convention : Reuss Voigt Hill
#
# Bulk Modulus (GPa) = 32.80888 45.43888 39.12388
# Shear Modulus (GPa) = 21.82324 28.69057 25.25690
#
# Velocity S-wave (km/s) = 3.44656 3.95181 3.70780
# Velocity P-wave (km/s) = 5.80490 6.74949 6.29494
#
# Compressibility (1/GPa) = 0.03047955
#
# Stress axis : x y z
#
# Youngs Moduli (GPa) = 80.58112 62.27868 54.01066
#
# Poissons Ratio (x) = 0.17961 0.19359
# Poissons Ratio (y) = 0.23239 0.09628
# Poissons Ratio (z) = 0.28883 0.11102
#
# Static dielectric constant tensor:
#      x y z
#    x 1.683000 -0.012620 0.001310 
#    y -0.012620 1.664950 0.044090 
#    z 0.001310 0.044090 1.685690 
# 
# From -- ./inp_files/457471.got.cif
#   From: 2010.05.17/outbox.cif.g08.bks.cpg/sg2_229_cif.got.tgz:457471.got - 2010.06.03 11:33:40.
