data_PCOD9095617
_publ_section_title
;
Structure prediction by ZEFSAII (Michael W. Deem and Ramdas Pophale) SiO2 
 PCOD9095617
Probable space group: P -1
;
_chemical_formula_sum "Si O2"
_cell_formula_units_Z 14
_cell_length_a 5.491928
_cell_length_b 12.557962
_cell_length_c 25.750034
_cell_angle_alpha 154.966312
_cell_angle_beta 57.034459
_cell_angle_gamma 119.731641
_cell_volume 630.468608
_symmetry_space_group_name_H-M "P -1"
_symmetry_group_IT_number 2
_symmetry_cell_setting 'triclinic'
loop_
_space_group_symop_operation_xyz
x,y,z
-x,-y,-z
loop_
_atom_site_type_symbol
_atom_site_label
_atom_site_fract_x
_atom_site_fract_y
_atom_site_fract_z
Si Si1 0.364807 0.277018 0.578208
Si Si2 0.272455 0.534560 0.916610
Si Si3 0.121723 0.431969 0.399586
Si Si4 0.199121 0.137559 0.433053
Si Si5 0.244883 0.024428 0.757072
Si Si6 0.641251 0.724472 0.049512
Si Si7 0.268488 0.233444 0.685173
O O1 0.555347 0.490319 0.621066
O O2 0.132359 0.179740 0.520232
O O3 0.273582 0.351467 0.679397
O O4 0.561561 0.029101 0.451559
O O5 0.182051 0.294813 0.857755
O O6 0.498427 0.695925 0.996689
O O7 0.389013 0.406977 0.793753
O O8 0.987977 0.680037 0.993870
O O9 0.000000 0.500000 0.500000
O O10 0.923299 0.614078 0.468492
O O11 0.039876 0.141312 0.274568
O O12 0.535541 0.108203 0.366932
O O13 0.054572 0.876222 0.314595
O O14 0.402220 0.043225 0.803244
O O15 0.500000 0.500000 0.000000
#
# Coordination Sequence:
#
# PCOD9095617 Si02
#       7
#     2   2   2   2   2   2   2
#     4  10  21  36  53  86 111 150 190 227 290 354
#     4  11  21  39  57  88 113 150 197 248 289 337
#     4  11  22  35  53  83 122 150 187 226 290 361
#     4  11  20  36  54  86 115 151 188 231 289 354
#     4  11  20  36  58  84 118 151 181 239 295 343
#     4  10  22  36  57  87 115 147 200 241 293 343
#     4  10  20  35  59  78 115 147 190 242 285 332
#
# _framework density 22.205705999999999
#
# number of rings (size 3 to 8) (size 9 to 14) (size 15 to 20)
#    0.000    1.429    2.857    5.143    0.000    1.143 
#    0.000    0.000    0.000    1.714    0.000    0.000 
#    0.000    0.000    0.000    0.000    0.000    0.000 
#
# Total GULP energy -78099.461685 kJ/mol
# GULP energy per Si atom -5578.532977 kJ/mol
# Density = 2.215516 g / cm^3
# Si number density = 22.205706 Si / 1000 Ang^3
#
#
#
# Elastic Constant Matrix: (Units=GPa)
#
#
# Indices 1 2 3 4 5 6 
#
# 1 103.2273 28.1165 27.6842 -11.8521 27.7439 -19.7059
# 2 28.1165 80.7599 28.9111 -12.6703 21.1805 -18.7321
# 3 27.6842 28.9111 74.9478 -20.7514 35.0552 -10.8065
# 4 -11.8521 -12.6703 -20.7514 24.1883 -9.6394 9.9228
# 5 27.7439 21.1805 35.0552 -9.6394 47.1635 -11.0518
# 6 -19.7059 -18.7321 -10.8065 9.9228 -11.0518 27.9747
#
#
#
# Elastic Compliance Matrix: (Units=1/GPa)
#
#
# Indices 1 2 3 4 5 6 
#
# 1 0.012736 -0.001479 -0.001025 0.000435 -0.004668 0.005587
# 2 -0.001479 0.016602 -0.003571 0.001030 -0.001950 0.007560
# 3 -0.001025 -0.003571 0.025669 0.015649 -0.014746 -0.004573
# 4 0.000435 0.001030 0.015649 0.060572 -0.003697 -0.015905
# 5 -0.004668 -0.001950 -0.014746 -0.003697 0.036284 0.005356
# 6 0.005587 0.007560 -0.004573 -0.015905 0.005356 0.050735
#
#
# Mechanical properties :
#
#
# Convention : Reuss Voigt Hill
#
# Bulk Modulus (GPa) = 23.33247 47.59538 35.46392
# Shear Modulus (GPa) = 21.83093 31.48019 26.65556
#
# Velocity S-wave (km/s) = 3.13888 3.76927 3.46843
# Velocity P-wave (km/s) = 4.86487 6.35795 5.66086
#
# Compressibility (1/GPa) = 0.04285874
#
# Stress axis : x y z
#
# Youngs Moduli (GPa) = 78.51709 60.23354 38.95735
#
# Poissons Ratio (x) = 0.08908 0.03992
# Poissons Ratio (y) = 0.11611 0.13911
# Poissons Ratio (z) = 0.08045 0.21508
#
# Static dielectric constant tensor:
#      x y z
#    x 1.996860 -0.073650 0.030120 
#    y -0.073650 1.953720 -0.025590 
#    z 0.030120 -0.025590 1.900760 
# 
# From -- ./inp_files/77416.got.cif
#   From: 2010.05.17/outbox.cif.g08.bks.cpg/sg2_39_cif.got.tgz:77416.got - 2010.06.03 11:33:40.
