data_PCOD9095646
_publ_section_title
;
Structure prediction by ZEFSAII (Michael W. Deem and Ramdas Pophale) SiO2 
 PCOD9095646
Probable space group: P -1
;
_chemical_formula_sum "Si O2"
_cell_formula_units_Z 14
_cell_length_a 14.837516
_cell_length_b 6.976773
_cell_length_c 8.277945
_cell_angle_alpha 106.955275
_cell_angle_beta 128.221584
_cell_angle_gamma 52.286505
_cell_volume 527.340505
_symmetry_space_group_name_H-M "P -1"
_symmetry_group_IT_number 2
_symmetry_cell_setting 'triclinic'
loop_
_space_group_symop_operation_xyz
x,y,z
-x,-y,-z
loop_
_atom_site_type_symbol
_atom_site_label
_atom_site_fract_x
_atom_site_fract_y
_atom_site_fract_z
Si Si1 0.616420 0.795145 0.907795
Si Si2 0.952235 0.993489 0.695505
Si Si3 0.227960 0.862824 0.165744
Si Si4 0.038293 0.640354 0.427933
Si Si5 0.538072 0.316087 0.850908
Si Si6 0.661803 0.782321 0.331668
Si Si7 0.849720 0.668875 0.961138
O O1 0.645206 0.729900 0.111322
O O2 0.740186 0.605568 0.876311
O O3 0.618963 0.039529 0.947721
O O4 0.453464 0.924209 0.710894
O O5 0.996986 0.752643 0.587300
O O6 0.092762 0.918454 0.928926
O O7 0.821651 0.109594 0.699551
O O8 0.921230 0.197192 0.582374
O O9 0.372348 0.663342 0.183688
O O10 0.228595 0.100715 0.186914
O O11 0.174820 0.367190 0.500490
O O12 0.903946 0.693305 0.199872
O O13 0.398243 0.336298 0.650767
O O14 0.500000 0.500000 0.000000
O O15 0.000000 0.500000 0.000000
#
# Coordination Sequence:
#
# PCOD9095646 Si02
#       7
#     2   2   2   2   2   2   2
#     4   8  19  36  54  79 115 149 190 221 281 355
#     4   9  19  35  55  87 116 141 190 241 287 335
#     4   9  18  35  57  82 113 150 184 233 282 345
#     4  10  20  35  59  84 114 147 190 243 282 330
#     4   9  16  31  57  81 109 148 189 226 274 339
#     4   9  18  35  55  79 113 149 189 223 280 347
#     4  10  21  37  57  81 113 151 191 235 284 336
#
# _framework density 26.548313
#
# number of rings (size 3 to 8) (size 9 to 14) (size 15 to 20)
#    0.857    2.000    0.000    0.857    2.000    1.714 
#    2.571    1.429    0.000    0.000    0.000    0.000 
#    0.000    0.000    0.000    0.000    0.000    0.000 
#
# Total GULP energy -78093.601599 kJ/mol
# GULP energy per Si atom -5578.114400 kJ/mol
# Density = 2.648789 g / cm^3
# Si number density = 26.548313 Si / 1000 Ang^3
#
#
#
# Elastic Constant Matrix: (Units=GPa)
#
#
# Indices 1 2 3 4 5 6 
#
# 1 226.0809 28.1011 35.0796 3.0091 -18.8250 -49.7243
# 2 28.1011 78.5648 26.1683 0.8363 -0.0329 -41.3184
# 3 35.0796 26.1683 55.1735 -3.0668 -4.0705 -16.9404
# 4 3.0091 0.8363 -3.0668 42.5223 -14.0830 -0.4486
# 5 -18.8250 -0.0329 -4.0705 -14.0830 35.8476 0.5470
# 6 -49.7243 -41.3184 -16.9404 -0.4486 0.5470 47.4650
#
#
#
# Elastic Compliance Matrix: (Units=1/GPa)
#
#
# Indices 1 2 3 4 5 6 
#
# 1 0.006620 0.003064 -0.002768 0.000422 0.003200 0.008582
# 2 0.003064 0.026539 -0.007313 -0.001000 0.000049 0.023692
# 3 -0.002768 -0.007313 0.023396 0.002780 0.002302 -0.000916
# 4 0.000422 -0.001000 0.002780 0.027462 0.011314 0.000693
# 5 0.003200 0.000049 0.002302 0.011314 0.034223 0.003929
# 6 0.008582 0.023692 -0.000916 0.000693 0.003929 0.050317
#
#
# Mechanical properties :
#
#
# Convention : Reuss Voigt Hill
#
# Bulk Modulus (GPa) = 23.51735 59.83525 41.67630
# Shear Modulus (GPa) = 25.41113 43.19835 34.30474
#
# Velocity S-wave (km/s) = 3.09717 4.03818 3.59857
# Velocity P-wave (km/s) = 4.65483 6.65806 5.74444
#
# Compressibility (1/GPa) = 0.04252180
#
# Stress axis : x y z
#
# Youngs Moduli (GPa) = 151.05446 37.68059 42.74197
#
# Poissons Ratio (x) = -0.11546 0.11831
# Poissons Ratio (y) = -0.46287 0.31257
# Poissons Ratio (z) = 0.41811 0.27556
#
# Static dielectric constant tensor:
#      x y z
#    x 2.155740 -0.038600 -0.016530 
#    y -0.038600 2.272960 0.016180 
#    z -0.016530 0.016180 1.984910 
# 
# From -- ./inp_files/292590.got.cif
#   From: 2010.05.17/outbox.cif.g08.bks.cpg/sg2_147_cif.got.tgz:292590.got - 2010.06.03 11:33:40.
