data_PCOD9095297
_publ_section_title
;
Structure prediction by ZEFSAII (Michael W. Deem and Ramdas Pophale) SiO2 
 PCOD9095297
Probable space group: P -1
;
_chemical_formula_sum "Si O2"
_cell_formula_units_Z 14
_cell_length_a 11.790535
_cell_length_b 9.615538
_cell_length_c 7.361382
_cell_angle_alpha 63.307241
_cell_angle_beta 104.402404
_cell_angle_gamma 127.313721
_cell_volume 592.698081
_symmetry_space_group_name_H-M "P -1"
_symmetry_group_IT_number 2
_symmetry_cell_setting 'triclinic'
loop_
_space_group_symop_operation_xyz
x,y,z
-x,-y,-z
loop_
_atom_site_type_symbol
_atom_site_label
_atom_site_fract_x
_atom_site_fract_y
_atom_site_fract_z
Si Si1 0.147255 0.947332 0.534143
Si Si2 0.308446 0.364102 0.300740
Si Si3 0.227864 0.599600 0.963283
Si Si4 0.972995 0.535124 0.682056
Si Si5 0.671269 0.013112 0.106852
Si Si6 0.720797 0.160594 0.637276
Si Si7 0.451930 0.672390 0.467476
O O1 0.009013 0.744686 0.543446
O O2 0.184860 0.940869 0.763339
O O3 0.267387 0.949018 0.459186
O O4 0.172630 0.146044 0.385467
O O5 0.291975 0.476930 0.068687
O O6 0.333709 0.478816 0.431162
O O7 0.449201 0.362556 0.350581
O O8 0.127560 0.537137 0.137123
O O9 0.119682 0.560015 0.783843
O O10 0.342579 0.823200 0.910766
O O11 0.876597 0.357591 0.616797
O O12 0.551038 0.811246 0.260114
O O13 0.683506 0.042699 0.879272
O O14 0.616299 0.227400 0.528432
#
# Coordination Sequence:
#
# PCOD9095297 Si02
#       7
#     2   2   2   2   2   2   2
#     4  10  22  36  59  85 116 147 190 232 283 325
#     4  10  20  35  56  87 117 145 182 243 284 327
#     4   9  17  34  60  84 109 148 194 227 277 335
#     4   9  18  35  58  82 109 153 190 227 271 342
#     4   9  19  36  60  80 108 155 188 223 273 340
#     4  11  20  37  62  86 110 150 196 227 268 351
#     4  10  20  36  60  82 117 149 187 230 287 332
#
# _framework density 23.620795999999999
#
# number of rings (size 3 to 8) (size 9 to 14) (size 15 to 20)
#    0.000    2.286    2.857    1.714    0.000    2.857 
#    0.000    1.429   18.857    0.000    0.000    0.000 
#    0.000    0.000    0.000    0.000    0.000    0.000 
#
# Total GULP energy -78171.451415 kJ/mol
# GULP energy per Si atom -5583.675101 kJ/mol
# Density = 2.356703 g / cm^3
# Si number density = 23.620796 Si / 1000 Ang^3
#
#
#
# Elastic Constant Matrix: (Units=GPa)
#
#
# Indices 1 2 3 4 5 6 
#
# 1 70.7161 15.1244 31.3431 1.4827 25.2826 -9.1183
# 2 15.1244 104.1679 36.6737 -28.7915 -3.2705 1.3783
# 3 31.3431 36.6737 106.6965 -10.6164 20.6234 -7.7943
# 4 1.4827 -28.7915 -10.6164 47.9149 -1.0818 -1.9095
# 5 25.2826 -3.2705 20.6234 -1.0818 30.5829 -1.0870
# 6 -9.1183 1.3783 -7.7943 -1.9095 -1.0870 36.0438
#
#
#
# Elastic Compliance Matrix: (Units=1/GPa)
#
#
# Indices 1 2 3 4 5 6 
#
# 1 0.023189 -0.004515 -0.001738 -0.004037 -0.018449 0.004893
# 2 -0.004515 0.014354 -0.004636 0.007852 0.008600 -0.002018
# 3 -0.001738 -0.004636 0.013178 0.000104 -0.007858 0.002356
# 4 -0.004037 0.007852 0.000104 0.025859 0.005029 0.000223
# 5 -0.018449 0.008600 -0.007858 0.005029 0.054176 -0.004795
# 6 0.004893 -0.002018 0.002356 0.000223 -0.004795 0.029436
#
#
# Mechanical properties :
#
#
# Convention : Reuss Voigt Hill
#
# Bulk Modulus (GPa) = 34.55085 49.76254 42.15669
# Shear Modulus (GPa) = 26.09376 36.13759 31.11568
#
# Velocity S-wave (km/s) = 3.32730 3.91564 3.63340
# Velocity P-wave (km/s) = 5.42405 6.44640 5.95719
#
# Compressibility (1/GPa) = 0.02894285
#
# Stress axis : x y z
#
# Youngs Moduli (GPa) = 43.12452 69.66499 75.88510
#
# Poissons Ratio (x) = 0.31451 0.13191
# Poissons Ratio (y) = 0.19469 0.35181
# Poissons Ratio (z) = 0.07496 0.32297
#
# Static dielectric constant tensor:
#      x y z
#    x 1.990010 0.027280 -0.017390 
#    y 0.027280 1.908330 -0.000980 
#    z -0.017390 -0.000980 1.939930 
# 
# From -- ./inp_files/178663.got.cif
#   From: 2010.05.17/outbox.cif.g08.bks.cpg/sg2_90_cif.got.tgz:178663.got - 2010.06.03 11:33:40.
