data_PCOD9095367
_publ_section_title
;
Structure prediction by ZEFSAII (Michael W. Deem and Ramdas Pophale) SiO2 
 PCOD9095367
Probable space group: P -1
;
_chemical_formula_sum "Si O2"
_cell_formula_units_Z 16
_cell_length_a 20.631665
_cell_length_b 9.289926
_cell_length_c 5.487154
_cell_angle_alpha 135.929672
_cell_angle_beta 111.371484
_cell_angle_gamma 57.580055
_cell_volume 617.105250
_symmetry_space_group_name_H-M "P -1"
_symmetry_group_IT_number 2
_symmetry_cell_setting 'triclinic'
loop_
_space_group_symop_operation_xyz
x,y,z
-x,-y,-z
loop_
_atom_site_type_symbol
_atom_site_label
_atom_site_fract_x
_atom_site_fract_y
_atom_site_fract_z
Si Si1 0.191845 0.008551 0.165692
Si Si2 0.580887 0.491776 0.518357
Si Si3 0.337534 0.573072 0.951497
Si Si4 0.378254 0.092470 0.934556
Si Si5 0.012083 0.231723 0.170393
Si Si6 0.790059 0.759487 0.022315
Si Si7 0.587171 0.965060 0.588586
Si Si8 0.049834 0.649619 0.268477
O O1 0.102515 0.077759 0.076375
O O2 0.192764 0.130404 0.573984
O O3 0.251559 0.747294 0.974531
O O4 0.218942 0.099549 0.070602
O O5 0.500000 0.500000 0.500000
O O6 0.608559 0.420552 0.192004
O O7 0.574108 0.754988 0.824933
O O8 0.641490 0.383943 0.692092
O O9 0.355826 0.304578 0.656689
O O10 0.400176 0.943474 0.026133
O O11 0.288766 0.254750 0.037219
O O12 0.392802 0.954368 0.538139
O O13 0.000000 0.500000 0.500000
O O14 0.980010 0.201134 0.349601
O O15 0.964186 0.229639 0.864237
O O16 0.861799 0.520223 0.788420
O O17 0.500000 0.000000 0.500000
O O18 0.000000 0.500000 0.000000
#
# Coordination Sequence:
#
# PCOD9095367 Si02
#       8
#     2   2   2   2   2   2   2   2
#     4  12  21  35  55  89 132 155 188 251 298 355
#     4  10  21  45  66  79 111 152 202 254 295 359
#     4  10  23  40  60  90 111 154 198 243 305 357
#     4  10  23  40  60  90 111 154 198 243 305 357
#     4  10  16  30  51  77 119 160 200 229 282 335
#     4  12  21  35  55  89 132 155 188 251 298 355
#     4  10  21  45  66  79 111 152 202 254 295 359
#     4  10  16  30  51  77 119 160 200 229 282 335
#
# _framework density 25.927506000000001
#
# number of rings (size 3 to 8) (size 9 to 14) (size 15 to 20)
#    0.000    1.500    5.000    2.250    0.000    0.000 
#   27.000    0.000    0.000    0.000    0.000   21.000 
#    0.000    0.000    0.000    0.000    0.000    0.000 
#
# Total GULP energy -89603.102249 kJ/mol
# GULP energy per Si atom -5600.193891 kJ/mol
# Density = 2.586849 g / cm^3
# Si number density = 25.927506 Si / 1000 Ang^3
#
#
#
# Elastic Constant Matrix: (Units=GPa)
#
#
# Indices 1 2 3 4 5 6 
#
# 1 102.1504 19.0100 29.3486 -0.1191 -22.9673 -2.3325
# 2 19.0100 163.8410 50.2120 -14.3916 -19.8922 -3.8243
# 3 29.3486 50.2120 179.3969 -33.5719 -46.1154 5.4575
# 4 -0.1191 -14.3916 -33.5719 58.4696 8.9932 -19.2994
# 5 -22.9673 -19.8922 -46.1154 8.9932 46.9101 -2.4701
# 6 -2.3325 -3.8243 5.4575 -19.2994 -2.4701 62.5363
#
#
#
# Elastic Compliance Matrix: (Units=1/GPa)
#
#
# Indices 1 2 3 4 5 6 
#
# 1 0.011175 -0.000609 -0.000643 -0.001147 0.004815 0.000272
# 2 -0.000609 0.006837 -0.001365 0.001015 0.001110 0.000871
# 3 -0.000643 -0.001365 0.008468 0.003668 0.006757 0.000552
# 4 -0.001147 0.001015 0.003668 0.021605 -0.000333 0.006353
# 5 0.004815 0.001110 0.006757 -0.000333 0.030893 0.000775
# 6 0.000272 0.000871 0.000552 0.006353 0.000775 0.017997
#
#
# Mechanical properties :
#
#
# Convention : Reuss Voigt Hill
#
# Bulk Modulus (GPa) = 47.06948 71.39217 59.23082
# Shear Modulus (GPa) = 45.74940 56.70437 51.22688
#
# Velocity S-wave (km/s) = 4.20517 4.68165 4.44979
# Velocity P-wave (km/s) = 6.46309 7.53783 7.02106
#
# Compressibility (1/GPa) = 0.02124519
#
# Stress axis : x y z
#
# Youngs Moduli (GPa) = 89.48459 146.26708 118.09204
#
# Poissons Ratio (x) = 0.08914 0.07591
# Poissons Ratio (y) = 0.05453 0.16121
# Poissons Ratio (z) = 0.05752 0.19968
#
# Static dielectric constant tensor:
#      x y z
#    x 1.965910 0.041960 0.049110 
#    y 0.041960 2.014940 -0.001440 
#    z 0.049110 -0.001440 2.124790 
# 
# From -- ./inp_files/118904.got.cif
#   From: 2010.05.17/outbox.cif.g08.bks.cpg/sg2_60_cif.got.tgz:118904.got - 2010.06.03 11:33:40.
