data_PCOD9095871
_publ_section_title
;
Structure prediction by ZEFSAII (Michael W. Deem and Ramdas Pophale) SiO2 
 PCOD9095871
Probable space group: P -1
;
_chemical_formula_sum "Si O2"
_cell_formula_units_Z 16
_cell_length_a 12.953425
_cell_length_b 10.866902
_cell_length_c 10.065686
_cell_angle_alpha 121.620118
_cell_angle_beta 146.936144
_cell_angle_gamma 56.723307
_cell_volume 639.777658
_symmetry_space_group_name_H-M "P -1"
_symmetry_group_IT_number 2
_symmetry_cell_setting 'triclinic'
loop_
_space_group_symop_operation_xyz
x,y,z
-x,-y,-z
loop_
_atom_site_type_symbol
_atom_site_label
_atom_site_fract_x
_atom_site_fract_y
_atom_site_fract_z
Si Si1 0.240730 0.990932 0.584214
Si Si2 0.673099 0.141303 0.669851
Si Si3 0.600704 0.482216 0.741202
Si Si4 0.036062 0.315355 0.492290
Si Si5 0.476179 0.366465 0.990217
Si Si6 0.324827 0.944470 0.939283
Si Si7 0.769236 0.882658 0.824185
Si Si8 0.995270 0.576291 0.766255
O O1 0.080956 0.144775 0.482995
O O2 0.230746 0.888972 0.389173
O O3 0.236292 0.931020 0.692753
O O4 0.458987 0.023469 0.828157
O O5 0.627936 0.317497 0.738439
O O6 0.459991 0.110172 0.418908
O O7 0.791290 0.017954 0.828459
O O8 0.500000 0.500000 0.500000
O O9 0.496845 0.597420 0.805539
O O10 0.823414 0.495368 0.985205
O O11 0.928310 0.433484 0.552890
O O12 0.950348 0.352419 0.274099
O O13 0.256647 0.342630 0.731107
O O14 0.624876 0.214294 0.023527
O O15 0.500000 0.500000 0.000000
O O16 0.195843 0.073624 0.962628
O O17 0.868267 0.718927 0.785113
#
# Coordination Sequence:
#
# PCOD9095871 Si02
#       8
#     2   2   2   2   2   2   2   2
#     4   9  16  33  56  82 113 154 191 236 284 349
#     4  10  20  35  61  85 116 151 194 240 289 353
#     4  11  24  40  59  87 119 158 195 240 302 353
#     4   9  19  37  60  86 113 154 202 237 288 351
#     4  10  20  35  62  87 115 156 199 241 282 347
#     4   9  18  31  55  86 116 147 195 237 287 341
#     4  10  20  35  60  91 113 149 194 249 292 332
#     4  10  21  38  61  86 121 153 196 249 290 348
#
# _framework density 25.008686999999998
#
# number of rings (size 3 to 8) (size 9 to 14) (size 15 to 20)
#    0.000    2.250    1.250    1.500    3.500    3.500 
#    0.000    2.500    0.000    1.500    0.000    0.000 
#    0.000    0.000    0.000    0.000    0.000    0.000 
#
# Total GULP energy -89449.214899 kJ/mol
# GULP energy per Si atom -5590.575931 kJ/mol
# Density = 2.495177 g / cm^3
# Si number density = 25.008687 Si / 1000 Ang^3
#
#
#
# Elastic Constant Matrix: (Units=GPa)
#
#
# Indices 1 2 3 4 5 6 
#
# 1 85.7444 30.6835 38.0025 -1.6188 -6.3660 -28.7042
# 2 30.6835 112.3090 10.1338 4.1613 -8.5755 -38.8224
# 3 38.0025 10.1338 109.1018 -11.8192 -24.1721 -12.4904
# 4 -1.6188 4.1613 -11.8192 28.0125 -3.6834 1.8223
# 5 -6.3660 -8.5755 -24.1721 -3.6834 34.7686 12.9815
# 6 -28.7042 -38.8224 -12.4904 1.8223 12.9815 44.4048
#
#
#
# Elastic Compliance Matrix: (Units=1/GPa)
#
#
# Indices 1 2 3 4 5 6 
#
# 1 0.018057 -0.000919 -0.006601 -0.003086 -0.005892 0.010862
# 2 -0.000919 0.013113 -0.000314 -0.003106 -0.001745 0.011420
# 3 -0.006601 -0.000314 0.014248 0.007372 0.010903 -0.004023
# 4 -0.003086 -0.003106 0.007372 0.041021 0.010948 -0.007521
# 5 -0.005892 -0.001745 0.010903 0.010948 0.041541 -0.014861
# 6 0.010862 0.011420 -0.004023 -0.007521 -0.014861 0.043047
#
#
# Mechanical properties :
#
#
# Convention : Reuss Voigt Hill
#
# Bulk Modulus (GPa) = 33.61146 51.64388 42.62767
# Shear Modulus (GPa) = 25.43128 36.65953 31.04540
#
# Velocity S-wave (km/s) = 3.19234 3.83282 3.52715
# Velocity P-wave (km/s) = 5.20165 6.34686 5.80258
#
# Compressibility (1/GPa) = 0.02975176
#
# Stress axis : x y z
#
# Youngs Moduli (GPa) = 55.37966 76.26246 70.18753
#
# Poissons Ratio (x) = 0.07005 0.46328
# Poissons Ratio (y) = 0.05087 0.02201
# Poissons Ratio (z) = 0.36554 0.02392
#
# Static dielectric constant tensor:
#      x y z
#    x 2.016620 0.007900 0.108840 
#    y 0.007900 1.949570 0.064260 
#    z 0.108840 0.064260 2.085280 
# 
# From -- ./inp_files/259700.got.cif
#   From: 2010.05.17/outbox.cif.g08.bks.cpg/sg2_130_cif.got.tgz:259700.got - 2010.06.03 11:33:40.
