data_PCOD9095911
_publ_section_title
;
Structure prediction by ZEFSAII (Michael W. Deem and Ramdas Pophale) SiO2 
 PCOD9095911
Probable space group: P -1
;
_chemical_formula_sum "Si O2"
_cell_formula_units_Z 16
_cell_length_a 8.437125
_cell_length_b 14.109953
_cell_length_c 5.293351
_cell_angle_alpha 99.152348
_cell_angle_beta 88.691663
_cell_angle_gamma 78.538359
_cell_volume 608.764696
_symmetry_space_group_name_H-M "P -1"
_symmetry_group_IT_number 2
_symmetry_cell_setting 'triclinic'
loop_
_space_group_symop_operation_xyz
x,y,z
-x,-y,-z
loop_
_atom_site_type_symbol
_atom_site_label
_atom_site_fract_x
_atom_site_fract_y
_atom_site_fract_z
Si Si1 0.636210 0.344579 0.040271
Si Si2 0.495132 0.160621 0.475275
Si Si3 0.789968 0.145412 0.066907
Si Si4 0.007788 0.397444 0.701699
Si Si5 0.646752 0.993409 0.795697
Si Si6 0.042619 0.270768 0.141490
Si Si7 0.684091 0.672757 0.112665
Si Si8 0.677755 0.450476 0.570551
O O1 0.712483 0.232540 0.913432
O O2 0.715828 0.369465 0.309261
O O3 0.441820 0.357316 0.087477
O O4 0.644233 0.410911 0.828123
O O5 0.643075 0.164384 0.283168
O O6 0.577089 0.076830 0.631351
O O7 0.419407 0.265168 0.638467
O O8 0.343857 0.114098 0.361165
O O9 0.957145 0.178364 0.135702
O O10 0.794296 0.035362 0.926703
O O11 0.044883 0.322595 0.434094
O O12 0.854487 0.477594 0.638921
O O13 0.182260 0.413928 0.802009
O O14 0.962679 0.342935 0.937772
O O15 0.500000 0.000000 0.000000
O O16 0.222219 0.254469 0.007696
O O17 0.500000 0.500000 0.500000
#
# Coordination Sequence:
#
# PCOD9095911 Si02
#       8
#     2   2   2   2   2   2   2   2
#     4  12  23  39  70 101 122 172 228 265 310 396
#     4  10  20  35  60  94 131 173 220 276 324 375
#     4  11  20  36  65  93 126 171 233 267 315 388
#     4  10  22  42  61  94 131 170 208 266 333 380
#     4   9  20  34  56  93 134 166 221 274 327 371
#     4  10  23  37  63  92 133 165 215 273 326 372
#     4  10  24  38  67  97 135 167 226 270 326 382
#     4  12  25  45  68  98 134 170 215 269 331 397
#
# _framework density 26.282734000000001
#
# number of rings (size 3 to 8) (size 9 to 14) (size 15 to 20)
#    0.750    0.750    3.750    1.125    5.250    0.000 
#    0.000    1.875    0.000    7.500    0.000    0.000 
#    0.000    0.000    0.000    0.000    0.000    0.000 
#
# Total GULP energy -89196.642797 kJ/mol
# GULP energy per Si atom -5574.790175 kJ/mol
# Density = 2.622291 g / cm^3
# Si number density = 26.282734 Si / 1000 Ang^3
#
#
#
# Elastic Constant Matrix: (Units=GPa)
#
#
# Indices 1 2 3 4 5 6 
#
# 1 123.5651 15.3083 38.4925 5.9359 23.0317 10.9265
# 2 15.3083 66.7722 25.2077 -0.9500 8.9219 5.3839
# 3 38.4925 25.2077 111.3677 7.3615 13.1440 11.5708
# 4 5.9359 -0.9500 7.3615 45.3344 5.0895 12.2118
# 5 23.0317 8.9219 13.1440 5.0895 52.6612 -4.0673
# 6 10.9265 5.3839 11.5708 12.2118 -4.0673 44.2387
#
#
#
# Elastic Compliance Matrix: (Units=1/GPa)
#
#
# Indices 1 2 3 4 5 6 
#
# 1 0.009855 -0.000606 -0.002624 0.000090 -0.003719 -0.002041
# 2 -0.000606 0.016787 -0.003283 0.001646 -0.002048 -0.001677
# 3 -0.002624 -0.003283 0.010992 -0.000940 -0.001078 -0.001667
# 4 0.000090 0.001646 -0.000940 0.024455 -0.002988 -0.007002
# 5 -0.003719 -0.002048 -0.001078 -0.002988 0.021851 0.004283
# 6 -0.002041 -0.001677 -0.001667 -0.007002 0.004283 0.026075
#
#
# Mechanical properties :
#
#
# Convention : Reuss Voigt Hill
#
# Bulk Modulus (GPa) = 40.63811 51.08023 45.85917
# Shear Modulus (GPa) = 38.09701 43.29330 40.69515
#
# Velocity S-wave (km/s) = 3.81137 4.06299 3.93919
# Velocity P-wave (km/s) = 5.90459 6.44109 6.17867
#
# Compressibility (1/GPa) = 0.02460745
#
# Stress axis : x y z
#
# Youngs Moduli (GPa) = 101.47488 59.57004 90.97686
#
# Poissons Ratio (x) = 0.03610 0.23872
# Poissons Ratio (y) = 0.06149 0.29868
# Poissons Ratio (z) = 0.26627 0.19557
#
# Static dielectric constant tensor:
#      x y z
#    x 2.586800 0.315880 -0.063720 
#    y 0.315880 2.377840 -0.070420 
#    z -0.063720 -0.070420 2.124040 
# 
# From -- ./inp_files/40954.got.cif
#   From: 2010.05.17/outbox.cif.g08.bks.cpg/sg2_21_cif.got.tgz:40954.got - 2010.06.03 11:33:40.
