data_PCOD9095091
_publ_section_title
;
Structure prediction by ZEFSAII (Michael W. Deem and Ramdas Pophale) SiO2 
 PCOD9095091
Probable space group: P -1
;
_chemical_formula_sum "Si O2"
_cell_formula_units_Z 16
_cell_length_a 12.373034
_cell_length_b 12.602544
_cell_length_c 13.546438
_cell_angle_alpha 71.986353
_cell_angle_beta 31.848499
_cell_angle_gamma 50.469739
_cell_volume 707.191143
_symmetry_space_group_name_H-M "P -1"
_symmetry_group_IT_number 2
_symmetry_cell_setting 'triclinic'
loop_
_space_group_symop_operation_xyz
x,y,z
-x,-y,-z
loop_
_atom_site_type_symbol
_atom_site_label
_atom_site_fract_x
_atom_site_fract_y
_atom_site_fract_z
Si Si1 0.473122 0.612676 0.565163
Si Si2 0.499549 0.243120 0.672720
Si Si3 0.187412 0.831179 0.031120
Si Si4 0.157227 0.573427 0.949647
Si Si5 0.900080 0.593859 0.339772
Si Si6 0.629928 0.041379 0.272584
Si Si7 0.886207 0.892473 0.446569
Si Si8 0.273874 0.528340 0.243019
O O1 0.500000 0.500000 0.500000
O O2 0.380671 0.752248 0.525053
O O3 0.790562 0.522923 0.396041
O O4 0.768215 0.061893 0.072759
O O5 0.165813 0.326891 0.880758
O O6 0.740896 0.052153 0.575980
O O7 0.415422 0.378589 0.771731
O O8 0.254495 0.653070 0.807510
O O9 0.108891 0.852480 0.201148
O O10 0.499926 0.638153 0.820776
O O11 0.901304 0.895887 0.175616
O O12 0.105075 0.574163 0.105222
O O13 0.589828 0.789122 0.541938
O O14 0.072161 0.529529 0.328978
O O15 0.412462 0.035862 0.398568
O O16 0.062372 0.710844 0.402624
O O17 0.500000 0.500000 0.000000
#
# Coordination Sequence:
#
# PCOD9095091 Si02
#       8
#     2   2   2   2   2   2   2   2
#     4   9  18  32  52  81 113 148 192 240 283 321
#     4   9  18  32  53  82 113 145 190 238 285 336
#     4  10  20  37  54  79 114 148 187 227 278 337
#     4   9  18  33  53  80 113 148 188 241 287 323
#     4  10  20  35  55  87 118 146 189 234 281 347
#     4  10  22  35  58  89 112 142 188 240 286 333
#     4  10  20  35  54  83 116 145 181 231 283 340
#     4   9  21  38  57  80 117 159 186 223 287 348
#
# _framework density 22.624715999999999
#
# number of rings (size 3 to 8) (size 9 to 14) (size 15 to 20)
#    0.000    2.500    0.000    2.625    0.000   12.000 
#    0.000    1.250    0.000    3.000    0.000   30.625 
#    0.000    0.000    0.000    0.000    0.000    0.000 
#
# Total GULP energy -89365.071913 kJ/mol
# GULP energy per Si atom -5585.316995 kJ/mol
# Density = 2.257322 g / cm^3
# Si number density = 22.624716 Si / 1000 Ang^3
#
#
#
# Elastic Constant Matrix: (Units=GPa)
#
#
# Indices 1 2 3 4 5 6 
#
# 1 60.1567 20.4682 27.7584 7.2636 -6.1325 2.3958
# 2 20.4682 96.5444 42.9256 3.0952 -6.2313 2.8021
# 3 27.7584 42.9256 101.1716 16.3622 -0.8703 -1.3239
# 4 7.2636 3.0952 16.3622 67.9795 -6.7213 -0.6218
# 5 -6.1325 -6.2313 -0.8703 -6.7213 34.4070 -0.4903
# 6 2.3958 2.8021 -1.3239 -0.6218 -0.4903 27.2393
#
#
#
# Elastic Compliance Matrix: (Units=1/GPa)
#
#
# Indices 1 2 3 4 5 6 
#
# 1 0.019806 -0.001939 -0.004500 -0.000673 0.002909 -0.001724
# 2 -0.001939 0.013251 -0.005263 0.001066 0.002110 -0.001386
# 3 -0.004500 -0.005263 0.013804 -0.002779 -0.001927 0.001510
# 4 -0.000673 0.001066 -0.002779 0.015709 0.003075 0.000228
# 5 0.002909 0.002110 -0.001927 0.003075 0.030517 0.000053
# 6 -0.001724 -0.001386 0.001510 0.000228 0.000053 0.037085
#
#
# Mechanical properties :
#
#
# Convention : Reuss Voigt Hill
#
# Bulk Modulus (GPa) = 42.62946 48.90856 45.76901
# Shear Modulus (GPa) = 30.97977 37.03986 34.00981
#
# Velocity S-wave (km/s) = 3.70440 4.05055 3.88134
# Velocity P-wave (km/s) = 6.09752 6.59850 6.35295
#
# Compressibility (1/GPa) = 0.02345796
#
# Stress axis : x y z
#
# Youngs Moduli (GPa) = 50.48982 75.46540 72.44034
#
# Poissons Ratio (x) = 0.14631 0.32600
# Poissons Ratio (y) = 0.09789 0.38124
# Poissons Ratio (z) = 0.22722 0.39716
#
# Static dielectric constant tensor:
#      x y z
#    x 1.863570 0.021920 0.009810 
#    y 0.021920 1.923930 0.014850 
#    z 0.009810 0.014850 1.871900 
# 
# From -- ./inp_files/567430.got.cif
#   From: 2010.05.17/outbox.cif.g08.bks.cpg/sg2_284_cif.got.tgz:567430.got - 2010.06.03 11:33:40.
