data_PCOD9095894
_publ_section_title
;
Structure prediction by ZEFSAII (Michael W. Deem and Ramdas Pophale) SiO2 
 PCOD9095894
Probable space group: P -1
;
_chemical_formula_sum "Si O2"
_cell_formula_units_Z 16
_cell_length_a 13.707288
_cell_length_b 10.983427
_cell_length_c 13.338794
_cell_angle_alpha 31.450529
_cell_angle_beta 123.430524
_cell_angle_gamma 135.378512
_cell_volume 727.268547
_symmetry_space_group_name_H-M "P -1"
_symmetry_group_IT_number 2
_symmetry_cell_setting 'triclinic'
loop_
_space_group_symop_operation_xyz
x,y,z
-x,-y,-z
loop_
_atom_site_type_symbol
_atom_site_label
_atom_site_fract_x
_atom_site_fract_y
_atom_site_fract_z
Si Si1 0.769178 0.669876 0.926776
Si Si2 0.093075 0.468449 0.217063
Si Si3 0.418341 0.890909 0.360421
Si Si4 0.621380 0.904220 0.602642
Si Si5 0.909891 0.021129 0.089366
Si Si6 0.784564 0.215390 0.140902
Si Si7 0.241076 0.291096 0.575543
Si Si8 0.359333 0.327394 0.942998
O O1 0.740802 0.841843 0.708105
O O2 0.742971 0.385991 0.066566
O O3 0.667445 0.614121 0.000804
O O4 0.929916 0.871528 0.911889
O O5 0.157854 0.331652 0.412540
O O6 0.932136 0.277523 0.223660
O O7 0.183251 0.626998 0.058080
O O8 0.097337 0.708025 0.117043
O O9 0.574024 0.991708 0.416524
O O10 0.346845 0.592322 0.475332
O O11 0.349097 0.897001 0.424167
O O12 0.398885 0.097422 0.135031
O O13 0.480984 0.602131 0.763435
O O14 0.866842 0.907065 0.258578
O O15 0.787302 0.790302 0.112823
O O16 0.693512 0.881442 0.305685
#
# Coordination Sequence:
#
# PCOD9095894 Si02
#       8
#     2   2   2   2   2   2   2   2
#     4  10  21  38  58  86 125 149 186 246 294 340
#     4   9  18  36  58  82 120 155 195 232 283 354
#     4  10  20  36  62  84 108 154 203 233 277 344
#     4  10  22  41  61  81 118 159 197 234 285 355
#     4  10  20  35  60  93 116 146 192 246 293 336
#     4   9  20  35  55  86 117 158 187 235 295 339
#     4  11  19  35  62  88 114 154 196 238 283 350
#     4  11  20  40  63  83 113 159 196 235 291 350
#
# _framework density 22.000125000000001
#
# number of rings (size 3 to 8) (size 9 to 14) (size 15 to 20)
#    0.000    2.000    2.500    3.000    0.000    0.000 
#    0.000   18.125    0.000    3.750    0.000    0.000 
#    0.000    0.000    0.000    0.000    0.000    0.000 
#
# Total GULP energy -89317.682848 kJ/mol
# GULP energy per Si atom -5582.355178 kJ/mol
# Density = 2.195005 g / cm^3
# Si number density = 22.000125 Si / 1000 Ang^3
#
#
#
# Elastic Constant Matrix: (Units=GPa)
#
#
# Indices 1 2 3 4 5 6 
#
# 1 37.2462 31.4369 28.4536 4.8182 20.4003 5.1042
# 2 31.4369 92.9701 46.8700 -2.4525 24.2474 -9.7139
# 3 28.4536 46.8700 130.8555 12.3460 32.2813 -5.2652
# 4 4.8182 -2.4525 12.3460 46.1355 -2.2175 7.9120
# 5 20.4003 24.2474 32.2813 -2.2175 30.7613 -3.1773
# 6 5.1042 -9.7139 -5.2652 7.9120 -3.1773 24.0978
#
#
#
# Elastic Compliance Matrix: (Units=1/GPa)
#
#
# Indices 1 2 3 4 5 6 
#
# 1 0.059091 -0.014098 -0.000907 -0.004531 -0.029600 -0.020812
# 2 -0.014098 0.018263 -0.003086 0.001686 -0.000755 0.009021
# 3 -0.000907 -0.003086 0.011682 -0.003911 -0.009347 0.001552
# 4 -0.004531 0.001686 -0.003911 0.024717 0.006899 -0.006421
# 5 -0.029600 -0.000755 -0.009347 0.006899 0.064083 0.010107
# 6 -0.020812 0.009021 0.001552 -0.006421 0.010107 0.053322
#
#
# Mechanical properties :
#
#
# Convention : Reuss Voigt Hill
#
# Bulk Modulus (GPa) = 18.92021 52.73252 35.82637
# Shear Modulus (GPa) = 17.54654 30.48635 24.01644
#
# Velocity S-wave (km/s) = 2.82718 3.72658 3.30760
# Velocity P-wave (km/s) = 4.39045 6.52210 5.55940
#
# Compressibility (1/GPa) = 0.05285353
#
# Stress axis : x y z
#
# Youngs Moduli (GPa) = 16.92313 54.75660 85.60380
#
# Poissons Ratio (x) = 0.77195 0.07765
# Poissons Ratio (y) = 0.23858 0.26416
# Poissons Ratio (z) = 0.01535 0.16897
#
# Static dielectric constant tensor:
#      x y z
#    x 1.810440 -0.018900 0.014750 
#    y -0.018900 1.858210 -0.009730 
#    z 0.014750 -0.009730 1.840300 
# 
# From -- ./inp_files/531530.got.cif
#   From: 2010.05.17/outbox.cif.g08.bks.cpg/sg2_266_cif.got.tgz:531530.got - 2010.06.03 11:33:40.
