data_PCOD9095577
_publ_section_title
;
Structure prediction by ZEFSAII (Michael W. Deem and Ramdas Pophale) SiO2 
 PCOD9095577
Probable space group: P -1
;
_chemical_formula_sum "Si O2"
_cell_formula_units_Z 16
_cell_length_a 8.426297
_cell_length_b 16.762104
_cell_length_c 11.077629
_cell_angle_alpha 131.959368
_cell_angle_beta 81.098792
_cell_angle_gamma 63.800463
_cell_volume 770.900309
_symmetry_space_group_name_H-M "P -1"
_symmetry_group_IT_number 2
_symmetry_cell_setting 'triclinic'
loop_
_space_group_symop_operation_xyz
x,y,z
-x,-y,-z
loop_
_atom_site_type_symbol
_atom_site_label
_atom_site_fract_x
_atom_site_fract_y
_atom_site_fract_z
Si Si1 0.754264 0.315182 0.768257
Si Si2 0.200997 0.251644 0.218484
Si Si3 0.853821 0.700220 0.338357
Si Si4 0.423082 0.920302 0.797273
Si Si5 0.160432 0.473536 0.281902
Si Si6 0.325091 0.802793 0.124934
Si Si7 0.842387 0.082540 0.351842
Si Si8 0.474150 0.885540 0.392009
O O1 0.780574 0.221704 0.783428
O O2 0.762280 0.237265 0.569008
O O3 0.972990 0.289189 0.709502
O O4 0.500000 0.500000 0.000000
O O5 0.436541 0.168017 0.183781
O O6 0.158088 0.358139 0.226250
O O7 0.980101 0.375416 0.461307
O O8 0.250979 0.107543 0.021921
O O9 0.633879 0.842853 0.597174
O O10 0.718194 0.720678 0.258689
O O11 0.017417 0.544186 0.244670
O O12 0.274321 0.894027 0.736498
O O13 0.435020 0.369550 0.127710
O O14 0.415370 0.863252 0.247880
O O15 0.126681 0.930982 0.180162
O O16 0.730954 0.052121 0.429333
O O17 0.500000 0.000000 0.500000
#
# Coordination Sequence:
#
# PCOD9095577 Si02
#       8
#     2   2   2   2   2   2   2   2
#     4  11  21  39  55  88 130 157 186 236 293 360
#     4   9  20  41  65  86 115 142 209 263 296 335
#     4  10  20  37  62  89 117 158 201 229 295 362
#     4   9  20  41  67  88 108 155 205 253 292 348
#     4  10  21  37  61  89 116 154 191 251 306 340
#     4  11  22  38  57  86 129 159 187 237 295 355
#     4  10  22  37  58  87 120 156 198 235 298 358
#     4  10  20  35  58  89 117 154 204 237 275 354
#
# _framework density 20.754953
#
# number of rings (size 3 to 8) (size 9 to 14) (size 15 to 20)
#    0.000    2.000    1.250    3.000    5.250    0.500 
#    4.500    2.500    0.000    0.000    0.000    0.000 
#    0.000    0.000    0.000    0.000    0.000    0.000 
#
# Total GULP energy -89353.288955 kJ/mol
# GULP energy per Si atom -5584.580560 kJ/mol
# Density = 2.070771 g / cm^3
# Si number density = 20.754953 Si / 1000 Ang^3
#
#
#
# Elastic Constant Matrix: (Units=GPa)
#
#
# Indices 1 2 3 4 5 6 
#
# 1 88.9072 35.9147 33.3257 9.1267 -12.1881 -24.5032
# 2 35.9147 56.7893 36.6775 13.9686 -3.4874 -10.2001
# 3 33.3257 36.6775 106.2971 23.6672 -2.8716 -15.9998
# 4 9.1267 13.9686 23.6672 25.0811 -1.6510 -5.2660
# 5 -12.1881 -3.4874 -2.8716 -1.6510 23.0194 3.2465
# 6 -24.5032 -10.2001 -15.9998 -5.2660 3.2465 29.0561
#
#
#
# Elastic Compliance Matrix: (Units=1/GPa)
#
#
# Indices 1 2 3 4 5 6 
#
# 1 0.019724 -0.009543 -0.001426 0.002512 0.007288 0.012139
# 2 -0.009543 0.028634 -0.005529 -0.007844 -0.001646 -0.002278
# 3 -0.001426 -0.005529 0.014275 -0.009273 -0.000920 0.003139
# 4 0.002512 -0.007844 -0.009273 0.052983 0.002276 0.003606
# 5 0.007288 -0.001646 -0.000920 0.002276 0.047069 0.000215
# 6 0.012139 -0.002278 0.003139 0.003606 0.000215 0.046211
#
#
# Mechanical properties :
#
#
# Convention : Reuss Voigt Hill
#
# Bulk Modulus (GPa) = 33.74181 51.53660 42.63920
# Shear Modulus (GPa) = 19.85931 25.16971 22.51451
#
# Velocity S-wave (km/s) = 3.09665 3.48617 3.29717
# Velocity P-wave (km/s) = 5.39242 6.41010 5.92316
#
# Compressibility (1/GPa) = 0.02963683
#
# Stress axis : x y z
#
# Youngs Moduli (GPa) = 50.70011 34.92333 70.05309
#
# Poissons Ratio (x) = 0.33326 0.09992
# Poissons Ratio (y) = 0.48381 0.38734
# Poissons Ratio (z) = 0.07231 0.19310
#
# Static dielectric constant tensor:
#      x y z
#    x 1.724220 -0.005010 -0.006110 
#    y -0.005010 1.773620 -0.006880 
#    z -0.006110 -0.006880 1.782040 
# 
# From -- ./inp_files/402207.got.cif
#   From: 2010.05.17/outbox.cif.g08.bks.cpg/sg2_202_cif.got.tgz:402207.got - 2010.06.03 11:33:40.
