data_PCOD9095586
_publ_section_title
;
Structure prediction by ZEFSAII (Michael W. Deem and Ramdas Pophale) SiO2 
 PCOD9095586
Probable space group: P -1
;
_chemical_formula_sum "Si O2"
_cell_formula_units_Z 16
_cell_length_a 13.952466
_cell_length_b 26.334322
_cell_length_c 7.275127
_cell_angle_alpha 46.474728
_cell_angle_beta 121.518080
_cell_angle_gamma 157.918976
_cell_volume 660.078246
_symmetry_space_group_name_H-M "P -1"
_symmetry_group_IT_number 2
_symmetry_cell_setting 'triclinic'
loop_
_space_group_symop_operation_xyz
x,y,z
-x,-y,-z
loop_
_atom_site_type_symbol
_atom_site_label
_atom_site_fract_x
_atom_site_fract_y
_atom_site_fract_z
Si Si1 0.330893 0.053461 0.941026
Si Si2 0.937230 0.380713 0.731412
Si Si3 0.244505 0.299601 0.217666
Si Si4 0.299922 0.631614 0.009226
Si Si5 0.522982 0.710216 0.436246
Si Si6 0.376306 0.047106 0.578980
Si Si7 0.801024 0.691465 0.247599
Si Si8 0.054115 0.686338 0.493816
O O1 0.628848 0.199069 0.966069
O O2 0.336578 0.140646 0.710686
O O3 0.344008 0.028306 0.813411
O O4 0.029682 0.856478 0.201875
O O5 0.913699 0.336245 0.612537
O O6 0.000000 0.500000 0.500000
O O7 0.243998 0.528500 0.725825
O O8 0.297296 0.256759 0.479277
O O9 0.500000 0.500000 0.000000
O O10 0.238566 0.282450 0.034733
O O11 0.928078 0.145059 0.327982
O O12 0.423270 0.682133 0.207540
O O13 0.185690 0.489964 0.188000
O O14 0.522954 0.815369 0.701998
O O15 0.000000 0.500000 0.000000
O O16 0.631564 0.141823 0.540258
O O17 0.500000 0.500000 0.500000
O O18 0.939579 0.696978 0.314075
#
# Coordination Sequence:
#
# PCOD9095586 Si02
#       8
#     2   2   2   2   2   2   2   2
#     4   9  20  37  59  87 118 156 207 249 298 366
#     4   8  15  32  59  88 112 143 193 246 298 356
#     4  11  24  39  58  88 121 159 210 254 308 370
#     4   9  18  35  61  90 117 150 197 247 306 370
#     4  10  20  35  58  89 125 158 188 251 313 358
#     4   9  20  36  60  89 116 154 202 250 302 368
#     4  11  25  41  58  85 124 169 211 251 301 367
#     4   9  18  36  61  86 117 158 198 250 306 350
#
# _framework density 24.239547999999999
#
# number of rings (size 3 to 8) (size 9 to 14) (size 15 to 20)
#    0.000    2.500    0.000    2.250    0.000   11.000 
#    0.000    3.750    0.000    6.750    0.000    0.000 
#    0.000    0.000    0.000    0.000    0.000    0.000 
#
# Total GULP energy -89068.029119 kJ/mol
# GULP energy per Si atom -5566.751820 kJ/mol
# Density = 2.418438 g / cm^3
# Si number density = 24.239548 Si / 1000 Ang^3
#
#
#
# Elastic Constant Matrix: (Units=GPa)
#
#
# Indices 1 2 3 4 5 6 
#
# 1 60.8880 43.6406 16.4541 2.9688 5.9248 14.3002
# 2 43.6406 131.9833 46.0875 -40.4853 -1.3949 16.6967
# 3 16.4541 46.0875 92.6717 -14.7101 -1.0447 6.4409
# 4 2.9688 -40.4853 -14.7101 67.0337 -3.0966 -3.2031
# 5 5.9248 -1.3949 -1.0447 -3.0966 26.5577 5.1346
# 6 14.3002 16.6967 6.4409 -3.2031 5.1346 24.2266
#
#
#
# Elastic Compliance Matrix: (Units=1/GPa)
#
#
# Indices 1 2 3 4 5 6 
#
# 1 0.026804 -0.010172 -0.000460 -0.008108 -0.005829 -0.008525
# 2 -0.010172 0.015691 -0.004269 0.009040 0.004650 -0.003465
# 3 -0.000460 -0.004269 0.013074 0.000318 0.000493 -0.000324
# 4 -0.008108 0.009040 0.000318 0.021036 0.004699 0.000257
# 5 -0.005829 0.004650 0.000493 0.004699 0.041318 -0.008030
# 6 -0.008525 -0.003465 -0.000324 0.000257 -0.008030 0.050519
#
#
# Mechanical properties :
#
#
# Convention : Reuss Voigt Hill
#
# Bulk Modulus (GPa) = 38.81203 55.32306 47.06755
# Shear Modulus (GPa) = 24.17381 35.52098 29.84740
#
# Velocity S-wave (km/s) = 3.16141 3.83223 3.51287
# Velocity P-wave (km/s) = 5.41966 6.51570 5.99279
#
# Compressibility (1/GPa) = 0.02576521
#
# Stress axis : x y z
#
# Youngs Moduli (GPa) = 37.30836 63.72895 76.48550
#
# Poissons Ratio (x) = 0.64827 0.03522
# Poissons Ratio (y) = 0.37951 0.32655
# Poissons Ratio (z) = 0.01718 0.27208
#
# Static dielectric constant tensor:
#      x y z
#    x 2.038650 -0.016230 -0.061310 
#    y -0.016230 2.062000 -0.046230 
#    z -0.061310 -0.046230 1.713380 
# 
# From -- ./inp_files/320934.got.cif
#   From: 2010.05.17/outbox.cif.g08.bks.cpg/sg2_161_cif.got.tgz:320934.got - 2010.06.03 11:33:40.
