data_PCOD9095461
_publ_section_title
;
Structure prediction by ZEFSAII (Michael W. Deem and Ramdas Pophale) SiO2 
 PCOD9095461
Probable space group: P -1
;
_chemical_formula_sum "Si O2"
_cell_formula_units_Z 15
_cell_length_a 8.283313
_cell_length_b 15.337260
_cell_length_c 12.245508
_cell_angle_alpha 152.467620
_cell_angle_beta 112.019567
_cell_angle_gamma 77.508302
_cell_volume 641.708963
_symmetry_space_group_name_H-M "P -1"
_symmetry_group_IT_number 2
_symmetry_cell_setting 'triclinic'
loop_
_space_group_symop_operation_xyz
x,y,z
-x,-y,-z
loop_
_atom_site_type_symbol
_atom_site_label
_atom_site_fract_x
_atom_site_fract_y
_atom_site_fract_z
Si Si1 0.224307 0.010430 0.131376
Si Si2 0.111440 0.142311 0.808497
Si Si3 0.139083 0.236084 0.167826
Si Si4 0.145811 0.258886 0.718314
Si Si5 0.571340 0.044811 0.387958
Si Si6 0.561189 0.296525 0.856959
Si Si7 0.112501 0.369839 0.610296
Si Si8 0.000000 0.500000 0.500000
O O1 0.204403 0.074960 0.073544
O O2 0.428215 0.039620 0.250148
O O3 0.148943 0.164841 0.354265
O O4 0.078785 0.799292 0.888556
O O5 0.111689 0.287414 0.868854
O O6 0.260727 0.027616 0.690404
O O7 0.152264 0.224256 0.030536
O O8 0.920740 0.977809 0.576437
O O9 0.199842 0.444264 0.471856
O O10 0.360445 0.322999 0.824894
O O11 0.043569 0.336305 0.681155
O O12 0.623549 0.241243 0.692231
O O13 0.460052 0.885762 0.269184
O O14 0.698899 0.470066 0.146382
O O15 0.000419 0.443367 0.572090
#
# Coordination Sequence:
#
# PCOD9095461 Si02
#       8
#     2   2   2   2   2   2   2   1
#     4  10  20  35  65  83 113 158 209 236 287 347
#     4  10  21  37  59  87 127 152 189 243 311 350
#     4  10  20  40  60  84 115 158 199 250 284 356
#     4  10  20  36  61  88 119 159 192 238 299 352
#     4  10  20  35  57  93 117 162 191 241 296 357
#     4  10  20  35  61  86 124 151 205 241 286 346
#     4  11  20  37  63  91 113 155 204 253 279 343
#     4  10  24  36  62  88 114 148 206 248 290 336
#
# _framework density 23.375081999999999
#
# number of rings (size 3 to 8) (size 9 to 14) (size 15 to 20)
#    0.000    1.867    2.667    1.200    0.000    3.733 
#    0.000    2.667    0.000   10.400    0.000    0.000 
#    0.000    0.000    0.000    0.000    0.000    0.000 
#
# Total GULP energy -83542.769795 kJ/mol
# GULP energy per Si atom -5569.517986 kJ/mol
# Density = 2.332188 g / cm^3
# Si number density = 23.375082 Si / 1000 Ang^3
#
#
#
# Elastic Constant Matrix: (Units=GPa)
#
#
# Indices 1 2 3 4 5 6 
#
# 1 59.9510 30.2476 33.6873 -10.4641 -6.7769 -0.4233
# 2 30.2476 202.0504 27.4249 -36.2130 -16.6823 13.5577
# 3 33.6873 27.4249 80.4369 -23.5697 -8.6199 3.2509
# 4 -10.4641 -36.2130 -23.5697 38.7338 3.2917 -6.1907
# 5 -6.7769 -16.6823 -8.6199 3.2917 32.6348 -10.5913
# 6 -0.4233 13.5577 3.2509 -6.1907 -10.5913 36.7305
#
#
#
# Elastic Compliance Matrix: (Units=1/GPa)
#
#
# Indices 1 2 3 4 5 6 
#
# 1 0.023030 -0.002454 -0.009099 -0.001410 0.002020 0.002321
# 2 -0.002454 0.006436 0.000694 0.005447 0.002109 -0.000939
# 3 -0.009099 0.000694 0.019102 0.009643 0.002647 0.000337
# 4 -0.001410 0.005447 0.009643 0.036825 0.002652 0.004091
# 5 0.002020 0.002109 0.002647 0.002652 0.035740 0.009763
# 6 0.002321 -0.000939 0.000337 0.004091 0.009763 0.031074
#
#
# Mechanical properties :
#
#
# Convention : Reuss Voigt Hill
#
# Bulk Modulus (GPa) = 37.24605 58.35088 47.79846
# Shear Modulus (GPa) = 27.34108 38.35837 32.84973
#
# Velocity S-wave (km/s) = 3.42375 4.05531 3.75284
# Velocity P-wave (km/s) = 5.62122 6.85160 6.26668
#
# Compressibility (1/GPa) = 0.02684849
#
# Stress axis : x y z
#
# Youngs Moduli (GPa) = 43.42172 155.37813 52.35086
#
# Poissons Ratio (x) = 0.38136 0.47633
# Poissons Ratio (y) = 0.10657 -0.03631
# Poissons Ratio (z) = 0.39509 -0.10777
#
# Static dielectric constant tensor:
#      x y z
#    x 1.817170 0.084270 0.158500 
#    y 0.084270 1.907660 -0.170590 
#    z 0.158500 -0.170590 1.242810 
# 
# From -- ./inp_files/235054.got.cif
#   From: 2010.05.17/outbox.cif.g08.bks.cpg/sg2_118_cif.got.tgz:235054.got - 2010.06.03 11:33:40.
