data_PCOD9095013
_publ_section_title
;
Structure prediction by ZEFSAII (Michael W. Deem and Ramdas Pophale) SiO2 
 PCOD9095013
Probable space group: P -1
;
_chemical_formula_sum "Si O2"
_cell_formula_units_Z 16
_cell_length_a 22.453366
_cell_length_b 8.330912
_cell_length_c 12.125499
_cell_angle_alpha 141.764894
_cell_angle_beta 141.002970
_cell_angle_gamma 37.717899
_cell_volume 782.654985
_symmetry_space_group_name_H-M "P -1"
_symmetry_group_IT_number 2
_symmetry_cell_setting 'triclinic'
loop_
_space_group_symop_operation_xyz
x,y,z
-x,-y,-z
loop_
_atom_site_type_symbol
_atom_site_label
_atom_site_fract_x
_atom_site_fract_y
_atom_site_fract_z
Si Si1 0.273058 0.749833 0.559543
Si Si2 0.185975 0.128467 0.340134
Si Si3 0.048249 0.167972 0.347144
Si Si4 0.104954 0.196537 0.820672
Si Si5 0.874567 0.346736 0.566236
Si Si6 0.745007 0.687384 0.055812
Si Si7 0.382260 0.569773 0.401723
Si Si8 0.161103 0.864755 0.943465
O O1 0.231465 0.553482 0.460283
O O2 0.362980 0.561467 0.499722
O O3 0.162132 0.970730 0.459425
O O4 0.299600 0.975914 0.788681
O O5 0.083459 0.129740 0.250292
O O6 0.162163 0.461485 0.493906
O O7 0.297239 0.902990 0.429219
O O8 0.188172 0.042105 0.170329
O O9 0.000000 0.500000 0.500000
O O10 0.962688 0.059949 0.191428
O O11 0.160361 0.364227 0.925431
O O12 0.980134 0.367259 0.768588
O O13 0.097394 0.983722 0.601042
O O14 0.173335 0.989245 0.908788
O O15 0.783088 0.465851 0.097714
O O16 0.660330 0.622165 0.832083
O O17 0.500000 0.500000 0.500000
#
# Coordination Sequence:
#
# PCOD9095013 Si02
#       8
#     2   2   2   2   2   2   2   2
#     4  10  21  36  61  86 121 160 189 246 294 351
#     4  10  23  34  56  85 115 153 206 249 289 360
#     4  11  18  32  53  82 121 161 191 223 285 358
#     4  10  21  34  58  87 131 165 184 231 284 364
#     4  10  20  35  52  91 125 158 196 220 289 372
#     4  10  22  39  61  92 119 154 210 243 291 369
#     4  10  24  45  64  82 109 154 210 267 312 340
#     4  11  20  34  55  85 127 164 191 235 285 352
#
# _framework density 20.443235000000001
#
# number of rings (size 3 to 8) (size 9 to 14) (size 15 to 20)
#    0.000    1.750    2.500    1.875    5.250    3.000 
#    0.000    0.625    0.000    1.500    0.000    0.000 
#    0.000    0.000    0.000    0.000    0.000    0.000 
#
# Total GULP energy -89087.599098 kJ/mol
# GULP energy per Si atom -5567.974944 kJ/mol
# Density = 2.039670 g / cm^3
# Si number density = 20.443235 Si / 1000 Ang^3
#
#
#
# Elastic Constant Matrix: (Units=GPa)
#
#
# Indices 1 2 3 4 5 6 
#
# 1 123.0585 25.0198 34.6218 -13.7597 5.2421 -2.6302
# 2 25.0198 36.3648 17.2306 -0.8060 11.3938 1.4615
# 3 34.6218 17.2306 68.0136 -5.6397 18.1194 -4.1495
# 4 -13.7597 -0.8060 -5.6397 14.5043 1.4489 5.4766
# 5 5.2421 11.3938 18.1194 1.4489 33.1780 -5.1646
# 6 -2.6302 1.4615 -4.1495 5.4766 -5.1646 32.5468
#
#
#
# Elastic Compliance Matrix: (Units=1/GPa)
#
#
# Indices 1 2 3 4 5 6 
#
# 1 0.011473 -0.006422 -0.004079 0.008898 0.002160 -0.000459
# 2 -0.006422 0.036989 -0.003932 -0.003158 -0.009984 -0.003734
# 3 -0.004079 -0.003932 0.020721 0.004858 -0.009509 0.000162
# 4 0.008898 -0.003158 0.004858 0.085393 -0.008930 -0.014306
# 5 0.002160 -0.009984 -0.009509 -0.008930 0.039939 0.007251
# 6 -0.000459 -0.003734 0.000162 -0.014306 0.007251 0.034434
#
#
# Mechanical properties :
#
#
# Convention : Reuss Voigt Hill
#
# Bulk Modulus (GPa) = 24.80291 42.35348 33.57820
# Shear Modulus (GPa) = 18.43299 26.08348 22.25823
#
# Velocity S-wave (km/s) = 3.00603 3.57585 3.30325
# Velocity P-wave (km/s) = 4.92009 6.14910 5.56860
#
# Compressibility (1/GPa) = 0.04031785
#
# Stress axis : x y z
#
# Youngs Moduli (GPa) = 87.16469 27.03537 48.26000
#
# Poissons Ratio (x) = 0.17362 0.19684
# Poissons Ratio (y) = 0.55976 0.18974
# Poissons Ratio (z) = 0.35552 0.10629
#
# Static dielectric constant tensor:
#      x y z
#    x 1.881480 0.084010 -0.026400 
#    y 0.084010 1.795920 0.051230 
#    z -0.026400 0.051230 1.756540 
# 
# From -- ./inp_files/180198.got.cif
#   From: 2010.05.17/outbox.cif.g08.bks.cpg/sg2_91_cif.got.tgz:180198.got - 2010.06.03 11:33:40.
