data_PCOD9095539
_publ_section_title
;
Structure prediction by ZEFSAII (Michael W. Deem and Ramdas Pophale) SiO2 
 PCOD9095539
Probable space group: P -1
;
_chemical_formula_sum "Si O2"
_cell_formula_units_Z 14
_cell_length_a 7.119403
_cell_length_b 17.523790
_cell_length_c 5.657550
_cell_angle_alpha 82.076333
_cell_angle_beta 44.749135
_cell_angle_gamma 80.691618
_cell_volume 490.095448
_symmetry_space_group_name_H-M "P -1"
_symmetry_group_IT_number 2
_symmetry_cell_setting 'triclinic'
loop_
_space_group_symop_operation_xyz
x,y,z
-x,-y,-z
loop_
_atom_site_type_symbol
_atom_site_label
_atom_site_fract_x
_atom_site_fract_y
_atom_site_fract_z
Si Si1 0.759680 0.019854 0.018377
Si Si2 0.075707 0.598814 0.638192
Si Si3 0.584663 0.160786 0.358245
Si Si4 0.337986 0.451969 0.350108
Si Si5 0.047425 0.120022 0.327722
Si Si6 0.855433 0.260485 0.724971
Si Si7 0.721189 0.691780 0.297332
O O1 0.889261 0.069981 0.677245
O O2 0.530645 0.077266 0.329675
O O3 0.289510 0.061394 0.031292
O O4 0.000000 0.000000 0.000000
O O5 0.232632 0.517875 0.605506
O O6 0.254444 0.666498 0.364496
O O7 0.907397 0.575042 0.572137
O O8 0.865789 0.641952 0.982694
O O9 0.858385 0.141979 0.263856
O O10 0.416051 0.221459 0.652852
O O11 0.634740 0.213676 0.064276
O O12 0.457989 0.370993 0.390899
O O13 0.500000 0.500000 0.000000
O O14 0.053901 0.200354 0.423267
O O15 0.037374 0.289468 0.755499
#
# Coordination Sequence:
#
# PCOD9095539 Si02
#       7
#     2   2   2   2   2   2   2
#     4   8  16  32  56  85 114 150 194 235 280 335
#     4  10  22  38  57  84 115 148 190 238 284 338
#     4  10  20  35  58  86 116 153 193 236 288 339
#     4  10  22  40  60  82 112 150 191 234 285 342
#     4   9  17  33  59  83 113 155 193 234 283 334
#     4  10  21  37  57  83 117 153 194 236 283 338
#     4  11  23  37  58  88 118 148 190 239 287 342
#
# _framework density 28.565863
#
# number of rings (size 3 to 8) (size 9 to 14) (size 15 to 20)
#    0.000    2.286    0.000    2.143    0.000    7.429 
#    0.000    0.714    0.000   35.143    0.000    0.000 
#    0.000    0.000    0.000    0.000    0.000    0.000 
#
# Total GULP energy -78346.214234 kJ/mol
# GULP energy per Si atom -5596.158160 kJ/mol
# Density = 2.850085 g / cm^3
# Si number density = 28.565863 Si / 1000 Ang^3
#
#
#
# Elastic Constant Matrix: (Units=GPa)
#
#
# Indices 1 2 3 4 5 6 
#
# 1 67.7518 44.6486 9.8676 7.7082 -2.0087 -0.2321
# 2 44.6486 248.9636 69.2651 55.9963 10.9967 -8.7841
# 3 9.8676 69.2651 132.0997 41.7372 9.2641 0.6488
# 4 7.7082 55.9963 41.7372 82.2291 1.9755 9.1762
# 5 -2.0087 10.9967 9.2641 1.9755 27.5132 5.3788
# 6 -0.2321 -8.7841 0.6488 9.1762 5.3788 39.2169
#
#
#
# Elastic Compliance Matrix: (Units=1/GPa)
#
#
# Indices 1 2 3 4 5 6 
#
# 1 0.016982 -0.003404 0.000093 0.000749 0.002753 -0.001216
# 2 -0.003404 0.005997 -0.001768 -0.003079 -0.002296 0.002388
# 3 0.000093 -0.001768 0.009870 -0.003831 -0.002467 0.000676
# 4 0.000749 -0.003079 -0.003831 0.016615 0.002326 -0.004828
# 5 0.002753 -0.002296 -0.002467 0.002326 0.039380 -0.006403
# 6 -0.001216 0.002388 0.000676 -0.004828 -0.006403 0.028024
#
#
# Mechanical properties :
#
#
# Convention : Reuss Voigt Hill
#
# Bulk Modulus (GPa) = 44.07273 77.37530 60.72401
# Shear Modulus (GPa) = 37.14965 51.46076 44.30520
#
# Velocity S-wave (km/s) = 3.61014 4.24899 3.94253
# Velocity P-wave (km/s) = 5.73057 7.15662 6.48293
#
# Compressibility (1/GPa) = 0.02268977
#
# Stress axis : x y z
#
# Youngs Moduli (GPa) = 58.88614 166.74390 101.31445
#
# Poissons Ratio (x) = 0.56764 -0.00940
# Poissons Ratio (y) = 0.20046 0.17916
# Poissons Ratio (z) = -0.00546 0.29486
#
# Static dielectric constant tensor:
#      x y z
#    x 2.198800 -0.017630 -0.002700 
#    y -0.017630 2.258550 0.007690 
#    z -0.002700 0.007690 2.337200 
# 
# From -- ./inp_files/44479.got.cif
#   From: 2010.05.17/outbox.cif.g08.bks.cpg/sg2_23_cif.got.tgz:44479.got - 2010.06.03 11:33:40.
