data_PCOD9095487
_publ_section_title
;
Structure prediction by ZEFSAII (Michael W. Deem and Ramdas Pophale) SiO2 
 PCOD9095487
Probable space group: P -1
;
_chemical_formula_sum "Si O2"
_cell_formula_units_Z 16
_cell_length_a 6.667720
_cell_length_b 17.914629
_cell_length_c 5.650734
_cell_angle_alpha 81.678931
_cell_angle_beta 101.468861
_cell_angle_gamma 108.640997
_cell_volume 624.400120
_symmetry_space_group_name_H-M "P -1"
_symmetry_group_IT_number 2
_symmetry_cell_setting 'triclinic'
loop_
_space_group_symop_operation_xyz
x,y,z
-x,-y,-z
loop_
_atom_site_type_symbol
_atom_site_label
_atom_site_fract_x
_atom_site_fract_y
_atom_site_fract_z
Si Si1 0.185511 0.499832 0.295228
Si Si2 0.831698 0.867769 0.901959
Si Si3 0.286927 0.092188 0.705962
Si Si4 0.821481 0.075805 0.393043
Si Si5 0.110432 0.288818 0.869743
Si Si6 0.571590 0.192886 0.457292
Si Si7 0.250035 0.465563 0.825464
Si Si8 0.082145 0.685080 0.685792
O O1 0.308028 0.511819 0.569122
O O2 0.013350 0.548350 0.225231
O O3 0.035181 0.408320 0.303640
O O4 0.315375 0.507373 0.076279
O O5 0.738896 0.923554 0.010475
O O6 0.800731 0.784925 0.063721
O O7 0.678493 0.843985 0.649766
O O8 0.069301 0.901397 0.848493
O O9 0.512915 0.167079 0.724048
O O10 0.031271 0.085836 0.603748
O O11 0.314089 0.015402 0.614189
O O12 0.704970 0.139032 0.408479
O O13 0.997872 0.283088 0.589761
O O14 0.270734 0.377917 0.865923
O O15 0.978641 0.286262 0.087252
O O16 0.665708 0.279815 0.330524
#
# Coordination Sequence:
#
# PCOD9095487 Si02
#       8
#     2   2   2   2   2   2   2   2
#     4   8  14  26  47  78 109 140 190 233 275 331
#     4  11  23  36  57  84 113 151 193 239 291 348
#     4  10  23  38  60  82 110 150 192 242 292 349
#     4  10  21  42  58  80 112 147 193 243 292 347
#     4  10  20  35  58  82 116 156 191 235 291 340
#     4  11  23  36  57  85 115 150 193 239 291 348
#     4   8  14  26  47  78 108 142 188 235 273 331
#     4  10  20  35  58  83 115 157 189 237 291 340
#
# _framework density 25.624594999999999
#
# number of rings (size 3 to 8) (size 9 to 14) (size 15 to 20)
#    0.000    2.250    1.250    1.500    3.500    1.500 
#    0.000    0.000    0.000    0.750    0.000    0.875 
#    0.000    0.000    0.000    0.000    0.000    0.000 
#
# Total GULP energy -89134.810246 kJ/mol
# GULP energy per Si atom -5570.925640 kJ/mol
# Density = 2.556627 g / cm^3
# Si number density = 25.624595 Si / 1000 Ang^3
#
#
#
# Elastic Constant Matrix: (Units=GPa)
#
#
# Indices 1 2 3 4 5 6 
#
# 1 46.7261 21.0655 27.4174 -1.3437 -30.4529 14.1288
# 2 21.0655 99.4967 5.7621 -9.4628 -4.9503 5.1533
# 3 27.4174 5.7621 92.6638 2.8705 -32.2858 -5.9162
# 4 -1.3437 -9.4628 2.8705 32.1971 -5.0015 -2.3994
# 5 -30.4529 -4.9503 -32.2858 -5.0015 41.5641 -6.7309
# 6 14.1288 5.1533 -5.9162 -2.3994 -6.7309 34.8514
#
#
#
# Elastic Compliance Matrix: (Units=1/GPa)
#
#
# Indices 1 2 3 4 5 6 
#
# 1 0.054271 -0.008376 -0.005196 0.004244 0.032808 -0.015017
# 2 -0.008376 0.011790 0.000355 0.002551 -0.003968 0.001122
# 3 -0.005196 0.000355 0.016198 0.000497 0.009972 0.006764
# 4 0.004244 0.002551 0.000497 0.033339 0.008110 0.001848
# 5 0.032808 -0.003968 0.009972 0.008110 0.056416 0.000433
# 6 -0.015017 0.001122 0.006764 0.001848 0.000433 0.035974
#
#
# Mechanical properties :
#
#
# Convention : Reuss Voigt Hill
#
# Bulk Modulus (GPa) = 17.91279 38.59740 28.25509
# Shear Modulus (GPa) = 19.76037 34.03196 26.89617
#
# Velocity S-wave (km/s) = 2.77997 3.64826 3.24330
# Velocity P-wave (km/s) = 4.16052 5.73077 5.00758
#
# Compressibility (1/GPa) = 0.05582605
#
# Stress axis : x y z
#
# Youngs Moduli (GPa) = 18.42603 84.81444 61.73536
#
# Poissons Ratio (x) = 0.71038 0.32080
# Poissons Ratio (y) = 0.15433 -0.02193
# Poissons Ratio (z) = 0.09575 -0.03012
#
# Static dielectric constant tensor:
#      x y z
#    x 2.087370 0.085520 -0.050680 
#    y 0.085520 2.050540 -0.042800 
#    z -0.050680 -0.042800 2.557840 
# 
# From -- ./inp_files/10562.got.cif
#   From: 2010.05.17/outbox.cif.g08.bks.cpg/sg2_6_cif.got.tgz:10562.got - 2010.06.03 11:33:40.
