data_PCOD9095567
_publ_section_title
;
Structure prediction by ZEFSAII (Michael W. Deem and Ramdas Pophale) SiO2 
 PCOD9095567
Probable space group: P -1
;
_chemical_formula_sum "Si O2"
_cell_formula_units_Z 16
_cell_length_a 14.614516
_cell_length_b 18.978438
_cell_length_c 15.602641
_cell_angle_alpha 22.464172
_cell_angle_beta 37.568589
_cell_angle_gamma 26.141133
_cell_volume 710.760456
_symmetry_space_group_name_H-M "P -1"
_symmetry_group_IT_number 2
_symmetry_cell_setting 'triclinic'
loop_
_space_group_symop_operation_xyz
x,y,z
-x,-y,-z
loop_
_atom_site_type_symbol
_atom_site_label
_atom_site_fract_x
_atom_site_fract_y
_atom_site_fract_z
Si Si1 0.826286 0.464366 0.094420
Si Si2 0.636541 0.992941 0.225155
Si Si3 0.323886 0.988047 0.009553
Si Si4 0.076777 0.769490 0.879054
Si Si5 0.144596 0.767740 0.361222
Si Si6 0.782938 0.602261 0.153685
Si Si7 0.379781 0.359123 0.260509
Si Si8 0.762562 0.138486 0.117468
O O1 0.609775 0.758608 0.897580
O O2 0.850131 0.279221 0.217309
O O3 0.028736 0.417593 0.977350
O O4 0.816390 0.434124 0.236151
O O5 0.712262 0.099355 0.106223
O O6 0.663320 0.792359 0.489813
O O7 0.749196 0.869024 0.188532
O O8 0.329724 0.760996 0.237573
O O9 0.543555 0.878203 0.002843
O O10 0.143581 0.149049 0.034217
O O11 0.244670 0.515060 0.099404
O O12 0.027289 0.003267 0.699741
O O13 0.212048 0.512565 0.632495
O O14 0.009604 0.894743 0.231994
O O15 0.619727 0.154162 0.276651
O O16 0.317383 0.582685 0.118955
#
# Coordination Sequence:
#
# PCOD9095567 Si02
#       8
#     2   2   2   2   2   2   2   2
#     4  10  21  36  58  90 106 146 199 235 283 348
#     4  11  21  37  63  85 119 153 190 234 294 333
#     4   9  22  39  55  83 117 152 190 237 276 352
#     4   9  20  37  53  83 117 141 191 229 284 342
#     4   9  20  37  56  82 113 149 190 228 290 339
#     4  10  20  37  62  78 113 149 192 243 281 337
#     4  10  20  35  58  88 119 151 187 238 287 338
#     4  10  20  35  60  90 116 149 191 240 279 352
#
# _framework density 22.511101
#
# number of rings (size 3 to 8) (size 9 to 14) (size 15 to 20)
#    0.750    1.500    1.250    1.500    1.750    2.000 
#    0.000    1.250    8.250    0.000    0.000    0.000 
#    0.000    0.000    0.000    0.000    0.000    0.000 
#
# Total GULP energy -89200.781859 kJ/mol
# GULP energy per Si atom -5575.048866 kJ/mol
# Density = 2.245986 g / cm^3
# Si number density = 22.511101 Si / 1000 Ang^3
#
#
#
# Elastic Constant Matrix: (Units=GPa)
#
#
# Indices 1 2 3 4 5 6 
#
# 1 79.2226 27.1217 10.3363 -11.1471 13.8775 -8.7848
# 2 27.1217 46.2444 -0.3601 3.7033 5.1642 0.4256
# 3 10.3363 -0.3601 46.9015 8.0057 9.6592 -4.4216
# 4 -11.1471 3.7033 8.0057 14.1773 -1.0118 -2.7609
# 5 13.8775 5.1642 9.6592 -1.0118 18.2388 -2.6280
# 6 -8.7848 0.4256 -4.4216 -2.7609 -2.6280 35.1615
#
#
#
# Elastic Compliance Matrix: (Units=1/GPa)
#
#
# Indices 1 2 3 4 5 6 
#
# 1 0.026165 -0.017127 -0.008935 0.031015 -0.007527 0.007494
# 2 -0.017127 0.034613 0.009326 -0.029271 -0.004216 -0.006139
# 3 -0.008935 0.009326 0.030911 -0.028254 -0.014028 -0.001725
# 4 0.031015 -0.029271 -0.028254 0.122008 0.008549 0.014769
# 5 -0.007527 -0.004216 -0.014028 0.008549 0.069985 0.002308
# 6 0.007494 -0.006139 -0.001725 0.014769 0.002308 0.031502
#
#
# Mechanical properties :
#
#
# Convention : Reuss Voigt Hill
#
# Bulk Modulus (GPa) = 17.17718 27.39602 22.28660
# Shear Modulus (GPa) = 13.58463 22.53356 18.05909
#
# Velocity S-wave (km/s) = 2.45922 3.16729 2.83544
# Velocity P-wave (km/s) = 3.96368 5.05688 4.54328
#
# Compressibility (1/GPa) = 0.05821676
#
# Stress axis : x y z
#
# Youngs Moduli (GPa) = 38.21851 28.89087 32.35080
#
# Poissons Ratio (x) = 0.49482 0.28906
# Poissons Ratio (y) = 0.65458 -0.30171
# Poissons Ratio (z) = 0.34149 -0.26944
#
# Static dielectric constant tensor:
#      x y z
#    x 1.886910 -0.005500 -0.028430 
#    y -0.005500 1.858410 -0.021350 
#    z -0.028430 -0.021350 1.794370 
# 
# From -- ./inp_files/574299.got.cif
#   From: 2010.05.17/outbox.cif.g08.bks.cpg/sg2_288_cif.got.tgz:574299.got - 2010.06.03 11:33:40.
