data_PCOD9095949
_publ_section_title
;
Structure prediction by ZEFSAII (Michael W. Deem and Ramdas Pophale) SiO2 
 PCOD9095949
Probable space group: P -1
;
_chemical_formula_sum "Si O2"
_cell_formula_units_Z 16
_cell_length_a 10.943471
_cell_length_b 15.876363
_cell_length_c 8.668483
_cell_angle_alpha 125.453266
_cell_angle_beta 106.085582
_cell_angle_gamma 32.739062
_cell_volume 582.584722
_symmetry_space_group_name_H-M "P -1"
_symmetry_group_IT_number 2
_symmetry_cell_setting 'triclinic'
loop_
_space_group_symop_operation_xyz
x,y,z
-x,-y,-z
loop_
_atom_site_type_symbol
_atom_site_label
_atom_site_fract_x
_atom_site_fract_y
_atom_site_fract_z
Si Si1 0.306670 0.522719 0.903796
Si Si2 0.845708 0.014656 0.311712
Si Si3 0.414370 0.949976 0.540480
Si Si4 0.707231 0.400315 0.352968
Si Si5 0.552509 0.146662 0.062942
Si Si6 0.820750 0.809344 0.602960
Si Si7 0.240417 0.828816 0.073460
Si Si8 0.919074 0.630734 0.970587
O O1 0.397399 0.473909 0.707217
O O2 0.522554 0.375943 0.953873
O O3 0.159556 0.518651 0.863886
O O4 0.085516 0.764259 0.119334
O O5 0.695278 0.083440 0.483788
O O6 0.994210 0.012096 0.298753
O O7 0.638395 0.134854 0.237560
O O8 0.331577 0.026388 0.416262
O O9 0.708139 0.774475 0.498648
O O10 0.255264 0.152090 0.790980
O O11 0.500000 0.500000 0.500000
O O12 0.889853 0.351061 0.457612
O O13 0.838205 0.204943 0.115010
O O14 0.635037 0.166962 0.977642
O O15 0.718218 0.926079 0.853510
O O16 0.262479 0.312812 0.135766
O O17 0.000000 0.500000 0.000000
#
# Coordination Sequence:
#
# PCOD9095949 Si02
#       8
#     2   2   2   2   2   2   2   2
#     4  10  21  38  59  88 117 153 201 238 283 353
#     4  10  20  35  61  87 111 152 198 239 282 345
#     4   9  22  37  61  81 119 150 195 242 289 340
#     4  11  24  36  62  85 119 155 198 235 292 347
#     4  11  21  37  63  86 118 151 195 242 292 340
#     4  10  21  39  56  86 113 153 193 235 292 343
#     4  11  22  39  59  87 123 150 193 242 293 345
#     4  10  20  36  63  90 112 156 196 243 292 343
#
# _framework density 27.463816000000001
#
# number of rings (size 3 to 8) (size 9 to 14) (size 15 to 20)
#    0.000    1.750    3.750    1.875    7.000    1.500 
#    0.000    1.875    0.000    1.500    0.000    0.000 
#    0.000    0.000    0.000    0.000    0.000    0.000 
#
# Total GULP energy -89534.134559 kJ/mol
# GULP energy per Si atom -5595.883410 kJ/mol
# Density = 2.740131 g / cm^3
# Si number density = 27.463816 Si / 1000 Ang^3
#
#
#
# Elastic Constant Matrix: (Units=GPa)
#
#
# Indices 1 2 3 4 5 6 
#
# 1 183.8127 56.5100 60.5223 -16.8281 -16.2896 -40.5121
# 2 56.5100 134.5014 22.9380 -17.3054 0.1449 -44.2645
# 3 60.5223 22.9380 78.9276 -4.3197 -5.1837 -20.2515
# 4 -16.8281 -17.3054 -4.3197 38.2477 -5.8811 7.0761
# 5 -16.2896 0.1449 -5.1837 -5.8811 68.0968 0.4488
# 6 -40.5121 -44.2645 -20.2515 7.0761 0.4488 64.0177
#
#
#
# Elastic Compliance Matrix: (Units=1/GPa)
#
#
# Indices 1 2 3 4 5 6 
#
# 1 0.008559 -0.001633 -0.005236 0.002280 0.001834 0.002366
# 2 -0.001633 0.010430 -0.000143 0.002875 -0.000214 0.005817
# 3 -0.005236 -0.000143 0.017226 -0.000821 -0.000026 0.002128
# 4 0.002280 0.002875 -0.000821 0.028819 0.002966 -0.000035
# 5 0.001834 -0.000214 -0.000026 0.002966 0.015374 0.000569
# 6 0.002366 0.005817 0.002128 -0.000035 0.000569 0.021813
#
#
# Mechanical properties :
#
#
# Convention : Reuss Voigt Hill
#
# Bulk Modulus (GPa) = 45.06564 75.24248 60.15406
# Shear Modulus (GPa) = 40.43897 51.22387 45.83142
#
# Velocity S-wave (km/s) = 3.84141 4.32341 4.08952
# Velocity P-wave (km/s) = 6.00999 7.23733 6.65203
#
# Compressibility (1/GPa) = 0.02218985
#
# Stress axis : x y z
#
# Youngs Moduli (GPa) = 116.83345 95.87897 58.05181
#
# Poissons Ratio (x) = 0.15658 0.30398
# Poissons Ratio (y) = 0.19080 0.00831
# Poissons Ratio (z) = 0.61178 0.01372
#
# Static dielectric constant tensor:
#      x y z
#    x 2.212980 0.061550 0.027510 
#    y 0.061550 2.187090 0.099540 
#    z 0.027510 0.099540 2.192310 
# 
# From -- ./inp_files/279633.got.cif
#   From: 2010.05.17/outbox.cif.g08.bks.cpg/sg2_140_cif.got.tgz:279633.got - 2010.06.03 11:33:40.
