data_PCOD9095478
_publ_section_title
;
Structure prediction by ZEFSAII (Michael W. Deem and Ramdas Pophale) SiO2 
 PCOD9095478
Probable space group: P -1
;
_chemical_formula_sum "Si O2"
_cell_formula_units_Z 16
_cell_length_a 5.735558
_cell_length_b 8.401081
_cell_length_c 16.882907
_cell_angle_alpha 88.581209
_cell_angle_beta 121.477338
_cell_angle_gamma 79.756863
_cell_volume 675.996519
_symmetry_space_group_name_H-M "P -1"
_symmetry_group_IT_number 2
_symmetry_cell_setting 'triclinic'
loop_
_space_group_symop_operation_xyz
x,y,z
-x,-y,-z
loop_
_atom_site_type_symbol
_atom_site_label
_atom_site_fract_x
_atom_site_fract_y
_atom_site_fract_z
Si Si1 0.845996 0.467542 0.554296
Si Si2 0.172320 0.921532 0.201123
Si Si3 0.955232 0.744112 0.034830
Si Si4 0.727122 0.794897 0.590698
Si Si5 0.775059 0.150325 0.614755
Si Si6 0.619569 0.197165 0.134468
Si Si7 0.119461 0.569017 0.901541
Si Si8 0.556797 0.792582 0.730912
O O1 0.500000 0.500000 0.500000
O O2 0.911486 0.611241 0.619818
O O3 0.929825 0.277231 0.597447
O O4 0.000000 0.500000 0.500000
O O5 0.213953 0.816227 0.290110
O O6 0.153430 0.836622 0.115814
O O7 0.406371 0.025800 0.244948
O O8 0.879495 0.055472 0.157359
O O9 0.883638 0.618165 0.088338
O O10 0.664132 0.847627 0.946547
O O11 0.089711 0.646686 0.983061
O O12 0.538529 0.819034 0.477660
O O13 0.521606 0.793863 0.630369
O O14 0.863811 0.952916 0.620442
O O15 0.628037 0.369653 0.093718
O O16 0.628437 0.236197 0.228243
O O17 0.848339 0.662725 0.802431
#
# Coordination Sequence:
#
# PCOD9095478 Si02
#       8
#     2   2   2   2   2   2   2   2
#     4  10  22  43  66  97 129 170 223 269 323 390
#     4  10  21  37  56  86 116 152 200 251 303 369
#     4  10  20  35  58  81 116 153 191 253 306 368
#     4   9  19  41  67  86 128 171 203 266 321 374
#     4   9  20  41  61  94 124 165 216 258 317 390
#     4  10  20  37  56  83 115 148 202 246 302 376
#     4   9  20  36  57  83 112 154 198 242 306 375
#     4   9  20  38  57  85 116 153 201 243 305 370
#
# _framework density 23.668762999999998
#
# number of rings (size 3 to 8) (size 9 to 14) (size 15 to 20)
#    0.000    2.500    0.000    0.750    1.750    6.000 
#   24.750    0.000    0.000    0.000    0.000    0.000 
#    0.000    0.000    0.000    0.000    0.000    0.000 
#
# Total GULP energy -89170.946797 kJ/mol
# GULP energy per Si atom -5573.184175 kJ/mol
# Density = 2.361489 g / cm^3
# Si number density = 23.668763 Si / 1000 Ang^3
#
#
#
# Elastic Constant Matrix: (Units=GPa)
#
#
# Indices 1 2 3 4 5 6 
#
# 1 53.5889 19.2903 24.7419 -4.9186 -23.7725 19.7178
# 2 19.2903 86.3869 28.3284 1.7161 -16.3070 24.8986
# 3 24.7419 28.3284 111.4734 -1.3028 -8.4379 8.4510
# 4 -4.9186 1.7161 -1.3028 38.7222 3.8325 -8.5085
# 5 -23.7725 -16.3070 -8.4379 3.8325 40.8916 -12.2342
# 6 19.7178 24.8986 8.4510 -8.5085 -12.2342 29.5448
#
#
#
# Elastic Compliance Matrix: (Units=1/GPa)
#
#
# Indices 1 2 3 4 5 6 
#
# 1 0.032490 0.001832 -0.005414 -0.001078 0.013724 -0.016306
# 2 0.001832 0.017206 -0.003477 -0.004173 0.003235 -0.014590
# 3 -0.005414 -0.003477 0.010721 0.000644 -0.001469 0.003054
# 4 -0.001078 -0.004173 0.000644 0.028606 -0.001326 0.011741
# 5 0.013724 0.003235 -0.001469 -0.001326 0.034242 0.002332
# 6 -0.016306 -0.014590 0.003054 0.011741 0.002332 0.060499
#
#
# Mechanical properties :
#
#
# Convention : Reuss Voigt Hill
#
# Bulk Modulus (GPa) = 21.59913 44.01894 32.80904
# Shear Modulus (GPa) = 23.43965 33.77094 28.60529
#
# Velocity S-wave (km/s) = 3.15035 3.78142 3.48022
# Velocity P-wave (km/s) = 4.73057 6.14034 5.48097
#
# Compressibility (1/GPa) = 0.04629816
#
# Stress axis : x y z
#
# Youngs Moduli (GPa) = 30.77907 58.12043 93.27587
#
# Poissons Ratio (x) = -0.10649 0.50503
# Poissons Ratio (y) = -0.05640 0.32431
# Poissons Ratio (z) = 0.16665 0.20208
#
# Static dielectric constant tensor:
#      x y z
#    x 1.993340 0.015060 0.015240 
#    y 0.015060 1.963150 -0.047990 
#    z 0.015240 -0.047990 1.924840 
# 
# From -- ./inp_files/140614.got.cif
#   From: 2010.05.17/outbox.cif.g08.bks.cpg/sg2_71_cif.got.tgz:140614.got - 2010.06.03 11:33:40.
