data_PCOD9095780
_publ_section_title
;
Structure prediction by ZEFSAII (Michael W. Deem and Ramdas Pophale) SiO2 
 PCOD9095780
Probable space group: P -1
;
_chemical_formula_sum "Si O2"
_cell_formula_units_Z 16
_cell_length_a 15.048455
_cell_length_b 7.075091
_cell_length_c 11.724458
_cell_angle_alpha 111.836569
_cell_angle_beta 125.858462
_cell_angle_gamma 108.485495
_cell_volume 660.301168
_symmetry_space_group_name_H-M "P -1"
_symmetry_group_IT_number 2
_symmetry_cell_setting 'triclinic'
loop_
_space_group_symop_operation_xyz
x,y,z
-x,-y,-z
loop_
_atom_site_type_symbol
_atom_site_label
_atom_site_fract_x
_atom_site_fract_y
_atom_site_fract_z
Si Si1 0.115016 0.064473 0.507283
Si Si2 0.942976 0.468197 0.577819
Si Si3 0.400409 0.913189 0.743516
Si Si4 0.497937 0.789728 0.599428
Si Si5 0.434330 0.309632 0.588511
Si Si6 0.472310 0.637408 0.885821
Si Si7 0.866957 0.213060 0.993341
Si Si8 0.923314 0.143262 0.791520
O O1 0.289826 0.376541 0.719882
O O2 0.105456 0.812414 0.468284
O O3 0.059091 0.012936 0.322448
O O4 0.000000 0.000000 0.500000
O O5 0.780204 0.370267 0.435420
O O6 0.000000 0.500000 0.500000
O O7 0.069700 0.726571 0.817721
O O8 0.442399 0.925096 0.646535
O O9 0.496005 0.864408 0.871718
O O10 0.439007 0.178707 0.892131
O O11 0.418772 0.497325 0.541958
O O12 0.472801 0.720623 0.430478
O O13 0.682335 0.001103 0.805069
O O14 0.510886 0.493825 0.803644
O O15 0.253839 0.009607 0.401909
O O16 0.946540 0.520715 0.069259
O O17 0.919888 0.112958 0.918466
#
# Coordination Sequence:
#
# PCOD9095780 Si02
#       8
#     2   2   2   2   2   2   2   2
#     4  10  20  35  60  83 113 151 192 234 282 346
#     4  11  24  36  55  85 122 148 184 242 294 333
#     4  10  21  34  56  86 114 146 191 241 282 339
#     4   9  17  30  57  81 104 144 195 230 271 342
#     4   8  15  30  52  81 105 138 190 233 270 327
#     4   9  19  34  59  79 111 154 195 226 279 349
#     4   9  18  33  57  80 107 147 192 229 275 343
#     4   8  16  32  55  81 104 144 193 227 272 337
#
# _framework density 24.231369000000001
#
# number of rings (size 3 to 8) (size 9 to 14) (size 15 to 20)
#    0.000    2.750    0.000    0.750    8.750    0.500 
#    0.000    0.000    2.750   51.750    0.000    0.000 
#    0.000    0.000    0.000    0.000    0.000    0.000 
#
# Total GULP energy -89310.468239 kJ/mol
# GULP energy per Si atom -5581.904265 kJ/mol
# Density = 2.417622 g / cm^3
# Si number density = 24.231369 Si / 1000 Ang^3
#
#
#
# Elastic Constant Matrix: (Units=GPa)
#
#
# Indices 1 2 3 4 5 6 
#
# 1 175.5082 18.3382 72.2816 -15.1001 -53.6476 44.1008
# 2 18.3382 74.9872 25.0259 0.1639 -3.5351 14.5003
# 3 72.2816 25.0259 128.5102 7.1452 -37.8063 18.0677
# 4 -15.1001 0.1639 7.1452 40.6744 12.9509 -5.0072
# 5 -53.6476 -3.5351 -37.8063 12.9509 50.1063 -7.5927
# 6 44.1008 14.5003 18.0677 -5.0072 -7.5927 46.0723
#
#
#
# Elastic Compliance Matrix: (Units=1/GPa)
#
#
# Indices 1 2 3 4 5 6 
#
# 1 0.011899 0.000169 -0.002917 0.001000 0.008973 -0.008712
# 2 0.000169 0.014975 -0.003025 0.000625 -0.001800 -0.003917
# 3 -0.002917 -0.003025 0.012659 -0.005795 0.007623 -0.000594
# 4 0.001000 0.000625 -0.005795 0.029644 -0.010525 0.002606
# 5 0.008973 -0.001800 0.007623 -0.010525 0.036992 -0.006060
# 6 -0.008712 -0.003917 -0.000594 0.002606 -0.006060 0.030795
#
#
# Mechanical properties :
#
#
# Convention : Reuss Voigt Hill
#
# Bulk Modulus (GPa) = 35.72873 67.81078 51.76976
# Shear Modulus (GPa) = 31.67788 44.92793 38.30290
#
# Velocity S-wave (km/s) = 3.61959 4.31062 3.98013
# Velocity P-wave (km/s) = 5.67851 7.26779 6.52174
#
# Compressibility (1/GPa) = 0.02798868
#
# Stress axis : x y z
#
# Youngs Moduli (GPa) = 84.03995 66.77784 78.99207
#
# Poissons Ratio (x) = -0.01128 0.23040
# Poissons Ratio (y) = -0.01420 0.23893
# Poissons Ratio (z) = 0.24512 0.20198
#
# Static dielectric constant tensor:
#      x y z
#    x 1.987590 -0.020580 -0.103440 
#    y -0.020580 1.985050 -0.042510 
#    z -0.103440 -0.042510 1.934510 
# 
# From -- ./inp_files/263024.got.cif
#   From: 2010.05.17/outbox.cif.g08.bks.cpg/sg2_132_cif.got.tgz:263024.got - 2010.06.03 11:33:40.
