data_PCOD9095678
_publ_section_title
;
Structure prediction by ZEFSAII (Michael W. Deem and Ramdas Pophale) SiO2 
 PCOD9095678
Probable space group: P -1
;
_chemical_formula_sum "Si O2"
_cell_formula_units_Z 16
_cell_length_a 9.854880
_cell_length_b 5.178405
_cell_length_c 24.115337
_cell_angle_alpha 111.870031
_cell_angle_beta 131.413252
_cell_angle_gamma 92.141738
_cell_volume 782.094030
_symmetry_space_group_name_H-M "P -1"
_symmetry_group_IT_number 2
_symmetry_cell_setting 'triclinic'
loop_
_space_group_symop_operation_xyz
x,y,z
-x,-y,-z
loop_
_atom_site_type_symbol
_atom_site_label
_atom_site_fract_x
_atom_site_fract_y
_atom_site_fract_z
Si Si1 0.722688 0.068523 0.584057
Si Si2 0.411367 0.318585 0.206070
Si Si3 0.913267 0.796909 0.699442
Si Si4 0.229213 0.820610 0.703235
Si Si5 0.420025 0.069246 0.658582
Si Si6 0.093063 0.836038 0.470695
Si Si7 0.844579 0.113511 0.807467
Si Si8 0.080682 0.360870 0.060551
O O1 0.832783 0.431596 0.655583
O O2 0.830389 0.002927 0.554219
O O3 0.500000 0.000000 0.500000
O O4 0.754116 0.874884 0.627032
O O5 0.575224 0.205452 0.221264
O O6 0.523653 0.571390 0.303815
O O7 0.316010 0.448505 0.142372
O O8 0.226939 0.069170 0.168808
O O9 0.112117 0.921669 0.725599
O O10 0.944458 0.966235 0.780185
O O11 0.066941 0.495173 0.613212
O O12 0.305816 0.001136 0.681119
O O13 0.632248 0.060541 0.719583
O O14 0.284928 0.853824 0.557805
O O15 0.000000 0.000000 0.500000
O O16 0.961876 0.469029 0.883499
O O17 0.000000 0.500000 0.000000
O O18 0.000000 0.000000 0.000000
#
# Coordination Sequence:
#
# PCOD9095678 Si02
#       8
#     2   2   2   2   2   2   2   2
#     4  11  25  39  55  83 123 172 218 266 310 346
#     4  10  21  39  63  97 120 162 199 254 314 362
#     4  11  25  40  60  86 127 167 211 252 312 377
#     4  10  22  38  57  89 125 170 213 256 310 359
#     4  10  20  35  59  86 122 162 221 259 303 346
#     4  11  20  34  56  82 120 167 219 265 297 344
#     4  10  23  39  65  94 123 161 203 253 311 371
#     4  11  22  41  69 101 124 149 195 257 314 379
#
# _framework density 20.457899000000001
#
# number of rings (size 3 to 8) (size 9 to 14) (size 15 to 20)
#    0.000    1.500    2.500    2.250    7.000    2.000 
#    0.000    0.000    0.000    1.500    0.000    0.000 
#    0.000    0.000    0.000    0.000    0.000    0.000 
#
# Total GULP energy -89211.139770 kJ/mol
# GULP energy per Si atom -5575.696236 kJ/mol
# Density = 2.041134 g / cm^3
# Si number density = 20.457899 Si / 1000 Ang^3
#
#
#
# Elastic Constant Matrix: (Units=GPa)
#
#
# Indices 1 2 3 4 5 6 
#
# 1 109.8144 13.0861 41.8027 10.0464 -25.4752 -10.7342
# 2 13.0861 59.8135 24.8205 2.0145 0.0338 -14.9120
# 3 41.8027 24.8205 107.2578 -2.7299 -9.8448 -8.1588
# 4 10.0464 2.0145 -2.7299 34.6123 -11.5988 8.5776
# 5 -25.4752 0.0338 -9.8448 -11.5988 20.3185 3.4391
# 6 -10.7342 -14.9120 -8.1588 8.5776 3.4391 21.3600
#
#
#
# Elastic Compliance Matrix: (Units=1/GPa)
#
#
# Indices 1 2 3 4 5 6 
#
# 1 0.014669 -0.001076 -0.003772 0.000416 0.016403 0.002372
# 2 -0.001076 0.025069 -0.005338 -0.011881 -0.014488 0.022025
# 3 -0.003772 -0.005338 0.012299 0.004804 0.004589 -0.003592
# 4 0.000416 -0.011881 0.004804 0.050295 0.037067 -0.032415
# 5 0.016403 -0.014488 0.004589 0.037067 0.098410 -0.030848
# 6 0.002372 0.022025 -0.003592 -0.032415 -0.030848 0.079996
#
#
# Mechanical properties :
#
#
# Convention : Reuss Voigt Hill
#
# Bulk Modulus (GPa) = 31.58151 48.47826 40.02988
# Shear Modulus (GPa) = 16.04285 28.40325 22.22305
#
# Velocity S-wave (km/s) = 2.80337 3.73013 3.29945
# Velocity P-wave (km/s) = 5.09405 6.50384 5.84163
#
# Compressibility (1/GPa) = 0.03166410
#
# Stress axis : x y z
#
# Youngs Moduli (GPa) = 68.17027 39.89049 81.30819
#
# Poissons Ratio (x) = 0.04293 0.30666
# Poissons Ratio (y) = 0.07337 0.43406
# Poissons Ratio (z) = 0.25711 0.21295
#
# Static dielectric constant tensor:
#      x y z
#    x 1.755610 -0.014920 0.017310 
#    y -0.014920 1.846040 -0.017410 
#    z 0.017310 -0.017410 1.773620 
# 
# From -- ./inp_files/108864.got.cif
#   From: 2010.05.17/outbox.cif.g08.bks.cpg/sg2_55_cif.got.tgz:108864.got - 2010.06.03 11:33:40.
