data_PCOD9095788
_publ_section_title
;
Structure prediction by ZEFSAII (Michael W. Deem and Ramdas Pophale) SiO2 
 PCOD9095788
Probable space group: P -1
;
_chemical_formula_sum "Si O2"
_cell_formula_units_Z 16
_cell_length_a 11.378577
_cell_length_b 16.069226
_cell_length_c 11.296882
_cell_angle_alpha 78.249471
_cell_angle_beta 155.123876
_cell_angle_gamma 102.880759
_cell_volume 847.031353
_symmetry_space_group_name_H-M "P -1"
_symmetry_group_IT_number 2
_symmetry_cell_setting 'triclinic'
loop_
_space_group_symop_operation_xyz
x,y,z
-x,-y,-z
loop_
_atom_site_type_symbol
_atom_site_label
_atom_site_fract_x
_atom_site_fract_y
_atom_site_fract_z
Si Si1 0.095683 0.463364 0.721716
Si Si2 0.933197 0.726104 0.203897
Si Si3 0.517011 0.198927 0.895202
Si Si4 0.084408 0.905023 0.602860
Si Si5 0.124398 0.344334 0.085401
Si Si6 0.410554 0.796602 0.784067
Si Si7 0.481298 0.500721 0.709946
Si Si8 0.470262 0.666782 0.339156
O O1 0.178550 0.366627 0.818587
O O2 0.000000 0.500000 0.500000
O O3 0.813241 0.462391 0.543027
O O4 0.351073 0.514565 0.010396
O O5 0.228460 0.748471 0.530215
O O6 0.935726 0.712690 0.069863
O O7 0.728135 0.796391 0.033342
O O8 0.198320 0.158912 0.632424
O O9 0.554014 0.259729 0.800436
O O10 0.605378 0.246272 0.086764
O O11 0.717716 0.121720 0.101394
O O12 0.273985 0.883370 0.668669
O O13 0.000000 0.000000 0.500000
O O14 0.311940 0.429766 0.190711
O O15 0.310614 0.303882 0.366707
O O16 0.830220 0.361074 0.869521
O O17 0.428303 0.414811 0.611977
#
# Coordination Sequence:
#
# PCOD9095788 Si02
#       8
#     2   2   2   2   2   2   2   2
#     4  11  24  34  53  78 113 152 190 240 302 335
#     4  11  21  37  54  79 116 148 194 237 269 349
#     4  10  22  35  58  95 114 146 182 225 305 327
#     4  10  20  38  60  93 125 140 174 220 292 367
#     4  11  23  39  55  80 110 164 204 242 279 315
#     4  10  20  35  60  84 117 141 179 227 290 337
#     4  11  23  39  54  79 108 158 205 246 287 325
#     4  12  23  38  60  80 117 148 205 249 278 332
#
# _framework density 18.889503000000001
#
# number of rings (size 3 to 8) (size 9 to 14) (size 15 to 20)
#    0.750    0.500    1.250    6.750    3.500    0.000 
#    0.000    0.000    0.000    0.000    0.000   17.500 
#    0.000    0.000    0.000    0.000    0.000    0.000 
#
# Total GULP energy -89249.531260 kJ/mol
# GULP energy per Si atom -5578.095704 kJ/mol
# Density = 1.884651 g / cm^3
# Si number density = 18.889503 Si / 1000 Ang^3
#
#
#
# Elastic Constant Matrix: (Units=GPa)
#
#
# Indices 1 2 3 4 5 6 
#
# 1 62.6177 29.0644 25.5154 -12.4770 -8.6116 -3.5620
# 2 29.0644 43.3376 4.6758 -13.8266 6.5950 -7.1152
# 3 25.5154 4.6758 104.5529 -8.0632 -6.0735 1.0996
# 4 -12.4770 -13.8266 -8.0632 23.5489 -2.9461 4.6306
# 5 -8.6116 6.5950 -6.0735 -2.9461 46.9997 -5.6585
# 6 -3.5620 -7.1152 1.0996 4.6306 -5.6585 12.5880
#
#
#
# Elastic Compliance Matrix: (Units=1/GPa)
#
#
# Indices 1 2 3 4 5 6 
#
# 1 0.028465 -0.018573 -0.005445 0.003200 0.007337 0.000153
# 2 -0.018573 0.042104 0.003151 0.013061 -0.006834 0.010391
# 3 -0.005445 0.003151 0.011008 0.003099 -0.000050 -0.001884
# 4 0.003200 0.013061 0.003099 0.055362 0.001203 -0.011807
# 5 0.007337 -0.006834 -0.000050 0.001203 0.024719 0.008887
# 6 0.000153 0.010391 -0.001884 -0.011807 0.008887 0.093860
#
#
# Mechanical properties :
#
#
# Convention : Reuss Voigt Hill
#
# Bulk Modulus (GPa) = 25.09860 36.55770 30.82815
# Shear Modulus (GPa) = 16.10144 26.71084 21.40614
#
# Velocity S-wave (km/s) = 2.92276 3.76447 3.37000
# Velocity P-wave (km/s) = 4.97051 6.18793 5.61233
#
# Compressibility (1/GPa) = 0.03984285
#
# Stress axis : x y z
#
# Youngs Moduli (GPa) = 35.13147 23.75098 90.84119
#
# Poissons Ratio (x) = 0.44112 0.49459
# Poissons Ratio (y) = 0.65249 -0.28620
# Poissons Ratio (z) = 0.19127 -0.07483
#
# Static dielectric constant tensor:
#      x y z
#    x 1.684210 -0.013010 -0.012430 
#    y -0.013010 1.647930 -0.006010 
#    z -0.012430 -0.006010 1.688450 
# 
# From -- ./inp_files/436734.got.cif
#   From: 2010.05.17/outbox.cif.g08.bks.cpg/sg2_219_cif.got.tgz:436734.got - 2010.06.03 11:33:40.
