data_PCOD9095793
_publ_section_title
;
Structure prediction by ZEFSAII (Michael W. Deem and Ramdas Pophale) SiO2 
 PCOD9095793
Probable space group: P -1
;
_chemical_formula_sum "Si O2"
_cell_formula_units_Z 16
_cell_length_a 16.323005
_cell_length_b 7.775161
_cell_length_c 15.536602
_cell_angle_alpha 63.567047
_cell_angle_beta 24.150439
_cell_angle_gamma 58.663967
_cell_volume 686.617394
_symmetry_space_group_name_H-M "P -1"
_symmetry_group_IT_number 2
_symmetry_cell_setting 'triclinic'
loop_
_space_group_symop_operation_xyz
x,y,z
-x,-y,-z
loop_
_atom_site_type_symbol
_atom_site_label
_atom_site_fract_x
_atom_site_fract_y
_atom_site_fract_z
Si Si1 0.676659 0.843325 0.306570
Si Si2 0.774679 0.001306 0.892782
Si Si3 0.290349 0.808339 0.897382
Si Si4 0.520323 0.794027 0.280321
Si Si5 0.893864 0.496845 0.803991
Si Si6 0.422001 0.320085 0.072725
Si Si7 0.143603 0.165998 0.500680
Si Si8 0.710150 0.524147 0.482987
O O1 0.589252 0.776104 0.317328
O O2 0.767892 0.646487 0.320790
O O3 0.500000 0.000000 0.500000
O O4 0.800689 0.990065 0.117001
O O5 0.995730 0.029944 0.647620
O O6 0.727185 0.127522 0.000438
O O7 0.615441 0.117217 0.945508
O O8 0.710097 0.807014 0.031643
O O9 0.533675 0.691738 0.669273
O O10 0.163432 0.651597 0.039946
O O11 0.409975 0.628811 0.398869
O O12 0.341721 0.009213 0.391915
O O13 0.675159 0.624874 0.940663
O O14 0.014636 0.343805 0.646712
O O15 0.077855 0.578932 0.644008
O O16 0.234312 0.273216 0.315306
O O17 0.500000 0.500000 0.000000
#
# Coordination Sequence:
#
# PCOD9095793 Si02
#       8
#     2   2   2   2   2   2   2   2
#     4   9  18  37  62  82 110 145 189 238 279 322
#     4   9  19  36  57  84 110 151 187 242 277 322
#     4   9  19  36  57  82 112 145 193 238 279 322
#     4  10  21  37  57  83 118 151 186 221 283 344
#     4  11  22  33  59  87 111 149 189 240 281 327
#     4  11  19  32  58  92 112 138 192 244 283 321
#     4  10  20  35  60  85 114 143 193 235 282 329
#     4  11  22  36  55  82 118 154 183 229 282 343
#
# _framework density 23.302644999999998
#
# number of rings (size 3 to 8) (size 9 to 14) (size 15 to 20)
#    0.000    2.000    2.500    3.750    0.000    1.500 
#    0.000    6.250    0.000   15.750    0.000    0.000 
#    0.000    0.000    0.000    0.000    0.000    0.000 
#
# Total GULP energy -89278.333445 kJ/mol
# GULP energy per Si atom -5579.895840 kJ/mol
# Density = 2.324961 g / cm^3
# Si number density = 23.302645 Si / 1000 Ang^3
#
#
#
# Elastic Constant Matrix: (Units=GPa)
#
#
# Indices 1 2 3 4 5 6 
#
# 1 111.6196 39.9577 49.0021 -36.3746 -22.0290 6.3827
# 2 39.9577 78.3185 23.5028 -39.9297 -8.7241 9.6803
# 3 49.0021 23.5028 119.2708 -40.0486 -26.1213 1.8158
# 4 -36.3746 -39.9297 -40.0486 40.3457 5.6405 -2.9130
# 5 -22.0290 -8.7241 -26.1213 5.6405 33.1219 -7.6433
# 6 6.3827 9.6803 1.8158 -2.9130 -7.6433 27.9148
#
#
#
# Elastic Compliance Matrix: (Units=1/GPa)
#
#
# Indices 1 2 3 4 5 6 
#
# 1 0.014363 -0.001259 -0.000794 0.009957 0.006932 0.000141
# 2 -0.001259 0.030649 0.007932 0.035822 0.006136 -0.005438
# 3 -0.000794 0.007932 0.017392 0.022885 0.011824 0.001925
# 4 0.009957 0.035822 0.022885 0.089214 0.018494 -0.001814
# 5 0.006932 0.006136 0.011824 0.018494 0.044838 0.009725
# 6 0.000141 -0.005438 0.001925 -0.001814 0.009725 0.040025
#
#
# Mechanical properties :
#
#
# Convention : Reuss Voigt Hill
#
# Bulk Modulus (GPa) = 13.48365 59.34824 36.41594
# Shear Modulus (GPa) = 20.04473 33.39290 26.71882
#
# Velocity S-wave (km/s) = 2.93608 3.78962 3.38982
# Velocity P-wave (km/s) = 4.15848 6.68371 5.56619
#
# Compressibility (1/GPa) = 0.07416392
#
# Stress axis : x y z
#
# Youngs Moduli (GPa) = 69.62510 32.62742 57.49859
#
# Poissons Ratio (x) = 0.04107 0.04563
# Poissons Ratio (y) = 0.08763 -0.45610
# Poissons Ratio (z) = 0.05525 -0.25882
#
# Static dielectric constant tensor:
#      x y z
#    x 1.873420 0.028790 0.009930 
#    y 0.028790 2.001540 -0.015860 
#    z 0.009930 -0.015860 1.920990 
# 
# From -- ./inp_files/349449.got.cif
#   From: 2010.05.17/outbox.cif.g08.bks.cpg/sg2_175_cif.got.tgz:349449.got - 2010.06.03 11:33:40.
