data_PCOD9095985
_publ_section_title
;
Structure prediction by ZEFSAII (Michael W. Deem and Ramdas Pophale) SiO2 
 PCOD9095985
Probable space group: P -1
;
_chemical_formula_sum "Si O2"
_cell_formula_units_Z 16
_cell_length_a 14.561441
_cell_length_b 19.041140
_cell_length_c 10.143283
_cell_angle_alpha 151.753756
_cell_angle_beta 51.099996
_cell_angle_gamma 145.364245
_cell_volume 705.751342
_symmetry_space_group_name_H-M "P -1"
_symmetry_group_IT_number 2
_symmetry_cell_setting 'triclinic'
loop_
_space_group_symop_operation_xyz
x,y,z
-x,-y,-z
loop_
_atom_site_type_symbol
_atom_site_label
_atom_site_fract_x
_atom_site_fract_y
_atom_site_fract_z
Si Si1 0.519111 0.829593 0.062501
Si Si2 0.827452 0.178541 0.524338
Si Si3 0.765920 0.905138 0.779432
Si Si4 0.654479 0.792980 0.232522
Si Si5 0.687061 0.522446 0.114883
Si Si6 0.186856 0.623211 0.881651
Si Si7 0.902292 0.793112 0.149042
Si Si8 0.637481 0.005162 0.833110
O O1 0.381721 0.740882 0.924797
O O2 0.669541 0.072888 0.391677
O O3 0.649121 0.826139 0.880907
O O4 0.393066 0.667108 0.025971
O O5 0.832153 0.297027 0.837009
O O6 0.770148 0.974768 0.313640
O O7 0.020692 0.362749 0.594811
O O8 0.768916 0.732039 0.468734
O O9 0.679890 0.922864 0.769317
O O10 0.965073 0.139091 0.969465
O O11 0.758036 0.760165 0.156453
O O12 0.597610 0.871132 0.515581
O O13 0.482699 0.569525 0.954726
O O14 0.817520 0.598914 0.006591
O O15 0.198830 0.744863 0.948132
O O16 0.000000 0.000000 0.500000
O O17 0.500000 0.000000 0.000000
#
# Coordination Sequence:
#
# PCOD9095985 Si02
#       8
#     2   2   2   2   2   2   2   2
#     4  11  22  41  62  94 129 158 206 261 318 368
#     4   9  22  39  62  95 118 164 216 251 304 379
#     4  11  23  40  61  93 131 156 204 258 317 367
#     4  10  20  40  65  89 122 157 216 252 302 379
#     4  10  22  39  65  93 116 168 206 252 313 373
#     4  10  21  39  67  83 125 171 206 255 305 370
#     4  10  20  35  61  90 121 161 201 250 299 374
#     4  11  21  39  61  89 122 166 203 254 313 363
#
# _framework density 22.670874999999999
#
# number of rings (size 3 to 8) (size 9 to 14) (size 15 to 20)
#    0.000    1.750    3.750    1.125    3.500    1.000 
#    4.500    1.875    0.000    0.000    0.000    0.000 
#    0.000    0.000    0.000    0.000    0.000    0.000 
#
# Total GULP energy -89102.557434 kJ/mol
# GULP energy per Si atom -5568.909840 kJ/mol
# Density = 2.261927 g / cm^3
# Si number density = 22.670875 Si / 1000 Ang^3
#
#
#
# Elastic Constant Matrix: (Units=GPa)
#
#
# Indices 1 2 3 4 5 6 
#
# 1 54.4858 9.8834 -0.1367 11.2268 5.6121 -3.1069
# 2 9.8834 116.8894 35.2306 22.8037 -4.7223 -6.6094
# 3 -0.1367 35.2306 32.3624 18.8619 -1.7737 -9.5981
# 4 11.2268 22.8037 18.8619 36.3420 5.0579 -6.7078
# 5 5.6121 -4.7223 -1.7737 5.0579 13.6862 -4.1411
# 6 -3.1069 -6.6094 -9.5981 -6.7078 -4.1411 11.4004
#
#
#
# Elastic Compliance Matrix: (Units=1/GPa)
#
#
# Indices 1 2 3 4 5 6 
#
# 1 0.021298 -0.002915 0.009585 -0.008091 -0.003663 0.006093
# 2 -0.002915 0.013499 -0.015954 -0.000709 0.002230 -0.006007
# 3 0.009585 -0.015954 0.085010 -0.030606 0.030437 0.057982
# 4 -0.008091 -0.000709 -0.030606 0.047809 -0.020939 -0.007859
# 5 -0.003663 0.002230 0.030437 -0.020939 0.102389 0.050790
# 6 0.006093 -0.006007 0.057982 -0.007859 0.050790 0.148534
#
#
# Mechanical properties :
#
#
# Convention : Reuss Voigt Hill
#
# Bulk Modulus (GPa) = 9.87757 32.63248 21.25503
# Shear Modulus (GPa) = 10.61903 22.86974 16.74438
#
# Velocity S-wave (km/s) = 2.16660 3.17956 2.72064
# Velocity P-wave (km/s) = 3.25965 5.28249 4.38919
#
# Compressibility (1/GPa) = 0.10123943
#
# Stress axis : x y z
#
# Youngs Moduli (GPa) = 46.95281 74.08139 11.76326
#
# Poissons Ratio (x) = 0.21593 -0.11275
# Poissons Ratio (y) = 0.13686 0.18767
# Poissons Ratio (z) = -0.45003 1.18188
#
# Static dielectric constant tensor:
#      x y z
#    x 1.903390 -0.004610 0.030820 
#    y -0.004610 1.910370 0.014760 
#    z 0.030820 0.014760 1.863630 
# 
# From -- ./inp_files/262356.got.cif
#   From: 2010.05.17/outbox.cif.g08.bks.cpg/sg2_132_cif.got.tgz:262356.got - 2010.06.03 11:33:40.
