data_PCOD9095029
_publ_section_title
;
Structure prediction by ZEFSAII (Michael W. Deem and Ramdas Pophale) SiO2 
 PCOD9095029
Probable space group: P -1
;
_chemical_formula_sum "Si O2"
_cell_formula_units_Z 14
_cell_length_a 11.041035
_cell_length_b 10.245760
_cell_length_c 8.182410
_cell_angle_alpha 54.693894
_cell_angle_beta 136.135208
_cell_angle_gamma 119.942871
_cell_volume 517.854120
_symmetry_space_group_name_H-M "P -1"
_symmetry_group_IT_number 2
_symmetry_cell_setting 'triclinic'
loop_
_space_group_symop_operation_xyz
x,y,z
-x,-y,-z
loop_
_atom_site_type_symbol
_atom_site_label
_atom_site_fract_x
_atom_site_fract_y
_atom_site_fract_z
Si Si1 0.611258 0.705804 0.084906
Si Si2 0.701960 0.988989 0.174416
Si Si3 0.916393 0.247208 0.989739
Si Si4 0.233286 0.826790 0.576140
Si Si5 0.046030 0.563177 0.777558
Si Si6 0.757696 0.860162 0.791188
Si Si7 0.426152 0.437578 0.299197
O O1 0.423770 0.769923 0.824519
O O2 0.727830 0.761645 0.001414
O O3 0.554170 0.523679 0.220470
O O4 0.709527 0.808040 0.255895
O O5 0.796819 0.056293 0.383217
O O6 0.763244 0.111334 0.998544
O O7 0.500000 0.000000 0.000000
O O8 0.058243 0.162302 0.093711
O O9 0.982403 0.329829 0.168429
O O10 0.898227 0.405787 0.749390
O O11 0.084394 0.673336 0.574538
O O12 0.248337 0.949297 0.351063
O O13 0.235099 0.498483 0.042762
O O14 0.607304 0.755568 0.608672
O O15 0.500000 0.500000 0.500000
#
# Coordination Sequence:
#
# PCOD9095029 Si02
#       7
#     2   2   2   2   2   2   2
#     4  10  20  35  53  79 115 144 177 225 274 319
#     4   9  18  33  55  75  99 141 187 222 259 315
#     4   9  18  33  54  77 108 143 180 221 275 323
#     4   9  18  34  55  79 106 143 185 220 263 321
#     4   8  17  34  55  78 105 140 181 227 267 313
#     4  11  21  32  54  84 112 143 177 224 276 324
#     4  10  20  36  58  81 105 141 188 226 262 318
#
# _framework density 27.034637
#
# number of rings (size 3 to 8) (size 9 to 14) (size 15 to 20)
#    0.000    2.571    0.000    2.571    0.000    5.143 
#    0.000    1.429    0.000    1.714    0.000    0.000 
#    0.000    0.000    0.000    0.000    0.000    0.000 
#
# Total GULP energy -78351.379380 kJ/mol
# GULP energy per Si atom -5596.527099 kJ/mol
# Density = 2.697310 g / cm^3
# Si number density = 27.034637 Si / 1000 Ang^3
#
#
#
# Elastic Constant Matrix: (Units=GPa)
#
#
# Indices 1 2 3 4 5 6 
#
# 1 153.0864 26.8651 43.7647 -21.5683 -28.1903 41.0904
# 2 26.8651 112.8350 37.3323 -30.5834 -14.4300 46.9424
# 3 43.7647 37.3323 104.7582 -14.1681 -6.6001 20.6587
# 4 -21.5683 -30.5834 -14.1681 29.5101 4.0575 -26.6028
# 5 -28.1903 -14.4300 -6.6001 4.0575 38.8461 -15.3828
# 6 41.0904 46.9424 20.6587 -26.6028 -15.3828 58.1758
#
#
#
# Elastic Compliance Matrix: (Units=1/GPa)
#
#
# Indices 1 2 3 4 5 6 
#
# 1 0.009683 0.002149 -0.003166 0.002690 0.005075 -0.004877
# 2 0.002149 0.015532 -0.003521 0.007986 0.002540 -0.008477
# 3 -0.003166 -0.003521 0.011976 0.000673 -0.001332 0.000780
# 4 0.002690 0.007986 0.000673 0.063714 0.007279 0.022477
# 5 0.005075 0.002540 -0.001332 0.007279 0.032008 0.006631
# 6 -0.004877 -0.008477 0.000780 0.022477 0.006631 0.039229
#
#
# Mechanical properties :
#
#
# Convention : Reuss Voigt Hill
#
# Bulk Modulus (GPa) = 35.56748 65.17820 50.37284
# Shear Modulus (GPa) = 26.23439 42.82089 34.52764
#
# Velocity S-wave (km/s) = 3.11850 3.98418 3.57762
# Velocity P-wave (km/s) = 5.11386 6.73249 5.97821
#
# Compressibility (1/GPa) = 0.02811557
#
# Stress axis : x y z
#
# Youngs Moduli (GPa) = 103.27703 64.38429 83.49716
#
# Poissons Ratio (x) = -0.13837 0.26433
# Poissons Ratio (y) = -0.22195 0.29400
# Poissons Ratio (z) = 0.32694 0.22670
#
# Static dielectric constant tensor:
#      x y z
#    x 2.090750 -0.021840 -0.040190 
#    y -0.021840 2.151590 0.015680 
#    z -0.040190 0.015680 2.175510 
# 
# From -- ./inp_files/261826.got.cif
#   From: 2010.05.17/outbox.cif.g08.bks.cpg/sg2_131_cif.got.tgz:261826.got - 2010.06.03 11:33:40.
