data_PCOD9095864
_publ_section_title
;
Structure prediction by ZEFSAII (Michael W. Deem and Ramdas Pophale) SiO2 
 PCOD9095864
Probable space group: P -1
;
_chemical_formula_sum "Si O2"
_cell_formula_units_Z 16
_cell_length_a 18.431217
_cell_length_b 9.386527
_cell_length_c 12.193744
_cell_angle_alpha 145.109152
_cell_angle_beta 43.469083
_cell_angle_gamma 137.023078
_cell_volume 778.756047
_symmetry_space_group_name_H-M "P -1"
_symmetry_group_IT_number 2
_symmetry_cell_setting 'triclinic'
loop_
_space_group_symop_operation_xyz
x,y,z
-x,-y,-z
loop_
_atom_site_type_symbol
_atom_site_label
_atom_site_fract_x
_atom_site_fract_y
_atom_site_fract_z
Si Si1 0.753469 0.534227 0.148822
Si Si2 0.858485 0.542038 0.620282
Si Si3 0.042166 0.933695 0.793566
Si Si4 0.468300 0.402700 0.097221
Si Si5 0.310563 0.705265 0.153630
Si Si6 0.326786 0.744862 0.512354
Si Si7 0.340813 0.837840 0.799645
Si Si8 0.410551 0.167803 0.489136
O O1 0.750092 0.388303 0.174659
O O2 0.638141 0.598007 0.305654
O O3 0.855795 0.808114 0.193467
O O4 0.746976 0.345639 0.932903
O O5 0.916050 0.318025 0.400048
O O6 0.777195 0.462096 0.764958
O O7 0.779220 0.493058 0.570251
O O8 0.946909 0.826802 0.736499
O O9 0.000000 0.000000 0.000000
O O10 0.423784 0.616754 0.335426
O O11 0.500000 0.500000 0.000000
O O12 0.578752 0.377181 0.013697
O O13 0.374339 0.113880 0.002948
O O14 0.353774 0.003342 0.338856
O O15 0.308051 0.855155 0.719992
O O16 0.362833 0.970118 0.520727
O O17 0.457847 0.777934 0.629601
#
# Coordination Sequence:
#
# PCOD9095864 Si02
#       8
#     2   2   2   2   2   2   2   2
#     4  12  23  38  59  91 123 160 196 253 309 347
#     4  10  21  38  62  93 107 151 211 255 293 340
#     4  11  22  39  64  90 113 152 208 261 295 349
#     4  11  21  36  60  92 124 160 203 233 290 366
#     4  10  20  35  60  90 121 155 197 246 291 356
#     4  11  21  39  63  90 120 162 200 248 286 362
#     4  11  25  36  57  92 131 160 192 240 307 362
#     4  10  21  37  60  88 121 162 203 236 293 362
#
# _framework density 20.545586
#
# number of rings (size 3 to 8) (size 9 to 14) (size 15 to 20)
#    0.000    1.250    7.500    1.500    1.750    4.000 
#    0.000    0.625    0.000    1.500    0.000    0.000 
#    0.000    0.000    0.000    0.000    0.000    0.000 
#
# Total GULP energy -89339.584518 kJ/mol
# GULP energy per Si atom -5583.724032 kJ/mol
# Density = 2.049882 g / cm^3
# Si number density = 20.545586 Si / 1000 Ang^3
#
#
#
# Elastic Constant Matrix: (Units=GPa)
#
#
# Indices 1 2 3 4 5 6 
#
# 1 52.1748 20.8356 33.0632 -6.6534 27.0158 17.4732
# 2 20.8356 78.4965 15.5368 -2.9775 19.2128 -2.6916
# 3 33.0632 15.5368 48.9669 13.7928 17.4868 -8.0454
# 4 -6.6534 -2.9775 13.7928 9.1084 0.3655 2.9073
# 5 27.0158 19.2128 17.4868 0.3655 34.9990 7.0799
# 6 17.4732 -2.6916 -8.0454 2.9073 7.0799 23.3546
#
#
#
# Elastic Compliance Matrix: (Units=1/GPa)
#
#
# Indices 1 2 3 4 5 6 
#
# 1 -0.004988 -0.002124 0.027054 -0.052182 -0.012635 0.023133
# 2 -0.002124 0.015737 -0.001985 0.005562 -0.006898 0.004118
# 3 0.027054 -0.001985 -0.010640 0.044142 -0.009528 -0.026741
# 4 -0.052182 0.005562 0.044142 -0.011078 0.004160 0.055006
# 5 -0.012635 -0.006898 -0.009528 0.004160 0.048842 -0.009948
# 6 0.023133 0.004118 -0.026741 0.055006 -0.009948 0.012942
#
#
# Mechanical properties :
#
#
# Convention : Reuss Voigt Hill
#
# Bulk Modulus (GPa) = 21.74078 35.38995 28.56537
# Shear Modulus (GPa) = 246.81907 20.83924 133.82915
#
# Velocity S-wave (km/s) = 10.97238 3.18825 8.07955
# Velocity P-wave (km/s) = 13.08163 5.55119 10.04850
#
# Compressibility (1/GPa) = 0.04599651
#
# Stress axis : x y z
#
# Youngs Moduli (GPa) = -200.46904 63.54537 -93.98627
#
# Poissons Ratio (x) = 0.13498 2.54266
# Poissons Ratio (y) = -0.42584 -0.18660
# Poissons Ratio (z) = 5.42340 0.12616
#
# Static dielectric constant tensor:
#      x y z
#    x 1.787210 0.027920 -0.006900 
#    y 0.027920 1.737150 0.005360 
#    z -0.006900 0.005360 1.767100 
# 
# From -- ./inp_files/470199.got.cif
#   From: 2010.05.17/outbox.cif.g08.bks.cpg/sg2_236_cif.got.tgz:470199.got - 2010.06.03 11:33:40.
