data_PCOD9095330
_publ_section_title
;
Structure prediction by ZEFSAII (Michael W. Deem and Ramdas Pophale) SiO2 
 PCOD9095330
Probable space group: P -1
;
_chemical_formula_sum "Si O2"
_cell_formula_units_Z 14
_cell_length_a 5.805385
_cell_length_b 9.134252
_cell_length_c 19.855663
_cell_angle_alpha 135.596277
_cell_angle_beta 97.502824
_cell_angle_gamma 59.846007
_cell_volume 589.938719
_symmetry_space_group_name_H-M "P -1"
_symmetry_group_IT_number 2
_symmetry_cell_setting 'triclinic'
loop_
_space_group_symop_operation_xyz
x,y,z
-x,-y,-z
loop_
_atom_site_type_symbol
_atom_site_label
_atom_site_fract_x
_atom_site_fract_y
_atom_site_fract_z
Si Si1 0.182038 0.491403 0.440434
Si Si2 0.224331 0.941939 0.640210
Si Si3 0.123516 0.032933 0.117624
Si Si4 0.738470 0.628622 0.980590
Si Si5 0.880496 0.397212 0.111813
Si Si6 0.825588 0.867506 0.439906
Si Si7 0.275457 0.833006 0.198447
O O1 0.245317 0.700446 0.527699
O O2 0.477418 0.205304 0.355442
O O3 0.000000 0.500000 0.500000
O O4 0.011135 0.597115 0.398608
O O5 0.200321 0.120293 0.637622
O O6 0.941232 0.076537 0.718667
O O7 0.107629 0.037473 0.199044
O O8 0.459869 0.910992 0.079135
O O9 0.094475 0.821541 0.009063
O O10 0.911045 0.294337 0.154296
O O11 0.667956 0.424836 0.914880
O O12 0.842901 0.621613 0.907438
O O13 0.000000 0.500000 0.000000
O O14 0.605883 0.691757 0.186002
O O15 0.500000 0.000000 0.500000
O O16 0.000000 0.000000 0.500000
#
# Coordination Sequence:
#
# PCOD9095330 Si02
#       7
#     2   2   2   2   2   2   2
#     4  10  20  40  64  84 113 155 202 240 306 376
#     4  10  23  38  59  89 118 154 196 256 308 362
#     4  10  20  35  57  80 111 153 193 240 285 346
#     4  11  18  36  59  79 112 159 196 233 288 349
#     4  10  20  36  56  80 111 154 199 232 288 346
#     4  10  20  39  65  90 119 157 203 250 306 375
#     4  11  22  37  55  85 121 148 192 246 295 342
#
# _framework density 23.731276999999999
#
# number of rings (size 3 to 8) (size 9 to 14) (size 15 to 20)
#    0.000    1.714    4.286    1.286    0.000    2.286 
#    0.000    1.429    0.000    0.000    0.000    0.000 
#    0.000    0.000    0.000    0.000    0.000    0.000 
#
# Total GULP energy -78044.542518 kJ/mol
# GULP energy per Si atom -5574.610180 kJ/mol
# Density = 2.367726 g / cm^3
# Si number density = 23.731277 Si / 1000 Ang^3
#
#
#
# Elastic Constant Matrix: (Units=GPa)
#
#
# Indices 1 2 3 4 5 6 
#
# 1 51.7946 17.7200 13.5925 -1.9069 -7.0559 0.2157
# 2 17.7200 198.2302 42.6963 -19.1673 -2.8458 13.7315
# 3 13.5925 42.6963 67.7203 -6.9317 -20.3980 3.1812
# 4 -1.9069 -19.1673 -6.9317 40.4686 10.7594 -6.4110
# 5 -7.0559 -2.8458 -20.3980 10.7594 45.9547 -4.0996
# 6 0.2157 13.7315 3.1812 -6.4110 -4.0996 31.6060
#
#
#
# Elastic Compliance Matrix: (Units=1/GPa)
#
#
# Indices 1 2 3 4 5 6 
#
# 1 0.020757 -0.001337 -0.002797 -0.000545 0.002068 0.000878
# 2 -0.001337 0.006422 -0.004152 0.002576 -0.002446 -0.002158
# 3 -0.002797 -0.004152 0.020432 -0.000778 0.008629 0.000728
# 4 -0.000545 0.002576 -0.000778 0.028107 -0.006509 0.003820
# 5 0.002068 -0.002446 0.008629 -0.006509 0.027498 0.002426
# 6 0.000878 -0.002158 0.000728 0.003820 0.002426 0.033587
#
#
# Mechanical properties :
#
#
# Convention : Reuss Voigt Hill
#
# Bulk Modulus (GPa) = 32.21970 51.75144 41.98557
# Shear Modulus (GPa) = 30.53975 39.85495 35.19735
#
# Velocity S-wave (km/s) = 3.59123 4.10253 3.85536
# Velocity P-wave (km/s) = 5.54998 6.65549 6.12772
#
# Compressibility (1/GPa) = 0.03103691
#
# Stress axis : x y z
#
# Youngs Moduli (GPa) = 48.17761 155.71614 48.94395
#
# Poissons Ratio (x) = 0.20816 0.13691
# Poissons Ratio (y) = 0.06440 0.20324
# Poissons Ratio (z) = 0.13477 0.64660
#
# Static dielectric constant tensor:
#      x y z
#    x 2.182780 -0.088870 0.048810 
#    y -0.088870 2.040640 0.000320 
#    z 0.048810 0.000320 1.882420 
# 
# From -- ./inp_files/34423.got.cif
#   From: 2010.05.17/outbox.cif.g08.bks.cpg/sg2_18_cif.got.tgz:34423.got - 2010.06.03 11:33:40.
