data_PCOD9095411
_publ_section_title
;
Structure prediction by ZEFSAII (Michael W. Deem and Ramdas Pophale) SiO2 
 PCOD9095411
Probable space group: P -1
;
_chemical_formula_sum "Si O2"
_cell_formula_units_Z 14
_cell_length_a 10.789760
_cell_length_b 7.124115
_cell_length_c 20.863265
_cell_angle_alpha 98.015071
_cell_angle_beta 33.322124
_cell_angle_gamma 75.531627
_cell_volume 644.875504
_symmetry_space_group_name_H-M "P -1"
_symmetry_group_IT_number 2
_symmetry_cell_setting 'triclinic'
loop_
_space_group_symop_operation_xyz
x,y,z
-x,-y,-z
loop_
_atom_site_type_symbol
_atom_site_label
_atom_site_fract_x
_atom_site_fract_y
_atom_site_fract_z
Si Si1 0.832644 0.583516 0.659936
Si Si2 0.524459 0.972514 0.064738
Si Si3 0.672184 0.441728 0.612592
Si Si4 0.294127 0.978035 0.456191
Si Si5 0.084677 0.897998 0.249055
Si Si6 0.838222 0.291254 0.259104
Si Si7 0.226988 0.253361 0.668772
O O1 0.676541 0.760013 0.798044
O O2 0.599372 0.609711 0.714160
O O3 0.000651 0.661963 0.555809
O O4 0.093203 0.276737 0.544406
O O5 0.391007 0.838923 0.130338
O O6 0.500000 0.000000 0.000000
O O7 0.877965 0.818583 0.915366
O O8 0.443083 0.600188 0.659590
O O9 0.686168 0.209282 0.609696
O O10 0.122913 0.980768 0.591972
O O11 0.639543 0.834732 0.321130
O O12 0.077187 0.685190 0.217287
O O13 0.926697 0.092562 0.266085
O O14 0.783497 0.519736 0.330778
O O15 0.500000 0.000000 0.500000
#
# Coordination Sequence:
#
# PCOD9095411 Si02
#       7
#     2   2   2   2   2   2   2
#     4  11  22  40  62  87 117 154 202 235 293 348
#     4  10  23  39  57  87 122 159 189 238 294 349
#     4  10  22  40  65  85 113 159 194 251 283 337
#     4  10  20  35  60  91 116 145 196 247 291 342
#     4  10  20  35  57  86 118 154 186 237 295 337
#     4  10  22  40  55  87 122 149 201 237 288 355
#     4   9  20  31  55  85 113 154 183 241 292 333
#
# _framework density 21.709617000000001
#
# number of rings (size 3 to 8) (size 9 to 14) (size 15 to 20)
#    0.000    2.000    1.429    1.286    8.000    6.286 
#    2.571    0.000    0.000    0.857    0.000    0.000 
#    0.000    0.000    0.000    0.000    0.000    0.000 
#
# Total GULP energy -78048.722697 kJ/mol
# GULP energy per Si atom -5574.908764 kJ/mol
# Density = 2.166020 g / cm^3
# Si number density = 21.709617 Si / 1000 Ang^3
#
#
#
# Elastic Constant Matrix: (Units=GPa)
#
#
# Indices 1 2 3 4 5 6 
#
# 1 110.3207 30.9945 21.4287 3.3497 9.0544 33.2937
# 2 30.9945 64.2512 6.7247 -0.4599 2.6618 25.3237
# 3 21.4287 6.7247 57.5275 -2.9427 11.9729 11.4243
# 4 3.3497 -0.4599 -2.9427 24.8482 5.9969 -0.8352
# 5 9.0544 2.6618 11.9729 5.9969 28.5575 4.5680
# 6 33.2937 25.3237 11.4243 -0.8352 4.5680 42.8234
#
#
#
# Elastic Compliance Matrix: (Units=1/GPa)
#
#
# Indices 1 2 3 4 5 6 
#
# 1 0.012828 -0.002945 -0.002875 -0.002143 -0.000953 -0.007406
# 2 -0.002945 0.020970 0.000663 0.000456 0.000254 -0.010306
# 3 -0.002875 0.000663 0.020939 0.004841 -0.008507 -0.002741
# 4 -0.002143 0.000456 0.004841 0.043826 -0.010936 0.002127
# 5 -0.000953 0.000254 -0.008507 -0.010936 0.041442 -0.001774
# 6 -0.007406 -0.010306 -0.002741 0.002127 -0.001774 0.036166
#
#
# Mechanical properties :
#
#
# Convention : Reuss Voigt Hill
#
# Bulk Modulus (GPa) = 22.51061 38.93280 30.72170
# Shear Modulus (GPa) = 24.83951 30.77592 27.80772
#
# Velocity S-wave (km/s) = 3.38623 3.76921 3.58284
# Velocity P-wave (km/s) = 5.06756 6.07577 5.59442
#
# Compressibility (1/GPa) = 0.04442350
#
# Stress axis : x y z
#
# Youngs Moduli (GPa) = 77.95214 47.68760 47.75810
#
# Poissons Ratio (x) = 0.14042 0.13730
# Poissons Ratio (y) = 0.22953 -0.03165
# Poissons Ratio (z) = 0.22411 -0.03160
#
# Static dielectric constant tensor:
#      x y z
#    x 1.901230 0.026850 -0.030570 
#    y 0.026850 1.841090 0.006080 
#    z -0.030570 0.006080 1.840360 
# 
# From -- ./inp_files/408969.got.cif
#   From: 2010.05.17/outbox.cif.g08.bks.cpg/sg2_205_cif.got.tgz:408969.got - 2010.06.03 11:33:40.
