data_PCOD9095050
_publ_section_title
;
Structure prediction by ZEFSAII (Michael W. Deem and Ramdas Pophale) SiO2 
 PCOD9095050
Probable space group: P -1
;
_chemical_formula_sum "Si O2"
_cell_formula_units_Z 16
_cell_length_a 12.922776
_cell_length_b 9.602348
_cell_length_c 13.214958
_cell_angle_alpha 49.457460
_cell_angle_beta 129.764705
_cell_angle_gamma 143.888833
_cell_volume 710.010905
_symmetry_space_group_name_H-M "P -1"
_symmetry_group_IT_number 2
_symmetry_cell_setting 'triclinic'
loop_
_space_group_symop_operation_xyz
x,y,z
-x,-y,-z
loop_
_atom_site_type_symbol
_atom_site_label
_atom_site_fract_x
_atom_site_fract_y
_atom_site_fract_z
Si Si1 0.063475 0.858393 0.904820
Si Si2 0.766945 0.341327 0.874122
Si Si3 0.245155 0.615737 0.564355
Si Si4 0.340136 0.095093 0.371739
Si Si5 0.961886 0.783205 0.196088
Si Si6 0.994021 0.536620 0.717169
Si Si7 0.869639 0.984650 0.349371
Si Si8 0.521446 0.446356 0.651111
O O1 0.893347 0.561194 0.932909
O O2 0.078049 0.035839 0.910841
O O3 0.051209 0.938461 0.749184
O O4 0.235006 0.876307 0.001318
O O5 0.858927 0.430285 0.778294
O O6 0.590098 0.302892 0.772474
O O7 0.453578 0.746667 0.611384
O O8 0.140207 0.397943 0.683722
O O9 0.122048 0.518569 0.430909
O O10 0.275980 0.855744 0.505824
O O11 0.340155 0.285331 0.339910
O O12 0.181302 0.970697 0.249653
O O13 0.922676 0.590844 0.179515
O O14 0.143247 0.825083 0.700146
O O15 0.675205 0.716409 0.346570
O O16 0.000000 0.000000 0.500000
O O17 0.500000 0.500000 0.500000
#
# Coordination Sequence:
#
# PCOD9095050 Si02
#       8
#     2   2   2   2   2   2   2   2
#     4  10  21  41  63  83 117 168 197 253 300 371
#     4  10  22  40  60  87 122 154 211 244 304 368
#     4  10  21  35  59  87 128 153 196 260 309 363
#     4  10  20  35  53  91 118 158 201 244 310 366
#     4  11  21  37  64  85 119 165 202 250 315 360
#     4  10  21  38  55  89 118 159 201 251 301 368
#     4  11  23  38  61  91 127 153 204 250 310 364
#     4  12  23  34  62  92 122 156 199 258 303 358
#
# _framework density 22.534863999999999
#
# number of rings (size 3 to 8) (size 9 to 14) (size 15 to 20)
#    0.000    1.500    1.250    6.000    3.500    1.000 
#    0.000    0.000    0.000    0.750    0.000    0.000 
#    0.000    0.000    0.000    0.000    0.000    0.000 
#
# Total GULP energy -89248.930889 kJ/mol
# GULP energy per Si atom -5578.058181 kJ/mol
# Density = 2.248357 g / cm^3
# Si number density = 22.534864 Si / 1000 Ang^3
#
#
#
# Elastic Constant Matrix: (Units=GPa)
#
#
# Indices 1 2 3 4 5 6 
#
# 1 73.7036 35.1551 26.4077 -7.7088 23.2027 -13.4016
# 2 35.1551 102.3012 15.8538 -19.3389 13.5296 -19.3485
# 3 26.4077 15.8538 75.1498 -7.1547 26.8709 0.0627
# 4 -7.7088 -19.3389 -7.1547 27.0975 -11.4468 13.5688
# 5 23.2027 13.5296 26.8709 -11.4468 46.6132 -9.4611
# 6 -13.4016 -19.3485 0.0627 13.5688 -9.4611 44.7348
#
#
#
# Elastic Compliance Matrix: (Units=1/GPa)
#
#
# Indices 1 2 3 4 5 6 
#
# 1 0.019733 -0.005394 -0.003926 -0.003568 -0.006188 0.003358
# 2 -0.005394 0.013356 -0.000767 0.007294 0.001501 0.002267
# 3 -0.003926 -0.000767 0.018084 0.001331 -0.008687 -0.003774
# 4 -0.003568 0.007294 0.001331 0.051032 0.009095 -0.011471
# 5 -0.006188 0.001501 -0.008687 0.009095 0.031907 0.002797
# 6 0.003358 0.002267 -0.003774 -0.011471 0.002797 0.028417
#
#
# Mechanical properties :
#
#
# Convention : Reuss Voigt Hill
#
# Bulk Modulus (GPa) = 32.25713 45.10976 38.68344
# Shear Modulus (GPa) = 25.90202 35.27162 30.58682
#
# Velocity S-wave (km/s) = 3.39399 3.96056 3.68817
# Velocity P-wave (km/s) = 5.45016 6.40124 5.94475
#
# Compressibility (1/GPa) = 0.03100090
#
# Stress axis : x y z
#
# Youngs Moduli (GPa) = 50.67748 74.87004 55.29678
#
# Poissons Ratio (x) = 0.40382 0.21709
# Poissons Ratio (y) = 0.27333 0.04240
# Poissons Ratio (z) = 0.19896 0.05740
#
# Static dielectric constant tensor:
#      x y z
#    x 1.851250 -0.073040 0.015060 
#    y -0.073040 1.638540 -0.144990 
#    z 0.015060 -0.144990 1.839840 
# 
# From -- ./inp_files/515104.got.cif
#   From: 2010.05.17/outbox.cif.g08.bks.cpg/sg2_258_cif.got.tgz:515104.got - 2010.06.03 11:33:40.
