data_PCOD9095101
_publ_section_title
;
Structure prediction by ZEFSAII (Michael W. Deem and Ramdas Pophale) SiO2 
 PCOD9095101
Probable space group: P -1
;
_chemical_formula_sum "Si O2"
_cell_formula_units_Z 16
_cell_length_a 16.875054
_cell_length_b 7.666693
_cell_length_c 7.724214
_cell_angle_alpha 82.489609
_cell_angle_beta 42.728641
_cell_angle_gamma 105.097566
_cell_volume 570.104830
_symmetry_space_group_name_H-M "P -1"
_symmetry_group_IT_number 2
_symmetry_cell_setting 'triclinic'
loop_
_space_group_symop_operation_xyz
x,y,z
-x,-y,-z
loop_
_atom_site_type_symbol
_atom_site_label
_atom_site_fract_x
_atom_site_fract_y
_atom_site_fract_z
Si Si1 0.931353 0.357069 0.858459
Si Si2 0.434057 0.582293 0.460503
Si Si3 0.196531 0.417259 0.123095
Si Si4 0.370083 0.881271 0.444198
Si Si5 0.354099 0.251291 0.389103
Si Si6 0.177191 0.024540 0.359452
Si Si7 0.766771 0.319316 0.659955
Si Si8 0.073655 0.041110 0.062399
O O1 0.907984 0.504416 0.752120
O O2 0.953347 0.172723 0.783965
O O3 0.080481 0.513618 0.685321
O O4 0.786592 0.225963 0.212136
O O5 0.500000 0.500000 0.500000
O O6 0.476794 0.821257 0.353262
O O7 0.438751 0.492000 0.277076
O O8 0.286997 0.500738 0.794605
O O9 0.184489 0.197731 0.200178
O O10 0.264767 0.551054 0.171689
O O11 0.337527 0.787424 0.315853
O O12 0.425876 0.123202 0.330083
O O13 0.274214 0.157241 0.349239
O O14 0.231432 0.174520 0.738216
O O15 0.017612 0.892241 0.694504
O O16 0.219738 0.864584 0.254260
O O17 0.000000 0.000000 0.000000
#
# Coordination Sequence:
#
# PCOD9095101 Si02
#       8
#     2   2   2   2   2   2   2   2
#     4  10  20  35  54  87 130 165 195 226 285 354
#     4  11  25  43  65  83 107 156 207 256 305 341
#     4  11  24  39  54  88 129 154 193 250 297 352
#     4   9  21  38  62  86 114 157 202 242 285 348
#     4   9  20  40  59  87 116 155 206 241 278 357
#     4  10  21  35  60  89 124 163 190 231 296 350
#     4  11  21  36  59  88 127 160 191 234 290 362
#     4   9  18  32  56  87 120 162 195 226 277 343
#
# _framework density 28.065010999999998
#
# number of rings (size 3 to 8) (size 9 to 14) (size 15 to 20)
#    0.000    2.000    1.250    2.250    5.250    4.000 
#    0.000    2.500    0.000    3.000    0.000    0.000 
#    0.000    0.000    0.000    0.000    0.000    0.000 
#
# Total GULP energy -89375.513250 kJ/mol
# GULP energy per Si atom -5585.969578 kJ/mol
# Density = 2.800113 g / cm^3
# Si number density = 28.065011 Si / 1000 Ang^3
#
#
#
# Elastic Constant Matrix: (Units=GPa)
#
#
# Indices 1 2 3 4 5 6 
#
# 1 61.4170 31.8723 -8.7305 -0.8551 -2.2664 -17.4961
# 2 31.8723 221.1102 12.6511 12.9843 -4.2566 -18.3988
# 3 -8.7305 12.6511 70.8436 -2.6989 -22.9010 9.2032
# 4 -0.8551 12.9843 -2.6989 26.4663 0.8876 10.5624
# 5 -2.2664 -4.2566 -22.9010 0.8876 36.8356 -0.0769
# 6 -17.4961 -18.3988 9.2032 10.5624 -0.0769 45.2011
#
#
#
# Elastic Compliance Matrix: (Units=1/GPa)
#
#
# Indices 1 2 3 4 5 6 
#
# 1 0.019826 -0.002434 0.002965 -0.000425 0.002805 0.006184
# 2 -0.002434 0.005420 -0.001962 -0.003948 -0.000643 0.002585
# 3 0.002965 -0.001962 0.019466 0.004496 0.011940 -0.004645
# 4 -0.000425 -0.003948 0.004496 0.045434 0.001191 -0.013302
# 5 0.002805 -0.000643 0.011940 0.001191 0.034636 -0.001826
# 6 0.006184 0.002585 -0.004645 -0.013302 -0.001826 0.029620
#
#
# Mechanical properties :
#
#
# Convention : Reuss Voigt Hill
#
# Bulk Modulus (GPa) = 23.89444 47.21741 35.55593
# Shear Modulus (GPa) = 29.20324 42.87248 36.03786
#
# Velocity S-wave (km/s) = 3.22927 3.91271 3.58730
# Velocity P-wave (km/s) = 4.73673 6.10518 5.46397
#
# Compressibility (1/GPa) = 0.04185074
#
# Stress axis : x y z
#
# Youngs Moduli (GPa) = 50.43895 184.49116 51.37254
#
# Poissons Ratio (x) = 0.44905 -0.15233
# Poissons Ratio (y) = 0.12277 0.10079
# Poissons Ratio (z) = -0.14957 0.36195
#
# Static dielectric constant tensor:
#      x y z
#    x 2.147770 0.013110 0.080590 
#    y 0.013110 2.174690 -0.030030 
#    z 0.080590 -0.030030 2.157670 
# 
# From -- ./inp_files/215935.got.cif
#   From: 2010.05.17/outbox.cif.g08.bks.cpg/sg2_108_cif.got.tgz:215935.got - 2010.06.03 11:33:40.
