data_PCOD9095881
_publ_section_title
;
Structure prediction by ZEFSAII (Michael W. Deem and Ramdas Pophale) SiO2 
 PCOD9095881
Probable space group: P -1
;
_chemical_formula_sum "Si O2"
_cell_formula_units_Z 14
_cell_length_a 10.067861
_cell_length_b 9.013968
_cell_length_c 21.375580
_cell_angle_alpha 143.816021
_cell_angle_beta 32.951270
_cell_angle_gamma 122.472715
_cell_volume 560.251288
_symmetry_space_group_name_H-M "P -1"
_symmetry_group_IT_number 2
_symmetry_cell_setting 'triclinic'
loop_
_space_group_symop_operation_xyz
x,y,z
-x,-y,-z
loop_
_atom_site_type_symbol
_atom_site_label
_atom_site_fract_x
_atom_site_fract_y
_atom_site_fract_z
Si Si1 0.951106 0.729123 0.545037
Si Si2 0.113168 0.432491 0.830413
Si Si3 0.594952 0.964064 0.185889
Si Si4 0.371948 0.459182 0.621135
Si Si5 0.286011 0.820997 0.359819
Si Si6 0.760249 0.270335 0.998921
Si Si7 0.940082 0.342740 0.305429
O O1 0.184494 0.830120 0.474656
O O2 0.000000 0.500000 0.500000
O O3 0.649760 0.981370 0.747388
O O4 0.961264 0.549491 0.418160
O O5 0.339704 0.318435 0.649071
O O6 0.196351 0.575489 0.904185
O O7 0.982536 0.248399 0.851627
O O8 0.864371 0.682746 0.978204
O O9 0.655364 0.230858 0.247141
O O10 0.482156 0.941602 0.292542
O O11 0.667047 0.311706 0.422491
O O12 0.136551 0.511021 0.681613
O O13 0.469869 0.489751 0.162074
O O14 0.000000 0.000000 0.500000
O O15 0.812895 0.962298 0.893211
#
# Coordination Sequence:
#
# PCOD9095881 Si02
#       7
#     2   2   2   2   2   2   2
#     4  10  22  38  59  85 113 163 204 235 286 351
#     4  10  20  35  60  92 117 154 189 240 301 358
#     4   9  18  36  59  85 114 149 198 233 290 350
#     4  10  20  36  59  89 123 152 186 240 307 348
#     4   9  20  38  58  81 116 160 195 234 283 349
#     4  10  21  36  59  91 121 149 197 244 293 344
#     4  10  22  37  55  89 124 150 194 247 291 345
#
# _framework density 24.988786999999999
#
# number of rings (size 3 to 8) (size 9 to 14) (size 15 to 20)
#    0.000    2.286    1.429    0.429    4.000    1.143 
#    0.000    7.143    0.000    6.000    0.000    0.000 
#    0.000    0.000    0.000    0.000    0.000    0.000 
#
# Total GULP energy -78157.964382 kJ/mol
# GULP energy per Si atom -5582.711742 kJ/mol
# Density = 2.493191 g / cm^3
# Si number density = 24.988787 Si / 1000 Ang^3
#
#
#
# Elastic Constant Matrix: (Units=GPa)
#
#
# Indices 1 2 3 4 5 6 
#
# 1 60.4780 38.6725 22.4441 -8.8785 -5.2675 -22.6036
# 2 38.6725 116.3244 24.7766 -13.1208 -3.2868 -33.7535
# 3 22.4441 24.7766 68.1347 14.0710 -28.6702 -12.4660
# 4 -8.8785 -13.1208 14.0710 55.4626 -15.3811 4.0915
# 5 -5.2675 -3.2868 -28.6702 -15.3811 25.9547 2.0688
# 6 -22.6036 -33.7535 -12.4660 4.0915 2.0688 37.2080
#
#
#
# Elastic Compliance Matrix: (Units=1/GPa)
#
#
# Indices 1 2 3 4 5 6 
#
# 1 0.025413 -0.003981 -0.006370 0.003815 -0.000866 0.009321
# 2 -0.003981 0.013233 -0.003358 0.002101 -0.002262 0.008356
# 3 -0.006370 -0.003358 0.032845 -0.000937 0.033824 0.002311
# 4 0.003815 0.002101 -0.000937 0.023118 0.013657 0.000608
# 5 -0.000866 -0.002262 0.033824 0.013657 0.083314 0.002621
# 6 0.009321 0.008356 0.002311 0.000608 0.002621 0.040680
#
#
# Mechanical properties :
#
#
# Convention : Reuss Voigt Hill
#
# Bulk Modulus (GPa) = 22.68946 46.30262 34.49604
# Shear Modulus (GPa) = 19.17820 34.32800 26.75310
#
# Velocity S-wave (km/s) = 2.77333 3.71042 3.27556
# Velocity P-wave (km/s) = 4.39940 6.07666 5.30474
#
# Compressibility (1/GPa) = 0.04407333
#
# Stress axis : x y z
#
# Youngs Moduli (GPa) = 39.34947 75.56838 30.44578
#
# Poissons Ratio (x) = 0.30087 0.19394
# Poissons Ratio (y) = 0.15667 0.10222
# Poissons Ratio (z) = 0.25066 0.25373
#
# Static dielectric constant tensor:
#      x y z
#    x 2.027620 0.022010 -0.036260 
#    y 0.022010 2.045270 -0.049470 
#    z -0.036260 -0.049470 1.981440 
# 
# From -- ./inp_files/243180.got.cif
#   From: 2010.05.17/outbox.cif.g08.bks.cpg/sg2_122_cif.got.tgz:243180.got - 2010.06.03 11:33:40.
