data_PCOD9095922
_publ_section_title
;
Structure prediction by ZEFSAII (Michael W. Deem and Ramdas Pophale) SiO2 
 PCOD9095922
Probable space group: P -1
;
_chemical_formula_sum "Si O2"
_cell_formula_units_Z 16
_cell_length_a 12.996457
_cell_length_b 9.497855
_cell_length_c 8.645275
_cell_angle_alpha 67.039346
_cell_angle_beta 89.642818
_cell_angle_gamma 130.926883
_cell_volume 687.840208
_symmetry_space_group_name_H-M "P -1"
_symmetry_group_IT_number 2
_symmetry_cell_setting 'triclinic'
loop_
_space_group_symop_operation_xyz
x,y,z
-x,-y,-z
loop_
_atom_site_type_symbol
_atom_site_label
_atom_site_fract_x
_atom_site_fract_y
_atom_site_fract_z
Si Si1 0.978512 0.665241 0.601999
Si Si2 0.767274 0.936321 0.999685
Si Si3 0.672626 0.175842 0.412049
Si Si4 0.950004 0.610057 0.256111
Si Si5 0.348972 0.626428 0.187881
Si Si6 0.486518 0.500858 0.684155
Si Si7 0.274187 0.058743 0.356134
Si Si8 0.388410 0.963162 0.852381
O O1 0.999811 0.512857 0.727706
O O2 0.965718 0.645344 0.424624
O O3 0.824566 0.563958 0.708325
O O4 0.123954 0.924415 0.512660
O O5 0.682526 0.708754 0.181325
O O6 0.689325 0.007666 0.036396
O O7 0.735813 0.887829 0.838268
O O8 0.940033 0.153063 0.924778
O O9 0.777803 0.433013 0.294527
O O10 0.693992 0.112410 0.275495
O O11 0.500000 0.000000 0.500000
O O12 0.726510 0.126696 0.572637
O O13 0.420911 0.537026 0.216332
O O14 0.442245 0.801078 0.253991
O O15 0.383672 0.782774 0.984011
O O16 0.500000 0.500000 0.500000
O O17 0.575368 0.738339 0.646807
#
# Coordination Sequence:
#
# PCOD9095922 Si02
#       8
#     2   2   2   2   2   2   2   2
#     4   9  17  34  59  87 114 153 189 240 285 346
#     4  10  20  39  64  80 118 153 197 243 283 349
#     4  11  23  35  59  92 125 147 187 245 292 349
#     4   9  18  33  57  89 119 148 189 238 299 333
#     4  10  20  35  61  79 120 151 194 238 284 349
#     4  11  24  41  58  83 116 159 196 240 292 342
#     4  10  22  39  60  87 115 157 198 227 291 355
#     4  10  21  34  57  92 115 150 192 240 297 327
#
# _framework density 23.261215
#
# number of rings (size 3 to 8) (size 9 to 14) (size 15 to 20)
#    0.000    2.000    1.250    3.375    5.250    1.000 
#    2.250    0.000    0.000    2.250    0.000    0.000 
#    0.000    0.000    0.000    0.000    0.000    0.000 
#
# Total GULP energy -89259.068449 kJ/mol
# GULP energy per Si atom -5578.691778 kJ/mol
# Density = 2.320827 g / cm^3
# Si number density = 23.261215 Si / 1000 Ang^3
#
#
#
# Elastic Constant Matrix: (Units=GPa)
#
#
# Indices 1 2 3 4 5 6 
#
# 1 41.0050 2.2544 -0.6301 -17.9210 -2.2474 5.9276
# 2 2.2544 135.6500 60.4842 -36.5846 -18.4106 26.2928
# 3 -0.6301 60.4842 86.6419 -36.8175 -9.1975 9.2940
# 4 -17.9210 -36.5846 -36.8175 47.8651 13.0403 -11.3110
# 5 -2.2474 -18.4106 -9.1975 13.0403 26.1983 -14.1925
# 6 5.9276 26.2928 9.2940 -11.3110 -14.1925 34.1424
#
#
#
# Elastic Compliance Matrix: (Units=1/GPa)
#
#
# Indices 1 2 3 4 5 6 
#
# 1 0.033581 0.001659 0.007517 0.020080 -0.006020 -0.005004
# 2 0.001659 0.012613 -0.006541 0.003270 0.001569 -0.006485
# 3 0.007517 -0.006541 0.022662 0.016547 -0.003333 0.001660
# 4 0.020080 0.003270 0.016547 0.047314 -0.014097 -0.000694
# 5 -0.006020 0.001569 -0.003333 -0.014097 0.054822 0.018863
# 6 -0.005004 -0.006485 0.001660 -0.000694 0.018863 0.042311
#
#
# Mechanical properties :
#
#
# Convention : Reuss Voigt Hill
#
# Bulk Modulus (GPa) = 13.49077 43.05709 28.27393
# Shear Modulus (GPa) = 21.48305 35.05372 28.26839
#
# Velocity S-wave (km/s) = 3.04230 3.88617 3.48984
# Velocity P-wave (km/s) = 4.26065 6.21988 5.33104
#
# Compressibility (1/GPa) = 0.07412478
#
# Stress axis : x y z
#
# Youngs Moduli (GPa) = 29.77877 79.28518 44.12640
#
# Poissons Ratio (x) = -0.13151 -0.33169
# Poissons Ratio (y) = -0.04939 0.28863
# Poissons Ratio (z) = -0.22384 0.51861
#
# Static dielectric constant tensor:
#      x y z
#    x 1.925340 0.031190 -0.029530 
#    y 0.031190 1.933630 -0.043660 
#    z -0.029530 -0.043660 1.893000 
# 
# From -- ./inp_files/304827.got.cif
#   From: 2010.05.17/outbox.cif.g08.bks.cpg/sg2_153_cif.got.tgz:304827.got - 2010.06.03 11:33:40.
