data_PCOD9095244
_publ_section_title
;
Structure prediction by ZEFSAII (Michael W. Deem and Ramdas Pophale) SiO2 
 PCOD9095244
Probable space group: P -1
;
_chemical_formula_sum "Si O2"
_cell_formula_units_Z 12
_cell_length_a 7.605614
_cell_length_b 12.550068
_cell_length_c 7.248504
_cell_angle_alpha 97.235213
_cell_angle_beta 55.695256
_cell_angle_gamma 62.668844
_cell_volume 432.363569
_symmetry_space_group_name_H-M "P -1"
_symmetry_group_IT_number 2
_symmetry_cell_setting 'triclinic'
loop_
_space_group_symop_operation_xyz
x,y,z
-x,-y,-z
loop_
_atom_site_type_symbol
_atom_site_label
_atom_site_fract_x
_atom_site_fract_y
_atom_site_fract_z
Si Si1 0.005990 0.242050 0.979244
Si Si2 0.757844 0.527749 0.373100
Si Si3 0.368778 0.909644 0.274684
Si Si4 0.785163 0.811688 0.560320
Si Si5 0.306363 0.840009 0.660998
Si Si6 0.301077 0.355293 0.184238
O O1 0.803944 0.398134 0.224342
O O2 0.908865 0.158632 0.094401
O O3 0.319671 0.163727 0.848473
O O4 0.026962 0.243982 0.745933
O O5 0.547853 0.674494 0.422459
O O6 0.651816 0.579815 0.660036
O O7 0.076698 0.468871 0.192807
O O8 0.198892 0.930921 0.560593
O O9 0.250317 0.059885 0.303874
O O10 0.424702 0.787841 0.090875
O O11 0.484309 0.867306 0.678374
O O12 0.855296 0.698416 0.643278
#
# Coordination Sequence:
#
# PCOD9095244 Si02
#       6
#     2   2   2   2   2   2
#     4  10  20  35  56  82 107 137 178 222 264 310
#     4   9  19  35  55  81 107 138 178 218 266 315
#     4  10  21  36  56  80 107 142 178 216 264 314
#     4  10  21  36  56  80 107 142 178 216 264 314
#     4  10  20  35  56  82 107 137 178 222 264 310
#     4   9  19  36  56  78 109 143 174 216 266 317
#
# _framework density 27.754421000000001
#
# number of rings (size 3 to 8) (size 9 to 14) (size 15 to 20)
#    0.000    2.333    0.000    3.000    0.000   14.667 
#    0.000    8.333    0.000   10.000    0.000    0.000 
#    0.000    0.000    0.000    0.000    0.000    0.000 
#
# Total GULP energy -67183.611268 kJ/mol
# GULP energy per Si atom -5598.634272 kJ/mol
# Density = 2.769125 g / cm^3
# Si number density = 27.754421 Si / 1000 Ang^3
#
#
#
# Elastic Constant Matrix: (Units=GPa)
#
#
# Indices 1 2 3 4 5 6 
#
# 1 91.3609 19.3453 34.7652 -1.7779 -7.7480 33.9412
# 2 19.3453 111.5938 45.0055 1.6220 -9.1130 12.4887
# 3 34.7652 45.0055 155.6689 0.5608 13.2535 10.4581
# 4 -1.7779 1.6220 0.5608 63.4718 4.4448 2.2696
# 5 -7.7480 -9.1130 13.2535 4.4448 34.7524 -5.2138
# 6 33.9412 12.4887 10.4581 2.2696 -5.2138 31.6129
#
#
#
# Elastic Compliance Matrix: (Units=1/GPa)
#
#
# Indices 1 2 3 4 5 6 
#
# 1 0.019828 0.000383 -0.003433 0.001100 0.002698 -0.019938
# 2 0.000383 0.010900 -0.003364 -0.000402 0.003837 -0.002943
# 3 -0.003433 -0.003364 0.008466 0.000192 -0.004687 0.001428
# 4 0.001100 -0.000402 0.000192 0.016055 -0.002382 -0.002631
# 5 0.002698 0.003837 -0.004687 -0.002382 0.032884 0.002732
# 6 -0.019938 -0.002943 0.001428 -0.002631 0.002732 0.054369
#
#
# Mechanical properties :
#
#
# Convention : Reuss Voigt Hill
#
# Bulk Modulus (GPa) = 37.92927 61.87285 49.90106
# Shear Modulus (GPa) = 30.46556 43.26794 36.86675
#
# Velocity S-wave (km/s) = 3.31672 3.95265 3.64857
# Velocity P-wave (km/s) = 5.32572 6.57058 5.98063
#
# Compressibility (1/GPa) = 0.02636486
#
# Stress axis : x y z
#
# Youngs Moduli (GPa) = 50.43301 91.74342 118.12424
#
# Poissons Ratio (x) = -0.03513 0.40554
# Poissons Ratio (y) = -0.01931 0.39741
# Poissons Ratio (z) = 0.17314 0.30865
#
# Static dielectric constant tensor:
#      x y z
#    x 2.158610 -0.020140 -0.030670 
#    y -0.020140 2.134740 0.031750 
#    z -0.030670 0.031750 2.203880 
# 
# From -- ./inp_files/179685.got.cif
#   From: 2010.05.17/outbox.cif.g08.bks.cpg/sg2_90_cif.got.tgz:179685.got - 2010.06.03 11:33:40.
