data_PCOD9095872
_publ_section_title
;
Structure prediction by ZEFSAII (Michael W. Deem and Ramdas Pophale) SiO2 
 PCOD9095872
Probable space group: P -1
;
_chemical_formula_sum "Si O2"
_cell_formula_units_Z 14
_cell_length_a 12.674888
_cell_length_b 9.546333
_cell_length_c 9.168803
_cell_angle_alpha 91.800299
_cell_angle_beta 32.779750
_cell_angle_gamma 98.314301
_cell_volume 585.858238
_symmetry_space_group_name_H-M "P -1"
_symmetry_group_IT_number 2
_symmetry_cell_setting 'triclinic'
loop_
_space_group_symop_operation_xyz
x,y,z
-x,-y,-z
loop_
_atom_site_type_symbol
_atom_site_label
_atom_site_fract_x
_atom_site_fract_y
_atom_site_fract_z
Si Si1 0.068478 0.664871 0.372364
Si Si2 0.500085 0.334469 0.020626
Si Si3 0.668098 0.783410 0.486324
Si Si4 0.126937 0.948417 0.580125
Si Si5 0.977640 0.676882 0.918293
Si Si6 0.217416 0.123425 0.194651
Si Si7 0.768467 0.370491 0.114355
O O1 0.925393 0.767066 0.592002
O O2 0.000000 0.500000 0.500000
O O3 0.293295 0.699956 0.171020
O O4 0.093639 0.680115 0.169443
O O5 0.359356 0.291182 0.324760
O O6 0.426748 0.234545 0.962401
O O7 0.500000 0.500000 0.000000
O O8 0.456031 0.718742 0.651875
O O9 0.741740 0.950387 0.449500
O O10 0.842160 0.749137 0.183804
O O11 0.891993 0.955931 0.822379
O O12 0.093282 0.787138 0.670273
O O13 0.219395 0.009724 0.318587
O O14 0.146853 0.635451 0.822461
O O15 0.819730 0.542115 0.029449
#
# Coordination Sequence:
#
# PCOD9095872 Si02
#       7
#     2   2   2   2   2   2   2
#     4  11  20  35  62  89 118 155 192 245 303 341
#     4  10  20  35  60  91 115 151 195 242 297 349
#     4  10  22  40  59  85 120 156 196 244 291 352
#     4  10  22  40  63  84 121 163 196 240 293 358
#     4  11  22  40  61  86 119 158 198 243 299 342
#     4  10  21  41  58  88 124 152 196 248 292 351
#     4  10  23  39  59  90 119 148 203 252 283 357
#
# _framework density 23.896566
#
# number of rings (size 3 to 8) (size 9 to 14) (size 15 to 20)
#    0.000    1.714    1.429    3.429    2.000    0.571 
#    0.000   15.714    0.000    0.000    0.000    0.000 
#    0.000    0.000    0.000    0.000    0.000    0.000 
#
# Total GULP energy -78088.342895 kJ/mol
# GULP energy per Si atom -5577.738778 kJ/mol
# Density = 2.384218 g / cm^3
# Si number density = 23.896566 Si / 1000 Ang^3
#
#
#
# Elastic Constant Matrix: (Units=GPa)
#
#
# Indices 1 2 3 4 5 6 
#
# 1 107.3826 27.7010 23.2882 -26.1354 -22.3007 17.2176
# 2 27.7010 78.6615 31.7632 -27.7916 1.8986 1.4920
# 3 23.2882 31.7632 64.0668 -12.7243 -2.2938 -5.6887
# 4 -26.1354 -27.7916 -12.7243 42.3908 9.0624 -10.0174
# 5 -22.3007 1.8986 -2.2938 9.0624 40.2565 -15.5517
# 6 17.2176 1.4920 -5.6887 -10.0174 -15.5517 39.3486
#
#
#
# Elastic Compliance Matrix: (Units=1/GPa)
#
#
# Indices 1 2 3 4 5 6 
#
# 1 0.012993 -0.002010 -0.003023 0.003989 0.005050 -0.003035
# 2 -0.002010 0.020404 -0.007405 0.010951 -0.005026 -0.000163
# 3 -0.003023 -0.007405 0.021035 0.000495 0.001894 0.005519
# 4 0.003989 0.010951 0.000495 0.035531 -0.004237 0.005282
# 5 0.005050 -0.005026 0.001894 -0.004237 0.032864 0.010165
# 6 -0.003035 -0.000163 0.005519 0.005282 0.010165 0.032908
#
#
# Mechanical properties :
#
#
# Convention : Reuss Voigt Hill
#
# Bulk Modulus (GPa) = 33.83360 46.17953 40.00657
# Shear Modulus (GPa) = 26.25202 35.55641 30.90422
#
# Velocity S-wave (km/s) = 3.31806 3.86155 3.60008
# Velocity P-wave (km/s) = 5.37294 6.26489 5.83598
#
# Compressibility (1/GPa) = 0.02955641
#
# Stress axis : x y z
#
# Youngs Moduli (GPa) = 76.96671 49.01001 47.54015
#
# Poissons Ratio (x) = 0.09851 0.14370
# Poissons Ratio (y) = 0.15470 0.35203
# Poissons Ratio (z) = 0.23265 0.36291
#
# Static dielectric constant tensor:
#      x y z
#    x 2.011510 0.083410 -0.030270 
#    y 0.083410 1.998690 -0.024480 
#    z -0.030270 -0.024480 1.940470 
# 
# From -- ./inp_files/257846.got.cif
#   From: 2010.05.17/outbox.cif.g08.bks.cpg/sg2_129_cif.got.tgz:257846.got - 2010.06.03 11:33:40.
