data_PCOD9095805
_publ_section_title
;
Structure prediction by ZEFSAII (Michael W. Deem and Ramdas Pophale) SiO2 
 PCOD9095805
Probable space group: P -1
;
_chemical_formula_sum "Si O2"
_cell_formula_units_Z 14
_cell_length_a 9.675787
_cell_length_b 10.431315
_cell_length_c 8.204619
_cell_angle_alpha 66.992224
_cell_angle_beta 121.399774
_cell_angle_gamma 123.603082
_cell_volume 582.558980
_symmetry_space_group_name_H-M "P -1"
_symmetry_group_IT_number 2
_symmetry_cell_setting 'triclinic'
loop_
_space_group_symop_operation_xyz
x,y,z
-x,-y,-z
loop_
_atom_site_type_symbol
_atom_site_label
_atom_site_fract_x
_atom_site_fract_y
_atom_site_fract_z
Si Si1 0.050487 0.316790 0.536588
Si Si2 0.236922 0.373871 0.963634
Si Si3 0.663623 0.064140 0.443105
Si Si4 0.754741 0.866819 0.351337
Si Si5 0.110963 0.880248 0.937927
Si Si6 0.143258 0.616083 0.903966
Si Si7 0.428081 0.185898 0.065379
O O1 0.865782 0.179249 0.563348
O O2 0.974751 0.402319 0.324115
O O3 0.174712 0.387017 0.734638
O O4 0.164311 0.254663 0.523672
O O5 0.275426 0.535974 0.991568
O O6 0.068890 0.235189 0.023092
O O7 0.388980 0.313407 0.073475
O O8 0.602941 0.167479 0.234449
O O9 0.500000 0.000000 0.500000
O O10 0.682047 0.925908 0.427905
O O11 0.598728 0.803744 0.149167
O O12 0.908020 0.015164 0.273205
O O13 0.256002 0.014141 0.075450
O O14 0.195310 0.778899 0.948204
O O15 0.000000 0.500000 0.000000
#
# Coordination Sequence:
#
# PCOD9095805 Si02
#       7
#     2   2   2   2   2   2   2
#     4  11  21  38  58  87 118 147 193 243 281 334
#     4  10  20  35  60  86 112 154 192 236 279 345
#     4  12  23  32  56  93 122 144 186 241 295 336
#     4   9  21  36  60  79 117 150 189 235 286 330
#     4   9  18  35  60  83 115 146 196 231 288 328
#     4  10  21  35  58  86 113 153 195 238 281 337
#     4   9  20  36  56  83 115 152 187 232 287 340
#
# _framework density 24.031901000000001
#
# number of rings (size 3 to 8) (size 9 to 14) (size 15 to 20)
#    0.857    1.143    1.429    2.571    2.000    1.143 
#    0.000    0.714    0.000    1.714    0.000   11.000 
#    0.000    0.000    0.000    0.000    0.000    0.000 
#
# Total GULP energy -78139.318138 kJ/mol
# GULP energy per Si atom -5581.379867 kJ/mol
# Density = 2.397720 g / cm^3
# Si number density = 24.031901 Si / 1000 Ang^3
#
#
#
# Elastic Constant Matrix: (Units=GPa)
#
#
# Indices 1 2 3 4 5 6 
#
# 1 157.8110 26.8041 29.4130 -10.9990 12.0586 -29.1803
# 2 26.8041 76.1855 9.2979 -9.8979 17.1827 -28.1842
# 3 29.4130 9.2979 48.0049 -5.2045 3.6235 1.6618
# 4 -10.9990 -9.8979 -5.2045 30.1658 -1.5051 10.7703
# 5 12.0586 17.1827 3.6235 -1.5051 44.4073 -11.6952
# 6 -29.1803 -28.1842 1.6618 10.7703 -11.6952 43.4514
#
#
#
# Elastic Compliance Matrix: (Units=1/GPa)
#
#
# Indices 1 2 3 4 5 6 
#
# 1 0.008425 -0.000142 -0.005300 0.000072 -0.000305 0.005669
# 2 -0.000142 0.018646 -0.003432 0.001459 -0.004033 0.010683
# 3 -0.005300 -0.003432 0.025582 0.004203 -0.001328 -0.008163
# 4 0.000072 0.001459 0.004203 0.037494 -0.002028 -0.009006
# 5 -0.000305 -0.004033 -0.001328 -0.002028 0.025406 0.004571
# 6 0.005669 0.010683 -0.008163 -0.009006 0.004571 0.037525
#
#
# Mechanical properties :
#
#
# Convention : Reuss Voigt Hill
#
# Bulk Modulus (GPa) = 28.64904 45.89238 37.27071
# Shear Modulus (GPa) = 27.40317 38.03732 32.72024
#
# Velocity S-wave (km/s) = 3.38047 3.98274 3.69390
# Velocity P-wave (km/s) = 5.21382 6.34724 5.80824
#
# Compressibility (1/GPa) = 0.03490519
#
# Stress axis : x y z
#
# Youngs Moduli (GPa) = 118.69235 53.63094 39.09035
#
# Poissons Ratio (x) = 0.00763 0.20718
# Poissons Ratio (y) = 0.01688 0.13414
# Poissons Ratio (z) = 0.62907 0.18404
#
# Static dielectric constant tensor:
#      x y z
#    x 1.980190 0.049740 -0.035150 
#    y 0.049740 1.987910 -0.039940 
#    z -0.035150 -0.039940 1.974320 
# 
# From -- ./inp_files/175563.got.cif
#   From: 2010.05.17/outbox.cif.g08.bks.cpg/sg2_88_cif.got.tgz:175563.got - 2010.06.03 11:33:40.
