data_PCOD9095490
_publ_section_title
;
Structure prediction by ZEFSAII (Michael W. Deem and Ramdas Pophale) SiO2 
 PCOD9095490
Probable space group: P -1
;
_chemical_formula_sum "Si O2"
_cell_formula_units_Z 16
_cell_length_a 12.632583
_cell_length_b 13.513947
_cell_length_c 7.845520
_cell_angle_alpha 91.387553
_cell_angle_beta 33.957184
_cell_angle_gamma 96.119825
_cell_volume 738.876714
_symmetry_space_group_name_H-M "P -1"
_symmetry_group_IT_number 2
_symmetry_cell_setting 'triclinic'
loop_
_space_group_symop_operation_xyz
x,y,z
-x,-y,-z
loop_
_atom_site_type_symbol
_atom_site_label
_atom_site_fract_x
_atom_site_fract_y
_atom_site_fract_z
Si Si1 0.742631 0.691457 0.657408
Si Si2 0.646872 0.779486 0.118350
Si Si3 0.052468 0.138929 0.850731
Si Si4 0.719943 0.978968 0.188701
Si Si5 0.906958 0.382998 0.635337
Si Si6 0.387875 0.639767 0.664734
Si Si7 0.006174 0.700977 0.819638
Si Si8 0.274089 0.450273 0.613964
O O1 0.804797 0.778152 0.440186
O O2 0.682857 0.587008 0.633260
O O3 0.934267 0.674162 0.496074
O O4 0.611639 0.729686 0.978333
O O5 0.466492 0.746392 0.482276
O O6 0.708447 0.898257 0.047922
O O7 0.822722 0.732916 0.965874
O O8 0.191102 0.075667 0.769654
O O9 0.934562 0.200768 0.141039
O O10 0.890090 0.073546 0.949372
O O11 0.500000 0.000000 0.500000
O O12 0.000000 0.500000 0.500000
O O13 0.865414 0.337294 0.500594
O O14 0.740593 0.366858 0.996273
O O15 0.296411 0.565994 0.634556
O O16 0.571062 0.593483 0.479779
O O17 0.924150 0.610342 0.052386
#
# Coordination Sequence:
#
# PCOD9095490 Si02
#       8
#     2   2   2   2   2   2   2   2
#     4  10  22  39  59  86 121 160 200 242 302 361
#     4   9  20  37  58  84 119 158 194 246 306 365
#     4   9  20  41  66  88 121 166 195 250 320 362
#     4  10  21  40  68  90 119 154 205 255 313 374
#     4  11  21  36  57  89 121 158 207 245 285 354
#     4  10  20  35  58  82 118 161 196 244 300 346
#     4   8  16  37  58  79 119 158 193 238 304 355
#     4   9  18  36  56  78 115 158 196 241 292 354
#
# _framework density 21.654492999999999
#
# number of rings (size 3 to 8) (size 9 to 14) (size 15 to 20)
#    0.000    2.500    1.250    0.750    3.500    1.500 
#    2.250    0.625    0.000    0.000    0.000    0.000 
#    0.000    0.000    0.000    0.000    0.000    0.000 
#
# Total GULP energy -89152.524948 kJ/mol
# GULP energy per Si atom -5572.032809 kJ/mol
# Density = 2.160521 g / cm^3
# Si number density = 21.654493 Si / 1000 Ang^3
#
#
#
# Elastic Constant Matrix: (Units=GPa)
#
#
# Indices 1 2 3 4 5 6 
#
# 1 65.5869 20.4953 23.6517 10.3940 -8.1446 13.3595
# 2 20.4953 64.6600 49.0444 3.2948 5.7189 35.0211
# 3 23.6517 49.0444 94.2545 9.6675 10.6590 22.3580
# 4 10.3940 3.2948 9.6675 21.0489 0.4845 6.3721
# 5 -8.1446 5.7189 10.6590 0.4845 37.7436 14.2484
# 6 13.3595 35.0211 22.3580 6.3721 14.2484 43.0826
#
#
#
# Elastic Compliance Matrix: (Units=1/GPa)
#
#
# Indices 1 2 3 4 5 6 
#
# 1 0.019814 -0.001862 -0.003063 -0.006923 0.007168 -0.004388
# 2 -0.001862 0.045583 -0.017918 0.011506 0.009719 -0.032094
# 3 -0.003063 -0.017918 0.020241 -0.007342 -0.006707 0.008315
# 4 -0.006923 0.011506 -0.007342 0.056269 0.002900 -0.012677
# 5 0.007168 0.009719 -0.006707 0.002900 0.035531 -0.018823
# 6 -0.004388 -0.032094 0.008315 -0.012677 -0.018823 0.054446
#
#
# Mechanical properties :
#
#
# Convention : Reuss Voigt Hill
#
# Bulk Modulus (GPa) = 25.02969 45.65378 35.34174
# Shear Modulus (GPa) = 17.18884 29.12904 23.15894
#
# Velocity S-wave (km/s) = 2.82046 3.67164 3.27383
# Velocity P-wave (km/s) = 4.71067 6.25325 5.53595
#
# Compressibility (1/GPa) = 0.03995255
#
# Stress axis : x y z
#
# Youngs Moduli (GPa) = 50.46852 21.93801 49.40554
#
# Poissons Ratio (x) = 0.04085 0.15133
# Poissons Ratio (y) = 0.09397 0.88524
# Poissons Ratio (z) = 0.15458 0.39308
#
# Static dielectric constant tensor:
#      x y z
#    x 1.829050 0.026750 0.016510 
#    y 0.026750 1.808910 0.059760 
#    z 0.016510 0.059760 1.746900 
# 
# From -- ./inp_files/313246.got.cif
#   From: 2010.05.17/outbox.cif.g08.bks.cpg/sg2_157_cif.got.tgz:313246.got - 2010.06.03 11:33:40.
