data_PCOD9095779
_publ_section_title
;
Structure prediction by ZEFSAII (Michael W. Deem and Ramdas Pophale) SiO2 
 PCOD9095779
Probable space group: P -1
;
_chemical_formula_sum "Si O2"
_cell_formula_units_Z 16
_cell_length_a 12.370048
_cell_length_b 16.371489
_cell_length_c 8.131954
_cell_angle_alpha 136.945182
_cell_angle_beta 35.540475
_cell_angle_gamma 135.804441
_cell_volume 621.673946
_symmetry_space_group_name_H-M "P -1"
_symmetry_group_IT_number 2
_symmetry_cell_setting 'triclinic'
loop_
_space_group_symop_operation_xyz
x,y,z
-x,-y,-z
loop_
_atom_site_type_symbol
_atom_site_label
_atom_site_fract_x
_atom_site_fract_y
_atom_site_fract_z
Si Si1 0.273748 0.223164 0.704568
Si Si2 0.882689 0.875146 0.784370
Si Si3 0.383230 0.374766 0.114804
Si Si4 0.401268 0.735792 0.886233
Si Si5 0.872787 0.448777 0.244639
Si Si6 0.780374 0.392490 0.761464
Si Si7 0.116054 0.859988 0.813605
Si Si8 0.311275 0.966191 0.304503
O O1 0.390856 0.249041 0.428620
O O2 0.322245 0.104210 0.554188
O O3 0.324997 0.327992 0.933521
O O4 0.043296 0.181959 0.905921
O O5 0.712892 0.742651 0.813145
O O6 0.996444 0.867720 0.804889
O O7 0.075697 0.907038 0.473194
O O8 0.788623 0.989698 0.054934
O O9 0.287060 0.479195 0.437729
O O10 0.615909 0.418140 0.892878
O O11 0.250785 0.693896 0.854870
O O12 0.328271 0.633295 0.964607
O O13 0.367349 0.861196 0.184949
O O14 0.020349 0.495783 0.283740
O O15 0.000000 0.500000 0.000000
O O16 0.806886 0.259671 0.476858
O O17 0.500000 0.000000 0.000000
#
# Coordination Sequence:
#
# PCOD9095779 Si02
#       8
#     2   2   2   2   2   2   2   2
#     4   9  19  36  60  85 118 148 182 242 293 335
#     4   9  15  30  54  83 110 148 188 230 279 338
#     4  11  22  36  60  90 115 146 195 241 284 336
#     4  10  20  35  60  83 112 159 191 227 290 342
#     4  10  21  39  60  82 117 153 194 237 280 339
#     4  11  21  37  61  87 112 152 198 234 280 343
#     4   9  16  31  57  79 113 149 187 227 284 341
#     4   9  16  31  59  86 112 151 189 227 289 344
#
# _framework density 25.736965000000001
#
# number of rings (size 3 to 8) (size 9 to 14) (size 15 to 20)
#    0.000    2.250    3.750    1.500    0.000    3.000 
#    0.000    0.625   11.000    2.250    0.000    0.000 
#    0.000    0.000    0.000    0.000    0.000    0.000 
#
# Total GULP energy -89176.903733 kJ/mol
# GULP energy per Si atom -5573.556483 kJ/mol
# Density = 2.567839 g / cm^3
# Si number density = 25.736965 Si / 1000 Ang^3
#
#
#
# Elastic Constant Matrix: (Units=GPa)
#
#
# Indices 1 2 3 4 5 6 
#
# 1 30.6829 24.9515 9.7839 2.8318 -0.1796 0.4611
# 2 24.9515 111.6042 42.5484 -7.7800 -11.5462 -7.4941
# 3 9.7839 42.5484 162.5966 4.8836 3.4626 -9.8948
# 4 2.8318 -7.7800 4.8836 48.7669 -2.8294 -0.7022
# 5 -0.1796 -11.5462 3.4626 -2.8294 25.5582 -11.5615
# 6 0.4611 -7.4941 -9.8948 -0.7022 -11.5615 17.2835
#
#
#
# Elastic Compliance Matrix: (Units=1/GPa)
#
#
# Indices 1 2 3 4 5 6 
#
# 1 0.043378 -0.012516 0.000171 -0.005504 -0.012930 -0.015359
# 2 -0.012516 0.015810 -0.002881 0.004643 0.015127 0.015847
# 3 0.000171 -0.002881 0.007066 -0.001250 -0.001658 0.001632
# 4 -0.005504 0.004643 -0.001250 0.022284 0.008257 0.007873
# 5 -0.012930 0.015127 -0.001658 0.008257 0.071485 0.054109
# 6 -0.015359 0.015847 0.001632 0.007873 0.054109 0.102589
#
#
# Mechanical properties :
#
#
# Convention : Reuss Voigt Hill
#
# Bulk Modulus (GPa) = 27.93183 51.05014 39.49098
# Shear Modulus (GPa) = 16.39353 33.49505 24.94429
#
# Velocity S-wave (km/s) = 2.52655 3.61146 3.11658
# Velocity P-wave (km/s) = 4.40314 6.10480 5.32242
#
# Compressibility (1/GPa) = 0.03580144
#
# Stress axis : x y z
#
# Youngs Moduli (GPa) = 23.05307 63.25200 141.52298
#
# Poissons Ratio (x) = 0.79166 -0.02420
# Poissons Ratio (y) = 0.28853 0.40776
# Poissons Ratio (z) = -0.00394 0.18224
#
# Static dielectric constant tensor:
#      x y z
#    x 2.169610 0.015180 0.030290 
#    y 0.015180 2.176450 -0.066120 
#    z 0.030290 -0.066120 2.016530 
# 
# From -- ./inp_files/467368.got.cif
#   From: 2010.05.17/outbox.cif.g08.bks.cpg/sg2_234_cif.got.tgz:467368.got - 2010.06.03 11:33:40.
