data_PCOD9095837
_publ_section_title
;
Structure prediction by ZEFSAII (Michael W. Deem and Ramdas Pophale) SiO2 
 PCOD9095837
Probable space group: P -1
;
_chemical_formula_sum "Si O2"
_cell_formula_units_Z 12
_cell_length_a 13.627457
_cell_length_b 11.490801
_cell_length_c 13.835385
_cell_angle_alpha 31.133794
_cell_angle_beta 34.275570
_cell_angle_gamma 31.169076
_cell_volume 542.858411
_symmetry_space_group_name_H-M "P -1"
_symmetry_group_IT_number 2
_symmetry_cell_setting 'triclinic'
loop_
_space_group_symop_operation_xyz
x,y,z
-x,-y,-z
loop_
_atom_site_type_symbol
_atom_site_label
_atom_site_fract_x
_atom_site_fract_y
_atom_site_fract_z
Si Si1 0.939017 0.853575 0.231007
Si Si2 0.421934 0.305288 0.668077
Si Si3 0.626381 0.253731 0.354105
Si Si4 0.180682 0.566008 0.417167
Si Si5 0.002586 0.233003 0.387353
Si Si6 0.216189 0.370726 0.971040
O O1 0.868580 0.667339 0.372342
O O2 0.127424 0.678558 0.272897
O O3 0.759918 0.050086 0.308399
O O4 0.000000 0.000000 0.000000
O O5 0.500000 0.500000 0.500000
O O6 0.565957 0.145852 0.574972
O O7 0.201162 0.495273 0.666442
O O8 0.376794 0.198835 0.878632
O O9 0.409840 0.461847 0.335227
O O10 0.733993 0.409108 0.193643
O O11 0.025660 0.783571 0.464177
O O12 0.000000 0.000000 0.500000
O O13 0.187860 0.243719 0.180997
O O14 0.000000 0.500000 0.000000
#
# Coordination Sequence:
#
# PCOD9095837 Si02
#       6
#     2   2   2   2   2   2
#     4  11  24  43  72  89 124 176 213 268 333 369
#     4   8  17  33  55  85 117 157 202 243 301 380
#     4  10  20  40  66  90 131 166 208 272 319 366
#     4  10  24  43  62 100 127 161 226 264 307 399
#     4  10  20  35  60  88 129 160 196 264 317 365
#     4   9  18  34  62  90 125 168 210 244 313 393
#
# _framework density 22.105212999999999
#
# number of rings (size 3 to 8) (size 9 to 14) (size 15 to 20)
#    0.000    2.333    0.000    1.500    7.000    0.667 
#    0.000    9.167    7.333    0.000    0.000    0.000 
#    0.000    0.000    0.000    0.000    0.000    0.000 
#
# Total GULP energy -67006.822197 kJ/mol
# GULP energy per Si atom -5583.901850 kJ/mol
# Density = 2.205490 g / cm^3
# Si number density = 22.105213 Si / 1000 Ang^3
#
#
#
# Elastic Constant Matrix: (Units=GPa)
#
#
# Indices 1 2 3 4 5 6 
#
# 1 114.6796 32.8970 47.1472 4.7777 -10.7380 2.9521
# 2 32.8970 107.2930 31.6144 25.3941 -5.9012 18.0670
# 3 47.1472 31.6144 127.4615 12.5857 11.8148 7.6156
# 4 4.7777 25.3941 12.5857 31.5109 2.2583 0.2467
# 5 -10.7380 -5.9012 11.8148 2.2583 34.0892 4.3946
# 6 2.9521 18.0670 7.6156 0.2467 4.3946 48.2656
#
#
#
# Elastic Compliance Matrix: (Units=1/GPa)
#
#
# Indices 1 2 3 4 5 6 
#
# 1 0.011526 -0.002505 -0.004250 0.001642 0.004499 0.000485
# 2 -0.002505 0.014116 -0.001551 -0.010591 0.003558 -0.005156
# 3 -0.004250 -0.001551 0.010483 -0.001927 -0.005069 -0.000342
# 4 0.001642 -0.010591 -0.001927 0.041038 -0.003923 0.004316
# 5 0.004499 0.003558 -0.005069 -0.003923 0.033884 -0.003872
# 6 0.000485 -0.005156 -0.000342 0.004316 -0.003872 0.023004
#
#
# Mechanical properties :
#
#
# Convention : Reuss Voigt Hill
#
# Bulk Modulus (GPa) = 51.24673 63.63904 57.44289
# Shear Modulus (GPa) = 31.81343 38.62484 35.21914
#
# Velocity S-wave (km/s) = 3.79777 4.18463 3.99588
# Velocity P-wave (km/s) = 6.51645 7.22494 6.87983
#
# Compressibility (1/GPa) = 0.01951344
#
# Stress axis : x y z
#
# Youngs Moduli (GPa) = 86.75886 70.84292 95.39364
#
# Poissons Ratio (x) = 0.17743 0.40546
# Poissons Ratio (y) = 0.21729 0.14793
# Poissons Ratio (z) = 0.36876 0.10986
#
# Static dielectric constant tensor:
#      x y z
#    x 1.837170 -0.023460 0.056120 
#    y -0.023460 1.830320 0.015770 
#    z 0.056120 0.015770 1.810650 
# 
# From -- ./inp_files/314994.got.cif
#   From: 2010.05.17/outbox.cif.g08.bks.cpg/sg2_158_cif.got.tgz:314994.got - 2010.06.03 11:33:40.
