data_PCOD9095835
_publ_section_title
;
Structure prediction by ZEFSAII (Michael W. Deem and Ramdas Pophale) SiO2 
 PCOD9095835
Probable space group: P -1
;
_chemical_formula_sum "Si O2"
_cell_formula_units_Z 15
_cell_length_a 13.729797
_cell_length_b 11.572463
_cell_length_c 11.520198
_cell_angle_alpha 86.216908
_cell_angle_beta 121.818298
_cell_angle_gamma 45.396586
_cell_volume 767.349145
_symmetry_space_group_name_H-M "P -1"
_symmetry_group_IT_number 2
_symmetry_cell_setting 'triclinic'
loop_
_space_group_symop_operation_xyz
x,y,z
-x,-y,-z
loop_
_atom_site_type_symbol
_atom_site_label
_atom_site_fract_x
_atom_site_fract_y
_atom_site_fract_z
Si Si1 0.571136 0.032977 0.137000
Si Si2 0.159360 0.960009 0.054052
Si Si3 0.335395 0.493446 0.683187
Si Si4 0.776921 0.853705 0.822538
Si Si5 0.124293 0.021971 0.757437
Si Si6 0.927067 0.547994 0.138777
Si Si7 0.500000 0.500000 0.000000
Si Si8 0.270631 0.294956 0.567853
O O1 0.718975 0.006352 0.179911
O O2 0.706884 0.840817 0.333038
O O3 0.320953 0.295310 0.009362
O O4 0.500000 0.000000 0.000000
O O5 0.429919 0.688919 0.230765
O O6 0.142120 0.086465 0.116358
O O7 0.091195 0.052573 0.873471
O O8 0.000000 0.000000 0.000000
O O9 0.391821 0.493535 0.844945
O O10 0.290835 0.393861 0.651250
O O11 0.119297 0.747549 0.474114
O O12 0.886936 0.697724 0.790187
O O13 0.498801 0.095730 0.642017
O O14 0.870624 0.701238 0.003871
O O15 0.257345 0.788250 0.822480
O O16 0.042098 0.493103 0.332593
#
# Coordination Sequence:
#
# PCOD9095835 Si02
#       8
#     2   2   2   2   2   2   1   2
#     4  11  22  36  57  90 123 154 194 237 291 355
#     4  10  22  40  61  83 113 154 202 251 295 345
#     4  10  21  39  63  86 116 156 196 244 297 353
#     4   9  19  37  57  86 119 153 197 242 289 341
#     4  11  23  40  61  86 119 158 198 243 295 352
#     4  10  20  35  60  88 123 158 189 237 291 349
#     4  10  22  40  58  82 116 154 198 242 286 338
#     4  10  20  36  61  90 119 155 193 236 296 360
#
# _framework density 19.547817999999999
#
# number of rings (size 3 to 8) (size 9 to 14) (size 15 to 20)
#    0.000    1.867    0.000    5.600    0.000    6.933 
#    0.000    1.333    0.000    0.000    0.000    0.000 
#    0.000    0.000    0.000    0.000    0.000    0.000 
#
# Total GULP energy -83535.397894 kJ/mol
# GULP energy per Si atom -5569.026526 kJ/mol
# Density = 1.950333 g / cm^3
# Si number density = 19.547818 Si / 1000 Ang^3
#
#
#
# Elastic Constant Matrix: (Units=GPa)
#
#
# Indices 1 2 3 4 5 6 
#
# 1 106.6062 24.1814 32.8706 7.0637 20.4140 -2.0772
# 2 24.1814 96.8731 36.9399 0.5116 5.7116 13.8792
# 3 32.8706 36.9399 133.9731 -5.1234 2.8937 3.0041
# 4 7.0637 0.5116 -5.1234 31.9460 5.5498 -2.6779
# 5 20.4140 5.7116 2.8937 5.5498 18.6709 1.6239
# 6 -2.0772 13.8792 3.0041 -2.6779 1.6239 17.0701
#
#
#
# Elastic Compliance Matrix: (Units=1/GPa)
#
#
# Indices 1 2 3 4 5 6 
#
# 1 0.013488 -0.002338 -0.002499 -0.000482 -0.013956 0.005234
# 2 -0.002338 0.013620 -0.002981 -0.001129 0.000147 -0.011025
# 3 -0.002499 -0.002981 0.008917 0.001797 0.001669 0.000673
# 4 -0.000482 -0.001129 0.001797 0.034048 -0.010122 0.006847
# 5 -0.013956 0.000147 0.001669 -0.010122 0.072445 -0.010591
# 6 0.005234 -0.011025 0.000673 0.006847 -0.010591 0.070146
#
#
# Mechanical properties :
#
#
# Convention : Reuss Voigt Hill
#
# Bulk Modulus (GPa) = 49.04782 58.38182 53.71482
# Shear Modulus (GPa) = 21.26794 29.76807 25.51800
#
# Velocity S-wave (km/s) = 3.30206 3.90658 3.61697
# Velocity P-wave (km/s) = 6.29951 7.09081 6.70684
#
# Compressibility (1/GPa) = 0.02038827
#
# Stress axis : x y z
#
# Youngs Moduli (GPa) = 74.14200 73.42129 112.14898
#
# Poissons Ratio (x) = 0.17169 0.28024
# Poissons Ratio (y) = 0.17338 0.33429
# Poissons Ratio (z) = 0.18527 0.21885
#
# Static dielectric constant tensor:
#      x y z
#    x 1.665310 -0.022470 -0.006210 
#    y -0.022470 1.712570 -0.010950 
#    z -0.006210 -0.010950 1.692860 
# 
# From -- ./inp_files/450340.got.cif
#   From: 2010.05.17/outbox.cif.g08.bks.cpg/sg2_226_cif.got.tgz:450340.got - 2010.06.03 11:33:40.
