data_PCOD9095200
_publ_section_title
;
Structure prediction by ZEFSAII (Michael W. Deem and Ramdas Pophale) SiO2 
 PCOD9095200
Probable space group: P -1
;
_chemical_formula_sum "Si O2"
_cell_formula_units_Z 12
_cell_length_a 12.703715
_cell_length_b 5.347565
_cell_length_c 9.165860
_cell_angle_alpha 105.674584
_cell_angle_beta 66.029429
_cell_angle_gamma 86.949266
_cell_volume 538.328667
_symmetry_space_group_name_H-M "P -1"
_symmetry_group_IT_number 2
_symmetry_cell_setting 'triclinic'
loop_
_space_group_symop_operation_xyz
x,y,z
-x,-y,-z
loop_
_atom_site_type_symbol
_atom_site_label
_atom_site_fract_x
_atom_site_fract_y
_atom_site_fract_z
Si Si1 0.400658 0.405359 0.636227
Si Si2 0.564008 0.391332 0.799952
Si Si3 0.017082 0.000604 0.237944
Si Si4 0.313627 0.184762 0.379081
Si Si5 0.844167 0.223081 0.153629
Si Si6 0.947501 0.566786 0.359992
O O1 0.500000 0.500000 0.500000
O O2 0.461819 0.321097 0.740805
O O3 0.357085 0.192167 0.524140
O O4 0.290661 0.645127 0.754001
O O5 0.623252 0.616964 0.722474
O O6 0.655032 0.119147 0.734361
O O7 0.500000 0.500000 0.000000
O O8 0.987397 0.707588 0.651476
O O9 0.027442 0.778154 0.316942
O O10 0.110123 0.917469 0.043927
O O11 0.889060 0.028640 0.233361
O O12 0.177238 0.310499 0.483578
O O13 0.915960 0.451663 0.198282
#
# Coordination Sequence:
#
# PCOD9095200 Si02
#       6
#     2   2   2   2   2   2
#     4   9  19  35  53  81 107 136 174 218 256 306
#     4  11  22  37  52  76 107 143 174 210 261 314
#     4   9  16  27  44  72 105 130 157 212 261 304
#     4  10  20  35  56  76 105 135 177 217 257 304
#     4   8  17  27  45  71 107 129 164 205 268 291
#     4   9  16  27  47  71  99 126 168 203 260 294
#
# _framework density 22.291215999999999
#
# number of rings (size 3 to 8) (size 9 to 14) (size 15 to 20)
#    1.000    1.667    0.000    2.500    2.333    0.000 
#    3.000    0.000    0.000    0.000    0.000    7.000 
#    0.000    0.000    0.000    0.000    0.000    0.000 
#
# Total GULP energy -66917.662271 kJ/mol
# GULP energy per Si atom -5576.471856 kJ/mol
# Density = 2.224048 g / cm^3
# Si number density = 22.291216 Si / 1000 Ang^3
#
#
#
# Elastic Constant Matrix: (Units=GPa)
#
#
# Indices 1 2 3 4 5 6 
#
# 1 61.5016 9.6693 31.7460 9.6068 -0.0190 -10.2824
# 2 9.6693 154.0398 54.2218 14.0362 -4.9660 -2.4204
# 3 31.7460 54.2218 124.6979 24.0081 0.3849 -11.1474
# 4 9.6068 14.0362 24.0081 40.8498 -11.1049 -11.2682
# 5 -0.0190 -4.9660 0.3849 -11.1049 25.3247 6.0710
# 6 -10.2824 -2.4204 -11.1474 -11.2682 6.0710 19.1532
#
#
#
# Elastic Compliance Matrix: (Units=1/GPa)
#
#
# Indices 1 2 3 4 5 6 
#
# 1 0.019977 0.000402 -0.004398 -0.000445 -0.002101 0.008620
# 2 0.000402 0.007799 -0.003517 -0.000750 0.001691 -0.001823
# 3 -0.004398 -0.003517 0.011863 -0.005099 -0.003650 0.002256
# 4 -0.000445 -0.000750 -0.005099 0.034782 0.011978 0.013365
# 5 -0.002101 0.001691 -0.003650 0.011978 0.047796 -0.011141
# 6 0.008620 -0.001823 0.002256 0.013365 -0.011141 0.069315
#
#
# Mechanical properties :
#
#
# Convention : Reuss Voigt Hill
#
# Bulk Modulus (GPa) = 40.62926 59.05707 49.84316
# Shear Modulus (GPa) = 23.28161 33.37235 28.32698
#
# Velocity S-wave (km/s) = 3.23527 3.87345 3.56865
# Velocity P-wave (km/s) = 5.67645 6.82317 6.27606
#
# Compressibility (1/GPa) = 0.02461281
#
# Stress axis : x y z
#
# Youngs Moduli (GPa) = 50.05857 128.22310 84.29451
#
# Poissons Ratio (x) = -0.05159 0.37073
# Poissons Ratio (y) = -0.02014 0.29649
# Poissons Ratio (z) = 0.22016 0.45100
#
# Static dielectric constant tensor:
#      x y z
#    x 1.843090 -0.001980 0.054440 
#    y -0.001980 1.871520 0.006350 
#    z 0.054440 0.006350 1.797540 
# 
# From -- ./inp_files/287071.got.cif
#   From: 2010.05.17/outbox.cif.g08.bks.cpg/sg2_144_cif.got.tgz:287071.got - 2010.06.03 11:33:40.
