data_PCOD9095322
_publ_section_title
;
Structure prediction by ZEFSAII (Michael W. Deem and Ramdas Pophale) SiO2 
 PCOD9095322
Probable space group: P -1
;
_chemical_formula_sum "Si O2"
_cell_formula_units_Z 16
_cell_length_a 10.466447
_cell_length_b 20.546101
_cell_length_c 8.062376
_cell_angle_alpha 70.248124
_cell_angle_beta 89.865521
_cell_angle_gamma 27.365902
_cell_volume 544.118453
_symmetry_space_group_name_H-M "P -1"
_symmetry_group_IT_number 2
_symmetry_cell_setting 'triclinic'
loop_
_space_group_symop_operation_xyz
x,y,z
-x,-y,-z
loop_
_atom_site_type_symbol
_atom_site_label
_atom_site_fract_x
_atom_site_fract_y
_atom_site_fract_z
Si Si1 0.046395 0.432656 0.728414
Si Si2 0.987195 0.052593 0.290753
Si Si3 0.989597 0.673733 0.378494
Si Si4 0.092318 0.534433 0.836968
Si Si5 0.974263 0.798214 0.495235
Si Si6 0.888001 0.885669 0.953022
Si Si7 0.040754 0.059296 0.800645
Si Si8 0.058673 0.261477 0.128012
O O1 0.869621 0.448129 0.665068
O O2 0.905691 0.555309 0.771479
O O3 0.000000 0.500000 0.500000
O O4 0.501199 0.187969 0.970753
O O5 0.136684 0.923922 0.257270
O O6 0.170350 0.034630 0.277489
O O7 0.540974 0.294605 0.059468
O O8 0.000000 0.000000 0.500000
O O9 0.113764 0.685794 0.429271
O O10 0.028593 0.611927 0.604632
O O11 0.531351 0.912457 0.144260
O O12 0.981091 0.638312 0.905208
O O13 0.110258 0.694203 0.752933
O O14 0.031567 0.849839 0.425993
O O15 0.516148 0.020086 0.315718
O O16 0.072795 0.718689 0.043884
O O17 0.094539 0.830612 0.130802
#
# Coordination Sequence:
#
# PCOD9095322 Si02
#       8
#     2   2   2   2   2   2   2   2
#     4   8  15  29  48  76 108 138 174 217 266 310
#     4  11  23  38  56  79 109 147 185 223 269 323
#     4   8  16  32  57  82 108 138 177 227 271 317
#     4   9  18  34  54  79 110 145 179 218 271 322
#     4   9  17  32  56  85 110 139 178 224 272 319
#     4  10  20  35  57  82 110 143 181 223 269 321
#     4  10  20  35  57  79 107 145 184 223 268 322
#     4   9  18  33  55  82 112 140 176 223 272 324
#
# _framework density 29.405358
#
# number of rings (size 3 to 8) (size 9 to 14) (size 15 to 20)
#    0.000    2.750    0.000    1.875    0.000    5.000 
#    0.000    8.125    0.000   11.250    0.000    0.000 
#    0.000    0.000    0.000    0.000    0.000    0.000 
#
# Total GULP energy -89600.098006 kJ/mol
# GULP energy per Si atom -5600.006125 kJ/mol
# Density = 2.933843 g / cm^3
# Si number density = 29.405358 Si / 1000 Ang^3
#
#
#
# Elastic Constant Matrix: (Units=GPa)
#
#
# Indices 1 2 3 4 5 6 
#
# 1 152.0991 64.1164 45.8427 -7.6236 -30.7268 48.8840
# 2 64.1164 181.3507 44.9233 27.6231 16.0676 53.9640
# 3 45.8427 44.9233 95.5454 7.0543 1.8940 1.1103
# 4 -7.6236 27.6231 7.0543 45.5120 0.1117 15.9968
# 5 -30.7268 16.0676 1.8940 0.1117 48.2829 0.9086
# 6 48.8840 53.9640 1.1103 15.9968 0.9086 89.3843
#
#
#
# Elastic Compliance Matrix: (Units=1/GPa)
#
#
# Indices 1 2 3 4 5 6 
#
# 1 0.015256 -0.003905 -0.006251 0.008520 0.011376 -0.007549
# 2 -0.003905 0.009431 -0.002042 -0.005150 -0.005483 -0.002556
# 3 -0.006251 -0.002042 0.014732 -0.003912 -0.003965 0.005209
# 4 0.008520 -0.005150 -0.003912 0.029525 0.007350 -0.006860
# 5 0.011376 -0.005483 -0.003965 0.007350 0.029998 -0.004482
# 6 -0.007549 -0.002556 0.005209 -0.006860 -0.004482 0.018068
#
#
# Mechanical properties :
#
#
# Convention : Reuss Voigt Hill
#
# Bulk Modulus (GPa) = 66.55849 82.08446 74.32148
# Shear Modulus (GPa) = 34.14988 54.91003 44.52996
#
# Velocity S-wave (km/s) = 3.41155 4.32597 3.89568
# Velocity P-wave (km/s) = 6.18079 7.27512 6.75017
#
# Compressibility (1/GPa) = 0.01502438
#
# Stress axis : x y z
#
# Youngs Moduli (GPa) = 65.54882 106.02960 67.87722
#
# Poissons Ratio (x) = 0.41400 0.42428
# Poissons Ratio (y) = 0.25594 0.13863
# Poissons Ratio (z) = 0.40973 0.21655
#
# Static dielectric constant tensor:
#      x y z
#    x 2.256880 0.059860 -0.049840 
#    y 0.059860 2.253610 0.059850 
#    z -0.049840 0.059850 2.372270 
# 
# From -- ./inp_files/283052.got.cif
#   From: 2010.05.17/outbox.cif.g08.bks.cpg/sg2_142_cif.got.tgz:283052.got - 2010.06.03 11:33:40.
