data_PCOD9095755
_publ_section_title
;
Structure prediction by ZEFSAII (Michael W. Deem and Ramdas Pophale) SiO2 
 PCOD9095755
Probable space group: P -1
;
_chemical_formula_sum "Si O2"
_cell_formula_units_Z 14
_cell_length_a 7.473222
_cell_length_b 14.469640
_cell_length_c 7.829195
_cell_angle_alpha 109.444053
_cell_angle_beta 52.564812
_cell_angle_gamma 76.994920
_cell_volume 520.491772
_symmetry_space_group_name_H-M "P -1"
_symmetry_group_IT_number 2
_symmetry_cell_setting 'triclinic'
loop_
_space_group_symop_operation_xyz
x,y,z
-x,-y,-z
loop_
_atom_site_type_symbol
_atom_site_label
_atom_site_fract_x
_atom_site_fract_y
_atom_site_fract_z
Si Si1 0.092316 0.148062 0.409524
Si Si2 0.884026 0.413769 0.728335
Si Si3 0.291525 0.857848 0.646882
Si Si4 0.463234 0.896435 0.115235
Si Si5 0.862726 0.890914 0.153543
Si Si6 0.298889 0.357456 0.152412
Si Si7 0.897104 0.670142 0.103495
O O1 0.914186 0.289821 0.620049
O O2 0.927868 0.130536 0.349763
O O3 0.204659 0.029875 0.386726
O O4 0.393380 0.117429 0.159010
O O5 0.141793 0.384960 0.439997
O O6 0.915886 0.424840 0.918934
O O7 0.651979 0.541143 0.858463
O O8 0.582573 0.735045 0.384961
O O9 0.321132 0.964497 0.644217
O O10 0.149432 0.869841 0.916490
O O11 0.705742 0.870731 0.083226
O O12 0.450794 0.782595 0.077132
O O13 0.937100 0.779256 0.159107
O O14 0.100849 0.369920 0.116693
#
# Coordination Sequence:
#
# PCOD9095755 Si02
#       7
#     2   2   2   2   2   2   2
#     4   9  17  31  55  86 116 151 196 244 295 352
#     4  10  20  38  64  88 121 165 203 249 308 362
#     4  10  20  35  59  92 129 160 199 255 307 361
#     4   8  15  32  57  81 114 156 194 241 298 350
#     4   9  19  35  55  86 126 160 199 250 304 362
#     4   9  20  37  61  90 120 160 208 250 299 365
#     4  11  21  38  64  89 117 163 208 248 303 365
#
# _framework density 26.897641
#
# number of rings (size 3 to 8) (size 9 to 14) (size 15 to 20)
#    0.000    2.571    0.000    2.571    0.000    4.571 
#    0.000    8.571    0.000   32.571    0.000    0.000 
#    0.000    0.000    0.000    0.000    0.000    0.000 
#
# Total GULP energy -78101.300535 kJ/mol
# GULP energy per Si atom -5578.664324 kJ/mol
# Density = 2.683642 g / cm^3
# Si number density = 26.897641 Si / 1000 Ang^3
#
#
#
# Elastic Constant Matrix: (Units=GPa)
#
#
# Indices 1 2 3 4 5 6 
#
# 1 61.8898 31.9666 -13.7725 8.6722 2.1701 3.9078
# 2 31.9666 228.2660 28.5855 33.1803 0.9802 1.4407
# 3 -13.7725 28.5855 84.9707 19.8643 -4.0163 -0.6494
# 4 8.6722 33.1803 19.8643 55.2622 2.2877 7.9125
# 5 2.1701 0.9802 -4.0163 2.2877 30.9162 5.4384
# 6 3.9078 1.4407 -0.6494 7.9125 5.4384 45.2912
#
#
#
# Elastic Compliance Matrix: (Units=1/GPa)
#
#
# Indices 1 2 3 4 5 6 
#
# 1 0.019145 -0.002851 0.004705 -0.002835 -0.000262 -0.000967
# 2 -0.002851 0.005312 -0.001743 -0.002175 -0.000112 0.000445
# 3 0.004705 -0.001743 0.014382 -0.005012 0.001875 0.000506
# 4 -0.002835 -0.002175 -0.005012 0.022203 -0.001416 -0.003467
# 5 -0.000262 -0.000112 0.001875 -0.001416 0.033368 -0.003706
# 6 -0.000967 0.000445 0.000506 -0.003467 -0.003706 0.023207
#
#
# Mechanical properties :
#
#
# Convention : Reuss Voigt Hill
#
# Bulk Modulus (GPa) = 25.60066 52.07619 38.83842
# Shear Modulus (GPa) = 38.33958 48.18371 43.26164
#
# Velocity S-wave (km/s) = 3.77953 4.23705 4.01481
# Velocity P-wave (km/s) = 5.34649 6.58329 5.99686
#
# Compressibility (1/GPa) = 0.03906150
#
# Stress axis : x y z
#
# Youngs Moduli (GPa) = 52.23352 188.24796 69.53239
#
# Poissons Ratio (x) = 0.53670 -0.32715
# Poissons Ratio (y) = 0.14892 0.12117
# Poissons Ratio (z) = -0.24576 0.32805
#
# Static dielectric constant tensor:
#      x y z
#    x 2.066030 -0.022870 0.091810 
#    y -0.022870 2.187310 -0.060360 
#    z 0.091810 -0.060360 2.203370 
# 
# From -- ./inp_files/202838.got.cif
#   From: 2010.05.17/outbox.cif.g08.bks.cpg/sg2_102_cif.got.tgz:202838.got - 2010.06.03 11:33:40.
