data_PCOD9095393
_publ_section_title
;
Structure prediction by ZEFSAII (Michael W. Deem and Ramdas Pophale) SiO2 
 PCOD9095393
Probable space group: P -1
;
_chemical_formula_sum "Si O2"
_cell_formula_units_Z 16
_cell_length_a 12.579864
_cell_length_b 13.593342
_cell_length_c 9.029038
_cell_angle_alpha 45.417552
_cell_angle_beta 50.276711
_cell_angle_gamma 79.980983
_cell_volume 731.863133
_symmetry_space_group_name_H-M "P -1"
_symmetry_group_IT_number 2
_symmetry_cell_setting 'triclinic'
loop_
_space_group_symop_operation_xyz
x,y,z
-x,-y,-z
loop_
_atom_site_type_symbol
_atom_site_label
_atom_site_fract_x
_atom_site_fract_y
_atom_site_fract_z
Si Si1 0.796177 0.786255 0.042879
Si Si2 0.343060 0.984216 0.074441
Si Si3 0.134658 0.872220 0.652038
Si Si4 0.599526 0.602910 0.160215
Si Si5 0.308820 0.545550 0.348161
Si Si6 0.449198 0.952095 0.430015
Si Si7 0.990038 0.505905 0.179947
Si Si8 0.298844 0.571869 0.976599
O O1 0.763683 0.725167 0.965171
O O2 0.738993 0.633736 0.363303
O O3 0.685599 0.865382 0.074797
O O4 0.986840 0.903318 0.766892
O O5 0.193776 0.874520 0.428270
O O6 0.386174 0.952782 0.907835
O O7 0.500000 0.000000 0.000000
O O8 0.299719 0.971993 0.489000
O O9 0.054002 0.690434 0.967342
O O10 0.500000 0.500000 0.500000
O O11 0.486640 0.662111 0.127373
O O12 0.618228 0.500887 0.122546
O O13 0.186046 0.584137 0.501224
O O14 0.303680 0.551426 0.169919
O O15 0.380359 0.761291 0.671291
O O16 0.500000 0.000000 0.500000
O O17 0.000000 0.500000 0.000000
O O18 0.116285 0.474852 0.184274
#
# Coordination Sequence:
#
# PCOD9095393 Si02
#       8
#     2   2   2   2   2   2   2   2
#     4  10  20  39  60  86 118 147 194 250 296 355
#     4  10  21  38  60  82 108 150 197 245 292 345
#     4   9  20  37  58  83 112 150 193 241 294 338
#     4  10  20  35  57  85 114 151 192 240 293 344
#     4  10  21  34  54  86 120 156 187 235 297 347
#     4  10  22  38  56  83 119 158 197 237 284 346
#     4  10  20  36  59  87 118 152 194 240 287 350
#     4  11  21  37  58  86 123 156 192 240 294 351
#
# _framework density 21.862010000000001
#
# number of rings (size 3 to 8) (size 9 to 14) (size 15 to 20)
#    0.000    2.000    0.000    4.875    0.000    5.000 
#    0.000    4.375    0.000    0.000    0.000    0.000 
#    0.000    0.000    0.000    0.000    0.000    0.000 
#
# Total GULP energy -89169.448510 kJ/mol
# GULP energy per Si atom -5573.090532 kJ/mol
# Density = 2.181225 g / cm^3
# Si number density = 21.862010 Si / 1000 Ang^3
#
#
#
# Elastic Constant Matrix: (Units=GPa)
#
#
# Indices 1 2 3 4 5 6 
#
# 1 144.3516 42.7336 56.5648 27.5445 -7.1669 4.9628
# 2 42.7336 65.7078 42.8422 26.3530 -12.3869 0.9652
# 3 56.5648 42.8422 98.5518 13.3984 1.4717 -12.1688
# 4 27.5445 26.3530 13.3984 44.3381 6.4990 5.0262
# 5 -7.1669 -12.3869 1.4717 6.4990 29.3446 15.7952
# 6 4.9628 0.9652 -12.1688 5.0262 15.7952 36.8636
#
#
#
# Elastic Compliance Matrix: (Units=1/GPa)
#
#
# Indices 1 2 3 4 5 6 
#
# 1 0.011160 0.001942 -0.007384 -0.006396 0.009113 -0.007023
# 2 0.001942 0.043708 -0.019851 -0.024198 0.036117 -0.020135
# 3 -0.007384 -0.019851 0.024180 0.010464 -0.023469 0.018125
# 4 -0.006396 -0.024198 0.010464 0.040482 -0.027243 0.011102
# 5 0.009113 0.036117 -0.023469 -0.027243 0.080715 -0.040790
# 6 -0.007023 -0.020135 0.018125 0.011102 -0.040790 0.050547
#
#
# Mechanical properties :
#
#
# Convention : Reuss Voigt Hill
#
# Bulk Modulus (GPa) = 35.13269 65.87693 50.50481
# Shear Modulus (GPa) = 16.08412 33.20730 24.64571
#
# Velocity S-wave (km/s) = 2.71534 3.90160 3.36122
# Velocity P-wave (km/s) = 5.09273 7.10599 6.18187
#
# Compressibility (1/GPa) = 0.02846352
#
# Stress axis : x y z
#
# Youngs Moduli (GPa) = 89.60469 22.87902 41.35588
#
# Poissons Ratio (x) = -0.04444 0.30535
# Poissons Ratio (y) = -0.17403 0.82097
# Poissons Ratio (z) = 0.66160 0.45418
#
# Static dielectric constant tensor:
#      x y z
#    x 1.858110 0.016890 -0.039460 
#    y 0.016890 2.752140 -0.059650 
#    z -0.039460 -0.059650 1.879210 
# 
# From -- ./inp_files/227506.got.cif
#   From: 2010.05.17/outbox.cif.g08.bks.cpg/sg2_114_cif.got.tgz:227506.got - 2010.06.03 11:33:40.
