data_PCOD9095751
_publ_section_title
;
Structure prediction by ZEFSAII (Michael W. Deem and Ramdas Pophale) SiO2 
 PCOD9095751
Probable space group: P -1
;
_chemical_formula_sum "Si O2"
_cell_formula_units_Z 16
_cell_length_a 10.935910
_cell_length_b 11.024871
_cell_length_c 11.595874
_cell_angle_alpha 120.480483
_cell_angle_beta 112.953404
_cell_angle_gamma 39.467618
_cell_volume 765.861374
_symmetry_space_group_name_H-M "P -1"
_symmetry_group_IT_number 2
_symmetry_cell_setting 'triclinic'
loop_
_space_group_symop_operation_xyz
x,y,z
-x,-y,-z
loop_
_atom_site_type_symbol
_atom_site_label
_atom_site_fract_x
_atom_site_fract_y
_atom_site_fract_z
Si Si1 0.851948 0.339242 0.457502
Si Si2 0.158893 0.238444 0.654615
Si Si3 0.490768 0.848580 0.876475
Si Si4 0.168274 0.880486 0.829947
Si Si5 0.811200 0.590889 0.039893
Si Si6 0.069356 0.319863 0.318550
Si Si7 0.107800 0.740454 0.942525
Si Si8 0.548190 0.799131 0.601116
O O1 0.838915 0.193680 0.330572
O O2 0.645257 0.575374 0.495187
O O3 0.974874 0.275165 0.588093
O O4 0.981776 0.318117 0.398687
O O5 0.221213 0.252434 0.809230
O O6 0.076028 0.444078 0.661955
O O7 0.350091 0.007838 0.573201
O O8 0.303638 0.910127 0.878811
O O9 0.517908 0.814412 0.734515
O O10 0.671646 0.650375 0.915551
O O11 0.500000 0.000000 0.000000
O O12 0.229936 0.722995 0.878226
O O13 0.968584 0.090324 0.910575
O O14 0.809802 0.455483 0.055239
O O15 0.000000 0.500000 0.000000
O O16 0.278658 0.223487 0.366795
O O17 0.067681 0.199665 0.163358
#
# Coordination Sequence:
#
# PCOD9095751 Si02
#       8
#     2   2   2   2   2   2   2   2
#     4  10  22  40  58  86 129 168 195 247 311 379
#     4  10  20  35  59  92 120 161 201 253 301 366
#     4  12  23  39  64  89 116 156 208 267 306 357
#     4  10  22  42  61  86 126 160 204 247 320 371
#     4  11  21  37  64  94 123 154 210 259 307 356
#     4   9  19  37  62  89 123 157 206 256 307 359
#     4   9  20  39  64  88 119 167 197 258 312 362
#     4  11  21  36  60  91 123 159 209 252 304 362
#
# _framework density 20.89151
#
# number of rings (size 3 to 8) (size 9 to 14) (size 15 to 20)
#    0.000    1.750    1.250    5.250    0.000    3.000 
#    2.250    0.625    0.000    0.000    0.000    0.000 
#    0.000    0.000    0.000    0.000    0.000    0.000 
#
# Total GULP energy -89082.133673 kJ/mol
# GULP energy per Si atom -5567.633355 kJ/mol
# Density = 2.084396 g / cm^3
# Si number density = 20.891510 Si / 1000 Ang^3
#
#
#
# Elastic Constant Matrix: (Units=GPa)
#
#
# Indices 1 2 3 4 5 6 
#
# 1 79.4880 11.8369 19.5910 0.5631 5.7967 6.4107
# 2 11.8369 75.6629 18.6734 8.0878 9.5344 -11.0641
# 3 19.5910 18.6734 80.8355 20.7233 13.3664 11.8058
# 4 0.5631 8.0878 20.7233 28.7278 4.6373 -2.1844
# 5 5.7967 9.5344 13.3664 4.6373 31.2623 4.0396
# 6 6.4107 -11.0641 11.8058 -2.1844 4.0396 19.3659
#
#
#
# Elastic Compliance Matrix: (Units=1/GPa)
#
#
# Indices 1 2 3 4 5 6 
#
# 1 0.013925 -0.002219 -0.002759 0.002139 -0.000547 -0.003840
# 2 -0.002219 0.017528 -0.005070 0.000674 -0.004794 0.014915
# 3 -0.002759 -0.005070 0.020523 -0.014082 -0.002621 -0.015536
# 4 0.002139 0.000674 -0.014082 0.046344 -0.003288 0.014175
# 5 -0.000547 -0.004794 -0.002621 -0.003288 0.036310 -0.008905
# 6 -0.003840 0.014915 -0.015536 0.014175 -0.008905 0.074357
#
#
# Mechanical properties :
#
#
# Convention : Reuss Voigt Hill
#
# Bulk Modulus (GPa) = 31.36701 37.35433 34.36067
# Shear Modulus (GPa) = 20.85853 28.26353 24.56103
#
# Velocity S-wave (km/s) = 3.16321 3.68213 3.43249
# Velocity P-wave (km/s) = 5.32804 5.99970 5.67382
#
# Compressibility (1/GPa) = 0.03188063
#
# Stress axis : x y z
#
# Youngs Moduli (GPa) = 71.81112 57.05199 48.72577
#
# Poissons Ratio (x) = 0.12658 0.13446
# Poissons Ratio (y) = 0.15933 0.24702
# Poissons Ratio (z) = 0.19816 0.28924
#
# Static dielectric constant tensor:
#      x y z
#    x 1.708580 -0.025760 0.045910 
#    y -0.025760 1.948880 -0.039140 
#    z 0.045910 -0.039140 1.837650 
# 
# From -- ./inp_files/424084.got.cif
#   From: 2010.05.17/outbox.cif.g08.bks.cpg/sg2_213_cif.got.tgz:424084.got - 2010.06.03 11:33:40.
