data_PCOD9095362
_publ_section_title
;
Structure prediction by ZEFSAII (Michael W. Deem and Ramdas Pophale) SiO2 
 PCOD9095362
Probable space group: P -1
;
_chemical_formula_sum "Si O2"
_cell_formula_units_Z 16
_cell_length_a 13.613230
_cell_length_b 7.370125
_cell_length_c 7.826749
_cell_angle_alpha 123.129930
_cell_angle_beta 97.888457
_cell_angle_gamma 58.901433
_cell_volume 551.457057
_symmetry_space_group_name_H-M "P -1"
_symmetry_group_IT_number 2
_symmetry_cell_setting 'triclinic'
loop_
_space_group_symop_operation_xyz
x,y,z
-x,-y,-z
loop_
_atom_site_type_symbol
_atom_site_label
_atom_site_fract_x
_atom_site_fract_y
_atom_site_fract_z
Si Si1 0.227435 0.566379 0.569831
Si Si2 0.885923 0.907107 0.572935
Si Si3 0.326114 0.836769 0.139358
Si Si4 0.086579 0.617293 0.224049
Si Si5 0.527346 0.719748 0.652049
Si Si6 0.182882 0.111346 0.903716
Si Si7 0.579848 0.724773 0.068975
Si Si8 0.971887 0.283990 0.162985
O O1 0.162101 0.540474 0.379217
O O2 0.363533 0.356334 0.484100
O O3 0.158804 0.559772 0.715596
O O4 0.210478 0.848787 0.688427
O O5 0.750144 0.025471 0.639104
O O6 0.910564 0.134760 0.701461
O O7 0.948637 0.745147 0.672315
O O8 0.953869 0.735625 0.337058
O O9 0.337213 0.562858 0.992366
O O10 0.261733 0.990294 0.031023
O O11 0.453080 0.794542 0.148315
O O12 0.177270 0.374802 0.998779
O O13 0.500000 0.500000 0.500000
O O14 0.570499 0.701420 0.848795
O O15 0.421658 0.015376 0.759493
O O16 0.043759 0.280365 0.013493
O O17 0.000000 0.000000 0.000000
#
# Coordination Sequence:
#
# PCOD9095362 Si02
#       8
#     2   2   2   2   2   2   2   2
#     4  10  20  35  57  83 112 146 188 231 280 341
#     4   9  19  34  57  86 118 151 187 232 283 343
#     4  10  20  38  61  85 116 156 194 236 291 340
#     4  10  20  36  58  87 118 149 186 231 283 343
#     4  11  23  40  62  86 113 151 197 244 292 341
#     4  10  20  36  60  85 115 152 188 229 284 344
#     4  10  23  41  60  84 116 151 196 247 288 336
#     4   8  17  34  54  82 115 145 180 225 275 338
#
# _framework density 29.014046
#
# number of rings (size 3 to 8) (size 9 to 14) (size 15 to 20)
#    0.000    2.250    0.000    2.250    0.000    8.500 
#    0.000   16.875    0.000   21.000    0.000    0.000 
#    0.000    0.000    0.000    0.000    0.000    0.000 
#
# Total GULP energy -89484.918478 kJ/mol
# GULP energy per Si atom -5592.807405 kJ/mol
# Density = 2.894801 g / cm^3
# Si number density = 29.014046 Si / 1000 Ang^3
#
#
#
# Elastic Constant Matrix: (Units=GPa)
#
#
# Indices 1 2 3 4 5 6 
#
# 1 75.2369 0.4937 39.1445 -11.9931 -38.9687 7.6589
# 2 0.4937 82.7453 59.3675 15.4605 11.1827 17.7903
# 3 39.1445 59.3675 212.9080 40.1078 -19.0855 -2.3525
# 4 -11.9931 15.4605 40.1078 64.0227 14.2965 -12.2634
# 5 -38.9687 11.1827 -19.0855 14.2965 55.1312 -5.1665
# 6 7.6589 17.7903 -2.3525 -12.2634 -5.1665 30.0380
#
#
#
# Elastic Compliance Matrix: (Units=1/GPa)
#
#
# Indices 1 2 3 4 5 6 
#
# 1 0.023265 0.000919 -0.003859 0.002834 0.013885 -0.003233
# 2 0.000919 0.021445 -0.006471 -0.002428 -0.006772 -0.015598
# 3 -0.003859 -0.006471 0.008317 -0.004215 0.002956 0.004255
# 4 0.002834 -0.002428 -0.004215 0.021892 -0.003829 0.008665
# 5 0.013885 -0.006772 0.002956 -0.003829 0.031774 0.004604
# 6 -0.003233 -0.015598 0.004255 0.008665 0.004604 0.048017
#
#
# Mechanical properties :
#
#
# Convention : Reuss Voigt Hill
#
# Bulk Modulus (GPa) = 29.23452 63.21127 46.22289
# Shear Modulus (GPa) = 27.03689 47.96403 37.50046
#
# Velocity S-wave (km/s) = 3.05594 4.07028 3.59903
# Velocity P-wave (km/s) = 4.74864 6.62747 5.76511
#
# Compressibility (1/GPa) = 0.03420614
#
# Stress axis : x y z
#
# Youngs Moduli (GPa) = 42.98256 46.63102 120.24034
#
# Poissons Ratio (x) = -0.04285 0.46396
# Poissons Ratio (y) = -0.03949 0.77803
# Poissons Ratio (z) = 0.16585 0.30173
#
# Static dielectric constant tensor:
#      x y z
#    x 2.140580 0.317560 -0.319780 
#    y 0.317560 2.419800 0.214550 
#    z -0.319780 0.214550 1.721070 
# 
# From -- ./inp_files/448347.got.cif
#   From: 2010.05.17/outbox.cif.g08.bks.cpg/sg2_225_cif.got.tgz:448347.got - 2010.06.03 11:33:40.
