data_PCOD9095230
_publ_section_title
;
Structure prediction by ZEFSAII (Michael W. Deem and Ramdas Pophale) SiO2 
 PCOD9095230
Probable space group: P -1
;
_chemical_formula_sum "Si O2"
_cell_formula_units_Z 16
_cell_length_a 7.174355
_cell_length_b 24.898604
_cell_length_c 6.091080
_cell_angle_alpha 76.254991
_cell_angle_beta 89.102766
_cell_angle_gamma 43.288694
_cell_volume 704.190443
_symmetry_space_group_name_H-M "P -1"
_symmetry_group_IT_number 2
_symmetry_cell_setting 'triclinic'
loop_
_space_group_symop_operation_xyz
x,y,z
-x,-y,-z
loop_
_atom_site_type_symbol
_atom_site_label
_atom_site_fract_x
_atom_site_fract_y
_atom_site_fract_z
Si Si1 0.123262 0.750586 0.949875
Si Si2 0.268644 0.976702 0.474621
Si Si3 0.983553 0.678131 0.268385
Si Si4 0.218536 0.504054 0.496814
Si Si5 0.669235 0.930064 0.879620
Si Si6 0.814014 0.486601 0.008898
Si Si7 0.286574 0.199894 0.462256
Si Si8 0.647022 0.708951 0.885266
O O1 0.931647 0.832803 0.027542
O O2 0.920976 0.784554 0.716112
O O3 0.410848 0.715319 0.908799
O O4 0.161353 0.681702 0.118070
O O5 0.439831 0.947567 0.724942
O O6 0.475659 0.896377 0.389443
O O7 0.208367 0.049634 0.303488
O O8 0.000000 0.000000 0.500000
O O9 0.910718 0.730787 0.422949
O O10 0.102268 0.592149 0.402643
O O11 0.698617 0.727270 0.098008
O O12 0.000000 0.500000 0.500000
O O13 0.323561 0.482931 0.773319
O O14 0.344786 0.473928 0.267462
O O15 0.500000 0.000000 0.000000
O O16 0.048396 0.385365 0.087668
O O17 0.000000 0.500000 0.000000
O O18 0.428410 0.223711 0.335493
#
# Coordination Sequence:
#
# PCOD9095230 Si02
#       8
#     2   2   2   2   2   2   2   2
#     4  10  22  36  54  83 114 147 191 246 291 352
#     4  10  21  35  54  80 109 145 191 237 289 350
#     4  10  20  35  56  81 110 147 193 235 293 350
#     4   9  17  32  58  85 112 154 196 238 296 356
#     4  10  21  37  54  77 114 150 187 239 296 346
#     4   9  17  32  57  85 112 153 196 238 294 356
#     4  10  20  36  55  79 112 148 187 241 293 351
#     4  10  20  35  56  82 111 147 196 237 295 353
#
# _framework density 22.721128
#
# number of rings (size 3 to 8) (size 9 to 14) (size 15 to 20)
#    0.000    2.250    1.250    1.500    0.000    2.500 
#    0.000    0.000    0.000   18.750    0.000    0.000 
#    0.000    0.000    0.000    0.000    0.000    0.000 
#
# Total GULP energy -89085.668296 kJ/mol
# GULP energy per Si atom -5567.854269 kJ/mol
# Density = 2.266941 g / cm^3
# Si number density = 22.721128 Si / 1000 Ang^3
#
#
#
# Elastic Constant Matrix: (Units=GPa)
#
#
# Indices 1 2 3 4 5 6 
#
# 1 155.1121 28.2649 24.9407 -7.5341 -16.9872 5.5414
# 2 28.2649 98.1934 20.6780 -18.3993 28.4298 7.5164
# 3 24.9407 20.6780 98.4688 9.2853 -0.0474 -3.1981
# 4 -7.5341 -18.3993 9.2853 16.5866 46.7360 -5.6261
# 5 -16.9872 28.4298 -0.0474 46.7360 -17.6997 1.4734
# 6 5.5414 7.5164 -3.1981 -5.6261 1.4734 28.3299
#
#
#
# Elastic Compliance Matrix: (Units=1/GPa)
#
#
# Indices 1 2 3 4 5 6 
#
# 1 0.007105 -0.000973 -0.001917 0.003169 -0.000068 -0.000715
# 2 -0.000973 0.008933 -0.001365 -0.003933 0.004623 -0.003355
# 3 -0.001917 -0.001365 0.011071 -0.000865 -0.002505 0.001946
# 4 0.003169 -0.003933 -0.000865 0.009995 0.017155 0.001419
# 5 -0.000068 0.004623 -0.002505 0.017155 -0.003529 0.002094
# 6 -0.000715 -0.003355 0.001946 0.001419 0.002094 0.036721
#
#
# Mechanical properties :
#
#
# Convention : Reuss Voigt Hill
#
# Bulk Modulus (GPa) = 53.77026 55.50462 54.63744
# Shear Modulus (GPa) = 58.81895 23.96939 41.39417
#
# Velocity S-wave (km/s) = 5.09348 3.25151 4.27293
# Velocity P-wave (km/s) = 7.63597 6.21112 6.96010
#
# Compressibility (1/GPa) = 0.01859764
#
# Stress axis : x y z
#
# Youngs Moduli (GPa) = 140.75356 111.94331 90.32290
#
# Poissons Ratio (x) = 0.10894 0.17317
# Poissons Ratio (y) = 0.13697 0.12332
# Poissons Ratio (z) = 0.26986 0.15284
#
# Static dielectric constant tensor:
#      x y z
#    x 1.790220 0.017660 -0.022930 
#    y 0.017660 1.692990 0.045560 
#    z -0.022930 0.045560 1.943760 
# 
# From -- ./inp_files/10700.got.cif
#   From: 2010.05.17/outbox.cif.g08.bks.cpg/sg2_6_cif.got.tgz:10700.got - 2010.06.03 11:33:40.
