data_PCOD9095644
_publ_section_title
;
Structure prediction by ZEFSAII (Michael W. Deem and Ramdas Pophale) SiO2 
 PCOD9095644
Probable space group: P -1
;
_chemical_formula_sum "Si O2"
_cell_formula_units_Z 16
_cell_length_a 12.399073
_cell_length_b 14.780745
_cell_length_c 8.033362
_cell_angle_alpha 119.486853
_cell_angle_beta 100.576412
_cell_angle_gamma 129.982224
_cell_volume 650.217033
_symmetry_space_group_name_H-M "P -1"
_symmetry_group_IT_number 2
_symmetry_cell_setting 'triclinic'
loop_
_space_group_symop_operation_xyz
x,y,z
-x,-y,-z
loop_
_atom_site_type_symbol
_atom_site_label
_atom_site_fract_x
_atom_site_fract_y
_atom_site_fract_z
Si Si1 0.479746 0.747242 0.570507
Si Si2 0.324094 0.403481 0.659426
Si Si3 0.799369 0.194644 0.583753
Si Si4 0.122681 0.979811 0.629711
Si Si5 0.559678 0.710764 0.243048
Si Si6 0.231267 0.201161 0.163267
Si Si7 0.979365 0.545668 0.786672
Si Si8 0.619066 0.078460 0.931788
O O1 0.456963 0.711499 0.333670
O O2 0.605547 0.752828 0.683758
O O3 0.249080 0.586431 0.432541
O O4 0.640808 0.972837 0.837837
O O5 0.453653 0.407604 0.765694
O O6 0.298658 0.364160 0.419294
O O7 0.432665 0.595230 0.931036
O O8 0.110409 0.222038 0.542875
O O9 0.923884 0.384223 0.685357
O O10 0.804163 0.082365 0.406798
O O11 0.552524 0.026676 0.350255
O O12 0.905617 0.295036 0.886704
O O13 0.198125 0.070974 0.546729
O O14 0.206860 0.146322 0.916166
O O15 0.000000 0.000000 0.000000
O O16 0.154737 0.687359 0.821066
O O17 0.500000 0.000000 0.000000
#
# Coordination Sequence:
#
# PCOD9095644 Si02
#       8
#     2   2   2   2   2   2   2   2
#     4  10  21  39  59  86 118 158 201 240 297 357
#     4   9  20  37  55  82 116 151 192 240 298 352
#     4  10  22  37  60  91 120 157 204 246 299 353
#     4  11  20  35  59  85 113 153 196 243 294 348
#     4  10  20  35  59  84 113 150 198 246 287 349
#     4   9  20  39  59  84 122 155 191 244 299 355
#     4  10  22  41  62  86 122 159 200 252 296 353
#     4  11  23  40  62  89 123 161 198 245 302 359
#
# _framework density 24.607168000000001
#
# number of rings (size 3 to 8) (size 9 to 14) (size 15 to 20)
#    0.000    2.000    0.000    3.000    0.000    5.500 
#    0.000   11.250    0.000    0.000    0.000    0.000 
#    0.000    0.000    0.000    0.000    0.000    0.000 
#
# Total GULP energy -89221.163471 kJ/mol
# GULP energy per Si atom -5576.322717 kJ/mol
# Density = 2.455116 g / cm^3
# Si number density = 24.607168 Si / 1000 Ang^3
#
#
#
# Elastic Constant Matrix: (Units=GPa)
#
#
# Indices 1 2 3 4 5 6 
#
# 1 74.0277 38.2451 16.9893 5.6282 -10.4071 0.9681
# 2 38.2451 117.5379 38.0939 30.3652 -1.5334 33.3276
# 3 16.9893 38.0939 83.0753 13.3396 -6.2785 3.9965
# 4 5.6282 30.3652 13.3396 24.0118 7.4003 -1.3196
# 5 -10.4071 -1.5334 -6.2785 7.4003 41.3399 -3.0524
# 6 0.9681 33.3276 3.9965 -1.3196 -3.0524 22.4944
#
#
#
# Elastic Compliance Matrix: (Units=1/GPa)
#
#
# Indices 1 2 3 4 5 6 
#
# 1 0.026736 -0.031720 0.001421 0.034743 0.003098 0.048052
# 2 -0.031720 0.084587 -0.009576 -0.102018 0.002517 -0.127900
# 3 0.001421 -0.009576 0.015257 0.003144 0.002640 0.011958
# 4 0.034743 -0.102018 0.003144 0.173744 -0.014042 0.157382
# 5 0.003098 0.002517 0.002640 -0.014042 0.027876 -0.001372
# 6 0.048052 -0.127900 0.011958 0.157382 -0.001372 0.238806
#
#
# Mechanical properties :
#
#
# Convention : Reuss Voigt Hill
#
# Bulk Modulus (GPa) = 21.35359 51.25529 36.30444
# Shear Modulus (GPa) = 7.54872 29.65673 18.60272
#
# Velocity S-wave (km/s) = 1.75338 3.47538 2.75251
# Velocity P-wave (km/s) = 3.57712 6.08103 4.98872
#
# Compressibility (1/GPa) = 0.04683053
#
# Stress axis : x y z
#
# Youngs Moduli (GPa) = 37.40316 11.82215 65.54391
#
# Poissons Ratio (x) = 0.37500 -0.09317
# Poissons Ratio (y) = 1.18643 0.62764
# Poissons Ratio (z) = -0.05317 0.11321
#
# Static dielectric constant tensor:
#      x y z
#    x 2.076890 -0.021100 0.008340 
#    y -0.021100 2.003140 -0.083830 
#    z 0.008340 -0.083830 2.107870 
# 
# From -- ./inp_files/279869.got.cif
#   From: 2010.05.17/outbox.cif.g08.bks.cpg/sg2_140_cif.got.tgz:279869.got - 2010.06.03 11:33:40.
