data_PCOD9095039
_publ_section_title
;
Structure prediction by ZEFSAII (Michael W. Deem and Ramdas Pophale) SiO2 
 PCOD9095039
Probable space group: P -1
;
_chemical_formula_sum "Si O2"
_cell_formula_units_Z 13
_cell_length_a 8.889689
_cell_length_b 5.545649
_cell_length_c 9.826573
_cell_angle_alpha 79.632041
_cell_angle_beta 100.127666
_cell_angle_gamma 83.988881
_cell_volume 464.431299
_symmetry_space_group_name_H-M "P -1"
_symmetry_group_IT_number 2
_symmetry_cell_setting 'triclinic'
loop_
_space_group_symop_operation_xyz
x,y,z
-x,-y,-z
loop_
_atom_site_type_symbol
_atom_site_label
_atom_site_fract_x
_atom_site_fract_y
_atom_site_fract_z
Si Si1 0.905247 0.961203 0.124857
Si Si2 0.535729 0.644527 0.792968
Si Si3 0.500000 0.500000 0.500000
Si Si4 0.824674 0.509116 0.021719
Si Si5 0.821844 0.752184 0.492590
Si Si6 0.421402 0.183133 0.764325
Si Si7 0.138350 0.777746 0.415236
O O1 0.825518 0.240041 0.119784
O O2 0.799445 0.758492 0.082523
O O3 0.037480 0.842584 0.260806
O O4 0.000000 0.000000 0.000000
O O5 0.495031 0.677861 0.623883
O O6 0.448879 0.410956 0.842261
O O7 0.488097 0.903495 0.835667
O O8 0.711826 0.548542 0.870932
O O9 0.509830 0.261320 0.633761
O O10 0.000000 0.500000 0.000000
O O11 0.748758 0.816095 0.328190
O O12 0.758919 0.492652 0.546827
O O13 0.009624 0.730514 0.515008
O O14 0.786256 0.984717 0.559486
#
# Coordination Sequence:
#
# PCOD9095039 Si02
#       7
#     2   2   1   2   2   2   2
#     4  10  21  36  55  86 114 154 190 238 296 342
#     4  10  20  36  53  78 119 145 197 241 286 352
#     4   8  22  32  54  82 110 152 188 242 290 340
#     4  10  21  37  54  81 112 156 189 239 292 343
#     4  10  21  38  61  87 117 156 195 243 305 337
#     4  10  20  35  53  82 112 151 187 241 293 349
#     4  10  21  38  60  88 120 151 197 250 286 356
#
# _framework density 27.991220999999999
#
# number of rings (size 3 to 8) (size 9 to 14) (size 15 to 20)
#    0.923    1.231    0.000    3.231    0.000    4.923 
#    2.769    0.000    0.000    5.538    0.000    0.000 
#    0.000    0.000    0.000    0.000    0.000    0.000 
#
# Total GULP energy -72522.915841 kJ/mol
# GULP energy per Si atom -5578.685834 kJ/mol
# Density = 2.792751 g / cm^3
# Si number density = 27.991221 Si / 1000 Ang^3
#
#
#
# Elastic Constant Matrix: (Units=GPa)
#
#
# Indices 1 2 3 4 5 6 
#
# 1 68.5730 32.6888 1.2232 -4.0955 10.2041 20.7396
# 2 32.6888 298.3431 55.1667 -16.2943 26.2288 29.0517
# 3 1.2232 55.1667 130.7318 -8.9251 29.1671 13.7187
# 4 -4.0955 -16.2943 -8.9251 47.0544 3.9224 10.3034
# 5 10.2041 26.2288 29.1671 3.9224 44.9158 -2.7554
# 6 20.7396 29.0517 13.7187 10.3034 -2.7554 47.9362
#
#
#
# Elastic Compliance Matrix: (Units=1/GPa)
#
#
# Indices 1 2 3 4 5 6 
#
# 1 0.019328 -0.000827 0.003122 0.004801 -0.006980 -0.010188
# 2 -0.000827 0.004116 -0.000922 0.001861 -0.001925 -0.002383
# 3 0.003122 -0.000922 0.010484 0.003674 -0.007607 -0.005019
# 4 0.004801 0.001861 0.003674 0.025876 -0.007451 -0.010246
# 5 -0.006980 -0.001925 -0.007607 -0.007451 0.031163 0.009757
# 6 -0.010188 -0.002383 -0.005019 -0.010246 0.009757 0.030913
#
#
# Mechanical properties :
#
#
# Convention : Reuss Voigt Hill
#
# Bulk Modulus (GPa) = 27.26782 75.08948 51.17865
# Shear Modulus (GPa) = 38.06359 55.21923 46.64141
#
# Velocity S-wave (km/s) = 3.69160 4.44637 4.08645
# Velocity P-wave (km/s) = 5.28519 7.29689 6.37094
#
# Compressibility (1/GPa) = 0.03667327
#
# Stress axis : x y z
#
# Youngs Moduli (GPa) = 51.73796 242.95347 95.38246
#
# Poissons Ratio (x) = 0.20098 -0.29781
# Poissons Ratio (y) = 0.04280 0.08799
# Poissons Ratio (z) = -0.16154 0.22412
#
# Static dielectric constant tensor:
#      x y z
#    x 2.193880 0.034330 -0.066190 
#    y 0.034330 2.557650 0.029900 
#    z -0.066190 0.029900 2.086980 
# 
# From -- ./inp_files/407766.got.cif
#   From: 2010.05.17/outbox.cif.g08.bks.cpg/sg2_204_cif.got.tgz:407766.got - 2010.06.03 11:33:40.
