data_PCOD9095682
_publ_section_title
;
Structure prediction by ZEFSAII (Michael W. Deem and Ramdas Pophale) SiO2 
 PCOD9095682
Probable space group: P -1
;
_chemical_formula_sum "Si O2"
_cell_formula_units_Z 12
_cell_length_a 12.434072
_cell_length_b 6.749005
_cell_length_c 7.007379
_cell_angle_alpha 136.058446
_cell_angle_beta 86.609173
_cell_angle_gamma 94.238335
_cell_volume 406.926078
_symmetry_space_group_name_H-M "P -1"
_symmetry_group_IT_number 2
_symmetry_cell_setting 'triclinic'
loop_
_space_group_symop_operation_xyz
x,y,z
-x,-y,-z
loop_
_atom_site_type_symbol
_atom_site_label
_atom_site_fract_x
_atom_site_fract_y
_atom_site_fract_z
Si Si1 0.229064 0.859292 0.319058
Si Si2 0.890269 0.312504 0.417030
Si Si3 0.016663 0.834105 0.186390
Si Si4 0.500993 0.923301 0.723071
Si Si5 0.319211 0.417127 0.404100
Si Si6 0.663766 0.690206 0.100640
O O1 0.159100 0.669884 0.352335
O O2 0.318632 0.641867 0.093372
O O3 0.144513 0.906228 0.190315
O O4 0.000000 0.000000 0.500000
O O5 0.789095 0.447021 0.413617
O O6 0.000000 0.500000 0.500000
O O7 0.932682 0.990776 0.168811
O O8 0.739991 0.881121 0.362242
O O9 0.000000 0.500000 0.000000
O O10 0.408374 0.672962 0.530924
O O11 0.618240 0.788640 0.601765
O O12 0.500000 0.000000 0.000000
O O13 0.455258 0.183751 0.787774
O O14 0.306929 0.261189 0.092769
#
# Coordination Sequence:
#
# PCOD9095682 Si02
#       6
#     2   2   2   2   2   2
#     4  10  19  32  53  77 110 141 183 220 266 328
#     4  10  20  36  56  82 118 150 179 225 281 333
#     4  10  21  37  55  77 109 150 192 229 263 323
#     4   9  16  28  52  73 110 136 176 229 280 313
#     4   9  18  31  47  80 113 139 177 225 282 321
#     4  10  16  30  52  77 104 136 176 232 269 312
#
# _framework density 29.489384000000001
#
# number of rings (size 3 to 8) (size 9 to 14) (size 15 to 20)
#    0.000    2.333    3.333    2.000    0.000    0.000 
#    0.000   13.333    0.000    0.000    0.000    2.333 
#    0.000    0.667    0.000    0.000    0.000    0.000 
#
# Total GULP energy -67104.604263 kJ/mol
# GULP energy per Si atom -5592.050355 kJ/mol
# Density = 2.942227 g / cm^3
# Si number density = 29.489384 Si / 1000 Ang^3
#
#
#
# Elastic Constant Matrix: (Units=GPa)
#
#
# Indices 1 2 3 4 5 6 
#
# 1 191.9282 61.8982 101.4946 12.6046 -26.4378 -63.0161
# 2 61.8982 114.1337 66.0863 32.9227 -11.2740 -25.2472
# 3 101.4946 66.0863 205.5853 46.0742 -0.7232 -16.2197
# 4 12.6046 32.9227 46.0742 74.4541 -10.7537 -31.1974
# 5 -26.4378 -11.2740 -0.7232 -10.7537 66.8058 21.7154
# 6 -63.0161 -25.2472 -16.2197 -31.1974 21.7154 61.7491
#
#
#
# Elastic Compliance Matrix: (Units=1/GPa)
#
#
# Indices 1 2 3 4 5 6 
#
# 1 0.015720 -0.003117 -0.007879 0.011301 0.001632 0.017835
# 2 -0.003117 0.012459 -0.001567 -0.004293 0.000427 -0.000817
# 3 -0.007879 -0.001567 0.010442 -0.008777 -0.001480 -0.009852
# 4 0.011301 -0.004293 -0.008777 0.027876 0.001280 0.021107
# 5 0.001632 0.000427 -0.001480 0.001280 0.017156 -0.003936
# 6 0.017835 -0.000817 -0.009852 0.021107 -0.003936 0.043521
#
#
# Mechanical properties :
#
#
# Convention : Reuss Voigt Hill
#
# Bulk Modulus (GPa) = 74.09923 107.84505 90.97214
# Shear Modulus (GPa) = 31.88794 59.41301 45.65047
#
# Velocity S-wave (km/s) = 3.29194 4.49344 3.93877
# Velocity P-wave (km/s) = 6.29532 7.97317 7.18340
#
# Compressibility (1/GPa) = 0.01349542
#
# Stress axis : x y z
#
# Youngs Moduli (GPa) = 63.61191 80.26225 95.76588
#
# Poissons Ratio (x) = 0.25019 0.75452
# Poissons Ratio (y) = 0.19829 0.15007
# Poissons Ratio (z) = 0.50119 0.12578
#
# Static dielectric constant tensor:
#      x y z
#    x 2.538650 -0.135880 0.084450 
#    y -0.135880 2.964150 -0.488390 
#    z 0.084450 -0.488390 3.021340 
# 
# From -- ./inp_files/166083.got.cif
#   From: 2010.05.17/outbox.cif.g08.bks.cpg/sg2_84_cif.got.tgz:166083.got - 2010.06.03 11:33:40.
