data_PCOD9095262
_publ_section_title
;
Structure prediction by ZEFSAII (Michael W. Deem and Ramdas Pophale) SiO2 
 PCOD9095262
Probable space group: P -1
;
_chemical_formula_sum "Si O2"
_cell_formula_units_Z 16
_cell_length_a 20.064724
_cell_length_b 20.507835
_cell_length_c 6.693522
_cell_angle_alpha 62.097471
_cell_angle_beta 106.318288
_cell_angle_gamma 158.524081
_cell_volume 782.967948
_symmetry_space_group_name_H-M "P -1"
_symmetry_group_IT_number 2
_symmetry_cell_setting 'triclinic'
loop_
_space_group_symop_operation_xyz
x,y,z
-x,-y,-z
loop_
_atom_site_type_symbol
_atom_site_label
_atom_site_fract_x
_atom_site_fract_y
_atom_site_fract_z
Si Si1 0.377275 0.523654 0.538189
Si Si2 0.924863 0.252604 0.180283
Si Si3 0.077859 0.624142 0.697867
Si Si4 0.675033 0.701455 0.519619
Si Si5 0.191008 0.610762 0.573663
Si Si6 0.753036 0.551589 0.876126
Si Si7 0.130793 0.199621 0.121135
Si Si8 0.473676 0.754843 0.539135
O O1 0.598683 0.707564 0.499245
O O2 0.332122 0.486293 0.322438
O O3 0.361823 0.589641 0.523527
O O4 0.221779 0.313473 0.822239
O O5 0.876441 0.251987 0.339257
O O6 0.099762 0.366186 0.195238
O O7 0.706928 0.997407 0.315559
O O8 0.016380 0.394616 0.873276
O O9 0.243100 0.737549 0.559116
O O10 0.904293 0.462505 0.614378
O O11 0.000000 0.500000 0.000000
O O12 0.500000 0.500000 0.500000
O O13 0.710158 0.689723 0.769147
O O14 0.907946 0.938846 0.290474
O O15 0.370612 0.731691 0.514028
O O16 0.880920 0.734823 0.862272
O O17 0.567766 0.329900 0.166819
#
# Coordination Sequence:
#
# PCOD9095262 Si02
#       8
#     2   2   2   2   2   2   2   2
#     4  11  22  39  60  83 115 155 188 236 294 339
#     4  10  20  35  56  83 110 148 189 231 284 338
#     4   9  18  35  57  79 111 149 184 231 287 333
#     4  11  22  41  62  87 117 151 194 239 290 348
#     4   9  19  37  55  78 114 146 184 235 280 338
#     4  10  21  39  57  83 116 148 190 236 284 339
#     4  10  23  41  59  86 119 150 193 242 286 346
#     4  10  22  36  57  83 113 147 190 234 279 346
#
# _framework density 20.435065000000002
#
# number of rings (size 3 to 8) (size 9 to 14) (size 15 to 20)
#    0.000    2.000    1.250    1.875    0.000    3.000 
#    2.250    5.625    0.000    0.000    0.000    0.000 
#    0.000    0.000    0.000    0.000    0.000    0.000 
#
# Total GULP energy -89180.740548 kJ/mol
# GULP energy per Si atom -5573.796284 kJ/mol
# Density = 2.038855 g / cm^3
# Si number density = 20.435065 Si / 1000 Ang^3
#
#
#
# Elastic Constant Matrix: (Units=GPa)
#
#
# Indices 1 2 3 4 5 6 
#
# 1 95.0754 14.1853 13.3101 11.8352 -0.4413 4.6269
# 2 14.1853 52.9916 34.2853 0.9715 5.8427 7.1323
# 3 13.3101 34.2853 66.3827 8.8076 2.0952 18.3800
# 4 11.8352 0.9715 8.8076 30.4585 4.8107 -1.4660
# 5 -0.4413 5.8427 2.0952 4.8107 23.7338 7.6964
# 6 4.6269 7.1323 18.3800 -1.4660 7.6964 26.0360
#
#
#
# Elastic Compliance Matrix: (Units=1/GPa)
#
#
# Indices 1 2 3 4 5 6 
#
# 1 0.011747 -0.003589 0.000934 -0.005347 0.003067 -0.002971
# 2 -0.003589 0.031943 -0.018965 0.007988 -0.010764 0.008907
# 3 0.000934 -0.018965 0.031801 -0.011752 0.011198 -0.021392
# 4 -0.005347 0.007988 -0.011752 0.040854 -0.013653 0.013394
# 5 0.003067 -0.010764 0.011198 -0.013653 0.053811 -0.022177
# 6 -0.002971 0.008907 -0.021392 0.013394 -0.022177 0.058908
#
#
# Mechanical properties :
#
#
# Convention : Reuss Voigt Hill
#
# Bulk Modulus (GPa) = 31.00670 37.55681 34.28176
# Shear Modulus (GPa) = 17.66441 26.22358 21.94400
#
# Velocity S-wave (km/s) = 2.94329 3.58615 3.28051
# Velocity P-wave (km/s) = 5.17270 5.96371 5.58223
#
# Compressibility (1/GPa) = 0.03225109
#
# Stress axis : x y z
#
# Youngs Moduli (GPa) = 85.12648 31.30549 31.44577
#
# Poissons Ratio (x) = 0.11235 -0.02936
# Poissons Ratio (y) = 0.30550 0.59636
# Poissons Ratio (z) = -0.07947 0.59370
#
# Static dielectric constant tensor:
#      x y z
#    x 1.800970 -0.031810 -0.010620 
#    y -0.031810 1.706870 0.001750 
#    z -0.010620 0.001750 1.711490 
# 
# From -- ./inp_files/11157.got.cif
#   From: 2010.05.17/outbox.cif.g08.bks.cpg/sg2_6_cif.got.tgz:11157.got - 2010.06.03 11:33:40.
