data_PCOD9095597
_publ_section_title
;
Structure prediction by ZEFSAII (Michael W. Deem and Ramdas Pophale) SiO2 
 PCOD9095597
Probable space group: P -1
;
_chemical_formula_sum "Si O2"
_cell_formula_units_Z 16
_cell_length_a 20.025042
_cell_length_b 7.534125
_cell_length_c 9.834324
_cell_angle_alpha 117.499897
_cell_angle_beta 44.571190
_cell_angle_gamma 82.969926
_cell_volume 636.112097
_symmetry_space_group_name_H-M "P -1"
_symmetry_group_IT_number 2
_symmetry_cell_setting 'triclinic'
loop_
_space_group_symop_operation_xyz
x,y,z
-x,-y,-z
loop_
_atom_site_type_symbol
_atom_site_label
_atom_site_fract_x
_atom_site_fract_y
_atom_site_fract_z
Si Si1 0.478758 0.301674 0.902465
Si Si2 0.804665 0.679391 0.419254
Si Si3 0.251025 0.994816 0.137956
Si Si4 0.330660 0.490683 0.434529
Si Si5 0.110690 0.055743 0.759280
Si Si6 0.060132 0.524834 0.293212
Si Si7 0.321772 0.919869 0.699074
Si Si8 0.216852 0.671644 0.227219
O O1 0.586768 0.106653 0.554976
O O2 0.500000 0.500000 0.000000
O O3 0.451488 0.246712 0.069140
O O4 0.339472 0.451935 0.078486
O O5 0.725410 0.871724 0.737311
O O6 0.729252 0.607310 0.436189
O O7 0.812129 0.862702 0.379358
O O8 0.957100 0.365323 0.126947
O O9 0.084126 0.211744 0.474369
O O10 0.292324 0.711495 0.027927
O O11 0.304496 0.981262 0.908171
O O12 0.370160 0.616544 0.514416
O O13 0.202908 0.784207 0.633704
O O14 0.101175 0.937791 0.592403
O O15 0.147970 0.587850 0.224103
O O16 0.000000 0.500000 0.500000
O O17 0.167994 0.201349 0.965050
#
# Coordination Sequence:
#
# PCOD9095597 Si02
#       8
#     2   2   2   2   2   2   2   2
#     4   9  21  41  66  87 117 164 217 256 301 371
#     4  10  20  35  58  91 117 162 202 252 310 368
#     4  10  22  38  59  94 132 154 202 261 310 380
#     4  10  20  37  63  81 117 164 205 255 309 353
#     4   9  20  34  58  87 119 155 208 248 305 369
#     4  10  22  35  58  93 126 160 205 246 307 380
#     4  10  22  39  60  89 124 161 210 256 301 372
#     4  10  21  39  62  91 125 167 198 258 317 360
#
# _framework density 25.152802000000001
#
# number of rings (size 3 to 8) (size 9 to 14) (size 15 to 20)
#    0.000    2.250    0.000    1.500   10.500    1.000 
#    4.500    0.000    0.000   14.250    0.000    0.000 
#    0.000    0.000    0.000    0.000    0.000    0.000 
#
# Total GULP energy -89149.461347 kJ/mol
# GULP energy per Si atom -5571.841334 kJ/mol
# Density = 2.509555 g / cm^3
# Si number density = 25.152802 Si / 1000 Ang^3
#
#
#
# Elastic Constant Matrix: (Units=GPa)
#
#
# Indices 1 2 3 4 5 6 
#
# 1 60.7697 13.6864 21.0105 -3.9419 7.6540 0.3565
# 2 13.6864 92.0706 22.7279 -8.8630 4.1381 15.8481
# 3 21.0105 22.7279 116.6614 -6.8134 25.2489 1.0219
# 4 -3.9419 -8.8630 -6.8134 20.0633 -7.5699 -8.6055
# 5 7.6540 4.1381 25.2489 -7.5699 34.0995 -8.3879
# 6 0.3565 15.8481 1.0219 -8.6055 -8.3879 37.7850
#
#
#
# Elastic Compliance Matrix: (Units=1/GPa)
#
#
# Indices 1 2 3 4 5 6 
#
# 1 0.018036 -0.001987 -0.002464 0.001625 -0.001430 0.000783
# 2 -0.001987 0.012685 -0.001852 0.002391 -0.000369 -0.004789
# 3 -0.002464 -0.001852 0.011067 -0.001277 -0.008090 -0.001586
# 4 0.001625 0.002391 -0.001277 0.066006 0.019462 0.018369
# 5 -0.001430 -0.000369 -0.008090 0.019462 0.043567 0.014491
# 6 0.000783 -0.004789 -0.001586 0.018369 0.014491 0.035910
#
#
# Mechanical properties :
#
#
# Convention : Reuss Voigt Hill
#
# Bulk Modulus (GPa) = 34.26729 42.70569 38.48649
# Shear Modulus (GPa) = 23.85470 32.52802 28.19136
#
# Velocity S-wave (km/s) = 3.08294 3.60003 3.35147
# Velocity P-wave (km/s) = 5.13088 5.85625 5.50552
#
# Compressibility (1/GPa) = 0.02918234
#
# Stress axis : x y z
#
# Youngs Moduli (GPa) = 55.44553 78.83442 90.36262
#
# Poissons Ratio (x) = 0.15663 0.22262
# Poissons Ratio (y) = 0.11016 0.16734
# Poissons Ratio (z) = 0.13660 0.14599
#
# Static dielectric constant tensor:
#      x y z
#    x 1.994280 0.052790 -0.078630 
#    y 0.052790 1.880710 0.106710 
#    z -0.078630 0.106710 2.091900 
# 
# From -- ./inp_files/469567.got.cif
#   From: 2010.05.17/outbox.cif.g08.bks.cpg/sg2_235_cif.got.tgz:469567.got - 2010.06.03 11:33:40.
