data_PCOD9095563
_publ_section_title
;
Structure prediction by ZEFSAII (Michael W. Deem and Ramdas Pophale) SiO2 
 PCOD9095563
Probable space group: P -1
;
_chemical_formula_sum "Si O2"
_cell_formula_units_Z 14
_cell_length_a 24.831511
_cell_length_b 14.691249
_cell_length_c 5.111871
_cell_angle_alpha 79.622591
_cell_angle_beta 103.005195
_cell_angle_gamma 164.365773
_cell_volume 484.899211
_symmetry_space_group_name_H-M "P -1"
_symmetry_group_IT_number 2
_symmetry_cell_setting 'triclinic'
loop_
_space_group_symop_operation_xyz
x,y,z
-x,-y,-z
loop_
_atom_site_type_symbol
_atom_site_label
_atom_site_fract_x
_atom_site_fract_y
_atom_site_fract_z
Si Si1 0.995311 0.201082 0.597653
Si Si2 0.380833 0.974267 0.239434
Si Si3 0.497767 0.345219 0.013289
Si Si4 0.266675 0.604254 0.183965
Si Si5 0.309044 0.178874 0.268113
Si Si6 0.857940 0.788682 0.701808
Si Si7 0.198322 0.763129 0.657759
O O1 0.097947 0.358203 0.347090
O O2 0.885978 0.118474 0.610912
O O3 0.824019 0.843876 0.627578
O O4 0.165590 0.454148 0.869737
O O5 0.278826 0.828076 0.481065
O O6 0.431904 0.951092 0.233917
O O7 0.550351 0.327046 0.185905
O O8 0.207455 0.723946 0.964724
O O9 0.336736 0.133270 0.144975
O O10 0.668368 0.697329 0.974280
O O11 0.376199 0.124735 0.731101
O O12 0.308766 0.562470 0.287690
O O13 0.500000 0.500000 0.500000
O O14 0.000000 0.000000 0.500000
O O15 0.000000 0.000000 0.000000
O O16 0.000000 0.500000 0.500000
#
# Coordination Sequence:
#
# PCOD9095563 Si02
#       7
#     2   2   2   2   2   2   2
#     4  10  22  35  58  84 112 148 189 226 285 332
#     4  10  21  34  53  80 109 147 175 230 286 331
#     4   9  24  37  54  77 113 151 194 226 274 318
#     4  10  20  35  58  88 114 140 181 235 292 340
#     4  11  23  40  56  78 114 159 197 230 261 335
#     4   8  16  34  54  81 113 139 175 234 284 334
#     4  10  21  36  52  79 112 144 186 233 281 331
#
# _framework density 28.871981000000002
#
# number of rings (size 3 to 8) (size 9 to 14) (size 15 to 20)
#    0.857    1.429    0.000    2.143    6.000    2.286 
#    0.000    0.000    0.000    0.857    0.000    2.000 
#    0.000    0.000    0.000    0.000    0.000    0.000 
#
# Total GULP energy -78470.770802 kJ/mol
# GULP energy per Si atom -5605.055057 kJ/mol
# Density = 2.880627 g / cm^3
# Si number density = 28.871981 Si / 1000 Ang^3
#
#
#
# Elastic Constant Matrix: (Units=GPa)
#
#
# Indices 1 2 3 4 5 6 
#
# 1 158.7180 61.0541 35.3451 -1.9253 -8.4096 -21.2744
# 2 61.0541 108.2360 33.0358 0.4658 -5.7223 -16.5697
# 3 35.3451 33.0358 179.5749 -0.6527 -19.2917 19.7662
# 4 -1.9253 0.4658 -0.6527 38.4734 -13.8256 -7.2865
# 5 -8.4096 -5.7223 -19.2917 -13.8256 48.0020 -6.1739
# 6 -21.2744 -16.5697 19.7662 -7.2865 -6.1739 82.0516
#
#
#
# Elastic Compliance Matrix: (Units=1/GPa)
#
#
# Indices 1 2 3 4 5 6 
#
# 1 0.008417 -0.004125 -0.000963 0.001213 0.001174 0.001777
# 2 -0.004125 0.012366 -0.001628 0.000099 0.000364 0.001856
# 3 -0.000963 -0.001628 0.006503 0.000483 0.002140 -0.001941
# 4 0.001213 0.000099 0.000483 0.030187 0.009579 0.003620
# 5 0.001174 0.000364 0.002140 0.009579 0.025035 0.002597
# 6 0.001777 0.001856 -0.001941 0.003620 0.002597 0.014007
#
#
# Mechanical properties :
#
#
# Convention : Reuss Voigt Hill
#
# Bulk Modulus (GPa) = 72.17988 78.37767 75.27877
# Shear Modulus (GPa) = 43.64361 54.84498 49.24430
#
# Velocity S-wave (km/s) = 3.89218 4.36316 4.13438
# Velocity P-wave (km/s) = 6.72704 7.25179 6.99433
#
# Compressibility (1/GPa) = 0.01385428
#
# Stress axis : x y z
#
# Youngs Moduli (GPa) = 118.80986 80.86902 153.77442
#
# Poissons Ratio (x) = 0.33358 0.14807
# Poissons Ratio (y) = 0.49008 0.25031
# Poissons Ratio (z) = 0.11440 0.13164
#
# Static dielectric constant tensor:
#      x y z
#    x 2.200530 -0.142200 0.092120 
#    y -0.142200 2.367880 -0.038410 
#    z 0.092120 -0.038410 2.230060 
# 
# From -- ./inp_files/127154.got.cif
#   From: 2010.05.17/outbox.cif.g08.bks.cpg/sg2_64_cif.got.tgz:127154.got - 2010.06.03 11:33:40.
