data_PCOD9095603
_publ_section_title
;
Structure prediction by ZEFSAII (Michael W. Deem and Ramdas Pophale) SiO2 
 PCOD9095603
Probable space group: P -1
;
_chemical_formula_sum "Si O2"
_cell_formula_units_Z 15
_cell_length_a 22.691264
_cell_length_b 7.013027
_cell_length_c 7.852512
_cell_angle_alpha 60.963766
_cell_angle_beta 129.178998
_cell_angle_gamma 139.228592
_cell_volume 632.519801
_symmetry_space_group_name_H-M "P -1"
_symmetry_group_IT_number 2
_symmetry_cell_setting 'triclinic'
loop_
_space_group_symop_operation_xyz
x,y,z
-x,-y,-z
loop_
_atom_site_type_symbol
_atom_site_label
_atom_site_fract_x
_atom_site_fract_y
_atom_site_fract_z
Si Si1 0.202794 0.388681 0.388503
Si Si2 0.735722 0.028019 0.909349
Si Si3 0.708612 0.805339 0.615255
Si Si4 0.239415 0.626460 0.706850
Si Si5 0.450416 0.053554 0.030385
Si Si6 0.000000 0.000000 0.000000
Si Si7 0.496149 0.609377 0.717179
Si Si8 0.907652 0.458012 0.274708
O O1 0.244351 0.693404 0.251898
O O2 0.247906 0.285813 0.396860
O O3 0.233404 0.448324 0.616665
O O4 0.082033 0.140266 0.250553
O O5 0.756823 0.898751 0.850701
O O6 0.615053 0.793464 0.824774
O O7 0.809274 0.142308 0.156086
O O8 0.586646 0.530882 0.522768
O O9 0.736494 0.094548 0.460962
O O10 0.138595 0.466265 0.702026
O O11 0.332863 0.761171 0.947040
O O12 0.455707 0.313834 0.864036
O O13 0.507007 0.182343 0.257810
O O14 0.500000 0.000000 0.000000
O O15 0.951345 0.675304 0.103511
O O16 0.000000 0.500000 0.500000
#
# Coordination Sequence:
#
# PCOD9095603 Si02
#       8
#     2   2   2   2   2   1   2   2
#     4  10  22  40  62  90 130 170 219 280 329 391
#     4  10  22  40  60  94 133 168 221 278 324 400
#     4  10  21  38  64  94 130 176 215 265 338 398
#     4  10  21  40  63  93 130 169 219 270 327 402
#     4  10  20  35  58  91 131 169 213 267 320 395
#     4  10  24  44  64  98 130 164 234 282 326 406
#     4  10  20  36  58  91 132 169 220 267 321 404
#     4  11  23  44  71  95 133 179 221 284 346 386
#
# _framework density 23.714673000000001
#
# number of rings (size 3 to 8) (size 9 to 14) (size 15 to 20)
#    0.000    1.867    1.333    2.000    0.000    3.200 
#    2.400    4.000    0.000    0.000    0.000    0.000 
#    0.000    0.000    0.000    0.000    0.000    0.000 
#
# Total GULP energy -83551.557853 kJ/mol
# GULP energy per Si atom -5570.103857 kJ/mol
# Density = 2.366070 g / cm^3
# Si number density = 23.714673 Si / 1000 Ang^3
#
#
#
# Elastic Constant Matrix: (Units=GPa)
#
#
# Indices 1 2 3 4 5 6 
#
# 1 66.3084 -4.2715 43.9320 19.0371 7.7641 -56.9475
# 2 -4.2715 67.6070 23.6164 10.3294 3.6670 -28.6731
# 3 43.9320 23.6164 76.5515 29.1870 -19.6805 3.4217
# 4 19.0371 10.3294 29.1870 31.5453 -8.7958 -5.4363
# 5 7.7641 3.6670 -19.6805 -8.7958 15.5978 28.0857
# 6 -56.9475 -28.6731 3.4217 -5.4363 28.0857 22.8112
#
#
#
# Elastic Compliance Matrix: (Units=1/GPa)
#
#
# Indices 1 2 3 4 5 6 
#
# 1 0.005903 -0.004014 0.002356 -0.002019 0.013235 -0.007439
# 2 -0.004014 0.012184 0.001090 -0.001255 0.007310 -0.004171
# 3 0.002356 0.001090 0.015762 -0.016609 -0.006099 0.008437
# 4 -0.002019 -0.001255 -0.016609 0.050352 0.004468 0.002371
# 5 0.013235 0.007310 -0.006099 0.004468 0.023807 0.014896
# 6 -0.007439 -0.004171 0.008437 0.002371 0.014896 0.000983
#
#
# Mechanical properties :
#
#
# Convention : Reuss Voigt Hill
#
# Bulk Modulus (GPa) = 30.57099 37.44675 34.00887
# Shear Modulus (GPa) = 41.31099 23.80354 32.55726
#
# Velocity S-wave (km/s) = 4.17826 3.17163 3.70925
# Velocity P-wave (km/s) = 6.01633 5.40714 5.71985
#
# Compressibility (1/GPa) = 0.03271075
#
# Stress axis : x y z
#
# Youngs Moduli (GPa) = 169.41337 82.07742 63.44175
#
# Poissons Ratio (x) = 0.32949 -0.14945
# Poissons Ratio (y) = 0.68009 -0.06913
# Poissons Ratio (z) = -0.39909 -0.08943
#
# Static dielectric constant tensor:
#      x y z
#    x 1.926820 0.001260 0.016400 
#    y 0.001260 1.896320 0.018390 
#    z 0.016400 0.018390 1.939950 
# 
# From -- ./inp_files/36419.got.cif
#   From: 2010.05.17/outbox.cif.g08.bks.cpg/sg2_19_cif.got.tgz:36419.got - 2010.06.03 11:33:40.
