data_PCOD9095708
_publ_section_title
;
Structure prediction by ZEFSAII (Michael W. Deem and Ramdas Pophale) SiO2 
 PCOD9095708
Probable space group: P -1
;
_chemical_formula_sum "Si O2"
_cell_formula_units_Z 14
_cell_length_a 11.194481
_cell_length_b 8.644226
_cell_length_c 10.684481
_cell_angle_alpha 124.815114
_cell_angle_beta 136.750466
_cell_angle_gamma 51.736286
_cell_volume 542.242843
_symmetry_space_group_name_H-M "P -1"
_symmetry_group_IT_number 2
_symmetry_cell_setting 'triclinic'
loop_
_space_group_symop_operation_xyz
x,y,z
-x,-y,-z
loop_
_atom_site_type_symbol
_atom_site_label
_atom_site_fract_x
_atom_site_fract_y
_atom_site_fract_z
Si Si1 0.718735 0.827825 0.729072
Si Si2 0.737137 0.467178 0.427329
Si Si3 0.990478 0.731472 0.111494
Si Si4 0.695237 0.227961 0.777207
Si Si5 0.716902 0.470849 0.135025
Si Si6 0.319214 0.200443 0.929428
Si Si7 0.528636 0.302554 0.349590
O O1 0.814500 0.605981 0.636178
O O2 0.527525 0.840842 0.662635
O O3 0.697265 0.005127 0.699315
O O4 0.850956 0.849124 0.949760
O O5 0.522175 0.627884 0.323943
O O6 0.808957 0.419645 0.318667
O O7 0.713018 0.281722 0.400048
O O8 0.875181 0.816256 0.187980
O O9 0.182085 0.762943 0.245134
O O10 0.000000 0.500000 0.000000
O O11 0.785108 0.303632 0.000524
O O12 0.707027 0.684288 0.167973
O O13 0.500000 0.500000 0.000000
O O14 0.372092 0.337220 0.137464
O O15 0.500000 0.000000 0.000000
O O16 0.500000 0.500000 0.500000
#
# Coordination Sequence:
#
# PCOD9095708 Si02
#       7
#     2   2   2   2   2   2   2
#     4  10  22  35  59  94 120 161 208 255 297 366
#     4  10  20  37  59  91 127 159 201 253 310 360
#     4  11  22  41  64  88 124 165 207 254 309 365
#     4  11  20  38  61  93 122 159 205 254 305 364
#     4  10  20  35  59  88 126 157 198 250 311 357
#     4  11  22  38  62  92 117 160 215 252 296 369
#     4   9  18  34  54  84 119 154 199 247 296 350
#
# _framework density 25.818688999999999
#
# number of rings (size 3 to 8) (size 9 to 14) (size 15 to 20)
#    0.000    1.714    4.286    1.714    8.000    0.000 
#    0.000    0.714    0.000    4.286    0.000    0.000 
#    0.000    0.000    0.000    0.000    0.000    0.000 
#
# Total GULP energy -78172.947623 kJ/mol
# GULP energy per Si atom -5583.781973 kJ/mol
# Density = 2.575992 g / cm^3
# Si number density = 25.818689 Si / 1000 Ang^3
#
#
#
# Elastic Constant Matrix: (Units=GPa)
#
#
# Indices 1 2 3 4 5 6 
#
# 1 156.8118 54.7563 18.2894 3.0350 2.5917 33.8878
# 2 54.7563 86.6526 2.7902 8.4173 14.0051 22.7561
# 3 18.2894 2.7902 66.4628 -6.7774 -6.2594 6.6864
# 4 3.0350 8.4173 -6.7774 27.5768 7.5613 -4.1236
# 5 2.5917 14.0051 -6.2594 7.5613 48.7228 -5.8425
# 6 33.8878 22.7561 6.6864 -4.1236 -5.8425 40.4997
#
#
#
# Elastic Compliance Matrix: (Units=1/GPa)
#
#
# Indices 1 2 3 4 5 6 
#
# 1 0.009235 -0.004368 -0.001940 -0.000928 0.000055 -0.005039
# 2 -0.004368 0.017467 0.000284 -0.004532 -0.004934 -0.007379
# 3 -0.001940 0.000284 0.016135 0.003598 0.001461 -0.000623
# 4 -0.000928 -0.004532 0.003598 0.040600 -0.003728 0.006325
# 5 0.000055 -0.004934 0.001461 -0.003728 0.023362 0.005475
# 6 -0.005039 -0.007379 -0.000623 0.006325 0.005475 0.034591
#
#
# Mechanical properties :
#
#
# Convention : Reuss Voigt Hill
#
# Bulk Modulus (GPa) = 32.47990 51.28877 41.88433
# Shear Modulus (GPa) = 30.54337 38.96596 34.75467
#
# Velocity S-wave (km/s) = 3.44320 3.88908 3.67291
# Velocity P-wave (km/s) = 5.33055 6.33045 5.85190
#
# Compressibility (1/GPa) = 0.03078827
#
# Stress axis : x y z
#
# Youngs Moduli (GPa) = 108.28656 57.25052 61.97612
#
# Poissons Ratio (x) = 0.25010 0.12026
# Poissons Ratio (y) = 0.47305 -0.01763
# Poissons Ratio (z) = 0.21012 -0.01629
#
# Static dielectric constant tensor:
#      x y z
#    x 2.122740 0.008660 -0.040500 
#    y 0.008660 2.092980 0.025240 
#    z -0.040500 0.025240 2.165530 
# 
# From -- ./inp_files/400610.got.cif
#   From: 2010.05.17/outbox.cif.g08.bks.cpg/sg2_201_cif.got.tgz:400610.got - 2010.06.03 11:33:40.
