data_PCOD9095366
_publ_section_title
;
Structure prediction by ZEFSAII (Michael W. Deem and Ramdas Pophale) SiO2 
 PCOD9095366
Probable space group: P -1
;
_chemical_formula_sum "Si O2"
_cell_formula_units_Z 16
_cell_length_a 14.783770
_cell_length_b 22.550792
_cell_length_c 11.228317
_cell_angle_alpha 154.416276
_cell_angle_beta 150.445438
_cell_angle_gamma 27.512231
_cell_volume 699.330266
_symmetry_space_group_name_H-M "P -1"
_symmetry_group_IT_number 2
_symmetry_cell_setting 'triclinic'
loop_
_space_group_symop_operation_xyz
x,y,z
-x,-y,-z
loop_
_atom_site_type_symbol
_atom_site_label
_atom_site_fract_x
_atom_site_fract_y
_atom_site_fract_z
Si Si1 0.261998 0.147523 0.094181
Si Si2 0.973486 0.969387 0.233402
Si Si3 0.447478 0.441275 0.140441
Si Si4 0.708474 0.389497 0.118175
Si Si5 0.325016 0.731521 0.694015
Si Si6 0.320427 0.069999 0.762046
Si Si7 0.029884 0.348452 0.826561
Si Si8 0.988806 0.461914 0.256521
O O1 0.080329 0.324284 0.209016
O O2 0.466302 0.087635 0.301500
O O3 0.152956 0.043082 0.819051
O O4 0.355198 0.137198 0.048552
O O5 0.784536 0.088057 0.144651
O O6 0.123327 0.048326 0.536376
O O7 0.142909 0.789985 0.075552
O O8 0.631443 0.388059 0.160886
O O9 0.396970 0.612744 0.447242
O O10 0.497086 0.332902 0.118307
O O11 0.259892 0.442216 0.850734
O O12 0.862818 0.462496 0.433027
O O13 0.500000 0.500000 0.000000
O O14 0.147222 0.698289 0.490671
O O15 0.252671 0.191735 0.797151
O O16 0.000000 0.500000 0.000000
O O17 0.007042 0.391022 0.016747
#
# Coordination Sequence:
#
# PCOD9095366 Si02
#       8
#     2   2   2   2   2   2   2   2
#     4  10  20  35  57  83 117 155 202 254 295 350
#     4  11  23  38  58  89 123 156 197 249 304 357
#     4  10  22  43  66  88 121 159 203 255 301 360
#     4  12  26  40  61  90 126 169 201 241 306 369
#     4   9  21  41  67  93 117 156 206 258 306 350
#     4   9  20  35  56  86 117 156 200 249 304 349
#     4   9  17  34  61  90 118 149 198 256 301 353
#     4  10  22  38  57  86 117 159 206 242 294 360
#
# _framework density 22.879033
#
# number of rings (size 3 to 8) (size 9 to 14) (size 15 to 20)
#    0.000    2.000    0.000    3.375    0.000   10.500 
#    0.000    0.625    0.000    0.000    0.000    0.000 
#    0.000    0.000    0.000    0.000    0.000    0.000 
#
# Total GULP energy -89129.255315 kJ/mol
# GULP energy per Si atom -5570.578457 kJ/mol
# Density = 2.282696 g / cm^3
# Si number density = 22.879033 Si / 1000 Ang^3
#
#
#
# Elastic Constant Matrix: (Units=GPa)
#
#
# Indices 1 2 3 4 5 6 
#
# 1 77.3743 40.3036 8.0662 -2.9316 8.4608 4.5853
# 2 40.3036 184.0383 32.8360 3.1570 10.2153 11.2090
# 3 8.0662 32.8360 55.9268 -5.2643 14.7962 11.0194
# 4 -2.9316 3.1570 -5.2643 32.7644 3.7182 8.6631
# 5 8.4608 10.2153 14.7962 3.7182 28.3059 9.5566
# 6 4.5853 11.2090 11.0194 8.6631 9.5566 27.3728
#
#
#
# Elastic Compliance Matrix: (Units=1/GPa)
#
#
# Indices 1 2 3 4 5 6 
#
# 1 0.015105 -0.003291 0.001271 0.002624 -0.003950 -0.001146
# 2 -0.003291 0.006845 -0.003817 -0.001525 0.000892 -0.000544
# 3 0.001271 -0.003817 0.024901 0.007638 -0.010517 -0.007420
# 4 0.002624 -0.001525 0.007638 0.036006 -0.004686 -0.012650
# 5 -0.003950 0.000892 -0.010517 -0.004686 0.045651 -0.009925
# 6 -0.001146 -0.000544 -0.007420 -0.012650 -0.009925 0.047403
#
#
# Mechanical properties :
#
#
# Convention : Reuss Voigt Hill
#
# Bulk Modulus (GPa) = 28.42584 53.30567 40.86575
# Shear Modulus (GPa) = 25.08657 33.43087 29.25872
#
# Velocity S-wave (km/s) = 3.31492 3.82671 3.57997
# Velocity P-wave (km/s) = 5.20605 6.54786 5.91513
#
# Compressibility (1/GPa) = 0.03517926
#
# Stress axis : x y z
#
# Youngs Moduli (GPa) = 66.20318 146.09120 40.15842
#
# Poissons Ratio (x) = 0.48075 -0.05105
# Poissons Ratio (y) = 0.21786 0.15327
# Poissons Ratio (z) = -0.08416 0.55757
#
# Static dielectric constant tensor:
#      x y z
#    x 1.919080 -0.124430 -0.007790 
#    y -0.124430 2.108920 -0.009400 
#    z -0.007790 -0.009400 1.889580 
# 
# From -- ./inp_files/457796.got.cif
#   From: 2010.05.17/outbox.cif.g08.bks.cpg/sg2_229_cif.got.tgz:457796.got - 2010.06.03 11:33:40.
