data_PCOD9095873
_publ_section_title
;
Structure prediction by ZEFSAII (Michael W. Deem and Ramdas Pophale) SiO2 
 PCOD9095873
Probable space group: P -1
;
_chemical_formula_sum "Si O2"
_cell_formula_units_Z 16
_cell_length_a 13.314415
_cell_length_b 8.736540
_cell_length_c 25.041452
_cell_angle_alpha 51.044138
_cell_angle_beta 22.651009
_cell_angle_gamma 64.210097
_cell_volume 763.025998
_symmetry_space_group_name_H-M "P -1"
_symmetry_group_IT_number 2
_symmetry_cell_setting 'triclinic'
loop_
_space_group_symop_operation_xyz
x,y,z
-x,-y,-z
loop_
_atom_site_type_symbol
_atom_site_label
_atom_site_fract_x
_atom_site_fract_y
_atom_site_fract_z
Si Si1 0.197407 0.616442 0.474659
Si Si2 0.168408 0.298092 0.217537
Si Si3 0.909196 0.120856 0.718420
Si Si4 0.299686 0.134855 0.021662
Si Si5 0.648104 0.362362 0.482530
Si Si6 0.266035 0.888695 0.905715
Si Si7 0.036972 0.981048 0.894551
Si Si8 0.649878 0.640197 0.767637
O O1 0.228754 0.572517 0.531814
O O2 0.488697 0.846512 0.267165
O O3 0.127318 0.376731 0.537308
O O4 0.913271 0.657099 0.596243
O O5 0.175593 0.255590 0.286162
O O6 0.919481 0.372338 0.313685
O O7 0.085093 0.070983 0.277442
O O8 0.500000 0.500000 0.000000
O O9 0.931534 0.058592 0.783064
O O10 0.576794 0.091021 0.885077
O O11 0.430932 0.371769 0.936177
O O12 0.168230 0.145625 0.026757
O O13 0.500000 0.500000 0.500000
O O14 0.371755 0.113090 0.679146
O O15 0.058201 0.850895 0.964603
O O16 0.448043 0.757533 0.833602
O O17 0.070353 0.849030 0.063952
#
# Coordination Sequence:
#
# PCOD9095873 Si02
#       8
#     2   2   2   2   2   2   2   2
#     4   9  20  39  58  89 117 159 197 249 300 340
#     4  11  22  38  62  95 116 153 203 241 300 361
#     4  10  20  36  62  89 123 147 201 251 295 359
#     4  10  20  35  60  91 118 158 191 250 310 346
#     4  10  22  37  60  88 125 156 191 248 306 358
#     4  10  21  39  61  82 117 164 209 239 285 365
#     4  10  22  39  56  84 120 163 201 237 305 352
#     4  10  20  36  61  89 119 153 205 252 292 348
#
# _framework density 20.969142000000002
#
# number of rings (size 3 to 8) (size 9 to 14) (size 15 to 20)
#    0.000    2.000    1.250    1.875    5.250    0.500 
#    0.000   15.625    0.000    0.000    0.000    0.000 
#    0.000    0.000    0.000    0.000    0.000    0.000 
#
# Total GULP energy -89206.233241 kJ/mol
# GULP energy per Si atom -5575.389578 kJ/mol
# Density = 2.092142 g / cm^3
# Si number density = 20.969142 Si / 1000 Ang^3
#
#
#
# Elastic Constant Matrix: (Units=GPa)
#
#
# Indices 1 2 3 4 5 6 
#
# 1 62.0081 29.2571 0.8031 12.0176 -19.7497 1.5727
# 2 29.2571 131.6292 45.4477 25.9269 -13.5547 -11.5667
# 3 0.8031 45.4477 75.3367 14.9795 -1.5638 -7.7417
# 4 12.0176 25.9269 14.9795 23.4347 -6.4456 -8.6994
# 5 -19.7497 -13.5547 -1.5638 -6.4456 21.1804 2.6710
# 6 1.5727 -11.5667 -7.7417 -8.6994 2.6710 24.6378
#
#
#
# Elastic Compliance Matrix: (Units=1/GPa)
#
#
# Indices 1 2 3 4 5 6 
#
# 1 0.026375 -0.003898 0.003409 -0.008555 0.020719 -0.007709
# 2 -0.003898 0.012033 -0.005693 -0.006697 0.001407 0.001592
# 3 0.003409 -0.005693 0.018130 -0.007276 -0.001389 0.000388
# 4 -0.008555 -0.006697 -0.007276 0.067410 0.005402 0.018332
# 5 0.020719 0.001407 -0.001389 0.005402 0.069827 -0.006761
# 6 -0.007709 0.001592 0.000388 0.018332 -0.006761 0.049155
#
#
# Mechanical properties :
#
#
# Convention : Reuss Voigt Hill
#
# Bulk Modulus (GPa) = 22.63821 46.66552 34.65186
# Shear Modulus (GPa) = 18.51731 26.74831 22.63281
#
# Velocity S-wave (km/s) = 2.97488 3.57543 3.28889
# Velocity P-wave (km/s) = 4.75597 6.27277 5.56628
#
# Compressibility (1/GPa) = 0.04417310
#
# Stress axis : x y z
#
# Youngs Moduli (GPa) = 37.91540 83.10448 55.15819
#
# Poissons Ratio (x) = 0.32396 -0.18805
# Poissons Ratio (y) = 0.14780 0.31403
# Poissons Ratio (z) = -0.12927 0.47313
#
# Static dielectric constant tensor:
#      x y z
#    x 1.801880 0.004790 0.045020 
#    y 0.004790 1.776570 0.020160 
#    z 0.045020 0.020160 1.800050 
# 
# From -- ./inp_files/304709.got.cif
#   From: 2010.05.17/outbox.cif.g08.bks.cpg/sg2_153_cif.got.tgz:304709.got - 2010.06.03 11:33:40.
