data_PCOD9095335
_publ_section_title
;
Structure prediction by ZEFSAII (Michael W. Deem and Ramdas Pophale) SiO2 
 PCOD9095335
Probable space group: P -1
;
_chemical_formula_sum "Si O2"
_cell_formula_units_Z 16
_cell_length_a 22.703666
_cell_length_b 6.674725
_cell_length_c 16.916997
_cell_angle_alpha 80.842811
_cell_angle_beta 22.010797
_cell_angle_gamma 67.442225
_cell_volume 730.401593
_symmetry_space_group_name_H-M "P -1"
_symmetry_group_IT_number 2
_symmetry_cell_setting 'triclinic'
loop_
_space_group_symop_operation_xyz
x,y,z
-x,-y,-z
loop_
_atom_site_type_symbol
_atom_site_label
_atom_site_fract_x
_atom_site_fract_y
_atom_site_fract_z
Si Si1 0.550846 0.830961 0.044292
Si Si2 0.996912 0.998350 0.126581
Si Si3 0.566779 0.320814 0.351072
Si Si4 0.315100 0.592685 0.964860
Si Si5 0.155856 0.632858 0.398528
Si Si6 0.148046 0.925612 0.524627
Si Si7 0.299927 0.898784 0.099335
Si Si8 0.860807 0.434931 0.144927
O O1 0.614251 0.657982 0.056707
O O2 0.341499 0.906589 0.270219
O O3 0.720896 0.648323 0.777523
O O4 0.547723 0.067521 0.055310
O O5 0.206170 0.941041 0.895146
O O6 0.058949 0.731241 0.026625
O O7 0.870938 0.077780 0.357719
O O8 0.881905 0.228260 0.191705
O O9 0.500000 0.500000 0.500000
O O10 0.597335 0.441238 0.229150
O O11 0.380654 0.318737 0.571176
O O12 0.374713 0.737362 0.935273
O O13 0.067409 0.804726 0.254410
O O14 0.174235 0.688508 0.462734
O O15 0.916617 0.813166 0.665452
O O16 0.245731 0.756371 0.232789
O O17 0.000000 0.500000 0.000000
#
# Coordination Sequence:
#
# PCOD9095335 Si02
#       8
#     2   2   2   2   2   2   2   2
#     4  11  20  34  58  78 100 141 178 213 262 306
#     4   9  20  38  54  75 110 140 168 216 263 306
#     4   9  18  36  57  76 107 143 170 210 266 310
#     4   9  20  38  54  76 109 138 172 217 258 310
#     4   9  19  36  52  75 109 138 172 216 259 311
#     4  10  20  36  55  78 107 137 174 217 261 308
#     4   9  19  35  55  77 104 139 176 214 260 309
#     4  10  20  35  57  81 104 137 178 214 255 310
#
# _framework density 21.905757999999999
#
# number of rings (size 3 to 8) (size 9 to 14) (size 15 to 20)
#    0.000    2.500    0.000    2.250    0.000    2.000 
#    0.000   17.500    0.000    0.000    0.000    0.000 
#    0.000    0.000    0.000    0.000    0.000    0.000 
#
# Total GULP energy -89374.453124 kJ/mol
# GULP energy per Si atom -5585.903320 kJ/mol
# Density = 2.185590 g / cm^3
# Si number density = 21.905758 Si / 1000 Ang^3
#
#
#
# Elastic Constant Matrix: (Units=GPa)
#
#
# Indices 1 2 3 4 5 6 
#
# 1 110.9486 18.9355 19.7907 1.1675 21.9630 1.4338
# 2 18.9355 36.3938 12.8735 5.9143 -1.5825 6.9450
# 3 19.7907 12.8735 65.0706 8.1098 2.6821 3.8281
# 4 1.1675 5.9143 8.1098 10.4208 5.9193 -6.9738
# 5 21.9630 -1.5825 2.6821 5.9193 45.2073 -10.1999
# 6 1.4338 6.9450 3.8281 -6.9738 -10.1999 26.7638
#
#
#
# Elastic Compliance Matrix: (Units=1/GPa)
#
#
# Indices 1 2 3 4 5 6 
#
# 1 0.012138 -0.007555 -0.003374 0.010808 -0.006932 0.001967
# 2 -0.007555 0.041310 -0.000393 -0.037615 0.006060 -0.017751
# 3 -0.003374 -0.000393 0.019332 -0.020074 0.001495 -0.007143
# 4 0.010808 -0.037615 -0.020074 0.175670 -0.016773 0.051435
# 5 -0.006932 0.006060 0.001495 -0.016773 0.028996 0.005265
# 6 0.001967 -0.017751 -0.007143 0.051435 0.005265 0.058296
#
#
# Mechanical properties :
#
#
# Convention : Reuss Voigt Hill
#
# Bulk Modulus (GPa) = 19.94511 35.06805 27.50658
# Shear Modulus (GPa) = 13.32991 27.19927 20.26459
#
# Velocity S-wave (km/s) = 2.46948 3.52753 3.04481
# Velocity P-wave (km/s) = 4.15401 5.71267 4.99452
#
# Compressibility (1/GPa) = 0.05013760
#
# Stress axis : x y z
#
# Youngs Moduli (GPa) = 82.38905 24.20698 51.72744
#
# Poissons Ratio (x) = 0.18288 0.17452
# Poissons Ratio (y) = 0.62243 0.02031
# Poissons Ratio (z) = 0.27796 0.00950
#
# Static dielectric constant tensor:
#      x y z
#    x 1.826390 -0.019660 -0.024710 
#    y -0.019660 1.788770 0.026950 
#    z -0.024710 0.026950 1.833360 
# 
# From -- ./inp_files/52168.got.cif
#   From: 2010.05.17/outbox.cif.g08.bks.cpg/sg2_27_cif.got.tgz:52168.got - 2010.06.03 11:33:40.
