data_PCOD9095071
_publ_section_title
;
Structure prediction by ZEFSAII (Michael W. Deem and Ramdas Pophale) SiO2 
 PCOD9095071
Probable space group: P -1
;
_chemical_formula_sum "Si O2"
_cell_formula_units_Z 16
_cell_length_a 7.603665
_cell_length_b 12.768674
_cell_length_c 7.234254
_cell_angle_alpha 83.082105
_cell_angle_beta 102.882415
_cell_angle_gamma 64.698245
_cell_volume 600.171643
_symmetry_space_group_name_H-M "P -1"
_symmetry_group_IT_number 2
_symmetry_cell_setting 'triclinic'
loop_
_space_group_symop_operation_xyz
x,y,z
-x,-y,-z
loop_
_atom_site_type_symbol
_atom_site_label
_atom_site_fract_x
_atom_site_fract_y
_atom_site_fract_z
Si Si1 0.601610 0.725012 0.991500
Si Si2 0.046934 0.226932 0.769415
Si Si3 0.691632 0.026356 0.094407
Si Si4 0.558557 0.270322 0.411429
Si Si5 0.229934 0.523081 0.378564
Si Si6 0.133252 0.526253 0.790357
Si Si7 0.027716 0.775224 0.670892
Si Si8 0.694748 0.021462 0.535392
O O1 0.783869 0.740650 0.120097
O O2 0.665110 0.585931 0.060946
O O3 0.396653 0.833945 0.004719
O O4 0.594353 0.744308 0.765756
O O5 0.826651 0.341864 0.722351
O O6 0.077769 0.221487 0.553886
O O7 0.106931 0.095334 0.886940
O O8 0.730982 0.026567 0.324021
O O9 0.500000 0.000000 0.000000
O O10 0.443253 0.405277 0.425927
O O11 0.748810 0.251864 0.335316
O O12 0.641449 0.150771 0.578676
O O13 0.180323 0.527944 0.583247
O O14 0.062362 0.496326 0.240330
O O15 0.065659 0.658902 0.818995
O O16 0.887918 0.906811 0.688006
O O17 0.500000 0.000000 0.500000
#
# Coordination Sequence:
#
# PCOD9095071 Si02
#       8
#     2   2   2   2   2   2   2   2
#     4   9  18  32  52  79 106 140 177 216 262 312
#     4   8  16  31  52  73  99 138 179 209 243 308
#     4   8  15  30  52  77 100 128 170 216 256 295
#     4  11  22  33  53  83 111 133 168 225 277 307
#     4   9  18  33  53  78 102 139 185 218 252 310
#     4   9  18  33  54  75 104 144 184 214 249 313
#     4  10  20  35  54  79 108 138 174 218 265 312
#     4  10  20  35  56  79 103 136 177 216 258 314
#
# _framework density 26.659040999999998
#
# number of rings (size 3 to 8) (size 9 to 14) (size 15 to 20)
#    0.000    2.750    0.000    1.875    0.000    7.500 
#    0.000    1.250    0.000    7.500    0.000   28.875 
#    0.000    0.000    0.000    0.000    0.000    0.000 
#
# Total GULP energy -89302.173994 kJ/mol
# GULP energy per Si atom -5581.385875 kJ/mol
# Density = 2.659836 g / cm^3
# Si number density = 26.659041 Si / 1000 Ang^3
#
#
#
# Elastic Constant Matrix: (Units=GPa)
#
#
# Indices 1 2 3 4 5 6 
#
# 1 61.5174 47.7144 -5.4037 -24.7293 6.6397 -13.4186
# 2 47.7144 293.2849 67.3053 -107.0388 0.9241 -15.2073
# 3 -5.4037 67.3053 90.5833 -11.9533 4.1538 -9.0826
# 4 -24.7293 -107.0388 -11.9533 77.5970 -2.2754 10.2697
# 5 6.6397 0.9241 4.1538 -2.2754 20.9262 -6.5426
# 6 -13.4186 -15.2073 -9.0826 10.2697 -6.5426 31.6854
#
#
#
# Elastic Compliance Matrix: (Units=1/GPa)
#
#
# Indices 1 2 3 4 5 6 
#
# 1 0.022720 -0.004106 0.005600 0.001257 -0.005597 0.007693
# 2 -0.004106 0.009403 -0.006095 0.011068 0.002673 -0.002008
# 3 0.005600 -0.006095 0.015907 -0.004921 -0.003687 0.004840
# 4 0.001257 0.011068 -0.004921 0.028433 0.001802 -0.004410
# 5 -0.005597 0.002673 -0.003687 0.001802 0.052937 0.008202
# 6 0.007693 -0.002008 0.004840 -0.004410 0.008202 0.038365
#
#
# Mechanical properties :
#
#
# Convention : Reuss Voigt Hill
#
# Bulk Modulus (GPa) = 25.75461 73.84640 49.80051
# Shear Modulus (GPa) = 26.32820 48.42635 37.37728
#
# Velocity S-wave (km/s) = 3.14600 4.26667 3.74846
# Velocity P-wave (km/s) = 4.78311 7.21340 6.12010
#
# Compressibility (1/GPa) = 0.03882799
#
# Stress axis : x y z
#
# Youngs Moduli (GPa) = 44.01445 106.34667 62.86355
#
# Poissons Ratio (x) = 0.43669 -0.35205
# Poissons Ratio (y) = 0.18074 0.38317
# Poissons Ratio (z) = -0.24649 0.64821
#
# Static dielectric constant tensor:
#      x y z
#    x 2.166170 -0.079820 -0.111780 
#    y -0.079820 2.375010 0.146880 
#    z -0.111780 0.146880 2.290590 
# 
# From -- ./inp_files/206984.got.cif
#   From: 2010.05.17/outbox.cif.g08.bks.cpg/sg2_104_cif.got.tgz:206984.got - 2010.06.03 11:33:40.
