data_PCOD9095114
_publ_section_title
;
Structure prediction by ZEFSAII (Michael W. Deem and Ramdas Pophale) SiO2 
 PCOD9095114
Probable space group: P -1
;
_chemical_formula_sum "Si O2"
_cell_formula_units_Z 16
_cell_length_a 26.438908
_cell_length_b 16.824538
_cell_length_c 14.085935
_cell_angle_alpha 21.801961
_cell_angle_beta 155.015842
_cell_angle_gamma 162.186293
_cell_volume 697.855968
_symmetry_space_group_name_H-M "P -1"
_symmetry_group_IT_number 2
_symmetry_cell_setting 'triclinic'
loop_
_space_group_symop_operation_xyz
x,y,z
-x,-y,-z
loop_
_atom_site_type_symbol
_atom_site_label
_atom_site_fract_x
_atom_site_fract_y
_atom_site_fract_z
Si Si1 0.077795 0.076765 0.849206
Si Si2 0.259572 0.265105 0.769942
Si Si3 0.649693 0.578701 0.453854
Si Si4 0.412817 0.062636 0.348988
Si Si5 0.547308 0.401761 0.775475
Si Si6 0.150235 0.914671 0.437039
Si Si7 0.706554 0.987568 0.614299
Si Si8 0.246634 0.598843 0.002078
O O1 0.121630 0.188944 0.690858
O O2 0.012972 0.188412 0.679360
O O3 0.239391 0.164380 0.072218
O O4 0.928100 0.714388 0.989392
O O5 0.235527 0.252686 0.630577
O O6 0.432679 0.602584 0.718293
O O7 0.290381 0.057851 0.083268
O O8 0.597429 0.738975 0.237329
O O9 0.472006 0.262528 0.463923
O O10 0.716929 0.500142 0.734364
O O11 0.315067 0.874120 0.488778
O O12 0.500000 0.000000 0.500000
O O13 0.500000 0.500000 0.500000
O O14 0.605447 0.258268 0.982390
O O15 0.719327 0.723895 0.750518
O O16 0.155269 0.815123 0.452133
O O17 0.223018 0.819729 0.733544
#
# Coordination Sequence:
#
# PCOD9095114 Si02
#       8
#     2   2   2   2   2   2   2   2
#     4  10  21  37  53  77 110 145 180 213 261 321
#     4   9  19  35  54  75 109 144 173 219 267 307
#     4   9  18  36  57  79 106 139 178 222 265 314
#     4   9  18  34  55  82 107 134 176 224 269 315
#     4   8  17  33  53  78 105 134 174 217 263 313
#     4  10  20  35  55  77 111 145 170 222 269 305
#     4   9  19  35  57  81 104 136 181 221 265 318
#     4  10  21  35  54  81 110 141 180 214 262 324
#
# _framework density 22.927365999999999
#
# number of rings (size 3 to 8) (size 9 to 14) (size 15 to 20)
#    0.000    2.750    0.000    1.125    0.000    8.500 
#    0.000    9.375    0.000    0.000    0.000    0.000 
#    0.000    0.000    0.000    0.000    0.000    0.000 
#
# Total GULP energy -89236.861609 kJ/mol
# GULP energy per Si atom -5577.303851 kJ/mol
# Density = 2.287518 g / cm^3
# Si number density = 22.927366 Si / 1000 Ang^3
#
#
#
# Elastic Constant Matrix: (Units=GPa)
#
#
# Indices 1 2 3 4 5 6 
#
# 1 194.8432 13.2656 40.8790 5.0529 6.8709 34.2057
# 2 13.2656 41.6613 6.7215 1.8001 1.7128 -1.3713
# 3 40.8790 6.7215 70.9440 12.8270 11.9757 1.8848
# 4 5.0529 1.8001 12.8270 14.4188 3.2169 -0.9073
# 5 6.8709 1.7128 11.9757 3.2169 32.7351 8.4094
# 6 34.2057 -1.3713 1.8848 -0.9073 8.4094 32.8869
#
#
#
# Elastic Compliance Matrix: (Units=1/GPa)
#
#
# Indices 1 2 3 4 5 6 
#
# 1 0.007552 -0.002079 -0.004401 0.000519 0.002199 -0.008238
# 2 -0.002079 0.025022 -0.000833 -0.001123 -0.001376 0.003574
# 3 -0.004401 -0.000833 0.020299 -0.014747 -0.006179 0.004553
# 4 0.000519 -0.001123 -0.014747 0.083493 -0.003766 0.003525
# 5 0.002199 -0.001376 -0.006179 -0.003766 0.035670 -0.011215
# 6 -0.008238 0.003574 0.004553 0.003525 -0.011215 0.041828
#
#
# Mechanical properties :
#
#
# Convention : Reuss Voigt Hill
#
# Bulk Modulus (GPa) = 26.14470 47.68674 36.91572
# Shear Modulus (GPa) = 20.72634 32.44698 26.58666
#
# Velocity S-wave (km/s) = 3.00992 3.76601 3.40899
# Velocity P-wave (km/s) = 4.84846 6.30512 5.62415
#
# Compressibility (1/GPa) = 0.03824867
#
# Stress axis : x y z
#
# Youngs Moduli (GPa) = 132.40893 39.96475 49.26402
#
# Poissons Ratio (x) = 0.08307 0.21681
# Poissons Ratio (y) = 0.27524 0.04101
# Poissons Ratio (z) = 0.58274 0.03327
#
# Static dielectric constant tensor:
#      x y z
#    x 1.950730 0.004910 0.005480 
#    y 0.004910 1.914530 -0.006440 
#    z 0.005480 -0.006440 1.863570 
# 
# From -- ./inp_files/431796.got.cif
#   From: 2010.05.17/outbox.cif.g08.bks.cpg/sg2_216_cif.got.tgz:431796.got - 2010.06.03 11:33:40.
