data_PCOD9095032
_publ_section_title
;
Structure prediction by ZEFSAII (Michael W. Deem and Ramdas Pophale) SiO2 
 PCOD9095032
Probable space group: P -1
;
_chemical_formula_sum "Si O2"
_cell_formula_units_Z 12
_cell_length_a 5.186890
_cell_length_b 11.704832
_cell_length_c 9.865026
_cell_angle_alpha 104.143912
_cell_angle_beta 96.132504
_cell_angle_gamma 58.275407
_cell_volume 493.820648
_symmetry_space_group_name_H-M "P -1"
_symmetry_group_IT_number 2
_symmetry_cell_setting 'triclinic'
loop_
_space_group_symop_operation_xyz
x,y,z
-x,-y,-z
loop_
_atom_site_type_symbol
_atom_site_label
_atom_site_fract_x
_atom_site_fract_y
_atom_site_fract_z
Si Si1 0.348037 0.287807 0.421044
Si Si2 0.043197 0.848971 0.454881
Si Si3 0.502815 0.010692 0.711695
Si Si4 0.959867 0.529659 0.270485
Si Si5 0.678702 0.360007 0.833028
Si Si6 0.056325 0.908312 0.107399
O O1 0.706719 0.236215 0.439003
O O2 0.334930 0.150484 0.359196
O O3 0.167592 0.370531 0.572136
O O4 0.195305 0.385946 0.312377
O O5 0.233921 0.752572 0.313026
O O6 0.000000 0.000000 0.500000
O O7 0.707516 0.893334 0.394609
O O8 0.738765 0.052539 0.780202
O O9 0.266060 0.041902 0.827472
O O10 0.677387 0.537050 0.178840
O O11 0.125399 0.574297 0.183291
O O12 0.775108 0.259018 0.939177
O O13 0.000000 0.000000 0.000000
#
# Coordination Sequence:
#
# PCOD9095032 Si02
#       6
#     2   2   2   2   2   2
#     4   9  20  36  56  86 122 159 187 210 270 344
#     4   8  16  31  50  79 113 142 174 218 267 326
#     4  10  21  37  60  86 114 146 189 240 281 332
#     4  10  21  34  55  83 122 157 181 216 262 345
#     4  10  20  35  53  80 110 147 189 229 281 328
#     4  11  23  41  63  82 105 143 194 252 299 328
#
# _framework density 24.300319999999999
#
# number of rings (size 3 to 8) (size 9 to 14) (size 15 to 20)
#    0.000    2.333    0.000    2.500    0.000   12.667 
#    0.000   16.667    0.000    6.000    0.000    0.000 
#    0.000    0.000    0.000    0.000    0.000    0.000 
#
# Total GULP energy -66943.503847 kJ/mol
# GULP energy per Si atom -5578.625321 kJ/mol
# Density = 2.424501 g / cm^3
# Si number density = 24.300320 Si / 1000 Ang^3
#
#
#
# Elastic Constant Matrix: (Units=GPa)
#
#
# Indices 1 2 3 4 5 6 
#
# 1 142.3159 35.3067 38.0898 -18.5955 -1.5996 -8.5950
# 2 35.3067 145.8311 43.6951 -44.7228 0.8055 -11.9177
# 3 38.0898 43.6951 45.6196 -34.9955 -14.2215 -4.3937
# 4 -18.5955 -44.7228 -34.9955 50.5564 8.7171 5.7958
# 5 -1.5996 0.8055 -14.2215 8.7171 30.7346 -9.4567
# 6 -8.5950 -11.9177 -4.3937 5.7958 -9.4567 35.3699
#
#
#
# Elastic Compliance Matrix: (Units=1/GPa)
#
#
# Indices 1 2 3 4 5 6 
#
# 1 0.009922 0.000215 -0.013419 -0.004781 -0.004196 0.000478
# 2 0.000215 0.010901 -0.008847 0.004502 -0.005518 0.000413
# 3 -0.013419 -0.008847 0.078207 0.036189 0.026916 0.004739
# 4 -0.004781 0.004502 0.036189 0.046891 0.002406 -0.002190
# 5 -0.004196 -0.005518 0.026916 0.002406 0.048224 0.012964
# 6 0.000478 0.000413 0.004739 -0.002190 0.012964 0.032942
#
#
# Mechanical properties :
#
#
# Convention : Reuss Voigt Hill
#
# Bulk Modulus (GPa) = 18.20611 63.10554 40.65583
# Shear Modulus (GPa) = 17.27120 37.77718 27.52419
#
# Velocity S-wave (km/s) = 2.66886 3.94711 3.36916
# Velocity P-wave (km/s) = 4.12377 6.84093 5.64818
#
# Compressibility (1/GPa) = 0.05492661
#
# Stress axis : x y z
#
# Youngs Moduli (GPa) = 100.78623 91.73403 12.78653
#
# Poissons Ratio (x) = -0.01969 0.17159
# Poissons Ratio (y) = -0.02163 0.11312
# Poissons Ratio (z) = 1.35249 0.81158
#
# Static dielectric constant tensor:
#      x y z
#    x 2.415220 -0.062260 -0.206630 
#    y -0.062260 1.958430 0.010820 
#    z -0.206630 0.010820 2.085100 
# 
# From -- ./inp_files/364545.got.cif
#   From: 2010.05.17/outbox.cif.g08.bks.cpg/sg2_183_cif.got.tgz:364545.got - 2010.06.03 11:33:40.
