data_PCOD9095825
_publ_section_title
;
Structure prediction by ZEFSAII (Michael W. Deem and Ramdas Pophale) SiO2 
 PCOD9095825
Probable space group: P -1
;
_chemical_formula_sum "Si O2"
_cell_formula_units_Z 16
_cell_length_a 16.978026
_cell_length_b 9.220021
_cell_length_c 5.759617
_cell_angle_alpha 68.328669
_cell_angle_beta 106.218734
_cell_angle_gamma 117.775946
_cell_volume 734.998965
_symmetry_space_group_name_H-M "P -1"
_symmetry_group_IT_number 2
_symmetry_cell_setting 'triclinic'
loop_
_space_group_symop_operation_xyz
x,y,z
-x,-y,-z
loop_
_atom_site_type_symbol
_atom_site_label
_atom_site_fract_x
_atom_site_fract_y
_atom_site_fract_z
Si Si1 0.927518 0.943353 0.272272
Si Si2 0.786063 0.591572 0.474167
Si Si3 0.020857 0.745423 0.172734
Si Si4 0.871231 0.393132 0.316845
Si Si5 0.378243 0.522785 0.903835
Si Si6 0.524303 0.089482 0.718038
Si Si7 0.458167 0.351056 0.368133
Si Si8 0.710603 0.312051 0.937801
O O1 0.840926 0.793490 0.397846
O O2 0.960942 0.838528 0.177217
O O3 0.000000 0.000000 0.500000
O O4 0.924370 0.114413 0.058678
O O5 0.831042 0.491052 0.407987
O O6 0.690319 0.558576 0.308658
O O7 0.768051 0.494994 0.759132
O O8 0.084580 0.712668 0.436243
O O9 0.951675 0.552480 0.161288
O O10 0.789444 0.276627 0.151443
O O11 0.474442 0.621422 0.809426
O O12 0.376273 0.377771 0.168133
O O13 0.349529 0.655602 0.932965
O O14 0.460457 0.192526 0.597226
O O15 0.634038 0.195066 0.763279
O O16 0.500000 0.000000 0.500000
O O17 0.500000 0.000000 0.000000
O O18 0.500000 0.500000 0.500000
#
# Coordination Sequence:
#
# PCOD9095825 Si02
#       8
#     2   2   2   2   2   2   2   2
#     4  10  20  35  60  87 125 157 199 263 324 375
#     4  10  20  36  61  87 116 165 211 262 314 385
#     4   9  19  39  57  91 123 160 207 260 320 389
#     4   9  20  36  65  85 119 168 213 256 318 398
#     4  10  20  37  66  90 120 159 226 268 314 388
#     4  12  27  44  66  97 137 174 217 285 350 392
#     4  11  21  40  70  91 118 171 220 266 319 405
#     4  11  21  40  63  89 124 168 217 270 325 404
#
# _framework density 21.768737000000002
#
# number of rings (size 3 to 8) (size 9 to 14) (size 15 to 20)
#    0.000    1.750    2.500    1.500    3.500    2.000 
#    2.250    5.000    0.000    0.000    0.000    0.000 
#    0.000    0.000    0.000    0.000    0.000    0.000 
#
# Total GULP energy -89133.487411 kJ/mol
# GULP energy per Si atom -5570.842963 kJ/mol
# Density = 2.171919 g / cm^3
# Si number density = 21.768737 Si / 1000 Ang^3
#
#
#
# Elastic Constant Matrix: (Units=GPa)
#
#
# Indices 1 2 3 4 5 6 
#
# 1 46.4587 10.0361 19.5134 -2.6908 10.2230 9.0840
# 2 10.0361 67.5231 42.6559 -6.7035 4.9307 11.5341
# 3 19.5134 42.6559 135.2394 -24.1591 23.0238 10.1846
# 4 -2.6908 -6.7035 -24.1591 46.4581 0.0916 2.7089
# 5 10.2230 4.9307 23.0238 0.0916 50.2017 3.3118
# 6 9.0840 11.5341 10.1846 2.7089 3.3118 32.6030
#
#
#
# Elastic Compliance Matrix: (Units=1/GPa)
#
#
# Indices 1 2 3 4 5 6 
#
# 1 0.024520 -0.001080 -0.002087 0.000506 -0.003570 -0.005477
# 2 -0.001080 0.019378 -0.005813 -0.000008 0.001304 -0.004871
# 3 -0.002087 -0.005813 0.011162 0.004902 -0.004077 -0.000842
# 4 0.000506 -0.000008 0.004902 0.024309 -0.002166 -0.003469
# 5 -0.003570 0.001304 -0.004077 -0.002166 0.022411 -0.000290
# 6 -0.005477 -0.004871 -0.000842 -0.003469 -0.000290 0.034502
#
#
# Mechanical properties :
#
#
# Convention : Reuss Voigt Hill
#
# Bulk Modulus (GPa) = 26.95312 43.73690 35.34501
# Shear Modulus (GPa) = 30.01052 37.65362 33.83207
#
# Velocity S-wave (km/s) = 3.71699 4.16349 3.94656
# Velocity P-wave (km/s) = 5.55246 6.57633 6.08596
#
# Compressibility (1/GPa) = 0.03710145
#
# Stress axis : x y z
#
# Youngs Moduli (GPa) = 40.78304 51.60388 89.58973
#
# Poissons Ratio (x) = 0.05571 0.18696
# Poissons Ratio (y) = 0.04403 0.52078
# Poissons Ratio (z) = 0.08511 0.29997
#
# Static dielectric constant tensor:
#      x y z
#    x 1.852030 0.018170 -0.035120 
#    y 0.018170 1.840740 -0.027320 
#    z -0.035120 -0.027320 1.820940 
# 
# From -- ./inp_files/43271.got.cif
#   From: 2010.05.17/outbox.cif.g08.bks.cpg/sg2_22_cif.got.tgz:43271.got - 2010.06.03 11:33:40.
