data_PCOD9095321
_publ_section_title
;
Structure prediction by ZEFSAII (Michael W. Deem and Ramdas Pophale) SiO2 
 PCOD9095321
Probable space group: P -1
;
_chemical_formula_sum "Si O2"
_cell_formula_units_Z 16
_cell_length_a 16.205622
_cell_length_b 17.967328
_cell_length_c 9.801830
_cell_angle_alpha 129.142988
_cell_angle_beta 112.136491
_cell_angle_gamma 25.151092
_cell_volume 759.323495
_symmetry_space_group_name_H-M "P -1"
_symmetry_group_IT_number 2
_symmetry_cell_setting 'triclinic'
loop_
_space_group_symop_operation_xyz
x,y,z
-x,-y,-z
loop_
_atom_site_type_symbol
_atom_site_label
_atom_site_fract_x
_atom_site_fract_y
_atom_site_fract_z
Si Si1 0.157206 0.505826 0.702867
Si Si2 0.789451 0.608493 0.693250
Si Si3 0.226937 0.710473 0.359213
Si Si4 0.283272 0.171209 0.483287
Si Si5 0.984175 0.899607 0.708528
Si Si6 0.654619 0.961317 0.919860
Si Si7 0.478246 0.334846 0.847832
Si Si8 0.333590 0.604981 0.812773
O O1 0.198460 0.467844 0.523142
O O2 0.172260 0.377509 0.586513
O O3 0.351614 0.364676 0.751978
O O4 0.879907 0.804637 0.912422
O O5 0.705110 0.801462 0.821068
O O6 0.056007 0.351628 0.624901
O O7 0.594349 0.760388 0.847462
O O8 0.459907 0.547567 0.321860
O O9 0.319418 0.540266 0.108064
O O10 0.000000 0.000000 0.500000
O O11 0.137165 0.755416 0.497932
O O12 0.364637 0.024711 0.238918
O O13 0.500000 0.000000 0.500000
O O14 0.760006 0.050209 0.733000
O O15 0.838684 0.144584 0.931399
O O16 0.165078 0.711995 0.731690
O O17 0.455608 0.424663 0.802962
#
# Coordination Sequence:
#
# PCOD9095321 Si02
#       8
#     2   2   2   2   2   2   2   2
#     4   9  19  33  50  73 103 133 166 212 261 302
#     4   8  15  31  53  70  93 129 173 203 240 302
#     4  11  18  35  59  78 102 141 185 219 256 316
#     4   9  17  31  52  76 100 133 170 209 251 303
#     4  10  20  36  55  79 103 137 184 220 257 318
#     4   8  15  31  52  72  90 129 174 201 239 306
#     4  11  21  35  53  79 111 141 173 219 274 317
#     4  10  20  35  57  78 102 140 180 220 265 314
#
# _framework density 21.071390000000001
#
# number of rings (size 3 to 8) (size 9 to 14) (size 15 to 20)
#    0.000    2.500    2.500    2.625    0.000    1.500 
#    4.500    0.000    2.750    0.000    0.000    0.000 
#    0.000    0.000    0.000    0.000    0.000    0.000 
#
# Total GULP energy -89162.648154 kJ/mol
# GULP energy per Si atom -5572.665510 kJ/mol
# Density = 2.102343 g / cm^3
# Si number density = 21.071390 Si / 1000 Ang^3
#
#
#
# Elastic Constant Matrix: (Units=GPa)
#
#
# Indices 1 2 3 4 5 6 
#
# 1 49.6838 20.0224 44.7708 4.9080 -2.8348 -23.3886
# 2 20.0224 138.6675 60.5671 -4.5390 -16.8629 -47.4945
# 3 44.7708 60.5671 112.4014 14.6352 -37.3506 -35.9879
# 4 4.9080 -4.5390 14.6352 27.5993 -11.3620 -1.2777
# 5 -2.8348 -16.8629 -37.3506 -11.3620 31.6833 9.9219
# 6 -23.3886 -47.4945 -35.9879 -1.2777 9.9219 36.7409
#
#
#
# Elastic Compliance Matrix: (Units=1/GPa)
#
#
# Indices 1 2 3 4 5 6 
#
# 1 0.053383 0.009943 -0.028122 -0.005612 -0.033947 0.028263
# 2 0.009943 0.015801 -0.008321 0.003946 -0.005423 0.020206
# 3 -0.028122 -0.008321 0.035310 -0.000595 0.035631 -0.003715
# 4 -0.005612 0.003946 -0.000595 0.045468 0.017927 -0.002315
# 5 -0.033947 -0.005423 0.035631 0.017927 0.078553 -0.014309
# 6 0.028263 0.020206 -0.003715 -0.002315 -0.014309 0.071475
#
#
# Mechanical properties :
#
#
# Convention : Reuss Voigt Hill
#
# Bulk Modulus (GPa) = 19.41925 61.27482 40.34704
# Shear Modulus (GPa) = 13.50791 30.89752 22.20271
#
# Velocity S-wave (km/s) = 2.53465 3.83342 3.24958
# Velocity P-wave (km/s) = 4.21923 6.98113 5.76793
#
# Compressibility (1/GPa) = 0.05149529
#
# Stress axis : x y z
#
# Youngs Moduli (GPa) = 18.73240 63.28855 28.32088
#
# Poissons Ratio (x) = -0.62930 0.79643
# Poissons Ratio (y) = -0.18626 0.23565
# Poissons Ratio (z) = 0.52679 0.52661
#
# Static dielectric constant tensor:
#      x y z
#    x 1.811100 0.022440 0.017330 
#    y 0.022440 1.812190 0.036250 
#    z 0.017330 0.036250 1.737730 
# 
# From -- ./inp_files/337841.got.cif
#   From: 2010.05.17/outbox.cif.g08.bks.cpg/sg2_169_cif.got.tgz:337841.got - 2010.06.03 11:33:40.
