data_PCOD9095287
_publ_section_title
;
Structure prediction by ZEFSAII (Michael W. Deem and Ramdas Pophale) SiO2 
 PCOD9095287
Probable space group: P -1
;
_chemical_formula_sum "Si O2"
_cell_formula_units_Z 16
_cell_length_a 7.453002
_cell_length_b 13.811854
_cell_length_c 12.422568
_cell_angle_alpha 32.402063
_cell_angle_beta 110.341243
_cell_angle_gamma 99.256360
_cell_volume 619.716647
_symmetry_space_group_name_H-M "P -1"
_symmetry_group_IT_number 2
_symmetry_cell_setting 'triclinic'
loop_
_space_group_symop_operation_xyz
x,y,z
-x,-y,-z
loop_
_atom_site_type_symbol
_atom_site_label
_atom_site_fract_x
_atom_site_fract_y
_atom_site_fract_z
Si Si1 0.748403 0.664794 0.912358
Si Si2 0.692204 0.849831 0.228727
Si Si3 0.160924 0.789999 0.570149
Si Si4 0.091893 0.484836 0.299660
Si Si5 0.413864 0.981631 0.330270
Si Si6 0.081513 0.168521 0.909572
Si Si7 0.779996 0.079214 0.211290
Si Si8 0.370124 0.583738 0.017017
O O1 0.595091 0.577196 0.035449
O O2 0.650235 0.878885 0.713241
O O3 0.972558 0.599430 0.062338
O O4 0.712078 0.596382 0.850409
O O5 0.823416 0.755204 0.244577
O O6 0.781350 0.001806 0.165069
O O7 0.700638 0.672191 0.478463
O O8 0.500000 0.000000 0.000000
O O9 0.041069 0.667000 0.594557
O O10 0.341114 0.805674 0.517397
O O11 0.236579 0.717088 0.772501
O O12 0.004807 0.989496 0.374384
O O13 0.053027 0.653739 0.219912
O O14 0.631065 0.984988 0.335069
O O15 0.263318 0.075218 0.115242
O O16 0.000000 0.000000 0.000000
O O17 0.680238 0.299967 0.993989
#
# Coordination Sequence:
#
# PCOD9095287 Si02
#       8
#     2   2   2   2   2   2   2   2
#     4   8  17  33  57  85 116 155 200 245 296 366
#     4  11  21  37  59  86 121 157 198 249 306 352
#     4  10  20  36  62  89 118 153 201 244 308 364
#     4   9  20  37  60  87 118 157 201 249 302 365
#     4  10  20  36  59  86 119 156 202 251 301 357
#     4  11  21  38  64  85 115 162 209 247 300 357
#     4  10  20  35  56  85 123 155 196 251 297 356
#     4   9  17  34  58  84 118 158 196 243 308 353
#
# _framework density 25.818252000000001
#
# number of rings (size 3 to 8) (size 9 to 14) (size 15 to 20)
#    0.000    2.250    1.250    2.250    0.000    2.000 
#    0.000    1.250    5.500   34.500    0.000    0.000 
#    0.000    0.000    0.000    0.000    0.000    0.000 
#
# Total GULP energy -89082.027377 kJ/mol
# GULP energy per Si atom -5567.626711 kJ/mol
# Density = 2.575949 g / cm^3
# Si number density = 25.818252 Si / 1000 Ang^3
#
#
#
# Elastic Constant Matrix: (Units=GPa)
#
#
# Indices 1 2 3 4 5 6 
#
# 1 93.2485 10.8658 10.7183 -5.1200 10.4802 7.2028
# 2 10.8658 108.4711 18.4850 -20.9633 16.8108 -12.8005
# 3 10.7183 18.4850 97.2529 14.1831 25.9985 10.4275
# 4 -5.1200 -20.9633 14.1831 41.7311 10.2258 6.8971
# 5 10.4802 16.8108 25.9985 10.2258 42.6020 -8.3357
# 6 7.2028 -12.8005 10.4275 6.8971 -8.3357 34.0699
#
#
#
# Elastic Compliance Matrix: (Units=1/GPa)
#
#
# Indices 1 2 3 4 5 6 
#
# 1 0.011752 -0.000438 -0.000057 0.002985 -0.004236 -0.004272
# 2 -0.000438 0.012156 -0.002475 0.007515 -0.004432 0.002811
# 3 -0.000057 -0.002475 0.014093 -0.002930 -0.008207 -0.006646
# 4 0.002985 0.007515 -0.002930 0.032833 -0.011016 -0.006253
# 5 -0.004236 -0.004432 -0.008207 -0.011016 0.036438 0.012887
# 6 -0.004272 0.002811 -0.006646 -0.006253 0.012887 0.037764
#
#
# Mechanical properties :
#
#
# Convention : Reuss Voigt Hill
#
# Bulk Modulus (GPa) = 31.19066 42.12341 36.65703
# Shear Modulus (GPa) = 30.92878 40.94082 35.93480
#
# Velocity S-wave (km/s) = 3.46489 3.98644 3.73478
# Velocity P-wave (km/s) = 5.30229 6.12697 5.72949
#
# Compressibility (1/GPa) = 0.03206088
#
# Stress axis : x y z
#
# Youngs Moduli (GPa) = 85.09480 82.26559 70.95740
#
# Poissons Ratio (x) = 0.03606 0.00402
# Poissons Ratio (y) = 0.03730 0.17559
# Poissons Ratio (z) = 0.00483 0.20358
#
# Static dielectric constant tensor:
#      x y z
#    x 2.087530 -0.031720 -0.032910 
#    y -0.031720 2.099670 -0.041250 
#    z -0.032910 -0.041250 2.252030 
# 
# From -- ./inp_files/505129.got.cif
#   From: 2010.05.17/outbox.cif.g08.bks.cpg/sg2_253_cif.got.tgz:505129.got - 2010.06.03 11:33:40.
