data_PCOD9095724
_publ_section_title
;
Structure prediction by ZEFSAII (Michael W. Deem and Ramdas Pophale) SiO2 
 PCOD9095724
Probable space group: P -1
;
_chemical_formula_sum "Si O2"
_cell_formula_units_Z 16
_cell_length_a 8.519980
_cell_length_b 8.465631
_cell_length_c 20.108377
_cell_angle_alpha 116.459118
_cell_angle_beta 48.060893
_cell_angle_gamma 139.154876
_cell_volume 700.198100
_symmetry_space_group_name_H-M "P -1"
_symmetry_group_IT_number 2
_symmetry_cell_setting 'triclinic'
loop_
_space_group_symop_operation_xyz
x,y,z
-x,-y,-z
loop_
_atom_site_type_symbol
_atom_site_label
_atom_site_fract_x
_atom_site_fract_y
_atom_site_fract_z
Si Si1 0.097887 0.115500 0.679178
Si Si2 0.788371 0.121079 0.483571
Si Si3 0.110818 0.368698 0.930080
Si Si4 0.345213 0.148581 0.963387
Si Si5 0.755264 0.671615 0.789434
Si Si6 0.688210 0.368168 0.640129
Si Si7 0.007151 0.605647 0.174672
Si Si8 0.917603 0.164908 0.140088
O O1 0.393937 0.251158 0.662709
O O2 0.023942 0.279182 0.733503
O O3 0.142836 0.043814 0.582161
O O4 0.846290 0.867004 0.744725
O O5 0.736972 0.186571 0.581154
O O6 0.052627 0.379528 0.423559
O O7 0.500000 0.000000 0.500000
O O8 0.449140 0.546901 0.885907
O O9 0.099894 0.345625 0.849217
O O10 0.000000 0.500000 0.000000
O O11 0.880530 0.106639 0.980230
O O12 0.666958 0.270860 0.910424
O O13 0.216122 0.265578 0.039528
O O14 0.309435 0.083628 0.882923
O O15 0.705907 0.457978 0.725596
O O16 0.009519 0.813446 0.799085
O O17 0.845954 0.327198 0.177271
#
# Coordination Sequence:
#
# PCOD9095724 Si02
#       8
#     2   2   2   2   2   2   2   2
#     4  10  20  35  59  90 117 148 188 241 289 339
#     4   8  16  31  57  91 120 147 179 233 285 344
#     4  12  22  38  59  81 111 150 197 252 291 331
#     4  11  25  41  57  75 116 159 203 241 293 343
#     4  11  23  37  57  85 119 150 196 237 290 349
#     4   9  17  34  58  87 121 148 187 230 286 347
#     4  12  23  39  59  84 113 149 202 248 291 335
#     4  11  26  39  56  79 113 161 199 240 290 347
#
# _framework density 22.850677000000001
#
# number of rings (size 3 to 8) (size 9 to 14) (size 15 to 20)
#    0.000    1.500    2.500    3.000    3.500    0.000 
#    0.000    0.000    0.000    0.750    0.000   30.625 
#    0.000    0.000    0.000    0.000    0.000    0.000 
#
# Total GULP energy -89307.326691 kJ/mol
# GULP energy per Si atom -5581.707918 kJ/mol
# Density = 2.279867 g / cm^3
# Si number density = 22.850677 Si / 1000 Ang^3
#
#
#
# Elastic Constant Matrix: (Units=GPa)
#
#
# Indices 1 2 3 4 5 6 
#
# 1 46.4203 4.6084 10.9268 7.0703 1.1862 2.8187
# 2 4.6084 61.1439 31.8941 10.9764 -13.8432 -9.1197
# 3 10.9268 31.8941 120.3819 45.3657 -20.6250 -15.4465
# 4 7.0703 10.9764 45.3657 61.4952 3.3904 -14.4179
# 5 1.1862 -13.8432 -20.6250 3.3904 26.6038 10.6763
# 6 2.8187 -9.1197 -15.4465 -14.4179 10.6763 32.2253
#
#
#
# Elastic Compliance Matrix: (Units=1/GPa)
#
#
# Indices 1 2 3 4 5 6 
#
# 1 0.022605 -0.001322 -0.001672 -0.001891 -0.001322 -0.003561
# 2 -0.001322 0.020336 -0.003367 -0.001137 0.007694 0.001199
# 3 -0.001672 -0.003367 0.015978 -0.012507 0.013609 -0.003252
# 4 -0.001891 -0.001137 -0.012507 0.030246 -0.019630 0.013884
# 5 -0.001322 0.007694 0.013609 -0.019630 0.063076 -0.020864
# 6 -0.003561 0.001199 -0.003252 0.013884 -0.020864 0.043248
#
#
# Mechanical properties :
#
#
# Convention : Reuss Voigt Hill
#
# Bulk Modulus (GPa) = 21.64728 35.86721 28.75725
# Shear Modulus (GPa) = 22.36023 36.09931 29.22977
#
# Velocity S-wave (km/s) = 3.13155 3.97897 3.58042
# Velocity P-wave (km/s) = 4.75073 6.06960 5.45020
#
# Compressibility (1/GPa) = 0.04619518
#
# Stress axis : x y z
#
# Youngs Moduli (GPa) = 44.23741 49.17436 62.58473
#
# Poissons Ratio (x) = 0.06503 0.10465
# Poissons Ratio (y) = 0.05850 0.21075
# Poissons Ratio (z) = 0.07397 0.16559
#
# Static dielectric constant tensor:
#      x y z
#    x 1.853530 0.017840 0.037560 
#    y 0.017840 1.892260 0.061970 
#    z 0.037560 0.061970 1.919260 
# 
# From -- ./inp_files/47989.got.cif
#   From: 2010.05.17/outbox.cif.g08.bks.cpg/sg2_24_cif.got.tgz:47989.got - 2010.06.03 11:33:40.
