data_PCOD9095913
_publ_section_title
;
Structure prediction by ZEFSAII (Michael W. Deem and Ramdas Pophale) SiO2 
 PCOD9095913
Probable space group: P -1
;
_chemical_formula_sum "Si O2"
_cell_formula_units_Z 16
_cell_length_a 16.857583
_cell_length_b 9.027267
_cell_length_c 9.117944
_cell_angle_alpha 95.598578
_cell_angle_beta 78.721155
_cell_angle_gamma 149.129791
_cell_volume 691.343919
_symmetry_space_group_name_H-M "P -1"
_symmetry_group_IT_number 2
_symmetry_cell_setting 'triclinic'
loop_
_space_group_symop_operation_xyz
x,y,z
-x,-y,-z
loop_
_atom_site_type_symbol
_atom_site_label
_atom_site_fract_x
_atom_site_fract_y
_atom_site_fract_z
Si Si1 0.502597 0.405005 0.343762
Si Si2 0.617893 0.346935 0.902082
Si Si3 0.242394 0.131682 0.203269
Si Si4 0.305731 0.804740 0.325614
Si Si5 0.865534 0.607706 0.066152
Si Si6 0.258010 0.864637 0.038646
Si Si7 0.005697 0.187842 0.499483
Si Si8 0.138256 0.098839 0.781193
O O1 0.500000 0.500000 0.500000
O O2 0.398063 0.323452 0.252437
O O3 0.679291 0.657055 0.245962
O O4 0.419397 0.113438 0.373576
O O5 0.727233 0.653533 0.837485
O O6 0.603649 0.195609 0.771346
O O7 0.713577 0.425924 0.009526
O O8 0.446622 0.139322 0.981523
O O9 0.218736 0.975539 0.067826
O O10 0.098810 0.902957 0.346416
O O11 0.222551 0.745600 0.204540
O O12 0.176440 0.534259 0.456461
O O13 0.829796 0.376834 0.071542
O O14 0.873472 0.738173 0.207297
O O15 0.020573 0.873442 0.934774
O O16 0.923873 0.077212 0.359555
O O17 0.000000 0.000000 0.500000
#
# Coordination Sequence:
#
# PCOD9095913 Si02
#       8
#     2   2   2   2   2   2   2   2
#     4  11  23  39  58  93 127 165 202 250 308 367
#     4  11  19  39  63  93 123 158 212 257 303 366
#     4  11  23  37  63  92 128 163 199 256 316 364
#     4  10  21  38  64  91 116 167 212 246 302 370
#     4  10  20  37  64  91 114 164 210 253 303 356
#     4  10  20  35  60  95 121 155 210 254 302 369
#     4  12  22  42  65  92 125 161 213 254 304 372
#     4  11  21  38  63  88 128 159 204 254 304 367
#
# _framework density 23.143332000000001
#
# number of rings (size 3 to 8) (size 9 to 14) (size 15 to 20)
#    0.000    1.250    5.000    4.125    0.000    3.000 
#    0.000    3.750    0.000   12.000    0.000    0.000 
#    0.000    0.000    0.000    0.000    0.000    0.000 
#
# Total GULP energy -89537.753792 kJ/mol
# GULP energy per Si atom -5596.109612 kJ/mol
# Density = 2.309066 g / cm^3
# Si number density = 23.143332 Si / 1000 Ang^3
#
#
#
# Elastic Constant Matrix: (Units=GPa)
#
#
# Indices 1 2 3 4 5 6 
#
# 1 56.6096 22.9834 29.0161 4.8429 -18.2639 -3.8824
# 2 22.9834 124.7930 58.4288 1.9047 -22.1468 -11.1241
# 3 29.0161 58.4288 88.6371 -5.1101 -35.2466 -6.2975
# 4 4.8429 1.9047 -5.1101 51.7999 -8.1288 -15.3482
# 5 -18.2639 -22.1468 -35.2466 -8.1288 30.6637 1.0863
# 6 -3.8824 -11.1241 -6.2975 -15.3482 1.0863 46.4302
#
#
#
# Elastic Compliance Matrix: (Units=1/GPa)
#
#
# Indices 1 2 3 4 5 6 
#
# 1 0.022708 -0.001017 -0.003252 -0.000804 0.008813 0.000742
# 2 -0.001017 0.011828 -0.008092 -0.000998 -0.001677 0.001361
# 3 -0.003252 -0.008092 0.030156 0.009443 0.029232 0.004317
# 4 -0.000804 -0.000998 0.009443 0.025557 0.016109 0.009046
# 5 0.008813 -0.001677 0.029232 0.016109 0.074242 0.007888
# 6 0.000742 0.001361 0.004317 0.009046 0.007888 0.025317
#
#
# Mechanical properties :
#
#
# Convention : Reuss Voigt Hill
#
# Bulk Modulus (GPa) = 25.01903 54.54402 39.78153
# Shear Modulus (GPa) = 21.94408 36.41954 29.18181
#
# Velocity S-wave (km/s) = 3.08260 3.97123 3.55479
# Velocity P-wave (km/s) = 4.84807 6.68182 5.83740
#
# Compressibility (1/GPa) = 0.03996957
#
# Stress axis : x y z
#
# Youngs Moduli (GPa) = 44.03797 84.54449 33.16111
#
# Poissons Ratio (x) = 0.08597 0.10785
# Poissons Ratio (y) = 0.04478 0.26833
# Poissons Ratio (z) = 0.14323 0.68411
#
# Static dielectric constant tensor:
#      x y z
#    x 1.889020 -0.013500 0.011870 
#    y -0.013500 1.893360 0.028840 
#    z 0.011870 0.028840 1.854510 
# 
# From -- ./inp_files/176518.got.cif
#   From: 2010.05.17/outbox.cif.g08.bks.cpg/sg2_89_cif.got.tgz:176518.got - 2010.06.03 11:33:40.
