data_PCOD9095900
_publ_section_title
;
Structure prediction by ZEFSAII (Michael W. Deem and Ramdas Pophale) SiO2 
 PCOD9095900
Probable space group: P -1
;
_chemical_formula_sum "Si O2"
_cell_formula_units_Z 16
_cell_length_a 5.599899
_cell_length_b 10.725937
_cell_length_c 13.042680
_cell_angle_alpha 115.512418
_cell_angle_beta 108.929850
_cell_angle_gamma 88.654795
_cell_volume 662.542808
_symmetry_space_group_name_H-M "P -1"
_symmetry_group_IT_number 2
_symmetry_cell_setting 'triclinic'
loop_
_space_group_symop_operation_xyz
x,y,z
-x,-y,-z
loop_
_atom_site_type_symbol
_atom_site_label
_atom_site_fract_x
_atom_site_fract_y
_atom_site_fract_z
Si Si1 0.275547 0.607605 0.748949
Si Si2 0.289584 0.907814 0.368048
Si Si3 0.106909 0.207685 0.233510
Si Si4 0.167045 0.914268 0.120566
Si Si5 0.570377 0.850945 0.997243
Si Si6 0.015465 0.873268 0.589047
Si Si7 0.531088 0.656373 0.369165
Si Si8 0.362104 0.665012 0.556705
O O1 0.359364 0.457284 0.726015
O O2 0.217448 0.600677 0.614727
O O3 0.035620 0.669553 0.786149
O O4 0.495897 0.727214 0.860815
O O5 0.299350 0.940852 0.259930
O O6 0.331840 0.747933 0.325366
O O7 0.500000 0.000000 0.500000
O O8 0.028190 0.968927 0.383658
O O9 0.947700 0.142386 0.288425
O O10 0.368427 0.276190 0.339806
O O11 0.146138 0.070157 0.128535
O O12 0.360510 0.832890 0.054430
O O13 0.867931 0.851009 0.068026
O O14 0.500000 0.000000 0.000000
O O15 0.768426 0.767142 0.480980
O O16 0.241912 0.800915 0.549750
O O17 0.400650 0.584410 0.429031
#
# Coordination Sequence:
#
# PCOD9095900 Si02
#       8
#     2   2   2   2   2   2   2   2
#     4  11  23  36  59  90 126 170 213 269 326 393
#     4   9  20  43  65  92 126 167 217 263 326 389
#     4   9  19  34  59  86 124 156 205 262 326 383
#     4  11  24  44  67  99 131 169 218 279 325 377
#     4  12  25  43  68  99 131 171 222 271 328 386
#     4   8  18  35  55  89 118 158 203 262 323 380
#     4  10  21  39  57  89 128 168 216 261 328 390
#     4  10  20  35  60  93 127 162 208 271 334 387
#
# _framework density 24.149381999999999
#
# number of rings (size 3 to 8) (size 9 to 14) (size 15 to 20)
#    0.000    2.000    1.250    2.250    5.250    6.000 
#    4.500    1.250    0.000    0.000    0.000    0.000 
#    0.000    0.000    0.000    0.000    0.000    0.000 
#
# Total GULP energy -89225.628500 kJ/mol
# GULP energy per Si atom -5576.601781 kJ/mol
# Density = 2.409442 g / cm^3
# Si number density = 24.149382 Si / 1000 Ang^3
#
#
#
# Elastic Constant Matrix: (Units=GPa)
#
#
# Indices 1 2 3 4 5 6 
#
# 1 93.3957 24.8249 32.9765 -0.8907 2.3221 -25.8031
# 2 24.8249 130.2339 40.2504 29.5962 -3.5803 -41.5369
# 3 32.9765 40.2504 118.5807 12.3319 0.3720 -8.0874
# 4 -0.8907 29.5962 12.3319 31.2291 -2.3525 -4.0388
# 5 2.3221 -3.5803 0.3720 -2.3525 44.5223 3.7635
# 6 -25.8031 -41.5369 -8.0874 -4.0388 3.7635 37.1956
#
#
#
# Elastic Compliance Matrix: (Units=1/GPa)
#
#
# Indices 1 2 3 4 5 6 
#
# 1 0.015028 0.001716 -0.004145 0.001851 -0.001510 0.011794
# 2 0.001716 0.017123 -0.003753 -0.012404 -0.000878 0.018237
# 3 -0.004145 -0.003753 0.010669 -0.001398 0.000167 -0.004915
# 4 0.001851 -0.012404 -0.001398 0.043447 0.001919 -0.008348
# 5 -0.001510 -0.000878 0.000167 0.001919 0.022916 -0.004103
# 6 0.011794 0.018237 -0.004915 -0.008348 -0.004103 0.053873
#
#
# Mechanical properties :
#
#
# Convention : Reuss Voigt Hill
#
# Bulk Modulus (GPa) = 32.83380 59.81266 46.32323
# Shear Modulus (GPa) = 26.94395 38.86663 32.90529
#
# Velocity S-wave (km/s) = 3.34386 4.01612 3.69531
# Velocity P-wave (km/s) = 5.34174 6.80640 6.11806
#
# Compressibility (1/GPa) = 0.03045642
#
# Stress axis : x y z
#
# Youngs Moduli (GPa) = 66.54162 58.40236 93.72769
#
# Poissons Ratio (x) = -0.10021 0.38850
# Poissons Ratio (y) = -0.11418 0.35172
# Poissons Ratio (z) = 0.27582 0.21916
#
# Static dielectric constant tensor:
#      x y z
#    x 2.046650 0.017470 -0.073420 
#    y 0.017470 2.005870 -0.022400 
#    z -0.073420 -0.022400 1.951840 
# 
# From -- ./inp_files/482294.got.cif
#   From: 2010.05.17/outbox.cif.g08.bks.cpg/sg2_242_cif.got.tgz:482294.got - 2010.06.03 11:33:40.
