data_PCOD9095045
_publ_section_title
;
Structure prediction by ZEFSAII (Michael W. Deem and Ramdas Pophale) SiO2 
 PCOD9095045
Probable space group: P -1
;
_chemical_formula_sum "Si O2"
_cell_formula_units_Z 16
_cell_length_a 11.764075
_cell_length_b 12.085456
_cell_length_c 11.154923
_cell_angle_alpha 61.011781
_cell_angle_beta 59.633763
_cell_angle_gamma 35.461589
_cell_volume 785.410736
_symmetry_space_group_name_H-M "P -1"
_symmetry_group_IT_number 2
_symmetry_cell_setting 'triclinic'
loop_
_space_group_symop_operation_xyz
x,y,z
-x,-y,-z
loop_
_atom_site_type_symbol
_atom_site_label
_atom_site_fract_x
_atom_site_fract_y
_atom_site_fract_z
Si Si1 0.608811 0.057625 0.881078
Si Si2 0.216974 0.177817 0.449315
Si Si3 0.589256 0.559558 0.533392
Si Si4 0.005270 0.482796 0.197756
Si Si5 0.608696 0.530991 0.261101
Si Si6 0.827823 0.024792 0.546673
Si Si7 0.014386 0.699133 0.921374
Si Si8 0.681588 0.759458 0.408129
O O1 0.453368 0.285993 0.850382
O O2 0.725962 0.016072 0.715197
O O3 0.800237 0.917691 0.940219
O O4 0.500000 0.000000 0.000000
O O5 0.137632 0.335456 0.312913
O O6 0.100741 0.133178 0.502469
O O7 0.200737 0.241979 0.558152
O O8 0.454361 0.975383 0.409897
O O9 0.669376 0.492845 0.389566
O O10 0.576210 0.432102 0.665909
O O11 0.679266 0.613553 0.525743
O O12 0.358058 0.766754 0.522135
O O13 0.007109 0.380395 0.141641
O O14 0.785709 0.674035 0.268434
O O15 0.076973 0.563076 0.066143
O O16 0.802874 0.343361 0.185695
O O17 0.000000 0.000000 0.500000
#
# Coordination Sequence:
#
# PCOD9095045 Si02
#       8
#     2   2   2   2   2   2   2   2
#     4  11  22  34  53  85 120 152 188 236 301 353
#     4  10  22  37  59  86 114 155 194 244 289 344
#     4   9  19  34  57  81 117 155 190 244 294 347
#     4  11  21  33  55  83 116 151 188 245 289 343
#     4  10  20  35  53  84 118 153 189 242 302 343
#     4  10  20  35  58  89 121 146 190 249 301 352
#     4  11  22  32  54  84 122 148 188 242 296 347
#     4  10  21  39  57  84 115 153 202 240 283 348
#
# _framework density 20.371504999999999
#
# number of rings (size 3 to 8) (size 9 to 14) (size 15 to 20)
#    0.000    1.750    2.500    2.625    3.500    1.000 
#    0.000    0.625    0.000    0.750    3.250    6.125 
#    0.000    0.000    0.000    0.000    0.000    0.000 
#
# Total GULP energy -89142.164171 kJ/mol
# GULP energy per Si atom -5571.385261 kJ/mol
# Density = 2.032514 g / cm^3
# Si number density = 20.371505 Si / 1000 Ang^3
#
#
#
# Elastic Constant Matrix: (Units=GPa)
#
#
# Indices 1 2 3 4 5 6 
#
# 1 86.1200 7.5744 21.9895 -1.1222 -14.0677 15.4712
# 2 7.5744 68.7291 21.3716 -9.6788 -6.8498 -1.2192
# 3 21.9895 21.3716 83.7054 -14.5950 -30.4709 3.1720
# 4 -1.1222 -9.6788 -14.5950 33.0466 -1.9268 -3.0485
# 5 -14.0677 -6.8498 -30.4709 -1.9268 30.9961 -1.0670
# 6 15.4712 -1.2192 3.1720 -3.0485 -1.0670 22.1921
#
#
#
# Elastic Compliance Matrix: (Units=1/GPa)
#
#
# Indices 1 2 3 4 5 6 
#
# 1 0.014637 -0.000959 -0.001979 -0.001340 0.004060 -0.009963
# 2 -0.000959 0.016243 -0.003300 0.003513 0.000216 0.002525
# 3 -0.001979 -0.003300 0.022983 0.010413 0.021627 0.000383
# 4 -0.001340 0.003513 0.010413 0.037088 0.012894 0.005353
# 5 0.004060 0.000216 0.021627 0.012894 0.056165 -0.001438
# 6 -0.009963 0.002525 0.000383 0.005353 -0.001438 0.052757
#
#
# Mechanical properties :
#
#
# Convention : Reuss Voigt Hill
#
# Bulk Modulus (GPa) = 24.16171 37.82507 30.99339
# Shear Modulus (GPa) = 22.11006 29.75490 25.93248
#
# Velocity S-wave (km/s) = 3.29803 3.82594 3.57175
# Velocity P-wave (km/s) = 5.13702 6.17455 5.67953
#
# Compressibility (1/GPa) = 0.04138780
#
# Stress axis : x y z
#
# Youngs Moduli (GPa) = 68.32148 61.56641 43.51102
#
# Poissons Ratio (x) = 0.05902 0.08609
# Poissons Ratio (y) = 0.06549 0.14358
# Poissons Ratio (z) = 0.13518 0.20317
#
# Static dielectric constant tensor:
#      x y z
#    x 1.750740 -0.004430 -0.041270 
#    y -0.004430 1.816980 0.008280 
#    z -0.041270 0.008280 1.765080 
# 
# From -- ./inp_files/425447.got.cif
#   From: 2010.05.17/outbox.cif.g08.bks.cpg/sg2_213_cif.got.tgz:425447.got - 2010.06.03 11:33:40.
