data_PCOD9095934
_publ_section_title
;
Structure prediction by ZEFSAII (Michael W. Deem and Ramdas Pophale) SiO2 
 PCOD9095934
Probable space group: P -1
;
_chemical_formula_sum "Si O2"
_cell_formula_units_Z 14
_cell_length_a 8.398446
_cell_length_b 16.289009
_cell_length_c 8.337679
_cell_angle_alpha 135.475322
_cell_angle_beta 111.986199
_cell_angle_gamma 94.121408
_cell_volume 633.025199
_symmetry_space_group_name_H-M "P -1"
_symmetry_group_IT_number 2
_symmetry_cell_setting 'triclinic'
loop_
_space_group_symop_operation_xyz
x,y,z
-x,-y,-z
loop_
_atom_site_type_symbol
_atom_site_label
_atom_site_fract_x
_atom_site_fract_y
_atom_site_fract_z
Si Si1 0.650929 0.371898 0.196514
Si Si2 0.280217 0.829351 0.526353
Si Si3 0.559244 0.875472 0.991703
Si Si4 0.979702 0.656146 0.672987
Si Si5 0.520254 0.337673 0.753490
Si Si6 0.085554 0.412526 0.826905
Si Si7 0.868226 0.863159 0.859260
O O1 0.522796 0.261046 0.126707
O O2 0.778626 0.533618 0.510175
O O3 0.829116 0.342334 0.182132
O O4 0.521965 0.350545 0.961699
O O5 0.379184 0.853349 0.775436
O O6 0.377511 0.752422 0.368900
O O7 0.041035 0.731641 0.328296
O O8 0.357633 0.978075 0.688615
O O9 0.742362 0.891765 0.979099
O O10 0.966837 0.615146 0.421534
O O11 0.993186 0.799877 0.889455
O O12 0.300979 0.258917 0.485553
O O13 0.674191 0.485616 0.939250
O O14 0.000000 0.500000 0.000000
O O15 0.000000 0.000000 0.000000
#
# Coordination Sequence:
#
# PCOD9095934 Si02
#       7
#     2   2   2   2   2   2   2
#     4  10  21  38  63  88 118 153 204 241 297 349
#     4   9  17  33  58  88 115 153 203 243 278 349
#     4  10  20  35  61  85 117 162 198 235 293 360
#     4  10  21  38  62  87 123 159 188 249 298 351
#     4   9  21  36  60  90 114 156 198 249 291 351
#     4   9  16  32  58  87 113 141 204 242 276 336
#     4  11  24  41  61  86 122 159 199 240 304 351
#
# _framework density 22.116022000000001
#
# number of rings (size 3 to 8) (size 9 to 14) (size 15 to 20)
#    0.000    2.286    1.429    0.857    4.000    3.429 
#    0.000    0.714   12.571    0.000    0.000    0.000 
#    0.000    0.000    0.000    0.000    0.000    0.000 
#
# Total GULP energy -78176.856355 kJ/mol
# GULP energy per Si atom -5584.061168 kJ/mol
# Density = 2.206568 g / cm^3
# Si number density = 22.116022 Si / 1000 Ang^3
#
#
#
# Elastic Constant Matrix: (Units=GPa)
#
#
# Indices 1 2 3 4 5 6 
#
# 1 52.3541 39.5244 18.3003 17.9093 7.9185 4.4171
# 2 39.5244 88.9159 16.6197 46.3214 1.7483 6.7311
# 3 18.3003 16.6197 53.8375 20.4250 3.3659 -0.4373
# 4 17.9093 46.3214 20.4250 42.0231 1.4270 10.4610
# 5 7.9185 1.7483 3.3659 1.4270 17.6884 13.7177
# 6 4.4171 6.7311 -0.4373 10.4610 13.7177 40.9455
#
#
#
# Elastic Compliance Matrix: (Units=1/GPa)
#
#
# Indices 1 2 3 4 5 6 
#
# 1 0.035382 -0.019763 -0.009416 0.011496 -0.013815 0.001022
# 2 -0.019763 0.039027 0.010143 -0.040995 0.002003 0.005627
# 3 -0.009416 0.010143 0.027462 -0.022123 -0.005855 0.007255
# 4 0.011496 -0.040995 -0.022123 0.079116 0.011250 -0.018719
# 5 -0.013815 0.002003 -0.005855 0.011250 0.086606 -0.030790
# 6 0.001022 0.005627 0.007255 -0.018719 -0.030790 0.038563
#
#
# Mechanical properties :
#
#
# Convention : Reuss Voigt Hill
#
# Bulk Modulus (GPa) = 15.67373 38.22181 26.94777
# Shear Modulus (GPa) = 13.68019 28.17560 20.92789
#
# Velocity S-wave (km/s) = 2.48979 3.57317 3.07950
# Velocity P-wave (km/s) = 3.92019 5.86032 4.98554
#
# Compressibility (1/GPa) = 0.06380101
#
# Stress axis : x y z
#
# Youngs Moduli (GPa) = 28.26278 25.62348 36.41426
#
# Poissons Ratio (x) = 0.50639 0.34286
# Poissons Ratio (y) = 0.55855 -0.36937
# Poissons Ratio (z) = 0.26611 -0.25991
#
# Static dielectric constant tensor:
#      x y z
#    x 1.822510 -0.003310 -0.006510 
#    y -0.003310 1.814210 0.019380 
#    z -0.006510 0.019380 1.854220 
# 
# From -- ./inp_files/185474.got.cif
#   From: 2010.05.17/outbox.cif.g08.bks.cpg/sg2_93_cif.got.tgz:185474.got - 2010.06.03 11:33:40.
