data_PCOD9095154
_publ_section_title
;
Structure prediction by ZEFSAII (Michael W. Deem and Ramdas Pophale) SiO2 
 PCOD9095154
Probable space group: P -1
;
_chemical_formula_sum "Si O2"
_cell_formula_units_Z 16
_cell_length_a 9.399667
_cell_length_b 18.411491
_cell_length_c 18.830762
_cell_angle_alpha 32.906180
_cell_angle_beta 56.133819
_cell_angle_gamma 33.313627
_cell_volume 851.002620
_symmetry_space_group_name_H-M "P -1"
_symmetry_group_IT_number 2
_symmetry_cell_setting 'triclinic'
loop_
_space_group_symop_operation_xyz
x,y,z
-x,-y,-z
loop_
_atom_site_type_symbol
_atom_site_label
_atom_site_fract_x
_atom_site_fract_y
_atom_site_fract_z
Si Si1 0.794830 0.895105 0.753172
Si Si2 0.647244 0.529701 0.975052
Si Si3 0.220609 0.189278 0.020156
Si Si4 0.086201 0.530373 0.561423
Si Si5 0.634656 0.608547 0.555793
Si Si6 0.555604 0.170436 0.846901
Si Si7 0.895000 0.173371 0.829583
Si Si8 0.651161 0.026686 0.245336
O O1 0.645080 0.871942 0.768685
O O2 0.673594 0.114723 0.580124
O O3 0.669549 0.949489 0.823641
O O4 0.143999 0.655402 0.866138
O O5 0.425155 0.783366 0.855165
O O6 0.888301 0.440718 0.927117
O O7 0.500000 0.500000 0.000000
O O8 0.420906 0.182557 0.943208
O O9 0.229410 0.072432 0.052125
O O10 0.275883 0.443916 0.509375
O O11 0.291013 0.363961 0.706599
O O12 0.871908 0.546115 0.584271
O O13 0.876144 0.791245 0.420248
O O14 0.684974 0.422953 0.714553
O O15 0.717345 0.202862 0.795697
O O16 0.179044 0.057753 0.807064
O O17 0.000000 0.000000 0.000000
#
# Coordination Sequence:
#
# PCOD9095154 Si02
#       8
#     2   2   2   2   2   2   2   2
#     4   9  18  36  57  76 104 142 180 223 258 318
#     4  10  20  35  55  83 105 138 185 226 261 311
#     4   9  21  32  58  77 109 139 180 217 270 320
#     4   9  18  32  56  76 107 145 180 218 261 323
#     4   9  18  34  52  79 108 139 179 220 270 312
#     4  11  20  35  53  83 110 144 173 220 278 316
#     4  11  24  33  53  85 115 137 174 230 271 320
#     4  10  20  35  56  81 106 146 183 216 266 320
#
# _framework density 18.801352999999999
#
# number of rings (size 3 to 8) (size 9 to 14) (size 15 to 20)
#    0.750    1.500    1.250    2.625    3.500    3.000 
#    0.000    0.625    0.000    0.750    0.000    0.000 
#    0.000    0.000    0.000    0.000    0.000    0.000 
#
# Total GULP energy -89131.852548 kJ/mol
# GULP energy per Si atom -5570.740784 kJ/mol
# Density = 1.875856 g / cm^3
# Si number density = 18.801353 Si / 1000 Ang^3
#
#
#
# Elastic Constant Matrix: (Units=GPa)
#
#
# Indices 1 2 3 4 5 6 
#
# 1 53.7488 -7.4612 28.8825 -15.0736 -8.9242 3.7522
# 2 -7.4612 24.3085 7.4145 -8.5841 -1.3797 4.9734
# 3 28.8825 7.4145 113.1804 -13.8219 -8.8660 7.9878
# 4 -15.0736 -8.5841 -13.8219 26.6500 7.8525 -2.5532
# 5 -8.9242 -1.3797 -8.8660 7.8525 31.9414 -1.1410
# 6 3.7522 4.9734 7.9878 -2.5532 -1.1410 13.6144
#
#
#
# Elastic Compliance Matrix: (Units=1/GPa)
#
#
# Indices 1 2 3 4 5 6 
#
# 1 0.031147 0.020133 -0.006088 0.019294 0.002835 -0.008511
# 2 0.020133 0.062546 -0.004465 0.027347 -0.000374 -0.020680
# 3 -0.006088 -0.004465 0.011002 0.000243 0.000992 -0.003017
# 4 0.019294 0.027347 0.000243 0.059281 -0.008114 -0.005012
# 5 0.002835 -0.000374 0.000992 -0.008114 0.034358 0.000131
# 6 -0.008511 -0.020680 -0.003017 -0.005012 0.000131 0.084193
#
#
# Mechanical properties :
#
#
# Convention : Reuss Voigt Hill
#
# Bulk Modulus (GPa) = 8.07406 27.65658 17.86532
# Shear Modulus (GPa) = 16.41205 25.26794 20.84000
#
# Velocity S-wave (km/s) = 2.95773 3.66996 3.33292
# Velocity P-wave (km/s) = 3.99599 5.71839 4.93294
#
# Compressibility (1/GPa) = 0.12385342
#
# Stress axis : x y z
#
# Youngs Moduli (GPa) = 32.10570 15.98818 90.89259
#
# Poissons Ratio (x) = -0.32189 0.55339
# Poissons Ratio (y) = -0.64637 0.40585
# Poissons Ratio (z) = 0.19547 0.07139
#
# Static dielectric constant tensor:
#      x y z
#    x 1.645260 -0.008530 0.002230 
#    y -0.008530 1.657710 -0.006610 
#    z 0.002230 -0.006610 1.670090 
# 
# From -- ./inp_files/314301.got.cif
#   From: 2010.05.17/outbox.cif.g08.bks.cpg/sg2_158_cif.got.tgz:314301.got - 2010.06.03 11:33:40.
