data_PCOD9095531
_publ_section_title
;
Structure prediction by ZEFSAII (Michael W. Deem and Ramdas Pophale) SiO2 
 PCOD9095531
Probable space group: P -1
;
_chemical_formula_sum "Si O2"
_cell_formula_units_Z 16
_cell_length_a 10.617984
_cell_length_b 12.115153
_cell_length_c 11.834100
_cell_angle_alpha 130.406367
_cell_angle_beta 117.593489
_cell_angle_gamma 34.918993
_cell_volume 655.345631
_symmetry_space_group_name_H-M "P -1"
_symmetry_group_IT_number 2
_symmetry_cell_setting 'triclinic'
loop_
_space_group_symop_operation_xyz
x,y,z
-x,-y,-z
loop_
_atom_site_type_symbol
_atom_site_label
_atom_site_fract_x
_atom_site_fract_y
_atom_site_fract_z
Si Si1 0.219581 0.345245 0.617260
Si Si2 0.437133 0.476813 0.299745
Si Si3 0.678200 0.014206 0.710428
Si Si4 0.296211 0.679091 0.120383
Si Si5 0.255598 0.201658 0.190155
Si Si6 0.957071 0.860846 0.382699
Si Si7 0.175847 0.064660 0.880569
Si Si8 0.521086 0.735730 0.527512
O O1 0.422608 0.187970 0.684668
O O2 0.303521 0.389353 0.584155
O O3 0.995101 0.555821 0.725991
O O4 0.195173 0.215450 0.451780
O O5 0.375882 0.563663 0.200710
O O6 0.497567 0.586408 0.450343
O O7 0.200845 0.605150 0.337977
O O8 0.641950 0.205880 0.210844
O O9 0.754739 0.110045 0.765399
O O10 0.698052 0.973125 0.825024
O O11 0.063954 0.784679 0.062589
O O12 0.500000 0.500000 0.000000
O O13 0.407876 0.209767 0.308595
O O14 0.267004 0.137668 0.025252
O O15 0.888802 0.872223 0.235121
O O16 0.724236 0.019337 0.455145
O O17 0.000000 0.000000 0.500000
#
# Coordination Sequence:
#
# PCOD9095531 Si02
#       8
#     2   2   2   2   2   2   2   2
#     4  10  21  38  59  93 129 159 206 254 302 374
#     4  10  22  41  63  92 120 159 218 256 298 368
#     4  10  20  35  58  85 124 170 204 238 303 371
#     4  11  22  36  60  89 129 169 203 252 313 366
#     4  11  24  39  58  97 134 157 200 256 314 379
#     4   9  22  45  66  88 120 162 215 266 300 362
#     4  11  25  39  63  94 128 162 205 258 317 366
#     4  10  20  40  67  85 122 168 206 258 305 359
#
# _framework density 24.414597000000001
#
# number of rings (size 3 to 8) (size 9 to 14) (size 15 to 20)
#    0.000    1.750    1.250    3.000    3.500    4.500 
#    0.000    5.625    0.000    0.000    0.000    0.000 
#    0.000    0.000    0.000    0.000    0.000    0.000 
#
# Total GULP energy -89549.814623 kJ/mol
# GULP energy per Si atom -5596.863414 kJ/mol
# Density = 2.435903 g / cm^3
# Si number density = 24.414597 Si / 1000 Ang^3
#
#
#
# Elastic Constant Matrix: (Units=GPa)
#
#
# Indices 1 2 3 4 5 6 
#
# 1 80.7509 33.7766 18.5040 6.5141 3.7224 -25.2617
# 2 33.7766 132.9343 38.8887 3.4194 -1.5512 -31.1380
# 3 18.5040 38.8887 116.8458 -22.0045 6.3024 -25.6354
# 4 6.5141 3.4194 -22.0045 37.1369 1.0460 -9.8894
# 5 3.7224 -1.5512 6.3024 1.0460 24.3268 -1.0949
# 6 -25.2617 -31.1380 -25.6354 -9.8894 -1.0949 52.0952
#
#
#
# Elastic Compliance Matrix: (Units=1/GPa)
#
#
# Indices 1 2 3 4 5 6 
#
# 1 0.015453 -0.002477 -0.000563 -0.001308 -0.002076 0.005444
# 2 -0.002477 0.009662 -0.002420 -0.001084 0.001813 0.003215
# 3 -0.000563 -0.002420 0.012886 0.009761 -0.003538 0.006400
# 4 -0.001308 -0.001084 0.009761 0.035869 -0.003478 0.010257
# 5 -0.002076 0.001813 -0.003538 -0.003478 0.042542 -0.001430
# 6 0.005444 0.003215 0.006400 0.010257 -0.001430 0.028824
#
#
# Mechanical properties :
#
#
# Convention : Reuss Voigt Hill
#
# Bulk Modulus (GPa) = 36.92528 56.98550 46.95539
# Shear Modulus (GPa) = 30.26938 38.66923 34.46930
#
# Velocity S-wave (km/s) = 3.52491 3.98409 3.76151
# Velocity P-wave (km/s) = 5.63238 6.67498 6.17572
#
# Compressibility (1/GPa) = 0.02708172
#
# Stress axis : x y z
#
# Youngs Moduli (GPa) = 64.71184 103.49749 77.60368
#
# Poissons Ratio (x) = 0.25638 0.04366
# Poissons Ratio (y) = 0.16030 0.18779
# Poissons Ratio (z) = 0.03641 0.25045
#
# Static dielectric constant tensor:
#      x y z
#    x 1.993130 0.010060 -0.036050 
#    y 0.010060 1.946310 0.017170 
#    z -0.036050 0.017170 1.951620 
# 
# From -- ./inp_files/522527.got.cif
#   From: 2010.05.17/outbox.cif.g08.bks.cpg/sg2_262_cif.got.tgz:522527.got - 2010.06.03 11:33:40.
