data_PCOD9095337
_publ_section_title
;
Structure prediction by ZEFSAII (Michael W. Deem and Ramdas Pophale) SiO2 
 PCOD9095337
Probable space group: P -1
;
_chemical_formula_sum "Si O2"
_cell_formula_units_Z 12
_cell_length_a 11.150456
_cell_length_b 7.808062
_cell_length_c 12.203317
_cell_angle_alpha 113.377243
_cell_angle_beta 122.156234
_cell_angle_gamma 36.599662
_cell_volume 535.308666
_symmetry_space_group_name_H-M "P -1"
_symmetry_group_IT_number 2
_symmetry_cell_setting 'triclinic'
loop_
_space_group_symop_operation_xyz
x,y,z
-x,-y,-z
loop_
_atom_site_type_symbol
_atom_site_label
_atom_site_fract_x
_atom_site_fract_y
_atom_site_fract_z
Si Si1 0.807902 0.893976 0.103963
Si Si2 0.949786 0.738628 0.885948
Si Si3 0.392825 0.407820 0.945021
Si Si4 0.271308 0.243082 0.661331
Si Si5 0.034298 0.148590 0.623060
Si Si6 0.779083 0.753250 0.599535
O O1 0.918826 0.591329 0.122122
O O2 0.912178 0.941676 0.247286
O O3 0.861251 0.864529 0.995069
O O4 0.546933 0.163373 0.051179
O O5 0.143980 0.680165 0.930936
O O6 0.775466 0.883677 0.740056
O O7 0.391606 0.266243 0.805615
O O8 0.500000 0.500000 0.000000
O O9 0.233411 0.078299 0.656228
O O10 0.357074 0.124853 0.549140
O O11 0.021222 0.573408 0.623405
O O12 0.826374 0.493673 0.595356
O O13 0.000000 0.000000 0.500000
#
# Coordination Sequence:
#
# PCOD9095337 Si02
#       6
#     2   2   2   2   2   2
#     4  10  20  35  57  81 109 140 181 220 275 316
#     4   9  19  37  57  79 107 143 179 227 263 318
#     4  11  22  33  54  82 111 147 175 221 269 316
#     4   8  16  31  47  75 106 135 178 211 263 317
#     4   9  17  28  54  80  99 138 178 221 264 311
#     4   7  14  30  51  70 106 137 170 216 261 313
#
# _framework density 22.416974
#
# number of rings (size 3 to 8) (size 9 to 14) (size 15 to 20)
#    1.000    2.000    1.667    0.500    2.333    0.667 
#    0.000    0.833    0.000    1.000    0.000    0.000 
#    0.000    0.000    0.000    0.000    0.000    0.000 
#
# Total GULP energy -66805.719130 kJ/mol
# GULP energy per Si atom -5567.143261 kJ/mol
# Density = 2.236595 g / cm^3
# Si number density = 22.416974 Si / 1000 Ang^3
#
#
#
# Elastic Constant Matrix: (Units=GPa)
#
#
# Indices 1 2 3 4 5 6 
#
# 1 76.5343 -2.3746 57.3751 13.8598 8.3828 6.7165
# 2 -2.3746 34.7735 22.9861 -3.8042 8.7834 5.4526
# 3 57.3751 22.9861 220.2937 3.3160 0.0380 4.4186
# 4 13.8598 -3.8042 3.3160 33.8247 -1.7080 0.4316
# 5 8.3828 8.7834 0.0380 -1.7080 47.6171 9.3203
# 6 6.7165 5.4526 4.4186 0.4316 9.3203 18.8387
#
#
#
# Elastic Compliance Matrix: (Units=1/GPa)
#
#
# Indices 1 2 3 4 5 6 
#
# 1 0.019499 0.005994 -0.005491 -0.006897 -0.003725 -0.005398
# 2 0.005994 0.035563 -0.005132 0.001855 -0.005911 -0.008345
# 3 -0.005491 -0.005132 0.006467 0.001114 0.001745 0.001037
# 4 -0.006897 0.001855 0.001114 0.032595 0.002061 -0.000106
# 5 -0.003725 -0.005911 0.001745 0.002061 0.024707 -0.009641
# 6 -0.005398 -0.008345 0.001037 -0.000106 -0.009641 0.061951
#
#
# Mechanical properties :
#
#
# Convention : Reuss Voigt Hill
#
# Bulk Modulus (GPa) = 19.13040 54.17497 36.65269
# Shear Modulus (GPa) = 24.10059 36.96375 30.53217
#
# Velocity S-wave (km/s) = 3.28244 4.06509 3.69455
# Velocity P-wave (km/s) = 4.78730 6.80093 5.88094
#
# Compressibility (1/GPa) = 0.05227282
#
# Stress axis : x y z
#
# Youngs Moduli (GPa) = 51.28393 28.11874 154.62751
#
# Poissons Ratio (x) = -0.16855 0.84910
# Poissons Ratio (y) = -0.30741 0.79347
# Poissons Ratio (z) = 0.28161 0.14429
#
# Static dielectric constant tensor:
#      x y z
#    x 1.916550 -0.056310 0.006960 
#    y -0.056310 1.892160 -0.029250 
#    z 0.006960 -0.029250 1.891160 
# 
# From -- ./inp_files/387722.got.cif
#   From: 2010.05.17/outbox.cif.g08.bks.cpg/sg2_194_cif.got.tgz:387722.got - 2010.06.03 11:33:40.
