data_PCOD9095457
_publ_section_title
;
Structure prediction by ZEFSAII (Michael W. Deem and Ramdas Pophale) SiO2 
 PCOD9095457
Probable space group: P -1
;
_chemical_formula_sum "Si O2"
_cell_formula_units_Z 15
_cell_length_a 9.917544
_cell_length_b 12.069332
_cell_length_c 14.127991
_cell_angle_alpha 136.598998
_cell_angle_beta 149.829916
_cell_angle_gamma 60.057151
_cell_volume 541.679010
_symmetry_space_group_name_H-M "P -1"
_symmetry_group_IT_number 2
_symmetry_cell_setting 'triclinic'
loop_
_space_group_symop_operation_xyz
x,y,z
-x,-y,-z
loop_
_atom_site_type_symbol
_atom_site_label
_atom_site_fract_x
_atom_site_fract_y
_atom_site_fract_z
Si Si1 0.558486 0.460233 0.902977
Si Si2 0.460299 0.941745 0.090200
Si Si3 0.000000 0.500000 0.500000
Si Si4 0.361080 0.534631 0.553418
Si Si5 0.152606 0.769140 0.963874
Si Si6 0.170497 0.705881 0.370328
Si Si7 0.194455 0.130753 0.916791
Si Si8 0.426368 0.919060 0.507847
O O1 0.696188 0.313922 0.918513
O O2 0.270946 0.427320 0.647216
O O3 0.500000 0.500000 0.000000
O O4 0.826289 0.617532 0.116723
O O5 0.283520 0.769130 0.936761
O O6 0.610227 0.891790 0.062493
O O7 0.704843 0.097921 0.390032
O O8 0.239231 0.023489 0.966246
O O9 0.841219 0.432187 0.465995
O O10 0.292620 0.603544 0.454075
O O11 0.684161 0.665771 0.854230
O O12 0.186213 0.328824 0.306921
O O13 0.286417 0.971425 0.192668
O O14 0.300893 0.724333 0.354404
O O15 0.868714 0.047319 0.634095
O O16 0.500000 0.000000 0.500000
#
# Coordination Sequence:
#
# PCOD9095457 Si02
#       8
#     2   2   1   2   2   2   2   2
#     4  11  22  36  59  97 133 170 202 261 334 396
#     4   9  20  35  61  96 124 162 194 270 335 391
#     4  12  20  30  60  92 140 162 200 234 330 418
#     4  10  20  35  57  92 121 163 199 259 324 381
#     4  10  22  39  61  89 129 163 209 261 334 386
#     4   9  20  39  58  85 131 163 204 264 329 373
#     4  10  21  35  60  91 127 156 215 256 326 395
#     4  11  25  43  62  85 123 181 228 264 311 375
#
# _framework density 27.691676999999999
#
# number of rings (size 3 to 8) (size 9 to 14) (size 15 to 20)
#    0.000    1.867    2.667    1.600    3.733    3.200 
#    0.000    9.333    0.000    2.400    0.000    0.000 
#    0.000    0.000    0.000    0.000    0.000    0.000 
#
# Total GULP energy -83576.837276 kJ/mol
# GULP energy per Si atom -5571.789152 kJ/mol
# Density = 2.762865 g / cm^3
# Si number density = 27.691677 Si / 1000 Ang^3
#
#
#
# Elastic Constant Matrix: (Units=GPa)
#
#
# Indices 1 2 3 4 5 6 
#
# 1 88.3658 43.0993 36.6236 8.1659 20.7222 40.6166
# 2 43.0993 155.2737 65.6429 -11.9633 15.7328 37.8486
# 3 36.6236 65.6429 152.5262 -0.5369 24.7579 -3.1346
# 4 8.1659 -11.9633 -0.5369 66.6258 4.4151 5.5350
# 5 20.7222 15.7328 24.7579 4.4151 34.9130 5.6941
# 6 40.6166 37.8486 -3.1346 5.5350 5.6941 56.0901
#
#
#
# Elastic Compliance Matrix: (Units=1/GPa)
#
#
# Indices 1 2 3 4 5 6 
#
# 1 0.022007 0.000267 -0.004533 -0.000910 -0.007318 -0.015536
# 2 0.000267 0.010439 -0.004598 0.002486 -0.000665 -0.007672
# 3 -0.004533 -0.004598 0.010380 -0.000553 -0.003735 0.007399
# 4 -0.000910 0.002486 -0.000553 0.015884 -0.001799 -0.002434
# 5 -0.007318 -0.000665 -0.003735 -0.001799 0.035823 0.002080
# 6 -0.015536 -0.007672 0.007399 -0.002434 0.002080 0.034698
#
#
# Mechanical properties :
#
#
# Convention : Reuss Voigt Hill
#
# Bulk Modulus (GPa) = 39.84597 76.32194 58.08395
# Shear Modulus (GPa) = 32.19055 48.24577 40.21816
#
# Velocity S-wave (km/s) = 3.41319 4.17855 3.81511
# Velocity P-wave (km/s) = 5.47298 7.13453 6.35827
#
# Compressibility (1/GPa) = 0.02509664
#
# Stress axis : x y z
#
# Youngs Moduli (GPa) = 45.44010 95.79615 96.34113
#
# Poissons Ratio (x) = -0.02553 0.43676
# Poissons Ratio (y) = -0.01211 0.44293
# Poissons Ratio (z) = 0.20600 0.44042
#
# Static dielectric constant tensor:
#      x y z
#    x 2.106520 -0.020300 0.083050 
#    y -0.020300 2.267450 0.088260 
#    z 0.083050 0.088260 1.845160 
# 
# From -- ./inp_files/519885.got.cif
#   From: 2010.05.17/outbox.cif.g08.bks.cpg/sg2_260_cif.got.tgz:519885.got - 2010.06.03 11:33:40.
