data_PCOD9095782
_publ_section_title
;
Structure prediction by ZEFSAII (Michael W. Deem and Ramdas Pophale) SiO2 
 PCOD9095782
Probable space group: P -1
;
_chemical_formula_sum "Si O2"
_cell_formula_units_Z 16
_cell_length_a 21.044257
_cell_length_b 5.763899
_cell_length_c 23.034382
_cell_angle_alpha 58.561666
_cell_angle_beta 21.698519
_cell_angle_gamma 48.156913
_cell_volume 718.944328
_symmetry_space_group_name_H-M "P -1"
_symmetry_group_IT_number 2
_symmetry_cell_setting 'triclinic'
loop_
_space_group_symop_operation_xyz
x,y,z
-x,-y,-z
loop_
_atom_site_type_symbol
_atom_site_label
_atom_site_fract_x
_atom_site_fract_y
_atom_site_fract_z
Si Si1 0.397261 0.665480 0.503607
Si Si2 0.259156 0.585697 0.279325
Si Si3 0.977045 0.389034 0.748675
Si Si4 0.319153 0.130482 0.804895
Si Si5 0.327904 0.767705 0.950487
Si Si6 0.889464 0.671426 0.661931
Si Si7 0.085611 0.556797 0.736916
Si Si8 0.917559 0.780329 0.112038
O O1 0.500000 0.500000 0.500000
O O2 0.547412 0.716618 0.330970
O O3 0.310775 0.478936 0.569734
O O4 0.178801 0.031097 0.644709
O O5 0.487131 0.349235 0.145995
O O6 0.237642 0.427156 0.258713
O O7 0.082942 0.610015 0.467532
O O8 0.218415 0.952548 0.269297
O O9 0.967083 0.434463 0.682986
O O10 0.030634 0.611476 0.708985
O O11 0.757929 0.462702 0.948362
O O12 0.287084 0.076101 0.772482
O O13 0.397448 0.824733 0.821666
O O14 0.091212 0.414149 0.987274
O O15 0.115979 0.107456 0.108487
O O16 0.095786 0.265979 0.802613
O O17 0.000000 0.000000 0.000000
#
# Coordination Sequence:
#
# PCOD9095782 Si02
#       8
#     2   2   2   2   2   2   2   2
#     4  11  23  40  62  89 127 172 217 277 329 393
#     4  10  23  46  72 102 136 174 226 274 340 404
#     4  11  25  41  64  94 132 168 221 272 334 401
#     4  10  21  39  58  86 122 166 216 264 325 386
#     4  10  23  41  64  93 131 172 218 273 330 401
#     4  10  24  45  73 102 136 176 220 281 335 406
#     4  10  23  40  58  93 130 170 218 271 330 394
#     4  10  20  35  60  83 120 167 212 265 320 390
#
# _framework density 22.254853000000001
#
# number of rings (size 3 to 8) (size 9 to 14) (size 15 to 20)
#    0.000    1.750    1.250    1.500    8.750    2.500 
#    2.250    0.000    0.000    0.000    0.000    0.000 
#    0.000    0.000    0.000    0.000    0.000    0.000 
#
# Total GULP energy -89164.026386 kJ/mol
# GULP energy per Si atom -5572.751649 kJ/mol
# Density = 2.220420 g / cm^3
# Si number density = 22.254853 Si / 1000 Ang^3
#
#
#
# Elastic Constant Matrix: (Units=GPa)
#
#
# Indices 1 2 3 4 5 6 
#
# 1 161.2088 43.4661 56.4129 -5.2950 -28.3352 -11.2793
# 2 43.4661 67.3098 26.1547 -7.5342 -10.9878 -3.0888
# 3 56.4129 26.1547 64.3381 1.8587 -24.6126 -9.4792
# 4 -5.2950 -7.5342 1.8587 24.4629 3.0546 -0.9326
# 5 -28.3352 -10.9878 -24.6126 3.0546 36.3649 -0.3529
# 6 -11.2793 -3.0888 -9.4792 -0.9326 -0.3529 24.2493
#
#
#
# Elastic Compliance Matrix: (Units=1/GPa)
#
#
# Indices 1 2 3 4 5 6 
#
# 1 0.009844 -0.003355 -0.006102 0.001328 0.002433 0.001853
# 2 -0.003355 0.019716 -0.005833 0.005885 -0.001110 -0.001119
# 3 -0.006102 -0.005833 0.030270 -0.006932 0.014632 0.008198
# 4 0.001328 0.005885 -0.006932 0.044213 -0.005590 0.000277
# 5 0.002433 -0.001110 0.014632 -0.005590 0.039501 0.007070
# 6 0.001853 -0.001119 0.008198 0.000277 0.007070 0.045276
#
#
# Mechanical properties :
#
#
# Convention : Reuss Voigt Hill
#
# Bulk Modulus (GPa) = 34.18765 60.54712 47.36738
# Shear Modulus (GPa) = 21.81981 28.13695 24.97838
#
# Velocity S-wave (km/s) = 3.13461 3.55957 3.35383
# Velocity P-wave (km/s) = 5.33819 6.64525 6.02726
#
# Compressibility (1/GPa) = 0.02925033
#
# Stress axis : x y z
#
# Youngs Moduli (GPa) = 101.58517 50.72084 33.03581
#
# Poissons Ratio (x) = 0.17016 0.20159
# Poissons Ratio (y) = 0.34080 0.19269
# Poissons Ratio (z) = 0.61990 0.29584
#
# Static dielectric constant tensor:
#      x y z
#    x 1.903730 0.121880 -0.008360 
#    y 0.121880 2.048960 -0.026180 
#    z -0.008360 -0.026180 1.800340 
# 
# From -- ./inp_files/52508.got.cif
#   From: 2010.05.17/outbox.cif.g08.bks.cpg/sg2_27_cif.got.tgz:52508.got - 2010.06.03 11:33:40.
