data_PCOD9095599
_publ_section_title
;
Structure prediction by ZEFSAII (Michael W. Deem and Ramdas Pophale) SiO2 
 PCOD9095599
Probable space group: P -1
;
_chemical_formula_sum "Si O2"
_cell_formula_units_Z 14
_cell_length_a 9.008110
_cell_length_b 7.774058
_cell_length_c 13.474590
_cell_angle_alpha 143.100375
_cell_angle_beta 94.668353
_cell_angle_gamma 93.586273
_cell_volume 551.690127
_symmetry_space_group_name_H-M "P -1"
_symmetry_group_IT_number 2
_symmetry_cell_setting 'triclinic'
loop_
_space_group_symop_operation_xyz
x,y,z
-x,-y,-z
loop_
_atom_site_type_symbol
_atom_site_label
_atom_site_fract_x
_atom_site_fract_y
_atom_site_fract_z
Si Si1 0.926745 0.285227 0.487994
Si Si2 0.390176 0.851568 0.138947
Si Si3 0.681028 0.574657 0.545987
Si Si4 0.787404 0.521590 0.299610
Si Si5 0.872407 0.682465 0.099550
Si Si6 0.479259 0.257026 0.688354
Si Si7 0.334000 0.129996 0.988655
O O1 0.759890 0.359102 0.515342
O O2 0.000000 0.500000 0.500000
O O3 0.030914 0.375046 0.631770
O O4 0.928387 0.960870 0.301206
O O5 0.289866 0.097287 0.258321
O O6 0.273097 0.548587 0.974028
O O7 0.531979 0.190778 0.770469
O O8 0.528986 0.916362 0.098805
O O9 0.500000 0.500000 0.500000
O O10 0.732243 0.553893 0.425471
O O11 0.693955 0.716258 0.324218
O O12 0.732354 0.181890 0.108707
O O13 0.805176 0.804011 0.053156
O O14 0.000000 0.500000 0.000000
O O15 0.586337 0.576171 0.813283
O O16 0.500000 0.000000 0.500000
#
# Coordination Sequence:
#
# PCOD9095599 Si02
#       7
#     2   2   2   2   2   2   2
#     4  10  20  35  58  91 123 159 206 251 303 365
#     4  11  23  40  64  94 121 160 208 256 303 362
#     4  11  19  36  64  92 120 160 209 250 295 370
#     4  11  21  39  61  91 124 161 199 258 306 361
#     4  11  20  33  58  90 123 153 205 259 300 349
#     4  11  23  37  60  92 128 158 205 252 310 361
#     4  11  23  41  63  90 122 164 209 248 301 371
#
# _framework density 25.376563999999998
#
# number of rings (size 3 to 8) (size 9 to 14) (size 15 to 20)
#    0.000    1.143    5.714    3.857    2.000    0.000 
#    0.000    0.000    0.000   15.429    0.000    0.000 
#    0.000    0.000    0.000    0.000    0.000    0.000 
#
# Total GULP energy -78460.461213 kJ/mol
# GULP energy per Si atom -5604.318658 kJ/mol
# Density = 2.531881 g / cm^3
# Si number density = 25.376564 Si / 1000 Ang^3
#
#
#
# Elastic Constant Matrix: (Units=GPa)
#
#
# Indices 1 2 3 4 5 6 
#
# 1 128.7996 49.7165 48.3552 0.7021 -2.0946 -44.0813
# 2 49.7165 97.7598 50.2892 12.2269 -7.6782 -28.5424
# 3 48.3552 50.2892 214.4300 17.6100 6.7510 -18.2844
# 4 0.7021 12.2269 17.6100 39.1578 -7.6432 -5.0367
# 5 -2.0946 -7.6782 6.7510 -7.6432 45.3350 7.9527
# 6 -44.0813 -28.5424 -18.2844 -5.0367 7.9527 43.9827
#
#
#
# Elastic Compliance Matrix: (Units=1/GPa)
#
#
# Indices 1 2 3 4 5 6 
#
# 1 0.013357 -0.003173 -0.001487 0.002625 -0.001227 0.011232
# 2 -0.003173 0.014864 -0.002164 -0.002701 0.001359 0.005011
# 3 -0.001487 -0.002164 0.005697 -0.002230 -0.001572 -0.000498
# 4 0.002625 -0.002701 -0.002230 0.028503 0.004376 0.002424
# 5 -0.001227 0.001359 -0.001572 0.004376 0.024054 -0.004849
# 6 0.011232 0.005011 -0.000498 0.002424 -0.004849 0.038193
#
#
# Mechanical properties :
#
#
# Convention : Reuss Voigt Hill
#
# Bulk Modulus (GPa) = 49.33725 81.96791 65.65258
# Shear Modulus (GPa) = 34.46570 45.20366 39.83468
#
# Velocity S-wave (km/s) = 3.68933 4.22514 3.96630
# Velocity P-wave (km/s) = 6.13453 7.49488 6.84857
#
# Compressibility (1/GPa) = 0.02026866
#
# Stress axis : x y z
#
# Youngs Moduli (GPa) = 74.86711 67.27833 175.54255
#
# Poissons Ratio (x) = 0.21349 0.26106
# Poissons Ratio (y) = 0.23757 0.37987
# Poissons Ratio (z) = 0.11134 0.14559
#
# Static dielectric constant tensor:
#      x y z
#    x 2.054560 0.004380 0.035130 
#    y 0.004380 2.084120 0.040880 
#    z 0.035130 0.040880 2.059590 
# 
# From -- ./inp_files/589783.got.cif
#   From: 2010.05.17/outbox.cif.g08.bks.cpg/sg2_295_cif.got.tgz:589783.got - 2010.06.03 11:33:40.
