data_PCOD9095854
_publ_section_title
;
Structure prediction by ZEFSAII (Michael W. Deem and Ramdas Pophale) SiO2 
 PCOD9095854
Probable space group: P -1
;
_chemical_formula_sum "Si O2"
_cell_formula_units_Z 16
_cell_length_a 31.562463
_cell_length_b 9.490699
_cell_length_c 16.342298
_cell_angle_alpha 45.970838
_cell_angle_beta 18.868146
_cell_angle_gamma 36.921744
_cell_volume 902.141758
_symmetry_space_group_name_H-M "P -1"
_symmetry_group_IT_number 2
_symmetry_cell_setting 'triclinic'
loop_
_space_group_symop_operation_xyz
x,y,z
-x,-y,-z
loop_
_atom_site_type_symbol
_atom_site_label
_atom_site_fract_x
_atom_site_fract_y
_atom_site_fract_z
Si Si1 0.184056 0.190377 0.641345
Si Si2 0.257310 0.562314 0.412591
Si Si3 0.403866 0.703098 0.664137
Si Si4 0.414784 0.090472 0.707961
Si Si5 0.395142 0.659482 0.408797
Si Si6 0.885709 0.357338 0.001083
Si Si7 0.452709 0.646719 0.903909
Si Si8 0.933701 0.987336 0.928523
O O1 0.221027 0.380489 0.517132
O O2 0.341274 0.925179 0.427142
O O3 0.038390 0.297318 0.797957
O O4 0.123111 0.134155 0.857269
O O5 0.413252 0.415549 0.247866
O O6 0.306306 0.666152 0.208720
O O7 0.102565 0.780718 0.659175
O O8 0.500000 0.500000 0.500000
O O9 0.463971 0.872695 0.480272
O O10 0.471058 0.553183 0.686849
O O11 0.211395 0.857933 0.935536
O O12 0.238753 0.358396 0.913927
O O13 0.500000 0.000000 0.500000
O O14 0.401100 0.891303 0.853105
O O15 0.229203 0.680028 0.717573
O O16 0.460725 0.571918 0.233266
O O17 0.940238 0.174169 0.898604
#
# Coordination Sequence:
#
# PCOD9095854 Si02
#       8
#     2   2   2   2   2   2   2   2
#     4  11  21  36  61  90 113 153 200 245 293 337
#     4  11  26  38  60  85 120 161 195 242 283 357
#     4  11  19  36  61  97 114 147 198 244 296 340
#     4  11  21  36  64  89 114 157 194 243 291 345
#     4  10  20  37  61  87 119 154 189 249 292 344
#     4  10  20  35  60  90 116 146 194 248 299 339
#     4  11  23  44  57  84 122 158 198 233 299 347
#     4  11  21  37  59  88 124 147 195 247 291 344
#
# _framework density 17.735572000000001
#
# number of rings (size 3 to 8) (size 9 to 14) (size 15 to 20)
#    0.000    1.250    6.250    4.125    1.750    0.500 
#    0.000    3.125    0.000    0.000    0.000    0.000 
#    0.000    0.000    0.000    0.000    0.000    0.000 
#
# Total GULP energy -89359.501818 kJ/mol
# GULP energy per Si atom -5584.968864 kJ/mol
# Density = 1.769521 g / cm^3
# Si number density = 17.735572 Si / 1000 Ang^3
#
#
#
# Elastic Constant Matrix: (Units=GPa)
#
#
# Indices 1 2 3 4 5 6 
#
# 1 97.2342 51.5981 45.3140 -12.7844 -7.2920 14.2537
# 2 51.5981 138.5972 72.2829 -0.3163 11.1450 15.1129
# 3 45.3140 72.2829 72.5294 -3.2013 2.3126 14.9283
# 4 -12.7844 -0.3163 -3.2013 17.5834 -4.5889 1.7034
# 5 -7.2920 11.1450 2.3126 -4.5889 33.2524 5.7807
# 6 14.2537 15.1129 14.9283 1.7034 5.7807 30.3282
#
#
#
# Elastic Compliance Matrix: (Units=1/GPa)
#
#
# Indices 1 2 3 4 5 6 
#
# 1 0.018897 -0.003682 -0.006404 0.015510 0.009094 -0.006498
# 2 -0.003682 0.016571 -0.014815 -0.007070 -0.006732 0.002446
# 3 -0.006404 -0.014815 0.034032 0.002683 0.002789 -0.007041
# 4 0.015510 -0.007070 0.002683 0.074457 0.018070 -0.012713
# 5 0.009094 -0.006732 0.002789 0.018070 0.038473 -0.010640
# 6 -0.006498 0.002446 -0.007041 -0.012713 -0.010640 0.041016
#
#
# Mechanical properties :
#
#
# Convention : Reuss Voigt Hill
#
# Bulk Modulus (GPa) = 50.76907 71.86122 61.31514
# Shear Modulus (GPa) = 17.86898 25.51051 21.68974
#
# Velocity S-wave (km/s) = 3.17759 3.79671 3.50087
# Velocity P-wave (km/s) = 6.49234 7.73474 7.14061
#
# Compressibility (1/GPa) = 0.01969703
#
# Stress axis : x y z
#
# Youngs Moduli (GPa) = 52.91888 60.34630 29.38412
#
# Poissons Ratio (x) = 0.22222 0.18818
# Poissons Ratio (y) = 0.19487 0.43532
# Poissons Ratio (z) = 0.33890 0.89402
#
# Static dielectric constant tensor:
#      x y z
#    x 1.562170 -0.042710 -0.007180 
#    y -0.042710 1.593030 0.013250 
#    z -0.007180 0.013250 1.574520 
# 
# From -- ./inp_files/256228.got.cif
#   From: 2010.05.17/outbox.cif.g08.bks.cpg/sg2_129_cif.got.tgz:256228.got - 2010.06.03 11:33:40.
