data_PCOD9095463
_publ_section_title
;
Structure prediction by ZEFSAII (Michael W. Deem and Ramdas Pophale) SiO2 
 PCOD9095463
Probable space group: P -1
;
_chemical_formula_sum "Si O2"
_cell_formula_units_Z 14
_cell_length_a 8.013684
_cell_length_b 13.301773
_cell_length_c 8.040595
_cell_angle_alpha 66.936690
_cell_angle_beta 56.089838
_cell_angle_gamma 94.861031
_cell_volume 600.621847
_symmetry_space_group_name_H-M "P -1"
_symmetry_group_IT_number 2
_symmetry_cell_setting 'triclinic'
loop_
_space_group_symop_operation_xyz
x,y,z
-x,-y,-z
loop_
_atom_site_type_symbol
_atom_site_label
_atom_site_fract_x
_atom_site_fract_y
_atom_site_fract_z
Si Si1 0.549697 0.749663 0.035130
Si Si2 0.799780 0.122441 0.140726
Si Si3 0.859585 0.232503 0.628638
Si Si4 0.722736 0.711631 0.301244
Si Si5 0.077478 0.004503 0.265743
Si Si6 0.339719 0.376578 0.245745
Si Si7 0.513934 0.120338 0.605719
O O1 0.297829 0.731894 0.187392
O O2 0.612608 0.679902 0.198528
O O3 0.618749 0.718902 0.837114
O O4 0.686957 0.886480 0.923989
O O5 0.639632 0.146649 0.343827
O O6 0.619522 0.019880 0.196566
O O7 0.920309 0.047274 0.216853
O O8 0.012960 0.238771 0.894782
O O9 0.925464 0.121628 0.707437
O O10 0.707578 0.181981 0.586588
O O11 0.081257 0.343234 0.391767
O O12 0.635347 0.626848 0.565238
O O13 0.656846 0.819027 0.325481
O O14 0.000000 0.000000 0.500000
O O15 0.500000 0.500000 0.000000
#
# Coordination Sequence:
#
# PCOD9095463 Si02
#       7
#     2   2   2   2   2   2   2
#     4  10  24  43  66  98 135 167 213 265 328 392
#     4  10  20  35  57  95 138 173 210 248 318 394
#     4  11  22  40  63  96 132 173 215 263 325 385
#     4  10  23  42  63  92 127 170 215 263 325 389
#     4  11  18  36  66  97 138 175 200 258 324 385
#     4  12  27  47  69  92 124 171 227 281 328 377
#     4  10  20  35  61  94 134 173 206 259 320 387
#
# _framework density 23.309176000000001
#
# number of rings (size 3 to 8) (size 9 to 14) (size 15 to 20)
#    0.000    1.429    2.857    2.571    0.000    5.714 
#    0.000    2.857    0.000    0.000    0.000    0.000 
#    0.000    0.000    0.000    0.000    0.000    0.000 
#
# Total GULP energy -78186.214955 kJ/mol
# GULP energy per Si atom -5584.729640 kJ/mol
# Density = 2.325612 g / cm^3
# Si number density = 23.309176 Si / 1000 Ang^3
#
#
#
# Elastic Constant Matrix: (Units=GPa)
#
#
# Indices 1 2 3 4 5 6 
#
# 1 114.8095 7.4956 39.8976 -0.5612 -8.1723 2.3969
# 2 7.4956 26.6855 22.8340 8.5066 -15.5381 4.1127
# 3 39.8976 22.8340 194.1498 7.8274 -15.9058 -5.5288
# 4 -0.5612 8.5066 7.8274 33.5083 -7.7149 -7.4055
# 5 -8.1723 -15.5381 -15.9058 -7.7149 49.2116 9.6282
# 6 2.3969 4.1127 -5.5288 -7.4055 9.6282 10.6775
#
#
#
# Elastic Compliance Matrix: (Units=1/GPa)
#
#
# Indices 1 2 3 4 5 6 
#
# 1 0.009685 0.002316 -0.002198 -0.000886 0.002954 -0.007483
# 2 0.002316 0.100529 -0.010293 -0.037258 0.044603 -0.110631
# 3 -0.002198 -0.010293 0.006776 0.003123 -0.003543 0.013328
# 4 -0.000886 -0.037258 0.003123 0.049179 -0.015819 0.064540
# 5 0.002954 0.044603 -0.003543 -0.015819 0.045248 -0.071451
# 6 -0.007483 -0.110631 0.013328 0.064540 -0.071451 0.254039
#
#
# Mechanical properties :
#
#
# Convention : Reuss Voigt Hill
#
# Bulk Modulus (GPa) = 10.34774 52.89989 31.62382
# Shear Modulus (GPa) = 9.65215 36.37400 23.01307
#
# Velocity S-wave (km/s) = 2.03713 3.95460 3.14554
# Velocity P-wave (km/s) = 3.15946 6.60273 5.17582
#
# Compressibility (1/GPa) = 0.09663946
#
# Stress axis : x y z
#
# Youngs Moduli (GPa) = 103.25392 9.94743 147.57263
#
# Poissons Ratio (x) = -0.02304 0.32436
# Poissons Ratio (y) = -0.23916 1.51902
# Poissons Ratio (z) = 0.22695 0.10239
#
# Static dielectric constant tensor:
#      x y z
#    x 1.964230 0.015300 0.097790 
#    y 0.015300 1.878400 0.030610 
#    z 0.097790 0.030610 2.011140 
# 
# From -- ./inp_files/200093.got.cif
#   From: 2010.05.17/outbox.cif.g08.bks.cpg/sg2_101_cif.got.tgz:200093.got - 2010.06.03 11:33:40.
