data_PCOD9095965
_publ_section_title
;
Structure prediction by ZEFSAII (Michael W. Deem and Ramdas Pophale) SiO2 
 PCOD9095965
Probable space group: P -1
;
_chemical_formula_sum "Si O2"
_cell_formula_units_Z 16
_cell_length_a 5.871876
_cell_length_b 8.828154
_cell_length_c 14.443837
_cell_angle_alpha 80.637598
_cell_angle_beta 59.748613
_cell_angle_gamma 88.031991
_cell_volume 637.164317
_symmetry_space_group_name_H-M "P -1"
_symmetry_group_IT_number 2
_symmetry_cell_setting 'triclinic'
loop_
_space_group_symop_operation_xyz
x,y,z
-x,-y,-z
loop_
_atom_site_type_symbol
_atom_site_label
_atom_site_fract_x
_atom_site_fract_y
_atom_site_fract_z
Si Si1 0.240408 0.654664 0.586852
Si Si2 0.375512 0.108985 0.437559
Si Si3 0.828255 0.779664 0.787468
Si Si4 0.998641 0.661868 0.284584
Si Si5 0.223350 0.833291 0.389354
Si Si6 0.235656 0.803942 0.950557
Si Si7 0.011279 0.945610 0.152834
Si Si8 0.810183 0.492516 0.919546
O O1 0.453801 0.730463 0.607875
O O2 0.303936 0.719541 0.466056
O O3 0.971848 0.730051 0.670337
O O4 0.189449 0.471575 0.617691
O O5 0.082669 0.136717 0.528109
O O6 0.500000 0.000000 0.500000
O O7 0.369905 0.001079 0.358378
O O8 0.514579 0.763487 0.855893
O O9 0.924602 0.665944 0.861064
O O10 0.900819 0.951364 0.788146
O O11 0.202590 0.744545 0.306110
O O12 0.155355 0.574978 0.183325
O O13 0.859202 0.795955 0.243469
O O14 0.131556 0.938613 0.895796
O O15 0.083918 0.637848 0.021059
O O16 0.238283 0.879728 0.046609
O O17 0.500000 0.500000 0.000000
#
# Coordination Sequence:
#
# PCOD9095965 Si02
#       8
#     2   2   2   2   2   2   2   2
#     4  10  22  41  62  91 131 167 211 259 316 379
#     4   9  21  39  63  90 123 172 207 260 315 381
#     4  10  20  35  61  88 121 166 207 257 310 380
#     4  10  21  38  62  98 128 163 213 268 311 374
#     4  10  21  40  66  91 127 168 212 259 321 371
#     4   9  19  39  58  87 123 162 208 262 322 369
#     4  10  21  35  59  90 125 159 211 263 315 373
#     4   8  17  37  64  89 125 163 208 257 316 375
#
# _framework density 25.111263999999998
#
# number of rings (size 3 to 8) (size 9 to 14) (size 15 to 20)
#    0.000    2.500    0.000    0.750    5.250    2.000 
#    0.000    1.250    0.000   10.500    0.000    0.000 
#    0.000    0.000    0.000    0.000    0.000    0.000 
#
# Total GULP energy -89347.278123 kJ/mol
# GULP energy per Si atom -5584.204883 kJ/mol
# Density = 2.505411 g / cm^3
# Si number density = 25.111264 Si / 1000 Ang^3
#
#
#
# Elastic Constant Matrix: (Units=GPa)
#
#
# Indices 1 2 3 4 5 6 
#
# 1 38.8803 22.4343 12.2370 -1.2760 7.3873 8.4379
# 2 22.4343 151.9995 29.2495 -27.5688 11.0627 26.2508
# 3 12.2370 29.2495 87.9815 -12.7382 11.6670 -0.6336
# 4 -1.2760 -27.5688 -12.7382 50.8601 -6.6858 -3.1924
# 5 7.3873 11.0627 11.6670 -6.6858 31.4204 8.5521
# 6 8.4379 26.2508 -0.6336 -3.1924 8.5521 29.6378
#
#
#
# Elastic Compliance Matrix: (Units=1/GPa)
#
#
# Indices 1 2 3 4 5 6 
#
# 1 0.030282 -0.003206 -0.003015 -0.002579 -0.004073 -0.004949
# 2 -0.003206 0.009438 -0.002300 0.004150 0.001179 -0.007389
# 3 -0.003015 -0.002300 0.013414 0.001756 -0.004348 0.004626
# 4 -0.002579 0.004150 0.001756 0.022681 0.003738 -0.001540
# 5 -0.004073 0.001179 -0.004348 0.003738 0.037618 -0.010430
# 6 -0.004949 -0.007389 0.004626 -0.001540 -0.010430 0.044637
#
#
# Mechanical properties :
#
#
# Convention : Reuss Voigt Hill
#
# Bulk Modulus (GPa) = 27.70735 45.18921 36.44828
# Shear Modulus (GPa) = 26.71758 36.71305 31.71532
#
# Velocity S-wave (km/s) = 3.26539 3.82778 3.55771
# Velocity P-wave (km/s) = 5.02741 6.12948 5.60559
#
# Compressibility (1/GPa) = 0.03609151
#
# Stress axis : x y z
#
# Youngs Moduli (GPa) = 33.02292 105.95603 74.54788
#
# Poissons Ratio (x) = 0.33970 0.22475
# Poissons Ratio (y) = 0.10587 0.17149
# Poissons Ratio (z) = 0.09956 0.24374
#
# Static dielectric constant tensor:
#      x y z
#    x 2.114850 0.026330 0.044120 
#    y 0.026330 2.021190 -0.033630 
#    z 0.044120 -0.033630 1.991260 
# 
# From -- ./inp_files/480394.got.cif
#   From: 2010.05.17/outbox.cif.g08.bks.cpg/sg2_241_cif.got.tgz:480394.got - 2010.06.03 11:33:40.
