data_PCOD9095625
_publ_section_title
;
Structure prediction by ZEFSAII (Michael W. Deem and Ramdas Pophale) SiO2 
 PCOD9095625
Probable space group: P -1
;
_chemical_formula_sum "Si O2"
_cell_formula_units_Z 14
_cell_length_a 12.321866
_cell_length_b 9.432208
_cell_length_c 12.756108
_cell_angle_alpha 39.944528
_cell_angle_beta 142.391817
_cell_angle_gamma 140.573805
_cell_volume 526.802141
_symmetry_space_group_name_H-M "P -1"
_symmetry_group_IT_number 2
_symmetry_cell_setting 'triclinic'
loop_
_space_group_symop_operation_xyz
x,y,z
-x,-y,-z
loop_
_atom_site_type_symbol
_atom_site_label
_atom_site_fract_x
_atom_site_fract_y
_atom_site_fract_z
Si Si1 0.998499 0.642157 0.025960
Si Si2 0.672442 0.718300 0.446882
Si Si3 0.373136 0.682785 0.522936
Si Si4 0.937376 0.508701 0.289174
Si Si5 0.457617 0.975073 0.227978
Si Si6 0.037751 0.976366 0.341951
Si Si7 0.344209 0.361936 0.855344
O O1 0.897601 0.824396 0.815562
O O2 0.909893 0.500885 0.146515
O O3 0.000000 0.500000 0.000000
O O4 0.227956 0.797185 0.140857
O O5 0.500000 0.500000 0.500000
O O6 0.693744 0.564337 0.456210
O O7 0.578983 0.912793 0.265828
O O8 0.874790 0.851243 0.588255
O O9 0.503736 0.899357 0.422313
O O10 0.449810 0.606061 0.729824
O O11 0.165796 0.689735 0.383875
O O12 0.907236 0.250345 0.464465
O O13 0.808237 0.616220 0.191459
O O14 0.476821 0.245087 0.074914
O O15 0.804817 0.849820 0.215908
#
# Coordination Sequence:
#
# PCOD9095625 Si02
#       7
#     2   2   2   2   2   2   2
#     4  10  20  35  59  86 109 141 189 236 281 329
#     4  10  20  37  57  84 117 147 184 231 282 334
#     4   9  18  33  56  81 111 143 183 231 278 325
#     4  10  21  36  57  86 114 141 190 238 271 327
#     4   9  20  35  55  81 115 148 181 229 280 328
#     4  10  20  35  59  82 110 148 185 230 279 322
#     4  10  21  36  58  84 109 149 193 228 274 329
#
# _framework density 26.575441999999999
#
# number of rings (size 3 to 8) (size 9 to 14) (size 15 to 20)
#    0.000    2.286    0.000    4.286    0.000   13.143 
#    0.000    3.571    0.000   29.143    0.000    0.000 
#    0.000    0.000    0.000    0.000    0.000    0.000 
#
# Total GULP energy -78181.927302 kJ/mol
# GULP energy per Si atom -5584.423379 kJ/mol
# Density = 2.651495 g / cm^3
# Si number density = 26.575442 Si / 1000 Ang^3
#
#
#
# Elastic Constant Matrix: (Units=GPa)
#
#
# Indices 1 2 3 4 5 6 
#
# 1 74.1893 15.6629 56.4174 -10.2503 -10.0171 -2.4947
# 2 15.6629 80.3261 31.3517 8.9796 -11.2166 7.7081
# 3 56.4174 31.3517 210.5241 -43.1401 -24.5975 -18.5582
# 4 -10.2503 8.9796 -43.1401 46.0201 -4.2427 7.4283
# 5 -10.0171 -11.2166 -24.5975 -4.2427 49.7404 -5.1297
# 6 -2.4947 7.7081 -18.5582 7.4283 -5.1297 26.3631
#
#
#
# Elastic Compliance Matrix: (Units=1/GPa)
#
#
# Indices 1 2 3 4 5 6 
#
# 1 0.017198 -0.001506 -0.004280 0.000338 0.000948 -0.000856
# 2 -0.001506 0.015299 -0.003463 -0.005662 0.000396 -0.005381
# 3 -0.004280 -0.003463 0.008912 0.007552 0.003979 0.005528
# 4 0.000338 -0.005662 0.007552 0.030556 0.005068 -0.000620
# 5 0.000948 0.000396 0.003979 0.005068 0.023393 0.005898
# 6 -0.000856 -0.005381 0.005528 -0.000620 0.005898 0.044638
#
#
# Mechanical properties :
#
#
# Convention : Reuss Voigt Hill
#
# Bulk Modulus (GPa) = 43.64740 63.54484 53.59612
# Shear Modulus (GPa) = 30.09675 41.86520 35.98098
#
# Velocity S-wave (km/s) = 3.36892 3.97335 3.68355
# Velocity P-wave (km/s) = 5.62071 6.70918 6.18892
#
# Compressibility (1/GPa) = 0.02291087
#
# Stress axis : x y z
#
# Youngs Moduli (GPa) = 58.14789 65.36270 112.20440
#
# Poissons Ratio (x) = 0.09845 0.48022
# Poissons Ratio (y) = 0.08758 0.38857
# Poissons Ratio (z) = 0.24886 0.22635
#
# Static dielectric constant tensor:
#      x y z
#    x 2.109560 -0.065570 -0.026560 
#    y -0.065570 2.137400 0.005460 
#    z -0.026560 0.005460 2.218800 
# 
# From -- ./inp_files/320678.got.cif
#   From: 2010.05.17/outbox.cif.g08.bks.cpg/sg2_161_cif.got.tgz:320678.got - 2010.06.03 11:33:40.
