data_PCOD9095179
_publ_section_title
;
Structure prediction by ZEFSAII (Michael W. Deem and Ramdas Pophale) SiO2 
 PCOD9095179
Probable space group: P -1
;
_chemical_formula_sum "Si O2"
_cell_formula_units_Z 15
_cell_length_a 12.655550
_cell_length_b 8.081643
_cell_length_c 10.585829
_cell_angle_alpha 137.590185
_cell_angle_beta 68.400016
_cell_angle_gamma 120.976739
_cell_volume 625.923626
_symmetry_space_group_name_H-M "P -1"
_symmetry_group_IT_number 2
_symmetry_cell_setting 'triclinic'
loop_
_space_group_symop_operation_xyz
x,y,z
-x,-y,-z
loop_
_atom_site_type_symbol
_atom_site_label
_atom_site_fract_x
_atom_site_fract_y
_atom_site_fract_z
Si Si1 0.946150 0.250257 0.977259
Si Si2 0.695436 0.580655 0.691550
Si Si3 0.386645 0.920495 0.251604
Si Si4 0.926403 0.986518 0.394607
Si Si5 0.865998 0.474025 0.741547
Si Si6 0.500000 0.000000 0.500000
Si Si7 0.349349 0.928958 0.985612
Si Si8 0.308857 0.395292 0.584173
O O1 0.998092 0.053739 0.776730
O O2 0.800306 0.162336 0.995959
O O3 0.014983 0.342000 0.130789
O O4 0.000000 0.500000 0.000000
O O5 0.807975 0.625494 0.761138
O O6 0.613454 0.268652 0.556840
O O7 0.735322 0.648779 0.566459
O O8 0.618463 0.756133 0.868641
O O9 0.475936 0.882083 0.294712
O O10 0.389364 0.214054 0.454118
O O11 0.247506 0.705415 0.218521
O O12 0.401226 0.900824 0.085154
O O13 0.797687 0.740801 0.342226
O O14 0.899857 0.248642 0.532138
O O15 0.000000 0.000000 0.500000
O O16 0.366671 0.707879 0.763653
#
# Coordination Sequence:
#
# PCOD9095179 Si02
#       8
#     2   2   2   2   2   1   2   2
#     4  12  19  33  60  87 117 157 193 223 276 341
#     4  10  24  41  59  82 118 152 190 244 294 337
#     4   9  19  38  63  84 111 151 191 238 288 342
#     4  11  18  32  57  82 113 156 197 228 270 337
#     4  10  20  35  55  85 117 155 194 231 280 339
#     4  10  22  46  64  80 114 152 192 242 300 344
#     4  11  21  38  60  89 119 150 193 236 279 340
#     4  10  20  36  59  87 117 148 189 239 286 335
#
# _framework density 23.964587000000002
#
# number of rings (size 3 to 8) (size 9 to 14) (size 15 to 20)
#    0.000    1.600    4.000    1.600    0.000    3.733 
#    0.000   12.667    0.000    0.000    0.000    0.000 
#    0.000    0.000    0.000    0.000    0.000    0.000 
#
# Total GULP energy -83600.029269 kJ/mol
# GULP energy per Si atom -5573.335285 kJ/mol
# Density = 2.391004 g / cm^3
# Si number density = 23.964587 Si / 1000 Ang^3
#
#
#
# Elastic Constant Matrix: (Units=GPa)
#
#
# Indices 1 2 3 4 5 6 
#
# 1 77.7618 9.7126 28.8283 -5.9230 12.0172 -7.3618
# 2 9.7126 60.4060 12.6006 -0.7002 -3.9073 3.5323
# 3 28.8283 12.6006 113.5103 -6.7305 -0.1147 3.7457
# 4 -5.9230 -0.7002 -6.7305 24.3339 -0.6763 11.4147
# 5 12.0172 -3.9073 -0.1147 -0.6763 52.9611 -0.1508
# 6 -7.3618 3.5323 3.7457 11.4147 -0.1508 32.3837
#
#
#
# Elastic Compliance Matrix: (Units=1/GPa)
#
#
# Indices 1 2 3 4 5 6 
#
# 1 0.015532 -0.002165 -0.003795 0.000721 -0.003672 0.003935
# 2 -0.002165 0.017437 -0.001248 0.000875 0.001779 -0.002550
# 3 -0.003795 -0.001248 0.010212 0.003332 0.000825 -0.003078
# 4 0.000721 0.000875 0.003332 0.050774 0.000505 -0.018212
# 5 -0.003672 0.001779 0.000825 0.000505 0.019851 -0.001210
# 6 0.003935 -0.002550 -0.003078 -0.018212 -0.001210 0.038822
#
#
# Mechanical properties :
#
#
# Convention : Reuss Voigt Hill
#
# Bulk Modulus (GPa) = 34.76411 39.32900 37.04655
# Shear Modulus (GPa) = 28.30722 35.30486 31.80604
#
# Velocity S-wave (km/s) = 3.44060 3.84241 3.64704
# Velocity P-wave (km/s) = 5.50651 6.01102 5.76429
#
# Compressibility (1/GPa) = 0.02876530
#
# Stress axis : x y z
#
# Youngs Moduli (GPa) = 64.38308 57.34796 97.92252
#
# Poissons Ratio (x) = 0.12416 0.37163
# Poissons Ratio (y) = 0.13939 0.12221
# Poissons Ratio (z) = 0.24435 0.07157
#
# Static dielectric constant tensor:
#      x y z
#    x 2.052880 0.152330 0.152420 
#    y 0.152330 2.120720 0.163920 
#    z 0.152420 0.163920 1.914370 
# 
# From -- ./inp_files/251353.got.cif
#   From: 2010.05.17/outbox.cif.g08.bks.cpg/sg2_126_cif.got.tgz:251353.got - 2010.06.03 11:33:40.
