data_PCOD9095971
_publ_section_title
;
Structure prediction by ZEFSAII (Michael W. Deem and Ramdas Pophale) SiO2 
 PCOD9095971
Probable space group: P -1
;
_chemical_formula_sum "Si O2"
_cell_formula_units_Z 16
_cell_length_a 10.932544
_cell_length_b 9.608255
_cell_length_c 17.185861
_cell_angle_alpha 128.050180
_cell_angle_beta 35.284082
_cell_angle_gamma 118.299337
_cell_volume 819.473192
_symmetry_space_group_name_H-M "P -1"
_symmetry_group_IT_number 2
_symmetry_cell_setting 'triclinic'
loop_
_space_group_symop_operation_xyz
x,y,z
-x,-y,-z
loop_
_atom_site_type_symbol
_atom_site_label
_atom_site_fract_x
_atom_site_fract_y
_atom_site_fract_z
Si Si1 0.754750 0.071836 0.659349
Si Si2 0.538960 0.919862 0.864364
Si Si3 0.383168 0.526805 0.150623
Si Si4 0.133662 0.733366 0.981464
Si Si5 0.114780 0.336024 0.338186
Si Si6 0.714953 0.612250 0.129381
Si Si7 0.849769 0.012533 0.314064
Si Si8 0.503159 0.009571 0.618055
O O1 0.735089 0.279081 0.721038
O O2 0.659910 0.042522 0.784369
O O3 0.599740 0.987548 0.646466
O O4 0.000000 0.000000 0.500000
O O5 0.693414 0.745946 0.737261
O O6 0.326212 0.858446 0.911812
O O7 0.500000 0.000000 0.000000
O O8 0.217219 0.394497 0.223845
O O9 0.581316 0.517514 0.102766
O O10 0.500000 0.500000 0.000000
O O11 0.935193 0.693285 0.015066
O O12 0.227081 0.538231 0.889432
O O13 0.008047 0.844577 0.153485
O O14 0.000000 0.500000 0.500000
O O15 0.966473 0.176983 0.343378
O O16 0.561413 0.781217 0.290738
O O17 0.712704 0.070249 0.327809
O O18 0.687743 0.954160 0.443153
#
# Coordination Sequence:
#
# PCOD9095971 Si02
#       8
#     2   2   2   2   2   2   2   2
#     4  11  24  41  61  87 122 159 197 251 306 350
#     4  12  23  39  63  92 119 155 207 250 295 360
#     4  11  23  39  59  87 121 155 194 249 300 355
#     4  10  20  35  61  89 116 153 199 248 290 354
#     4  12  23  39  63  88 117 158 206 244 293 360
#     4   9  19  38  57  87 118 156 194 243 299 349
#     4  10  20  36  63  90 117 162 201 244 294 363
#     4   9  20  40  59  89 121 158 202 243 299 361
#
# _framework density 19.524739
#
# number of rings (size 3 to 8) (size 9 to 14) (size 15 to 20)
#    0.000    1.500    2.500    3.750    0.000    0.000 
#    2.250    1.875    0.000    1.500    0.000    0.000 
#    0.000    0.000    0.000    0.000    0.000    0.000 
#
# Total GULP energy -89114.262620 kJ/mol
# GULP energy per Si atom -5569.641414 kJ/mol
# Density = 1.948030 g / cm^3
# Si number density = 19.524739 Si / 1000 Ang^3
#
#
#
# Elastic Constant Matrix: (Units=GPa)
#
#
# Indices 1 2 3 4 5 6 
#
# 1 50.8971 0.8416 21.2184 -0.7732 -1.2127 1.3054
# 2 0.8416 48.3414 5.0204 -8.6982 -6.8411 3.3200
# 3 21.2184 5.0204 79.7544 4.2347 -13.4530 -4.2960
# 4 -0.7732 -8.6982 4.2347 28.7100 -3.3048 -1.8210
# 5 -1.2127 -6.8411 -13.4530 -3.3048 28.0711 -0.2549
# 6 1.3054 3.3200 -4.2960 -1.8210 -0.2549 33.4896
#
#
#
# Elastic Compliance Matrix: (Units=1/GPa)
#
#
# Indices 1 2 3 4 5 6 
#
# 1 0.022349 0.000369 -0.006450 0.001341 -0.001893 -0.001677
# 2 0.000369 0.023178 -0.001055 0.007759 0.006055 -0.001979
# 3 -0.006450 -0.001055 0.015690 -0.001880 0.006783 0.002318
# 4 0.001341 0.007759 -0.001880 0.038202 0.005555 0.001057
# 5 -0.001893 0.006055 0.006783 0.005555 0.040931 0.000957
# 6 -0.001677 -0.001979 0.002318 0.001057 0.000957 0.030484
#
#
# Mechanical properties :
#
#
# Convention : Reuss Voigt Hill
#
# Bulk Modulus (GPa) = 21.30097 25.90596 23.60346
# Shear Modulus (GPa) = 24.90636 28.18164 26.54400
#
# Velocity S-wave (km/s) = 3.57547 3.80331 3.69115
# Velocity P-wave (km/s) = 5.28949 5.70823 5.50285
#
# Compressibility (1/GPa) = 0.04694622
#
# Stress axis : x y z
#
# Youngs Moduli (GPa) = 44.74572 43.14399 63.73599
#
# Poissons Ratio (x) = -0.01593 0.41109
# Poissons Ratio (y) = -0.01652 0.06721
# Poissons Ratio (z) = 0.28860 0.04550
#
# Static dielectric constant tensor:
#      x y z
#    x 1.736580 0.059770 0.000560 
#    y 0.059770 1.710570 0.015880 
#    z 0.000560 0.015880 1.697040 
# 
# From -- ./inp_files/205421.got.cif
#   From: 2010.05.17/outbox.cif.g08.bks.cpg/sg2_103_cif.got.tgz:205421.got - 2010.06.03 11:33:40.
