data_PCOD9095794
_publ_section_title
;
Structure prediction by ZEFSAII (Michael W. Deem and Ramdas Pophale) SiO2 
 PCOD9095794
Probable space group: P -1
;
_chemical_formula_sum "Si O2"
_cell_formula_units_Z 14
_cell_length_a 7.235513
_cell_length_b 9.787664
_cell_length_c 13.845013
_cell_angle_alpha 137.107651
_cell_angle_beta 123.763712
_cell_angle_gamma 43.918995
_cell_volume 462.078463
_symmetry_space_group_name_H-M "P -1"
_symmetry_group_IT_number 2
_symmetry_cell_setting 'triclinic'
loop_
_space_group_symop_operation_xyz
x,y,z
-x,-y,-z
loop_
_atom_site_type_symbol
_atom_site_label
_atom_site_fract_x
_atom_site_fract_y
_atom_site_fract_z
Si Si1 0.200091 0.235873 0.970445
Si Si2 0.033359 0.943205 0.314849
Si Si3 0.141094 0.303655 0.631669
Si Si4 0.258785 0.992160 0.203457
Si Si5 0.681700 0.659659 0.494497
Si Si6 0.366553 0.443245 0.269683
Si Si7 0.837104 0.320992 0.089105
O O1 0.422421 0.248558 0.102920
O O2 0.038994 0.225286 0.008890
O O3 0.000000 0.500000 0.000000
O O4 0.226927 0.047433 0.799525
O O5 0.190692 0.691238 0.285796
O O6 0.062866 0.113204 0.486167
O O7 0.161792 0.958128 0.260959
O O8 0.344368 0.260247 0.581843
O O9 0.272979 0.396779 0.793621
O O10 0.833210 0.523626 0.686013
O O11 0.418700 0.112797 0.347612
O O12 0.992248 0.197886 0.170735
O O13 0.353220 0.769536 0.041520
O O14 0.592053 0.478155 0.393377
O O15 0.000000 0.500000 0.500000
#
# Coordination Sequence:
#
# PCOD9095794 Si02
#       7
#     2   2   2   2   2   2   2
#     4   8  16  33  56  82 116 154 188 235 293 342
#     4   9  18  34  60  85 118 154 188 239 293 345
#     4  10  20  35  60  85 117 149 194 239 286 348
#     4   9  18  32  56  80 115 150 193 233 294 336
#     4  11  22  38  58  86 116 154 196 245 289 339
#     4  10  21  37  59  87 117 155 194 237 293 348
#     4   9  16  32  55  83 109 157 188 233 288 342
#
# _framework density 30.297888
#
# number of rings (size 3 to 8) (size 9 to 14) (size 15 to 20)
#    0.000    2.571    1.429    0.429    0.000    2.857 
#    0.000    1.429    0.000   35.143    0.000    0.000 
#    0.000    0.000    0.000    0.000    0.000    0.000 
#
# Total GULP energy -78029.969575 kJ/mol
# GULP energy per Si atom -5573.569255 kJ/mol
# Density = 3.022893 g / cm^3
# Si number density = 30.297888 Si / 1000 Ang^3
#
#
#
# Elastic Constant Matrix: (Units=GPa)
#
#
# Indices 1 2 3 4 5 6 
#
# 1 131.3361 22.4902 49.1594 -0.5421 -15.6853 12.7081
# 2 22.4902 75.6232 41.9240 -14.5662 -2.6369 20.6317
# 3 49.1594 41.9240 379.1143 37.9947 46.8360 -7.5579
# 4 -0.5421 -14.5662 37.9947 74.7512 2.5938 3.2059
# 5 -15.6853 -2.6369 46.8360 2.5938 62.5331 -4.2229
# 6 12.7081 20.6317 -7.5579 3.2059 -4.2229 43.0016
#
#
#
# Elastic Compliance Matrix: (Units=1/GPa)
#
#
# Indices 1 2 3 4 5 6 
#
# 1 0.008960 -0.000964 -0.001560 0.000653 0.003200 -0.002194
# 2 -0.000964 0.018853 -0.002933 0.005500 0.001880 -0.009501
# 3 -0.001560 -0.002933 0.003854 -0.002537 -0.003132 0.002427
# 4 0.000653 0.005500 -0.002537 0.015883 0.001345 -0.004330
# 5 0.003200 0.001880 -0.003132 0.001345 0.019122 -0.000620
# 6 -0.002194 -0.009501 0.002427 -0.004330 -0.000620 0.029150
#
#
# Mechanical properties :
#
#
# Convention : Reuss Voigt Hill
#
# Bulk Modulus (GPa) = 48.18349 90.35786 69.27067
# Shear Modulus (GPa) = 43.99362 67.55717 55.77539
#
# Velocity S-wave (km/s) = 3.81469 4.72716 4.29523
# Velocity P-wave (km/s) = 5.94477 7.72545 6.89286
#
# Compressibility (1/GPa) = 0.02075400
#
# Stress axis : x y z
#
# Youngs Moduli (GPa) = 111.60613 53.04175 259.47907
#
# Poissons Ratio (x) = 0.05114 0.40471
# Poissons Ratio (y) = 0.10761 0.76096
# Poissons Ratio (z) = 0.17407 0.15555
#
# Static dielectric constant tensor:
#      x y z
#    x 2.421620 1.064190 -0.115070 
#    y 1.064190 10.725440 -2.029340 
#    z -0.115070 -2.029340 3.004730 
# 
# From -- ./inp_files/501035.got.cif
#   From: 2010.05.17/outbox.cif.g08.bks.cpg/sg2_251_cif.got.tgz:501035.got - 2010.06.03 11:33:40.
