data_PCOD9095770
_publ_section_title
;
Structure prediction by ZEFSAII (Michael W. Deem and Ramdas Pophale) SiO2 
 PCOD9095770
Probable space group: P -1
;
_chemical_formula_sum "Si O2"
_cell_formula_units_Z 16
_cell_length_a 13.722752
_cell_length_b 5.273044
_cell_length_c 12.331405
_cell_angle_alpha 88.877869
_cell_angle_beta 127.010898
_cell_angle_gamma 78.373867
_cell_volume 686.491541
_symmetry_space_group_name_H-M "P -1"
_symmetry_group_IT_number 2
_symmetry_cell_setting 'triclinic'
loop_
_space_group_symop_operation_xyz
x,y,z
-x,-y,-z
loop_
_atom_site_type_symbol
_atom_site_label
_atom_site_fract_x
_atom_site_fract_y
_atom_site_fract_z
Si Si1 0.807864 0.585713 0.337487
Si Si2 0.022847 0.180729 0.395365
Si Si3 0.110193 0.129879 0.037775
Si Si4 0.630521 0.070730 0.105386
Si Si5 0.375364 0.788096 0.139404
Si Si6 0.460601 0.789985 0.725720
Si Si7 0.770136 0.307515 0.516908
Si Si8 0.085708 0.479655 0.226277
O O1 0.905708 0.727685 0.456914
O O2 0.736690 0.530140 0.399041
O O3 0.877095 0.315117 0.324568
O O4 0.730623 0.794700 0.199452
O O5 0.055882 0.306364 0.305594
O O6 0.092857 0.876477 0.427969
O O7 0.126690 0.316393 0.145919
O O8 0.239936 0.919389 0.100313
O O9 0.045857 0.306285 0.891290
O O10 0.000000 0.000000 0.000000
O O11 0.605567 0.222977 0.201010
O O12 0.650225 0.214111 0.007613
O O13 0.500000 0.000000 0.000000
O O14 0.441221 0.493181 0.224372
O O15 0.465909 0.982745 0.221934
O O16 0.342641 0.832969 0.563031
O O17 0.802617 0.404752 0.653963
#
# Coordination Sequence:
#
# PCOD9095770 Si02
#       8
#     2   2   2   2   2   2   2   2
#     4  10  20  35  59  95 139 183 232 273 338 414
#     4  10  20  37  61  93 134 180 232 278 344 406
#     4  11  25  49  73  98 133 174 235 302 351 410
#     4  10  20  41  64  99 142 186 224 277 341 416
#     4  11  26  44  74 103 139 187 239 285 347 412
#     4  11  24  44  69 104 145 187 229 282 342 427
#     4  11  21  40  65  98 142 186 222 288 348 415
#     4  10  24  42  71  94 133 176 228 287 367 400
#
# _framework density 23.306916999999999
#
# number of rings (size 3 to 8) (size 9 to 14) (size 15 to 20)
#    0.000    1.500    1.250    3.750    5.250    1.000 
#    9.000    1.250    0.000    0.000    0.000    0.000 
#    0.000    0.000    0.000    0.000    0.000    0.000 
#
# Total GULP energy -89445.632030 kJ/mol
# GULP energy per Si atom -5590.352002 kJ/mol
# Density = 2.325387 g / cm^3
# Si number density = 23.306917 Si / 1000 Ang^3
#
#
#
# Elastic Constant Matrix: (Units=GPa)
#
#
# Indices 1 2 3 4 5 6 
#
# 1 71.5690 17.9069 21.4169 0.2940 16.3010 -12.4558
# 2 17.9069 96.1889 30.9104 2.9383 13.4737 -9.7754
# 3 21.4169 30.9104 118.5060 17.1691 5.9912 2.4730
# 4 0.2940 2.9383 17.1691 50.0014 5.5138 6.7977
# 5 16.3010 13.4737 5.9912 5.5138 24.1478 -8.5093
# 6 -12.4558 -9.7754 2.4730 6.7977 -8.5093 30.8385
#
#
#
# Elastic Compliance Matrix: (Units=1/GPa)
#
#
# Indices 1 2 3 4 5 6 
#
# 1 0.017982 -0.000650 -0.002876 0.001435 -0.009896 0.004241
# 2 -0.000650 0.012410 -0.002993 0.000527 -0.005014 0.002412
# 3 -0.002876 -0.002993 0.010180 -0.003167 0.001134 -0.001916
# 4 0.001435 0.000527 -0.003167 0.022754 -0.007850 -0.006181
# 5 -0.009896 -0.005014 0.001134 -0.007850 0.056504 0.011645
# 6 0.004241 0.002412 -0.001916 -0.006181 0.011645 0.039634
#
#
# Mechanical properties :
#
#
# Convention : Reuss Voigt Hill
#
# Bulk Modulus (GPa) = 36.31821 47.41472 41.86647
# Shear Modulus (GPa) = 27.52092 35.39952 31.46022
#
# Velocity S-wave (km/s) = 3.44001 3.90146 3.67798
# Velocity P-wave (km/s) = 5.60309 6.37832 6.00323
#
# Compressibility (1/GPa) = 0.02753439
#
# Stress axis : x y z
#
# Youngs Moduli (GPa) = 55.61128 80.57867 98.22804
#
# Poissons Ratio (x) = 0.05238 0.28254
# Poissons Ratio (y) = 0.03615 0.29397
# Poissons Ratio (z) = 0.15996 0.24115
#
# Static dielectric constant tensor:
#      x y z
#    x 1.894360 0.017150 0.006000 
#    y 0.017150 1.864730 -0.001800 
#    z 0.006000 -0.001800 1.898960 
# 
# From -- ./inp_files/441993.got.cif
#   From: 2010.05.17/outbox.cif.g08.bks.cpg/sg2_221_cif.got.tgz:441993.got - 2010.06.03 11:33:40.
