data_PCOD9095314
_publ_section_title
;
Structure prediction by ZEFSAII (Michael W. Deem and Ramdas Pophale) SiO2 
 PCOD9095314
Probable space group: P -1
;
_chemical_formula_sum "Si O2"
_cell_formula_units_Z 16
_cell_length_a 10.984290
_cell_length_b 14.458977
_cell_length_c 12.724694
_cell_angle_alpha 148.176414
_cell_angle_beta 54.252565
_cell_angle_gamma 104.314873
_cell_volume 703.221559
_symmetry_space_group_name_H-M "P -1"
_symmetry_group_IT_number 2
_symmetry_cell_setting 'triclinic'
loop_
_space_group_symop_operation_xyz
x,y,z
-x,-y,-z
loop_
_atom_site_type_symbol
_atom_site_label
_atom_site_fract_x
_atom_site_fract_y
_atom_site_fract_z
Si Si1 0.664624 0.843265 0.186099
Si Si2 0.040946 0.820018 0.221029
Si Si3 0.413023 0.905147 0.020622
Si Si4 0.981593 0.158688 0.445080
Si Si5 0.375214 0.525575 0.188365
Si Si6 0.510142 0.872788 0.630739
Si Si7 0.479210 0.499434 0.678472
Si Si8 0.863645 0.588380 0.033306
O O1 0.835088 0.692648 0.031595
O O2 0.500000 0.000000 0.500000
O O3 0.660741 0.971910 0.211525
O O4 0.611205 0.691228 0.022122
O O5 0.977553 0.662745 0.106430
O O6 0.945529 0.983635 0.329377
O O7 0.259139 0.663763 0.949151
O O8 0.000000 0.000000 0.500000
O O9 0.203366 0.022605 0.198312
O O10 0.419121 0.999869 0.223096
O O11 0.500000 0.000000 0.000000
O O12 0.523140 0.644702 0.728342
O O13 0.838934 0.285718 0.545271
O O14 0.927750 0.348552 0.739740
O O15 0.443761 0.541652 0.281775
O O16 0.500000 0.500000 0.000000
O O17 0.475212 0.735176 0.595831
O O18 0.674367 0.706462 0.307814
#
# Coordination Sequence:
#
# PCOD9095314 Si02
#       8
#     2   2   2   2   2   2   2   2
#     4   9  19  31  52  87 125 164 185 226 295 365
#     4  11  21  31  52  84 124 161 192 230 289 366
#     4  11  25  46  64  81 115 163 217 263 292 335
#     4  10  23  37  58  90 121 158 199 246 298 358
#     4  11  20  34  58  93 132 157 188 232 304 382
#     4  11  21  36  61  89 123 157 198 245 304 363
#     4  11  23  37  58  90 113 158 204 245 304 355
#     4  10  20  35  56  91 129 156 186 235 307 374
#
# _framework density 22.752431999999999
#
# number of rings (size 3 to 8) (size 9 to 14) (size 15 to 20)
#    0.000    1.500    1.250    6.000    7.000    2.000 
#    0.000    0.625    0.000    0.750    0.000    0.000 
#    0.000    0.000    0.000    0.000    0.000    0.000 
#
# Total GULP energy -89171.181223 kJ/mol
# GULP energy per Si atom -5573.198826 kJ/mol
# Density = 2.270065 g / cm^3
# Si number density = 22.752432 Si / 1000 Ang^3
#
#
#
# Elastic Constant Matrix: (Units=GPa)
#
#
# Indices 1 2 3 4 5 6 
#
# 1 96.3322 29.3205 17.6128 18.0190 2.0199 3.0914
# 2 29.3205 128.9707 35.3735 46.3102 -5.1065 7.1557
# 3 17.6128 35.3735 61.1344 37.4462 2.4021 0.7705
# 4 18.0190 46.3102 37.4462 43.6575 2.5423 5.7063
# 5 2.0199 -5.1065 2.4021 2.5423 27.4441 20.2341
# 6 3.0914 7.1557 0.7705 5.7063 20.2341 35.1365
#
#
#
# Elastic Compliance Matrix: (Units=1/GPa)
#
#
# Indices 1 2 3 4 5 6 
#
# 1 0.011472 -0.001635 -0.001045 -0.002082 -0.001098 0.000317
# 2 -0.001635 0.013564 0.001487 -0.014837 0.007067 -0.004311
# 3 -0.001045 0.001487 0.035829 -0.032525 -0.005090 0.007217
# 4 -0.002082 -0.014837 -0.032525 0.068316 -0.001387 -0.006378
# 5 -0.001098 0.007067 -0.005090 -0.001387 0.068036 -0.040186
# 6 0.000317 -0.004311 0.007217 -0.006378 -0.040186 0.053330
#
#
# Mechanical properties :
#
#
# Convention : Reuss Voigt Hill
#
# Bulk Modulus (GPa) = 17.09963 50.11677 33.60820
# Shear Modulus (GPa) = 18.35375 34.85632 26.60504
#
# Velocity S-wave (km/s) = 2.84328 3.91830 3.42325
# Velocity P-wave (km/s) = 4.27911 6.52270 5.51618
#
# Compressibility (1/GPa) = 0.05848080
#
# Stress axis : x y z
#
# Youngs Moduli (GPa) = 87.17151 73.72356 27.91028
#
# Poissons Ratio (x) = 0.12053 0.02915
# Poissons Ratio (y) = 0.14252 -0.04151
# Poissons Ratio (z) = 0.09105 -0.10966
#
# Static dielectric constant tensor:
#      x y z
#    x 1.939160 0.108500 0.000130 
#    y 0.108500 1.979660 0.124110 
#    z 0.000130 0.124110 1.808050 
# 
# From -- ./inp_files/522595.got.cif
#   From: 2010.05.17/outbox.cif.g08.bks.cpg/sg2_262_cif.got.tgz:522595.got - 2010.06.03 11:33:40.
