data_PCOD9095754
_publ_section_title
;
Structure prediction by ZEFSAII (Michael W. Deem and Ramdas Pophale) SiO2 
 PCOD9095754
Probable space group: P -1
;
_chemical_formula_sum "Si O2"
_cell_formula_units_Z 16
_cell_length_a 13.706310
_cell_length_b 19.835632
_cell_length_c 8.591563
_cell_angle_alpha 117.247258
_cell_angle_beta 119.378861
_cell_angle_gamma 20.586567
_cell_volume 715.690653
_symmetry_space_group_name_H-M "P -1"
_symmetry_group_IT_number 2
_symmetry_cell_setting 'triclinic'
loop_
_space_group_symop_operation_xyz
x,y,z
-x,-y,-z
loop_
_atom_site_type_symbol
_atom_site_label
_atom_site_fract_x
_atom_site_fract_y
_atom_site_fract_z
Si Si1 0.941064 0.323955 0.549782
Si Si2 0.673872 0.007355 0.709390
Si Si3 0.861912 0.030850 0.552843
Si Si4 0.680552 0.181870 0.894381
Si Si5 0.531559 0.347676 0.247627
Si Si6 0.398719 0.268377 0.215490
Si Si7 0.445733 0.081778 0.890593
Si Si8 0.959904 0.590626 0.436718
O O1 0.184707 0.207640 0.727885
O O2 0.880219 0.427924 0.482650
O O3 0.684820 0.469780 0.622986
O O4 0.078884 0.169696 0.400274
O O5 0.647399 0.113260 0.834702
O O6 0.688981 0.945105 0.808137
O O7 0.367717 0.182556 0.577939
O O8 0.150327 0.824192 0.643988
O O9 0.680741 0.184607 0.709925
O O10 0.641195 0.113411 0.377706
O O11 0.000000 0.000000 0.500000
O O12 0.501179 0.351226 0.041350
O O13 0.000000 0.000000 0.000000
O O14 0.478504 0.295315 0.216020
O O15 0.087866 0.469491 0.257852
O O16 0.393150 0.198855 0.032811
O O17 0.500000 0.000000 0.000000
O O18 0.000000 0.500000 0.500000
#
# Coordination Sequence:
#
# PCOD9095754 Si02
#       8
#     2   2   2   2   2   2   2   2
#     4  10  24  41  60  91 131 170 206 262 322 381
#     4  11  23  42  64  90 133 169 208 263 322 378
#     4   9  19  36  62  94 119 154 205 268 314 365
#     4  10  20  37  64  90 117 161 212 259 308 366
#     4   9  19  40  62  90 118 161 212 263 305 371
#     4  10  20  35  59  92 124 159 212 260 308 368
#     4  11  24  37  60  90 135 171 209 253 325 378
#     4  10  21  34  62  93 120 162 215 258 309 376
#
# _framework density 22.356027000000001
#
# number of rings (size 3 to 8) (size 9 to 14) (size 15 to 20)
#    0.000    2.000    1.250    2.250    7.000    1.500 
#    0.000    3.750    0.000    0.750    0.000    0.000 
#    0.000    0.000    0.000    0.000    0.000    0.000 
#
# Total GULP energy -89113.762187 kJ/mol
# GULP energy per Si atom -5569.610137 kJ/mol
# Density = 2.230514 g / cm^3
# Si number density = 22.356027 Si / 1000 Ang^3
#
#
#
# Elastic Constant Matrix: (Units=GPa)
#
#
# Indices 1 2 3 4 5 6 
#
# 1 110.8939 28.0685 38.1333 2.4209 -28.5536 3.1829
# 2 28.0685 84.0288 46.9759 25.7598 -16.0377 -12.9104
# 3 38.1333 46.9759 98.4637 21.5871 -20.8147 -8.2933
# 4 2.4209 25.7598 21.5871 45.5692 -6.6801 -12.3683
# 5 -28.5536 -16.0377 -20.8147 -6.6801 36.8276 3.2639
# 6 3.1829 -12.9104 -8.2933 -12.3683 3.2639 21.6392
#
#
#
# Elastic Compliance Matrix: (Units=1/GPa)
#
#
# Indices 1 2 3 4 5 6 
#
# 1 0.012772 -0.002419 -0.002932 0.002026 0.007957 -0.004487
# 2 -0.002419 0.019106 -0.006075 -0.006021 0.001408 0.005773
# 3 -0.002932 -0.006075 0.015627 -0.003204 0.003291 0.000469
# 4 0.002026 -0.006021 -0.003204 0.030223 0.001564 0.011920
# 5 0.007957 0.001408 0.003291 0.001564 0.036404 -0.003666
# 6 -0.004487 0.005773 0.000469 0.011920 -0.003666 0.057863
#
#
# Mechanical properties :
#
#
# Convention : Reuss Voigt Hill
#
# Bulk Modulus (GPa) = 40.56266 57.74911 49.15589
# Shear Modulus (GPa) = 24.62273 32.82113 28.72193
#
# Velocity S-wave (km/s) = 3.32232 3.83575 3.58823
# Velocity P-wave (km/s) = 5.73589 6.74574 6.26121
#
# Compressibility (1/GPa) = 0.02465321
#
# Stress axis : x y z
#
# Youngs Moduli (GPa) = 78.29915 52.33922 63.99025
#
# Poissons Ratio (x) = 0.12660 0.18765
# Poissons Ratio (y) = 0.18939 0.38872
# Poissons Ratio (z) = 0.22961 0.31794
#
# Static dielectric constant tensor:
#      x y z
#    x 1.884610 0.010010 -0.061150 
#    y 0.010010 1.863440 -0.005480 
#    z -0.061150 -0.005480 1.897880 
# 
# From -- ./inp_files/242933.got.cif
#   From: 2010.05.17/outbox.cif.g08.bks.cpg/sg2_122_cif.got.tgz:242933.got - 2010.06.03 11:33:40.
