data_PCOD9095005
_publ_section_title
;
Structure prediction by ZEFSAII (Michael W. Deem and Ramdas Pophale) SiO2 
 PCOD9095005
Probable space group: P -1
;
_chemical_formula_sum "Si O2"
_cell_formula_units_Z 12
_cell_length_a 12.720605
_cell_length_b 9.820412
_cell_length_c 11.143423
_cell_angle_alpha 123.074227
_cell_angle_beta 69.878404
_cell_angle_gamma 62.363627
_cell_volume 613.937376
_symmetry_space_group_name_H-M "P -1"
_symmetry_group_IT_number 2
_symmetry_cell_setting 'triclinic'
loop_
_space_group_symop_operation_xyz
x,y,z
-x,-y,-z
loop_
_atom_site_type_symbol
_atom_site_label
_atom_site_fract_x
_atom_site_fract_y
_atom_site_fract_z
Si Si1 0.693919 0.661882 0.405384
Si Si2 0.191353 0.744752 0.218080
Si Si3 0.640621 0.056801 0.515116
Si Si4 0.025372 0.177108 0.862934
Si Si5 0.389436 0.506557 0.456570
Si Si6 0.523939 0.390958 0.092185
O O1 0.530016 0.793724 0.438053
O O2 0.653914 0.609438 0.515525
O O3 0.670785 0.883348 0.519493
O O4 0.907053 0.363108 0.118721
O O5 0.374639 0.476102 0.103609
O O6 0.131106 0.689759 0.113296
O O7 0.267118 0.815089 0.151094
O O8 0.000000 0.000000 0.500000
O O9 0.579535 0.305691 0.708335
O O10 0.839898 0.842847 0.255587
O O11 0.180297 0.843758 0.665617
O O12 0.500000 0.500000 0.500000
O O13 0.519228 0.331039 0.200118
#
# Coordination Sequence:
#
# PCOD9095005 Si02
#       6
#     2   2   2   2   2   2
#     4  11  21  34  54  82 117 141 170 220 281 322
#     4  11  19  35  59  81 101 141 191 227 252 309
#     4  10  20  35  52  82 113 143 176 216 269 329
#     4  11  20  35  58  82 106 144 187 218 262 320
#     4  11  19  35  53  82 116 137 175 227 273 314
#     4  10  21  35  57  83 106 139 182 227 263 313
#
# _framework density 19.545966
#
# number of rings (size 3 to 8) (size 9 to 14) (size 15 to 20)
#    0.000    1.333    8.333    1.000    0.000    0.000 
#    0.000    0.000    0.000    8.000    0.000    0.000 
#    0.000    0.000    0.000    0.000    0.000    0.000 
#
# Total GULP energy -66948.185135 kJ/mol
# GULP energy per Si atom -5579.015428 kJ/mol
# Density = 1.950148 g / cm^3
# Si number density = 19.545966 Si / 1000 Ang^3
#
#
#
# Elastic Constant Matrix: (Units=GPa)
#
#
# Indices 1 2 3 4 5 6 
#
# 1 32.5507 18.2500 19.1514 -0.1499 -16.3890 -2.3403
# 2 18.2500 134.2328 38.8586 -34.6719 -3.5594 24.6731
# 3 19.1514 38.8586 96.6086 -36.9027 -20.9449 8.8898
# 4 -0.1499 -34.6719 -36.9027 38.3630 4.0532 -2.9210
# 5 -16.3890 -3.5594 -20.9449 4.0532 28.9762 -3.6906
# 6 -2.3403 24.6731 8.8898 -2.9210 -3.6906 35.3358
#
#
#
# Elastic Compliance Matrix: (Units=1/GPa)
#
#
# Indices 1 2 3 4 5 6 
#
# 1 0.062126 -0.014231 -0.011140 -0.025256 0.031166 0.018021
# 2 -0.014231 0.014531 0.001884 0.014926 -0.008418 -0.011208
# 3 -0.011140 0.001884 0.021856 0.021654 0.006046 -0.005130
# 4 -0.025256 0.014926 0.021654 0.060002 -0.006887 -0.013302
# 5 0.031166 -0.008418 0.006046 -0.006887 0.057954 0.011904
# 6 0.018021 -0.011208 -0.005130 -0.013302 0.011904 0.038754
#
#
# Mechanical properties :
#
#
# Convention : Reuss Voigt Hill
#
# Bulk Modulus (GPa) = 19.40301 46.21247 32.80774
# Shear Modulus (GPa) = 15.65544 33.01047 24.33295
#
# Velocity S-wave (km/s) = 2.83319 4.11404 3.53215
# Velocity P-wave (km/s) = 4.54434 6.80157 5.78413
#
# Compressibility (1/GPa) = 0.05153840
#
# Stress axis : x y z
#
# Youngs Moduli (GPa) = 16.09642 68.81605 45.75428
#
# Poissons Ratio (x) = 0.97933 0.50971
# Poissons Ratio (y) = 0.22907 -0.08620
# Poissons Ratio (z) = 0.17932 -0.12965
#
# Static dielectric constant tensor:
#      x y z
#    x 1.699080 -0.000060 -0.007510 
#    y -0.000060 1.695740 -0.018720 
#    z -0.007510 -0.018720 1.733260 
# 
# From -- ./inp_files/172508.got.cif
#   From: 2010.05.17/outbox.cif.g08.bks.cpg/sg2_87_cif.got.tgz:172508.got - 2010.06.03 11:33:40.
