data_PCOD9095329
_publ_section_title
;
Structure prediction by ZEFSAII (Michael W. Deem and Ramdas Pophale) SiO2 
 PCOD9095329
Probable space group: P -1
;
_chemical_formula_sum "Si O2"
_cell_formula_units_Z 14
_cell_length_a 20.813737
_cell_length_b 10.990257
_cell_length_c 7.337098
_cell_angle_alpha 116.209265
_cell_angle_beta 133.182701
_cell_angle_gamma 31.274201
_cell_volume 588.081662
_symmetry_space_group_name_H-M "P -1"
_symmetry_group_IT_number 2
_symmetry_cell_setting 'triclinic'
loop_
_space_group_symop_operation_xyz
x,y,z
-x,-y,-z
loop_
_atom_site_type_symbol
_atom_site_label
_atom_site_fract_x
_atom_site_fract_y
_atom_site_fract_z
Si Si1 0.715131 0.201707 0.768302
Si Si2 0.684529 0.371777 0.463090
Si Si3 0.854833 0.502548 0.599259
Si Si4 0.639041 0.531013 0.116381
Si Si5 0.910107 0.329151 0.964165
Si Si6 0.093918 0.171197 0.546374
Si Si7 0.672210 0.980500 0.378599
O O1 0.617978 0.384318 0.521347
O O2 0.308641 0.669717 0.024510
O O3 0.684081 0.082018 0.623244
O O4 0.909270 0.961034 0.932163
O O5 0.780853 0.376537 0.730119
O O6 0.572519 0.568789 0.210228
O O7 0.807173 0.099264 0.436149
O O8 0.028355 0.297520 0.699117
O O9 0.727665 0.771343 0.441478
O O10 0.868036 0.493715 0.836755
O O11 0.790836 0.433188 0.388183
O O12 0.504829 0.783363 0.902845
O O13 0.933393 0.354860 0.228635
O O14 0.202543 0.134788 0.615688
#
# Coordination Sequence:
#
# PCOD9095329 Si02
#       7
#     2   2   2   2   2   2   2
#     4  10  20  35  57  80 110 142 179 227 272 317
#     4   9  18  33  56  85 109 137 183 229 267 316
#     4  11  21  37  59  80 109 147 182 220 269 323
#     4  11  21  37  59  80 109 147 182 220 269 323
#     4   9  18  33  56  85 109 137 183 229 267 316
#     4  10  20  35  57  80 110 142 179 227 272 317
#     4  10  23  38  53  82 116 144 178 222 271 324
#
# _framework density 23.806218000000001
#
# number of rings (size 3 to 8) (size 9 to 14) (size 15 to 20)
#    0.000    2.286    0.000    5.571    0.000    6.857 
#    0.000    7.143    0.000    5.143    0.000    0.000 
#    0.000    0.000    0.000    0.000    0.000    0.000 
#
# Total GULP energy -78292.656522 kJ/mol
# GULP energy per Si atom -5592.332609 kJ/mol
# Density = 2.375203 g / cm^3
# Si number density = 23.806218 Si / 1000 Ang^3
#
#
#
# Elastic Constant Matrix: (Units=GPa)
#
#
# Indices 1 2 3 4 5 6 
#
# 1 61.2646 21.2966 10.6236 1.5116 -21.1114 12.9069
# 2 21.2966 48.0027 21.0880 7.5102 -5.9260 9.9819
# 3 10.6236 21.0880 44.2241 -8.1537 -23.4858 6.5893
# 4 1.5116 7.5102 -8.1537 24.8011 9.3233 -1.9767
# 5 -21.1114 -5.9260 -23.4858 9.3233 39.9708 -5.3225
# 6 12.9069 9.9819 6.5893 -1.9767 -5.3225 22.2933
#
#
#
# Elastic Compliance Matrix: (Units=1/GPa)
#
#
# Indices 1 2 3 4 5 6 
#
# 1 0.026517 -0.011361 0.008956 -0.002314 0.016914 -0.009079
# 2 -0.011361 0.038778 -0.023525 -0.015049 -0.011621 -0.007941
# 3 0.008956 -0.023525 0.048262 0.012357 0.026520 -0.001489
# 4 -0.002314 -0.015049 0.012357 0.052467 -0.007459 0.007297
# 5 0.016914 -0.011621 0.026520 -0.007459 0.049378 -0.001300
# 6 -0.009079 -0.007941 -0.001489 0.007297 -0.001300 0.054446
#
#
# Mechanical properties :
#
#
# Convention : Reuss Voigt Hill
#
# Bulk Modulus (GPa) = 16.20794 28.83420 22.52107
# Shear Modulus (GPa) = 14.60817 24.11194 19.36005
#
# Velocity S-wave (km/s) = 2.47984 3.18597 2.85482
# Velocity P-wave (km/s) = 3.87589 5.06678 4.51081
#
# Compressibility (1/GPa) = 0.06169816
#
# Stress axis : x y z
#
# Youngs Moduli (GPa) = 37.71120 25.78749 20.72016
#
# Poissons Ratio (x) = 0.29297 -0.18557
# Poissons Ratio (y) = 0.42844 0.48744
# Poissons Ratio (z) = -0.33775 0.60665
#
# Static dielectric constant tensor:
#      x y z
#    x 1.923700 -0.021340 0.004790 
#    y -0.021340 1.880450 -0.035670 
#    z 0.004790 -0.035670 1.929970 
# 
# From -- ./inp_files/352703.got.cif
#   From: 2010.05.17/outbox.cif.g08.bks.cpg/sg2_177_cif.got.tgz:352703.got - 2010.06.03 11:33:40.
