data_PCOD9095442
_publ_section_title
;
Structure prediction by ZEFSAII (Michael W. Deem and Ramdas Pophale) SiO2 
 PCOD9095442
Probable space group: P -1
;
_chemical_formula_sum "Si O2"
_cell_formula_units_Z 16
_cell_length_a 13.499379
_cell_length_b 5.626687
_cell_length_c 14.107200
_cell_angle_alpha 90.904511
_cell_angle_beta 38.062359
_cell_angle_gamma 93.722582
_cell_volume 658.141052
_symmetry_space_group_name_H-M "P -1"
_symmetry_group_IT_number 2
_symmetry_cell_setting 'triclinic'
loop_
_space_group_symop_operation_xyz
x,y,z
-x,-y,-z
loop_
_atom_site_type_symbol
_atom_site_label
_atom_site_fract_x
_atom_site_fract_y
_atom_site_fract_z
Si Si1 0.616258 0.583182 0.557964
Si Si2 0.576614 0.077868 0.542782
Si Si3 0.341612 0.125643 0.102506
Si Si4 0.242725 0.599573 0.831665
Si Si5 0.245293 0.421674 0.351281
Si Si6 0.908796 0.299227 0.691714
Si Si7 0.799513 0.611704 0.939233
Si Si8 0.215044 0.101666 0.874510
O O1 0.669532 0.342031 0.468015
O O2 0.431134 0.600092 0.667447
O O3 0.633298 0.522004 0.654821
O O4 0.679573 0.860162 0.495062
O O5 0.500000 0.000000 0.500000
O O6 0.413355 0.103441 0.729524
O O7 0.187776 0.937780 0.198590
O O8 0.311836 0.252444 0.223514
O O9 0.348912 0.312497 0.011964
O O10 0.500000 0.000000 0.000000
O O11 0.168509 0.843675 0.863918
O O12 0.175094 0.336648 0.846938
O O13 0.234546 0.582145 0.953107
O O14 0.186828 0.632221 0.331281
O O15 0.088763 0.292175 0.520058
O O16 0.907000 0.503488 0.775762
O O17 0.847468 0.838640 0.973194
#
# Coordination Sequence:
#
# PCOD9095442 Si02
#       8
#     2   2   2   2   2   2   2   2
#     4  10  21  35  59  83 117 158 189 238 303 364
#     4  10  20  35  57  89 120 145 185 248 313 366
#     4  11  24  31  56  82 113 155 203 256 291 339
#     4   8  16  28  50  76 108 134 183 228 283 332
#     4  10  24  38  54  79 116 172 194 250 284 356
#     4  10  22  40  52  76 122 160 215 237 289 340
#     4   9  19  32  51  77 108 150 191 241 287 337
#     4   8  16  28  50  76 110 139 172 229 285 346
#
# _framework density 24.310897000000001
#
# number of rings (size 3 to 8) (size 9 to 14) (size 15 to 20)
#    0.750    1.750    0.000    1.500    8.750    1.000 
#    0.000    0.000    0.000    0.000    0.000    1.750 
#    0.000    0.000    0.000    0.000    0.000    0.000 
#
# Total GULP energy -89137.291770 kJ/mol
# GULP energy per Si atom -5571.080736 kJ/mol
# Density = 2.425556 g / cm^3
# Si number density = 24.310897 Si / 1000 Ang^3
#
#
#
# Elastic Constant Matrix: (Units=GPa)
#
#
# Indices 1 2 3 4 5 6 
#
# 1 58.5080 36.0399 45.8121 14.7093 11.1590 -8.2014
# 2 36.0399 175.5515 -1.8083 18.3094 15.7575 -4.6939
# 3 45.8121 -1.8083 11.8249 -12.4428 35.0650 13.2139
# 4 14.7093 18.3094 -12.4428 28.8414 14.2482 13.1441
# 5 11.1590 15.7575 35.0650 14.2482 11.5978 -17.4691
# 6 -8.2014 -4.6939 13.2139 13.1441 -17.4691 7.7888
#
#
#
# Elastic Compliance Matrix: (Units=1/GPa)
#
#
# Indices 1 2 3 4 5 6 
#
# 1 0.029281 -0.004913 -0.010745 0.005243 -0.025506 -0.019953
# 2 -0.004913 0.007229 0.002788 -0.004669 0.001797 0.006363
# 3 -0.010745 0.002788 0.016498 -0.013579 0.020519 0.031313
# 4 0.005243 -0.004669 -0.013579 0.026226 0.007463 -0.001774
# 5 -0.025506 0.001797 0.020519 0.007463 0.030740 -0.004234
# 6 -0.019953 0.006363 0.031313 -0.001774 -0.004234 0.051590
#
#
# Mechanical properties :
#
#
# Convention : Reuss Voigt Hill
#
# Bulk Modulus (GPa) = 36.67395 45.10801 40.89098
# Shear Modulus (GPa) = 25.45903 20.70164 23.08034
#
# Velocity S-wave (km/s) = 3.23960 2.92128 3.08455
# Velocity P-wave (km/s) = 5.39551 5.47480 5.43530
#
# Compressibility (1/GPa) = 0.02726731
#
# Stress axis : x y z
#
# Youngs Moduli (GPa) = 34.15166 138.32305 60.61398
#
# Poissons Ratio (x) = 0.67957 0.65132
# Poissons Ratio (y) = 0.16778 -0.16897
# Poissons Ratio (z) = 0.36697 -0.38560
#
# Static dielectric constant tensor:
#      x y z
#    x 1.915810 0.013660 -0.017880 
#    y 0.013660 2.144990 -0.066910 
#    z -0.017880 -0.066910 1.951360 
# 
# From -- ./inp_files/525365.got.cif
#   From: 2010.05.17/outbox.cif.g08.bks.cpg/sg2_263_cif.got.tgz:525365.got - 2010.06.03 11:33:40.
