data_PCOD9095459
_publ_section_title
;
Structure prediction by ZEFSAII (Michael W. Deem and Ramdas Pophale) SiO2 
 PCOD9095459
Probable space group: P -1
;
_chemical_formula_sum "Si O2"
_cell_formula_units_Z 16
_cell_length_a 7.761243
_cell_length_b 12.626631
_cell_length_c 17.631320
_cell_angle_alpha 138.523231
_cell_angle_beta 116.249633
_cell_angle_gamma 96.148799
_cell_volume 692.408061
_symmetry_space_group_name_H-M "P -1"
_symmetry_group_IT_number 2
_symmetry_cell_setting 'triclinic'
loop_
_space_group_symop_operation_xyz
x,y,z
-x,-y,-z
loop_
_atom_site_type_symbol
_atom_site_label
_atom_site_fract_x
_atom_site_fract_y
_atom_site_fract_z
Si Si1 0.575232 0.858207 0.137366
Si Si2 0.975301 0.391346 0.708923
Si Si3 0.847498 0.193168 0.880935
Si Si4 0.194378 0.022334 0.606323
Si Si5 0.319910 0.164075 0.240962
Si Si6 0.729209 0.245396 0.736341
Si Si7 0.848271 0.585949 0.681617
Si Si8 0.755047 0.238805 0.275503
O O1 0.440473 0.918203 0.195232
O O2 0.753090 0.874780 0.244685
O O3 0.750730 0.060523 0.217210
O O4 0.302187 0.600922 0.912045
O O5 0.945648 0.239976 0.557192
O O6 0.759308 0.203913 0.633579
O O7 0.865102 0.492737 0.710867
O O8 0.814797 0.157489 0.765091
O O9 0.903728 0.072628 0.877766
O O10 0.049585 0.470118 0.076073
O O11 0.486422 0.185476 0.704435
O O12 0.000000 0.000000 0.500000
O O13 0.579963 0.365704 0.458675
O O14 0.194195 0.251272 0.231641
O O15 0.461084 0.145387 0.191095
O O16 0.142362 0.722520 0.769225
O O17 0.000000 0.500000 0.500000
#
# Coordination Sequence:
#
# PCOD9095459 Si02
#       8
#     2   2   2   2   2   2   2   2
#     4   9  20  39  61  86 122 163 201 251 313 362
#     4  11  22  40  63  88 122 161 206 256 304 375
#     4   8  15  34  63  83 118 156 201 252 303 361
#     4  11  23  41  60  91 124 156 203 254 312 378
#     4   9  18  35  58  90 122 162 209 261 301 369
#     4   9  18  36  60  87 113 160 199 245 313 362
#     4  10  20  35  57  92 124 162 214 248 308 379
#     4   9  17  36  60  82 123 172 197 253 315 352
#
# _framework density 23.107761
#
# number of rings (size 3 to 8) (size 9 to 14) (size 15 to 20)
#    0.000    2.500    0.000    4.125    0.000    1.000 
#   13.500    5.625    0.000    0.000    0.000    0.000 
#    0.000    0.000    0.000    0.000    0.000    0.000 
#
# Total GULP energy -89194.988764 kJ/mol
# GULP energy per Si atom -5574.686798 kJ/mol
# Density = 2.305517 g / cm^3
# Si number density = 23.107761 Si / 1000 Ang^3
#
#
#
# Elastic Constant Matrix: (Units=GPa)
#
#
# Indices 1 2 3 4 5 6 
#
# 1 51.6006 23.9029 1.2924 2.4522 -3.2624 -3.8916
# 2 23.9029 105.4077 3.9265 11.6207 7.5541 0.7407
# 3 1.2924 3.9265 62.4121 -1.7465 4.7799 -3.2992
# 4 2.4522 11.6207 -1.7465 36.1634 3.6549 3.5062
# 5 -3.2624 7.5541 4.7799 3.6549 13.6868 -1.6315
# 6 -3.8916 0.7407 -3.2992 3.5062 -1.6315 36.1423
#
#
#
# Elastic Compliance Matrix: (Units=1/GPa)
#
#
# Indices 1 2 3 4 5 6 
#
# 1 0.022952 -0.005773 -0.000709 -0.000995 0.009534 0.003052
# 2 -0.005773 0.011601 -0.000184 -0.002530 -0.007153 -0.000954
# 3 -0.000709 -0.000184 0.016612 0.001429 -0.006128 0.001029
# 4 -0.000995 -0.002530 0.001429 0.029679 -0.007641 -0.003149
# 5 0.009534 -0.007153 -0.006128 -0.007641 0.084078 0.005150
# 6 0.003052 -0.000954 0.001029 -0.003149 0.005150 0.028648
#
#
# Mechanical properties :
#
#
# Convention : Reuss Voigt Hill
#
# Bulk Modulus (GPa) = 26.43123 30.85156 28.64139
# Shear Modulus (GPa) = 22.77750 29.88505 26.33128
#
# Velocity S-wave (km/s) = 3.14300 3.60014 3.37931
# Velocity P-wave (km/s) = 4.96330 5.53728 5.25813
#
# Compressibility (1/GPa) = 0.03783404
#
# Stress axis : x y z
#
# Youngs Moduli (GPa) = 43.56922 86.19749 60.19575
#
# Poissons Ratio (x) = 0.49765 0.04266
# Poissons Ratio (y) = 0.25154 0.01106
# Poissons Ratio (z) = 0.03088 0.01583
#
# Static dielectric constant tensor:
#      x y z
#    x 1.850860 -0.058640 -0.014990 
#    y -0.058640 1.914520 -0.098090 
#    z -0.014990 -0.098090 1.994740 
# 
# From -- ./inp_files/559246.got.cif
#   From: 2010.05.17/outbox.cif.g08.bks.cpg/sg2_280_cif.got.tgz:559246.got - 2010.06.03 11:33:40.
