data_PCOD9095214
_publ_section_title
;
Structure prediction by ZEFSAII (Michael W. Deem and Ramdas Pophale) SiO2 
 PCOD9095214
Probable space group: P -1
;
_chemical_formula_sum "Si O2"
_cell_formula_units_Z 12
_cell_length_a 13.838710
_cell_length_b 7.716768
_cell_length_c 12.554709
_cell_angle_alpha 115.517312
_cell_angle_beta 29.508324
_cell_angle_gamma 131.106892
_cell_volume 460.050268
_symmetry_space_group_name_H-M "P -1"
_symmetry_group_IT_number 2
_symmetry_cell_setting 'triclinic'
loop_
_space_group_symop_operation_xyz
x,y,z
-x,-y,-z
loop_
_atom_site_type_symbol
_atom_site_label
_atom_site_fract_x
_atom_site_fract_y
_atom_site_fract_z
Si Si1 0.686080 0.933799 0.291462
Si Si2 0.115638 0.479730 0.076875
Si Si3 0.707153 0.536899 0.559557
Si Si4 0.749148 0.218171 0.670222
Si Si5 0.591207 0.795033 0.572761
Si Si6 0.419753 0.221195 0.127681
O O1 0.563867 0.741736 0.260862
O O2 0.634832 0.776983 0.404448
O O3 0.500000 0.000000 0.500000
O O4 0.962766 0.197783 0.108339
O O5 0.922202 0.522516 0.313640
O O6 0.299074 0.649575 0.847566
O O7 0.316176 0.581366 0.008010
O O8 0.701002 0.700418 0.519416
O O9 0.727666 0.672246 0.684384
O O10 0.000000 0.500000 0.500000
O O11 0.727093 0.080104 0.547943
O O12 0.719145 0.039667 0.745851
O O13 0.505710 0.202091 0.925269
#
# Coordination Sequence:
#
# PCOD9095214 Si02
#       6
#     2   2   2   2   2   2
#     4  10  20  35  56  80 108 141 177 217 262 315
#     4   9  19  36  55  78 111 141 171 218 263 311
#     4   9  19  35  55  81 109 139 176 216 261 315
#     4   9  17  34  56  75 104 140 174 217 262 309
#     4  10  21  36  55  79 106 142 179 215 266 313
#     4   9  19  34  54  79 105 139 176 212 264 313
#
# _framework density 26.084105000000001
#
# number of rings (size 3 to 8) (size 9 to 14) (size 15 to 20)
#    0.000    3.000    0.000    1.500    0.000    5.333 
#    0.000   30.000    0.000   21.000    0.000    0.000 
#    0.000    0.000    0.000    0.000    0.000    0.000 
#
# Total GULP energy -67119.416747 kJ/mol
# GULP energy per Si atom -5593.284729 kJ/mol
# Density = 2.602474 g / cm^3
# Si number density = 26.084105 Si / 1000 Ang^3
#
#
#
# Elastic Constant Matrix: (Units=GPa)
#
#
# Indices 1 2 3 4 5 6 
#
# 1 48.0329 21.5704 17.9687 -1.4310 -4.3384 -8.1935
# 2 21.5704 169.3330 60.8410 -2.3356 -6.1470 15.5625
# 3 17.9687 60.8410 136.2167 9.3552 -19.6154 -0.3331
# 4 -1.4310 -2.3356 9.3552 62.0878 6.2787 -0.6569
# 5 -4.3384 -6.1470 -19.6154 6.2787 37.9129 -2.7538
# 6 -8.1935 15.5625 -0.3331 -0.6569 -2.7538 40.2561
#
#
#
# Elastic Compliance Matrix: (Units=1/GPa)
#
#
# Indices 1 2 3 4 5 6 
#
# 1 0.023980 -0.002971 -0.001603 0.000567 0.001786 0.006147
# 2 -0.002971 0.007787 -0.003323 0.000807 -0.001200 -0.003711
# 3 -0.001603 -0.003323 0.009883 -0.002127 0.004841 0.001337
# 4 0.000567 0.000807 -0.002127 0.016843 -0.003708 -0.000193
# 5 0.001786 -0.001200 0.004841 -0.003708 0.029711 0.002839
# 6 0.006147 -0.003711 0.001337 -0.000193 0.002839 0.027729
#
#
# Mechanical properties :
#
#
# Convention : Reuss Voigt Hill
#
# Bulk Modulus (GPa) = 38.67707 61.59365 50.13536
# Shear Modulus (GPa) = 35.62629 44.93153 40.27891
#
# Velocity S-wave (km/s) = 3.69971 4.15488 3.93389
# Velocity P-wave (km/s) = 5.75418 6.83243 6.31635
#
# Compressibility (1/GPa) = 0.02585511
#
# Stress axis : x y z
#
# Youngs Moduli (GPa) = 41.70183 128.42375 101.17944
#
# Poissons Ratio (x) = 0.38155 0.16219
# Poissons Ratio (y) = 0.12390 0.33626
# Poissons Ratio (z) = 0.06685 0.42680
#
# Static dielectric constant tensor:
#      x y z
#    x 2.075620 0.011870 0.001060 
#    y 0.011870 2.082290 0.030030 
#    z 0.001060 0.030030 2.085320 
# 
# From -- ./inp_files/313848.got.cif
#   From: 2010.05.17/outbox.cif.g08.bks.cpg/sg2_157_cif.got.tgz:313848.got - 2010.06.03 11:33:40.
