data_PCOD9095940
_publ_section_title
;
Structure prediction by ZEFSAII (Michael W. Deem and Ramdas Pophale) SiO2 
 PCOD9095940
Probable space group: P -1
;
_chemical_formula_sum "Si O2"
_cell_formula_units_Z 12
_cell_length_a 9.151222
_cell_length_b 8.231066
_cell_length_c 10.974137
_cell_angle_alpha 40.792110
_cell_angle_beta 108.940819
_cell_angle_gamma 101.950999
_cell_volume 509.801832
_symmetry_space_group_name_H-M "P -1"
_symmetry_group_IT_number 2
_symmetry_cell_setting 'triclinic'
loop_
_space_group_symop_operation_xyz
x,y,z
-x,-y,-z
loop_
_atom_site_type_symbol
_atom_site_label
_atom_site_fract_x
_atom_site_fract_y
_atom_site_fract_z
Si Si1 0.560268 0.645452 0.586706
Si Si2 0.755579 0.118388 0.946075
Si Si3 0.005836 0.658186 0.586286
Si Si4 0.695701 0.664425 0.352641
Si Si5 0.182378 0.144374 0.337037
Si Si6 0.888763 0.790068 0.979449
O O1 0.661756 0.381464 0.781699
O O2 0.594009 0.723902 0.412925
O O3 0.386351 0.566130 0.598580
O O4 0.640848 0.840062 0.583264
O O5 0.933474 0.141441 0.022072
O O6 0.686651 0.907907 0.128997
O O7 0.778084 0.017359 0.871673
O O8 0.107017 0.415539 0.795564
O O9 0.870490 0.610795 0.479936
O O10 0.916179 0.741048 0.640465
O O11 0.109654 0.879503 0.449101
O O12 0.161434 0.290867 0.121192
#
# Coordination Sequence:
#
# PCOD9095940 Si02
#       6
#     2   2   2   2   2   2
#     4  10  22  38  62  85 111 150 193 239 276 331
#     4  11  22  36  57  89 114 153 184 234 286 337
#     4  10  20  35  61  86 111 149 191 238 279 328
#     4  10  20  38  58  86 113 149 195 229 278 342
#     4  10  20  36  58  86 114 146 192 238 280 326
#     4  11  22  35  58  88 119 145 187 236 287 336
#
# _framework density 23.538557000000001
#
# number of rings (size 3 to 8) (size 9 to 14) (size 15 to 20)
#    0.000    1.667    5.000    1.000    0.000    2.000 
#    0.000    0.833    0.000   10.000    0.000    0.000 
#    0.000    0.000    0.000    0.000    0.000    0.000 
#
# Total GULP energy -67108.131588 kJ/mol
# GULP energy per Si atom -5592.344299 kJ/mol
# Density = 2.348498 g / cm^3
# Si number density = 23.538557 Si / 1000 Ang^3
#
#
#
# Elastic Constant Matrix: (Units=GPa)
#
#
# Indices 1 2 3 4 5 6 
#
# 1 97.6818 52.4880 48.6168 -8.5805 2.4698 8.9173
# 2 52.4880 94.7778 26.4001 9.6064 3.3511 46.3308
# 3 48.6168 26.4001 104.2720 -1.2376 -22.2516 15.0069
# 4 -8.5805 9.6064 -1.2376 36.8206 3.1079 -5.9862
# 5 2.4698 3.3511 -22.2516 3.1079 30.4082 -11.7865
# 6 8.9173 46.3308 15.0069 -5.9862 -11.7865 46.8433
#
#
#
# Elastic Compliance Matrix: (Units=1/GPa)
#
#
# Indices 1 2 3 4 5 6 
#
# 1 0.032958 -0.035866 -0.010052 0.022175 0.005893 0.036737
# 2 -0.035866 0.072667 0.002836 -0.037439 -0.029488 -0.078157
# 3 -0.010052 0.002836 0.016520 -0.004120 0.011539 -0.003807
# 4 0.022175 -0.037439 -0.004120 0.048019 0.011091 0.043055
# 5 0.005893 -0.029488 0.011539 0.011091 0.058676 0.040528
# 6 0.036737 -0.078157 -0.003807 0.043055 0.040528 0.108576
#
#
# Mechanical properties :
#
#
# Convention : Reuss Voigt Hill
#
# Bulk Modulus (GPa) = 27.79319 61.30460 44.54890
# Shear Modulus (GPa) = 11.47905 34.09619 22.78762
#
# Velocity S-wave (km/s) = 2.21072 3.81008 3.11480
# Velocity P-wave (km/s) = 4.28364 6.74214 5.64827
#
# Compressibility (1/GPa) = 0.03598003
#
# Stress axis : x y z
#
# Youngs Moduli (GPa) = 30.34178 13.76133 60.53091
#
# Poissons Ratio (x) = 0.49357 0.60847
# Poissons Ratio (y) = 1.08825 -0.17165
# Poissons Ratio (z) = 0.30500 -0.03902
#
# Static dielectric constant tensor:
#      x y z
#    x 1.888390 0.013060 0.021550 
#    y 0.013060 1.914290 -0.007780 
#    z 0.021550 -0.007780 1.874980 
# 
# From -- ./inp_files/195181.got.cif
#   From: 2010.05.17/outbox.cif.g08.bks.cpg/sg2_98_cif.got.tgz:195181.got - 2010.06.03 11:33:40.
