data_PCOD9095266
_publ_section_title
;
Structure prediction by ZEFSAII (Michael W. Deem and Ramdas Pophale) SiO2 
 PCOD9095266
Probable space group: P -1
;
_chemical_formula_sum "Si O2"
_cell_formula_units_Z 16
_cell_length_a 5.332489
_cell_length_b 14.703079
_cell_length_c 12.021734
_cell_angle_alpha 105.689785
_cell_angle_beta 58.746091
_cell_angle_gamma 86.528003
_cell_volume 752.284301
_symmetry_space_group_name_H-M "P -1"
_symmetry_group_IT_number 2
_symmetry_cell_setting 'triclinic'
loop_
_space_group_symop_operation_xyz
x,y,z
-x,-y,-z
loop_
_atom_site_type_symbol
_atom_site_label
_atom_site_fract_x
_atom_site_fract_y
_atom_site_fract_z
Si Si1 0.485802 0.506943 0.835525
Si Si2 0.140540 0.409449 0.068013
Si Si3 0.347863 0.958333 0.378194
Si Si4 0.533333 0.216850 0.880049
Si Si5 0.081578 0.700695 0.344004
Si Si6 0.404200 0.803827 0.489236
Si Si7 0.692001 0.081777 0.993386
Si Si8 0.250300 0.921748 0.763633
O O1 0.660979 0.584526 0.866466
O O2 0.748330 0.411880 0.714113
O O3 0.217532 0.548375 0.824073
O O4 0.288323 0.472778 0.968255
O O5 0.224458 0.299689 0.965950
O O6 0.427647 0.877855 0.236439
O O7 0.482178 0.895848 0.435953
O O8 0.449540 0.050255 0.336851
O O9 0.000000 0.000000 0.500000
O O10 0.789959 0.267802 0.792132
O O11 0.559498 0.176876 0.984836
O O12 0.212368 0.758138 0.429920
O O13 0.720022 0.730187 0.426933
O O14 0.209229 0.843358 0.656928
O O15 0.739343 0.104860 0.118461
O O16 0.500000 0.000000 0.000000
O O17 0.004904 0.024472 0.846671
#
# Coordination Sequence:
#
# PCOD9095266 Si02
#       8
#     2   2   2   2   2   2   2   2
#     4   9  17  33  51  82 113 144 172 223 306 352
#     4   9  18  30  53  78 114 145 179 228 281 359
#     4  11  21  37  59  83 120 156 194 245 292 344
#     4  10  20  35  56  83 114 151 196 234 282 342
#     4  10  21  35  59  87 119 144 182 240 296 361
#     4  11  22  35  57  86 112 150 192 236 288 346
#     4  11  23  39  56  77 116 161 201 246 277 327
#     4  11  23  37  57  79 112 160 202 240 289 334
#
# _framework density 21.268556
#
# number of rings (size 3 to 8) (size 9 to 14) (size 15 to 20)
#    0.000    1.750    1.250    4.125    1.750    7.000 
#    0.000    0.000    0.000    0.000    0.000    5.250 
#    0.000    0.000    0.000    0.000    0.000    0.000 
#
# Total GULP energy -89277.816407 kJ/mol
# GULP energy per Si atom -5579.863525 kJ/mol
# Density = 2.122015 g / cm^3
# Si number density = 21.268556 Si / 1000 Ang^3
#
#
#
# Elastic Constant Matrix: (Units=GPa)
#
#
# Indices 1 2 3 4 5 6 
#
# 1 105.3354 24.9363 32.0122 12.6748 -10.3748 -17.8140
# 2 24.9363 47.0343 21.6463 17.7542 2.5330 -9.8785
# 3 32.0122 21.6463 69.6377 13.3703 1.5370 -7.3375
# 4 12.6748 17.7542 13.3703 20.5941 -1.9038 -1.2901
# 5 -10.3748 2.5330 1.5370 -1.9038 32.6859 4.8973
# 6 -17.8140 -9.8785 -7.3375 -1.2901 4.8973 21.4578
#
#
#
# Elastic Compliance Matrix: (Units=1/GPa)
#
#
# Indices 1 2 3 4 5 6 
#
# 1 0.013274 -0.002985 -0.004055 -0.002188 0.003407 0.007350
# 2 -0.002985 0.038862 -0.003423 -0.029258 -0.007634 0.014225
# 3 -0.004055 -0.003423 0.018850 -0.006924 -0.002562 0.001672
# 4 -0.002188 -0.029258 -0.006924 0.079501 0.008757 -0.014873
# 5 0.003407 -0.007634 -0.002562 0.008757 0.034223 -0.008846
# 6 0.007350 0.014225 0.001672 -0.014873 -0.008846 0.060951
#
#
# Mechanical properties :
#
#
# Convention : Reuss Voigt Hill
#
# Bulk Modulus (GPa) = 19.97567 42.13299 31.05433
# Shear Modulus (GPa) = 17.65075 24.50840 21.07958
#
# Velocity S-wave (km/s) = 2.88392 3.39828 3.15161
# Velocity P-wave (km/s) = 4.52790 5.93723 5.27980
#
# Compressibility (1/GPa) = 0.05006089
#
# Stress axis : x y z
#
# Youngs Moduli (GPa) = 75.33305 25.73200 53.05025
#
# Poissons Ratio (x) = 0.07682 0.21511
# Poissons Ratio (y) = 0.22489 0.18158
# Poissons Ratio (z) = 0.30546 0.08807
#
# Static dielectric constant tensor:
#      x y z
#    x 1.683120 -0.109910 0.044570 
#    y -0.109910 1.686130 0.030840 
#    z 0.044570 0.030840 1.812330 
# 
# From -- ./inp_files/367842.got.cif
#   From: 2010.05.17/outbox.cif.g08.bks.cpg/sg2_184_cif.got.tgz:367842.got - 2010.06.03 11:33:40.
