data_PCOD9095800
_publ_section_title
;
Structure prediction by ZEFSAII (Michael W. Deem and Ramdas Pophale) SiO2 
 PCOD9095800
Probable space group: P -1
;
_chemical_formula_sum "Si O2"
_cell_formula_units_Z 16
_cell_length_a 9.846782
_cell_length_b 17.587423
_cell_length_c 8.545253
_cell_angle_alpha 40.311328
_cell_angle_beta 133.300342
_cell_angle_gamma 125.774792
_cell_volume 690.757892
_symmetry_space_group_name_H-M "P -1"
_symmetry_group_IT_number 2
_symmetry_cell_setting 'triclinic'
loop_
_space_group_symop_operation_xyz
x,y,z
-x,-y,-z
loop_
_atom_site_type_symbol
_atom_site_label
_atom_site_fract_x
_atom_site_fract_y
_atom_site_fract_z
Si Si1 0.997346 0.855564 0.598244
Si Si2 0.493352 0.364880 0.442984
Si Si3 0.635785 0.120874 0.955159
Si Si4 0.258802 0.139048 0.039716
Si Si5 0.167484 0.343322 0.440559
Si Si6 0.719320 0.752021 0.815833
Si Si7 0.155989 0.943980 0.049813
Si Si8 0.133393 0.450271 0.557332
O O1 0.978233 0.741805 0.647443
O O2 0.858738 0.819366 0.692113
O O3 0.918089 0.960619 0.277495
O O4 0.206824 0.890487 0.772249
O O5 0.532818 0.233612 0.733966
O O6 0.322607 0.405781 0.344542
O O7 0.428813 0.336639 0.258449
O O8 0.677712 0.457631 0.453035
O O9 0.500000 0.000000 0.000000
O O10 0.746852 0.144939 0.840620
O O11 0.350253 0.159439 0.250546
O O12 0.285376 0.255418 0.771275
O O13 0.293874 0.022725 0.154362
O O14 0.031046 0.115679 0.920506
O O15 0.076541 0.419821 0.379485
O O16 0.826679 0.669882 0.139537
O O17 0.000000 0.500000 0.500000
#
# Coordination Sequence:
#
# PCOD9095800 Si02
#       8
#     2   2   2   2   2   2   2   2
#     4  10  20  38  62  90 122 166 212 248 306 366
#     4  11  24  41  63  91 128 165 202 248 310 373
#     4  12  23  35  58  91 127 162 210 251 293 362
#     4   9  18  34  62  84 117 161 209 243 305 348
#     4   9  21  42  65  87 121 163 203 250 315 366
#     4  10  20  39  63  88 123 162 202 252 311 366
#     4  10  20  35  60  85 122 166 209 251 299 354
#     4  11  23  42  69  95 119 154 204 262 311 363
#
# _framework density 23.162963999999999
#
# number of rings (size 3 to 8) (size 9 to 14) (size 15 to 20)
#    0.000    1.750    1.250    4.125    3.500    0.000 
#    0.000   11.250    0.000    0.000    0.000    0.000 
#    0.000    0.000    0.000    0.000    0.000    0.000 
#
# Total GULP energy -89382.365750 kJ/mol
# GULP energy per Si atom -5586.397859 kJ/mol
# Density = 2.311024 g / cm^3
# Si number density = 23.162964 Si / 1000 Ang^3
#
#
#
# Elastic Constant Matrix: (Units=GPa)
#
#
# Indices 1 2 3 4 5 6 
#
# 1 103.7889 44.2440 13.2136 10.6667 -6.4757 -32.9714
# 2 44.2440 137.6548 23.0600 29.3821 -10.7649 -22.5010
# 3 13.2136 23.0600 39.2643 8.5333 -6.3032 -11.4096
# 4 10.6667 29.3821 8.5333 36.8793 -6.2385 -11.9165
# 5 -6.4757 -10.7649 -6.3032 -6.2385 26.6636 0.3448
# 6 -32.9714 -22.5010 -11.4096 -11.9165 0.3448 49.5319
#
#
#
# Elastic Compliance Matrix: (Units=1/GPa)
#
#
# Indices 1 2 3 4 5 6 
#
# 1 0.013490 -0.003162 -0.000410 0.001607 0.002178 0.007821
# 2 -0.003162 0.010313 -0.003369 -0.006235 0.001137 0.000297
# 3 -0.000410 -0.003369 0.030167 -0.001787 0.005193 0.004679
# 4 0.001607 -0.006235 -0.001787 0.034975 0.005554 0.006202
# 5 0.002178 0.001137 0.005193 0.005554 0.040965 0.004213
# 6 0.007821 0.000297 0.004679 0.006202 0.004213 0.028070
#
#
# Mechanical properties :
#
#
# Convention : Reuss Voigt Hill
#
# Bulk Modulus (GPa) = 24.94510 49.08256 37.01383
# Shear Modulus (GPa) = 26.99422 35.96099 31.47760
#
# Velocity S-wave (km/s) = 3.41751 3.94448 3.69041
# Velocity P-wave (km/s) = 5.13471 6.47930 5.84579
#
# Compressibility (1/GPa) = 0.04008803
#
# Stress axis : x y z
#
# Youngs Moduli (GPa) = 74.12880 96.96222 33.14876
#
# Poissons Ratio (x) = 0.30656 0.01360
# Poissons Ratio (y) = 0.23437 0.11169
# Poissons Ratio (z) = 0.03040 0.32671
#
# Static dielectric constant tensor:
#      x y z
#    x 1.953850 -0.069980 0.001900 
#    y -0.069980 1.946160 0.011590 
#    z 0.001900 0.011590 1.876170 
# 
# From -- ./inp_files/216866.got.cif
#   From: 2010.05.17/outbox.cif.g08.bks.cpg/sg2_109_cif.got.tgz:216866.got - 2010.06.03 11:33:40.
