data_PCOD9095596
_publ_section_title
;
Structure prediction by ZEFSAII (Michael W. Deem and Ramdas Pophale) SiO2 
 PCOD9095596
Probable space group: P -1
;
_chemical_formula_sum "Si O2"
_cell_formula_units_Z 16
_cell_length_a 11.973360
_cell_length_b 25.621226
_cell_length_c 7.023913
_cell_angle_alpha 43.654540
_cell_angle_beta 131.421607
_cell_angle_gamma 151.391695
_cell_volume 709.935604
_symmetry_space_group_name_H-M "P -1"
_symmetry_group_IT_number 2
_symmetry_cell_setting 'triclinic'
loop_
_space_group_symop_operation_xyz
x,y,z
-x,-y,-z
loop_
_atom_site_type_symbol
_atom_site_label
_atom_site_fract_x
_atom_site_fract_y
_atom_site_fract_z
Si Si1 0.667223 0.774318 0.742110
Si Si2 0.886793 0.544618 0.658765
Si Si3 0.895542 0.649017 0.051601
Si Si4 0.879173 0.117962 0.141808
Si Si5 0.593774 0.482953 0.816092
Si Si6 0.536045 0.009212 0.742337
Si Si7 0.623625 0.292126 0.068091
Si Si8 0.389718 0.782374 0.147174
O O1 0.522039 0.767795 0.446493
O O2 0.940249 0.876613 0.725094
O O3 0.575480 0.651628 0.961837
O O4 0.599423 0.776868 0.870397
O O5 0.817594 0.583211 0.336357
O O6 0.811493 0.528530 0.833176
O O7 0.740240 0.412735 0.785962
O O8 0.166954 0.649268 0.707184
O O9 0.113749 0.682492 0.141252
O O10 0.697009 0.567411 0.886760
O O11 0.987249 0.768356 0.879006
O O12 0.650714 0.013774 0.289700
O O13 0.784931 0.119782 0.834245
O O14 0.500000 0.500000 0.500000
O O15 0.500000 0.000000 0.500000
O O16 0.491234 0.902578 0.011871
O O17 0.577709 0.216690 0.044872
#
# Coordination Sequence:
#
# PCOD9095596 Si02
#       8
#     2   2   2   2   2   2   2   2
#     4  11  24  41  63  96 137 163 212 267 313 380
#     4  10  20  35  58  90 132 173 212 248 304 373
#     4  11  22  39  67  90 133 174 216 259 312 381
#     4  10  25  44  67  95 125 167 211 270 330 382
#     4  11  24  38  60  98 137 178 215 254 309 376
#     4  10  25  47  71  93 121 162 218 272 332 391
#     4  10  21  35  59  94 130 169 207 254 307 375
#     4  11  23  39  68  96 121 170 218 264 326 374
#
# _framework density 22.537255999999999
#
# number of rings (size 3 to 8) (size 9 to 14) (size 15 to 20)
#    0.000    1.500    2.500    1.500    1.750    9.500 
#    0.000    1.250    0.000    0.000    0.000    0.000 
#    0.000    0.000    0.000    0.000    0.000    0.000 
#
# Total GULP energy -89381.648369 kJ/mol
# GULP energy per Si atom -5586.353023 kJ/mol
# Density = 2.248596 g / cm^3
# Si number density = 22.537256 Si / 1000 Ang^3
#
#
#
# Elastic Constant Matrix: (Units=GPa)
#
#
# Indices 1 2 3 4 5 6 
#
# 1 140.0632 42.7236 20.4886 19.2464 -16.3313 27.5496
# 2 42.7236 46.5160 17.4363 11.8472 -6.1812 0.8682
# 3 20.4886 17.4363 93.3833 7.9320 0.0716 9.0054
# 4 19.2464 11.8472 7.9320 16.5816 -9.1498 6.0813
# 5 -16.3313 -6.1812 0.0716 -9.1498 37.0247 9.1381
# 6 27.5496 0.8682 9.0054 6.0813 9.1381 46.2260
#
#
#
# Elastic Compliance Matrix: (Units=1/GPa)
#
#
# Indices 1 2 3 4 5 6 
#
# 1 0.012854 -0.010635 0.000070 -0.001102 0.005710 -0.008459
# 2 -0.010635 0.036537 -0.003858 -0.018706 -0.005671 0.009986
# 3 0.000070 -0.003858 0.011822 -0.002859 -0.000919 -0.001715
# 4 -0.001102 -0.018706 -0.002859 0.095187 0.023784 -0.015659
# 5 0.005710 -0.005671 -0.000919 0.023784 0.037848 -0.013728
# 6 -0.008459 0.009986 -0.001715 -0.015659 -0.013728 0.031594
#
#
# Mechanical properties :
#
#
# Convention : Reuss Voigt Hill
#
# Bulk Modulus (GPa) = 30.89557 49.02884 39.96221
# Shear Modulus (GPa) = 18.83384 33.25407 26.04395
#
# Velocity S-wave (km/s) = 2.89394 3.84541 3.40309
# Velocity P-wave (km/s) = 4.99049 6.44345 5.76294
#
# Compressibility (1/GPa) = 0.03236710
#
# Stress axis : x y z
#
# Youngs Moduli (GPa) = 77.79421 27.36951 84.58513
#
# Poissons Ratio (x) = 0.29109 -0.00596
# Poissons Ratio (y) = 0.82738 0.32636
# Poissons Ratio (z) = -0.00548 0.10560
#
# Static dielectric constant tensor:
#      x y z
#    x 1.905030 0.046170 0.030120 
#    y 0.046170 1.868200 -0.015060 
#    z 0.030120 -0.015060 1.823130 
# 
# From -- ./inp_files/76206.got.cif
#   From: 2010.05.17/outbox.cif.g08.bks.cpg/sg2_39_cif.got.tgz:76206.got - 2010.06.03 11:33:40.
