data_PCOD9095696
_publ_section_title
;
Structure prediction by ZEFSAII (Michael W. Deem and Ramdas Pophale) SiO2 
 PCOD9095696
Probable space group: P -1
;
_chemical_formula_sum "Si O2"
_cell_formula_units_Z 14
_cell_length_a 17.546546
_cell_length_b 9.194254
_cell_length_c 14.435997
_cell_angle_alpha 105.624206
_cell_angle_beta 21.193858
_cell_angle_gamma 96.572959
_cell_volume 745.795155
_symmetry_space_group_name_H-M "P -1"
_symmetry_group_IT_number 2
_symmetry_cell_setting 'triclinic'
loop_
_space_group_symop_operation_xyz
x,y,z
-x,-y,-z
loop_
_atom_site_type_symbol
_atom_site_label
_atom_site_fract_x
_atom_site_fract_y
_atom_site_fract_z
Si Si1 0.993944 0.008115 0.140706
Si Si2 0.722854 0.256678 0.963104
Si Si3 0.057172 0.900682 0.572782
Si Si4 0.565819 0.314490 0.360361
Si Si5 0.976617 0.652784 0.491795
Si Si6 0.288251 0.104421 0.690622
Si Si7 0.481345 0.183574 0.061013
O O1 0.965778 0.082959 0.288227
O O2 0.070788 0.122738 0.005082
O O3 0.772762 0.983946 0.344481
O O4 0.204880 0.826674 0.877871
O O5 0.807595 0.369939 0.822490
O O6 0.626523 0.312818 0.182945
O O7 0.538936 0.217823 0.104874
O O8 0.946227 0.086467 0.691850
O O9 0.935716 0.801610 0.636148
O O10 0.319559 0.810731 0.230267
O O11 0.500000 0.500000 0.500000
O O12 0.359994 0.251632 0.601342
O O13 0.762560 0.694700 0.674653
O O14 0.000000 0.500000 0.500000
O O15 0.500000 0.000000 0.500000
O O16 0.500000 0.000000 0.000000
#
# Coordination Sequence:
#
# PCOD9095696 Si02
#       7
#     2   2   2   2   2   2   2
#     4   9  20  37  60  84 113 149 197 242 282 340
#     4  10  21  37  57  86 111 149 203 233 275 355
#     4  10  20  35  59  88 109 146 201 233 278 354
#     4  10  22  37  58  85 117 151 193 241 291 341
#     4  11  23  38  55  87 125 148 183 243 293 338
#     4   9  19  37  56  79 110 148 193 237 284 334
#     4  11  19  35  64  83 110 154 190 230 286 341
#
# _framework density 18.771909999999998
#
# number of rings (size 3 to 8) (size 9 to 14) (size 15 to 20)
#    0.000    2.000    2.857    0.857    2.000    5.143 
#    0.000    7.143    0.000    0.000    0.000    0.000 
#    0.000    0.000    0.000    0.000    0.000    0.000 
#
# Total GULP energy -77993.239258 kJ/mol
# GULP energy per Si atom -5570.945661 kJ/mol
# Density = 1.872918 g / cm^3
# Si number density = 18.771910 Si / 1000 Ang^3
#
#
#
# Elastic Constant Matrix: (Units=GPa)
#
#
# Indices 1 2 3 4 5 6 
#
# 1 137.6139 42.9405 43.4316 -11.6293 9.0101 5.4146
# 2 42.9405 110.2473 40.1531 -22.1403 18.3969 -7.5200
# 3 43.4316 40.1531 46.2190 -4.9470 3.4866 13.7652
# 4 -11.6293 -22.1403 -4.9470 18.4346 5.8447 -0.1193
# 5 9.0101 18.3969 3.4866 5.8447 35.4011 -5.9177
# 6 5.4146 -7.5200 13.7652 -0.1193 -5.9177 27.1989
#
#
#
# Elastic Compliance Matrix: (Units=1/GPa)
#
#
# Indices 1 2 3 4 5 6 
#
# 1 0.011388 0.003327 -0.013798 0.008748 -0.003906 0.004824
# 2 0.003327 0.029364 -0.029433 0.034577 -0.015727 0.019082
# 3 -0.013798 -0.029433 0.067250 -0.029694 0.010869 -0.037191
# 4 0.008748 0.034577 -0.029694 0.103450 -0.031605 0.016424
# 5 -0.003906 -0.015727 0.010869 -0.031605 0.041533 -0.000174
# 6 0.004824 0.019082 -0.037191 0.016424 -0.000174 0.059938
#
#
# Mechanical properties :
#
#
# Convention : Reuss Voigt Hill
#
# Bulk Modulus (GPa) = 35.46641 60.79230 48.12935
# Shear Modulus (GPa) = 12.43382 27.37725 19.90553
#
# Velocity S-wave (km/s) = 2.57643 3.82306 3.25989
# Velocity P-wave (km/s) = 5.27115 7.20713 6.31379
#
# Compressibility (1/GPa) = 0.02819570
#
# Stress axis : x y z
#
# Youngs Moduli (GPa) = 87.80894 34.05530 14.86986
#
# Poissons Ratio (x) = -0.11331 0.20518
# Poissons Ratio (y) = -0.29217 0.43766
# Poissons Ratio (z) = 1.21159 1.00234
#
# Static dielectric constant tensor:
#      x y z
#    x 1.654970 0.005250 -0.015560 
#    y 0.005250 1.666090 -0.034780 
#    z -0.015560 -0.034780 1.667130 
# 
# From -- ./inp_files/35000.got.cif
#   From: 2010.05.17/outbox.cif.g08.bks.cpg/sg2_18_cif.got.tgz:35000.got - 2010.06.03 11:33:40.
