data_PCOD9095744
_publ_section_title
;
Structure prediction by ZEFSAII (Michael W. Deem and Ramdas Pophale) SiO2 
 PCOD9095744
Probable space group: P -1
;
_chemical_formula_sum "Si O2"
_cell_formula_units_Z 16
_cell_length_a 11.971346
_cell_length_b 11.743785
_cell_length_c 12.103306
_cell_angle_alpha 56.935758
_cell_angle_beta 33.791966
_cell_angle_gamma 77.048616
_cell_volume 690.534465
_symmetry_space_group_name_H-M "P -1"
_symmetry_group_IT_number 2
_symmetry_cell_setting 'triclinic'
loop_
_space_group_symop_operation_xyz
x,y,z
-x,-y,-z
loop_
_atom_site_type_symbol
_atom_site_label
_atom_site_fract_x
_atom_site_fract_y
_atom_site_fract_z
Si Si1 0.309510 0.002675 0.231137
Si Si2 0.301519 0.209883 0.721346
Si Si3 0.289419 0.728898 0.526000
Si Si4 0.400782 0.518192 0.414407
Si Si5 0.182490 0.198330 0.355854
Si Si6 0.953561 0.877483 0.257205
Si Si7 0.198235 0.477744 0.060463
Si Si8 0.047046 0.610030 0.296780
O O1 0.273486 0.878827 0.421956
O O2 0.076520 0.939742 0.384969
O O3 0.357488 0.163461 0.161497
O O4 0.500000 0.000000 0.000000
O O5 0.561217 0.237357 0.504311
O O6 0.306538 0.373288 0.654944
O O7 0.196760 0.163639 0.708772
O O8 0.129071 0.062115 0.014904
O O9 0.440568 0.679431 0.347863
O O10 0.032882 0.587305 0.790117
O O11 0.202048 0.471757 0.513175
O O12 0.606233 0.509228 0.189148
O O13 0.178969 0.348390 0.233584
O O14 0.210424 0.189192 0.467071
O O15 0.097081 0.783600 0.191383
O O16 0.212267 0.608447 0.064316
O O17 0.000000 0.500000 0.500000
#
# Coordination Sequence:
#
# PCOD9095744 Si02
#       8
#     2   2   2   2   2   2   2   2
#     4  10  20  35  59  91 124 156 200 257 316 369
#     4  10  22  41  62  88 127 175 212 252 308 371
#     4  10  21  39  62  90 121 167 214 256 309 364
#     4  10  22  40  64  94 124 166 212 256 316 365
#     4  10  20  37  60  90 124 158 200 255 317 369
#     4  10  21  41  65  89 129 170 207 258 312 371
#     4  10  21  38  64  97 124 158 210 265 315 369
#     4  10  20  40  64  94 127 161 203 255 314 376
#
# _framework density 23.170458
#
# number of rings (size 3 to 8) (size 9 to 14) (size 15 to 20)
#    0.000    2.000    1.250    1.875    0.000    3.000 
#    2.250    6.250    0.000    0.000    0.000    0.000 
#    0.000    0.000    0.000    0.000    0.000    0.000 
#
# Total GULP energy -89308.819129 kJ/mol
# GULP energy per Si atom -5581.801196 kJ/mol
# Density = 2.311772 g / cm^3
# Si number density = 23.170458 Si / 1000 Ang^3
#
#
#
# Elastic Constant Matrix: (Units=GPa)
#
#
# Indices 1 2 3 4 5 6 
#
# 1 95.5947 21.0932 13.4563 -6.8757 -3.1578 -30.7936
# 2 21.0932 90.1907 23.6975 12.6872 2.1188 1.4629
# 3 13.4563 23.6975 68.0772 22.8690 -2.3481 2.1403
# 4 -6.8757 12.6872 22.8690 43.7130 -5.0706 3.9622
# 5 -3.1578 2.1188 -2.3481 -5.0706 23.8396 1.0472
# 6 -30.7936 1.4629 2.1403 3.9622 1.0472 23.9056
#
#
#
# Elastic Compliance Matrix: (Units=1/GPa)
#
#
# Indices 1 2 3 4 5 6 
#
# 1 0.021670 -0.004988 -0.005117 0.005342 0.002730 0.027672
# 2 -0.004988 0.013525 -0.002575 -0.003071 -0.002488 -0.006404
# 3 -0.005117 -0.002575 0.020169 -0.010051 -0.000312 -0.006561
# 4 0.005342 -0.003071 -0.010051 0.030360 0.006331 0.002660
# 5 0.002730 -0.002488 -0.000312 0.006331 0.043814 0.000729
# 6 0.027672 -0.006404 -0.006561 0.002660 0.000729 0.077983
#
#
# Mechanical properties :
#
#
# Convention : Reuss Voigt Hill
#
# Bulk Modulus (GPa) = 33.32940 41.15077 37.24008
# Shear Modulus (GPa) = 20.58607 31.33268 25.95938
#
# Velocity S-wave (km/s) = 2.98394 3.68131 3.35082
# Velocity P-wave (km/s) = 5.12714 5.98899 5.57474
#
# Compressibility (1/GPa) = 0.03000354
#
# Stress axis : x y z
#
# Youngs Moduli (GPa) = 46.14627 73.93675 49.58142
#
# Poissons Ratio (x) = 0.36879 0.25373
# Poissons Ratio (y) = 0.23018 0.12767
# Poissons Ratio (z) = 0.23615 0.19038
#
# Static dielectric constant tensor:
#      x y z
#    x 1.909310 0.027450 0.019840 
#    y 0.027450 1.904880 -0.025870 
#    z 0.019840 -0.025870 1.922540 
# 
# From -- ./inp_files/427699.got.cif
#   From: 2010.05.17/outbox.cif.g08.bks.cpg/sg2_214_cif.got.tgz:427699.got - 2010.06.03 11:33:40.
