data_PCOD9095497
_publ_section_title
;
Structure prediction by ZEFSAII (Michael W. Deem and Ramdas Pophale) SiO2 
 PCOD9095497
Probable space group: P -1
;
_chemical_formula_sum "Si O2"
_cell_formula_units_Z 14
_cell_length_a 9.040365
_cell_length_b 20.270679
_cell_length_c 16.470097
_cell_angle_alpha 13.290822
_cell_angle_beta 77.706851
_cell_angle_gamma 71.547058
_cell_volume 592.259816
_symmetry_space_group_name_H-M "P -1"
_symmetry_group_IT_number 2
_symmetry_cell_setting 'triclinic'
loop_
_space_group_symop_operation_xyz
x,y,z
-x,-y,-z
loop_
_atom_site_type_symbol
_atom_site_label
_atom_site_fract_x
_atom_site_fract_y
_atom_site_fract_z
Si Si1 0.817622 0.333665 0.063087
Si Si2 0.149621 0.746001 0.670607
Si Si3 0.551389 0.112850 0.582113
Si Si4 0.346043 0.901925 0.232211
Si Si5 0.992438 0.152732 0.907806
Si Si6 0.613999 0.511003 0.549246
Si Si7 0.333658 0.137891 0.295645
O O1 0.856046 0.421902 0.042697
O O2 0.748790 0.086376 0.396965
O O3 0.652372 0.644546 0.673443
O O4 0.988686 0.114291 0.252477
O O5 0.337234 0.725694 0.662237
O O6 0.172147 0.501475 0.889517
O O7 0.631867 0.009916 0.784586
O O8 0.589533 0.871524 0.791411
O O9 0.505292 0.578663 0.562866
O O10 0.165819 0.909922 0.226415
O O11 0.352199 0.186364 0.837210
O O12 0.000000 0.500000 0.500000
O O13 0.808035 0.212175 0.891114
O O14 0.000000 0.000000 0.000000
O O15 0.500000 0.500000 0.500000
O O16 0.500000 0.000000 0.500000
#
# Coordination Sequence:
#
# PCOD9095497 Si02
#       7
#     2   2   2   2   2   2   2
#     4  10  20  35  58  83 113 160 198 248 295 361
#     4  10  20  36  58  80 116 158 204 243 297 361
#     4  11  22  37  57  86 123 154 202 257 307 362
#     4  10  23  38  61  91 123 159 204 265 319 382
#     4  10  20  39  66  93 122 162 210 260 318 392
#     4  10  20  40  66  88 116 161 209 251 322 392
#     4  11  18  36  59  84 116 163 204 243 302 362
#
# _framework density 23.638273999999999
#
# number of rings (size 3 to 8) (size 9 to 14) (size 15 to 20)
#    0.000    1.714    4.286    1.286    0.000    2.286 
#    0.000    0.000    0.000    0.000    0.000    0.000 
#    0.000    0.000    0.000    0.000    0.000    0.000 
#
# Total GULP energy -77937.543689 kJ/mol
# GULP energy per Si atom -5566.967406 kJ/mol
# Density = 2.358447 g / cm^3
# Si number density = 23.638274 Si / 1000 Ang^3
#
#
#
# Elastic Constant Matrix: (Units=GPa)
#
#
# Indices 1 2 3 4 5 6 
#
# 1 115.8760 43.0804 28.7271 -11.5528 43.8163 -10.3362
# 2 43.0804 151.1841 50.9367 -28.2810 32.8124 8.7918
# 3 28.7271 50.9367 49.0575 -22.9789 28.2030 -12.0154
# 4 -11.5528 -28.2810 -22.9789 35.7748 -10.4607 9.9800
# 5 43.8163 32.8124 28.2030 -10.4607 47.4866 -5.3332
# 6 -10.3362 8.7918 -12.0154 9.9800 -5.3332 30.0130
#
#
#
# Elastic Compliance Matrix: (Units=1/GPa)
#
#
# Indices 1 2 3 4 5 6 
#
# 1 0.013898 -0.002453 0.001957 -0.000950 -0.011998 0.004472
# 2 -0.002453 0.013132 -0.013412 0.004394 0.000846 -0.011372
# 3 0.001957 -0.013412 0.056856 0.015268 -0.020856 0.018581
# 4 -0.000950 0.004394 0.015268 0.042945 -0.002924 -0.010302
# 5 -0.011998 0.000846 -0.020856 -0.002924 0.042821 -0.004148
# 6 0.004472 -0.011372 0.018581 -0.010302 -0.004148 0.048318
#
#
# Mechanical properties :
#
#
# Convention : Reuss Voigt Hill
#
# Bulk Modulus (GPa) = 17.83503 62.40065 40.11784
# Shear Modulus (GPa) = 18.90531 35.54644 27.22587
#
# Velocity S-wave (km/s) = 2.83110 3.88205 3.39746
# Velocity P-wave (km/s) = 4.27179 6.82270 5.69198
#
# Compressibility (1/GPa) = 0.05606944
#
# Stress axis : x y z
#
# Youngs Moduli (GPa) = 71.95382 76.15130 17.58819
#
# Poissons Ratio (x) = 0.18683 -0.03442
# Poissons Ratio (y) = 0.17654 0.23588
# Poissons Ratio (z) = -0.14080 1.02130
#
# Static dielectric constant tensor:
#      x y z
#    x 2.148910 0.303820 -0.272150 
#    y 0.303820 2.446470 -0.641580 
#    z -0.272150 -0.641580 2.653360 
# 
# From -- ./inp_files/44894.got.cif
#   From: 2010.05.17/outbox.cif.g08.bks.cpg/sg2_23_cif.got.tgz:44894.got - 2010.06.03 11:33:40.
