data_PCOD9095529
_publ_section_title
;
Structure prediction by ZEFSAII (Michael W. Deem and Ramdas Pophale) SiO2 
 PCOD9095529
Probable space group: P -1
;
_chemical_formula_sum "Si O2"
_cell_formula_units_Z 12
_cell_length_a 8.940618
_cell_length_b 12.164584
_cell_length_c 11.182839
_cell_angle_alpha 25.134226
_cell_angle_beta 89.475375
_cell_angle_gamma 95.712465
_cell_volume 499.637798
_symmetry_space_group_name_H-M "P -1"
_symmetry_group_IT_number 2
_symmetry_cell_setting 'triclinic'
loop_
_space_group_symop_operation_xyz
x,y,z
-x,-y,-z
loop_
_atom_site_type_symbol
_atom_site_label
_atom_site_fract_x
_atom_site_fract_y
_atom_site_fract_z
Si Si1 0.583490 0.553455 0.577823
Si Si2 0.893761 0.706068 0.294157
Si Si3 0.960268 0.685480 0.711634
Si Si4 0.178889 0.549520 0.687969
Si Si5 0.747581 0.806194 0.759975
Si Si6 0.448570 0.001726 0.255344
O O1 0.500000 0.500000 0.500000
O O2 0.763632 0.652979 0.447502
O O3 0.538464 0.780111 0.436851
O O4 0.534559 0.272633 0.923312
O O5 0.811547 0.644131 0.227856
O O6 0.000000 0.500000 0.500000
O O7 0.000000 0.000000 0.000000
O O8 0.792001 0.725385 0.706139
O O9 0.004993 0.549614 0.726195
O O10 0.094400 0.963659 0.439076
O O11 0.000000 0.500000 0.000000
O O12 0.278801 0.843324 0.363252
O O13 0.254736 0.443319 0.907150
O O14 0.602196 0.917568 0.690821
#
# Coordination Sequence:
#
# PCOD9095529 Si02
#       6
#     2   2   2   2   2   2
#     4  12  23  38  61  84 113 158 205 246 296 344
#     4  12  28  42  58  85 124 164 204 240 289 352
#     4   8  16  28  52  85 126 147 183 240 313 348
#     4  10  20  35  58  85 123 157 195 247 298 345
#     4   9  16  31  53  91 122 144 187 248 308 345
#     4  11  20  33  60  86 114 146 194 245 299 338
#
# _framework density 24.017399000000001
#
# number of rings (size 3 to 8) (size 9 to 14) (size 15 to 20)
#    0.000    1.667    3.333    1.500    7.000    0.000 
#    0.000    0.000    0.000    0.000    0.000    7.000 
#    0.000    0.000    0.000    0.000    0.000    0.000 
#
# Total GULP energy -66923.175420 kJ/mol
# GULP energy per Si atom -5576.931285 kJ/mol
# Density = 2.396273 g / cm^3
# Si number density = 24.017399 Si / 1000 Ang^3
#
#
#
# Elastic Constant Matrix: (Units=GPa)
#
#
# Indices 1 2 3 4 5 6 
#
# 1 103.2285 68.4916 55.8782 9.0242 -4.0630 -51.7070
# 2 68.4916 123.7023 48.9640 10.2755 -10.3873 -72.8962
# 3 55.8782 48.9640 207.4635 -0.4595 -8.9847 -36.4028
# 4 9.0242 10.2755 -0.4595 26.3033 -20.9485 -1.5042
# 5 -4.0630 -10.3873 -8.9847 -20.9485 32.5354 6.9688
# 6 -51.7070 -72.8962 -36.4028 -1.5042 6.9688 59.9524
#
#
#
# Elastic Compliance Matrix: (Units=1/GPa)
#
#
# Indices 1 2 3 4 5 6 
#
# 1 0.020905 0.000300 -0.003205 -0.016166 -0.012331 0.017476
# 2 0.000300 0.032683 -0.001289 -0.019235 -0.010835 0.039992
# 3 -0.003205 -0.001289 0.006001 0.005136 0.004381 -0.001067
# 4 -0.016166 -0.019235 0.005136 0.103208 0.068182 -0.039548
# 5 -0.012331 -0.010835 0.004381 0.068182 0.076925 -0.028380
# 6 0.017476 0.039992 -0.001067 -0.039548 -0.028380 0.082036
#
#
# Mechanical properties :
#
#
# Convention : Reuss Voigt Hill
#
# Bulk Modulus (GPa) = 19.53093 86.78465 53.15779
# Shear Modulus (GPa) = 14.40040 41.16224 27.78132
#
# Velocity S-wave (km/s) = 2.45129 4.14436 3.40474
# Velocity P-wave (km/s) = 4.02013 7.68853 6.13494
#
# Compressibility (1/GPa) = 0.05120084
#
# Stress axis : x y z
#
# Youngs Moduli (GPa) = 47.83652 30.59726 166.63217
#
# Poissons Ratio (x) = -0.00917 0.53398
# Poissons Ratio (y) = -0.01434 0.21477
# Poissons Ratio (z) = 0.15330 0.03944
#
# Static dielectric constant tensor:
#      x y z
#    x 2.027320 -0.008610 0.027210 
#    y -0.008610 2.007830 -0.029140 
#    z 0.027210 -0.029140 1.886270 
# 
# From -- ./inp_files/50201.got.cif
#   From: 2010.05.17/outbox.cif.g08.bks.cpg/sg2_26_cif.got.tgz:50201.got - 2010.06.03 11:33:40.
