data_PCOD9095669
_publ_section_title
;
Structure prediction by ZEFSAII (Michael W. Deem and Ramdas Pophale) SiO2 
 PCOD9095669
Probable space group: P -1
;
_chemical_formula_sum "Si O2"
_cell_formula_units_Z 16
_cell_length_a 24.361368
_cell_length_b 9.492372
_cell_length_c 20.685663
_cell_angle_alpha 47.669847
_cell_angle_beta 15.407843
_cell_angle_gamma 40.397261
_cell_volume 770.612416
_symmetry_space_group_name_H-M "P -1"
_symmetry_group_IT_number 2
_symmetry_cell_setting 'triclinic'
loop_
_space_group_symop_operation_xyz
x,y,z
-x,-y,-z
loop_
_atom_site_type_symbol
_atom_site_label
_atom_site_fract_x
_atom_site_fract_y
_atom_site_fract_z
Si Si1 0.740607 0.741290 0.322275
Si Si2 0.993815 0.306728 0.832933
Si Si3 0.924115 0.639342 0.422392
Si Si4 0.844472 0.198148 0.207095
Si Si5 0.489986 0.009096 0.116809
Si Si6 0.513348 0.488848 0.599768
Si Si7 0.519478 0.669867 0.085233
Si Si8 0.041889 0.762168 0.549123
O O1 0.663908 0.569489 0.442796
O O2 0.831631 0.709420 0.302731
O O3 0.500000 0.000000 0.500000
O O4 0.975651 0.712168 0.026163
O O5 0.095279 0.313907 0.646332
O O6 0.700262 0.504828 0.118698
O O7 0.001447 0.072643 0.898271
O O8 0.706888 0.844171 0.648755
O O9 0.934452 0.401520 0.485797
O O10 0.202511 0.560988 0.150463
O O11 0.706652 0.253354 0.415001
O O12 0.640824 0.329524 0.340421
O O13 0.448294 0.840167 0.174511
O O14 0.466947 0.194691 0.033650
O O15 0.784541 0.849718 0.851733
O O16 0.301535 0.632004 0.333198
O O17 0.000000 0.000000 0.500000
#
# Coordination Sequence:
#
# PCOD9095669 Si02
#       8
#     2   2   2   2   2   2   2   2
#     4  11  18  37  63  80 110 150 194 237 274 331
#     4  11  23  37  53  83 121 151 183 241 292 334
#     4  11  23  36  57  86 122 153 189 239 300 347
#     4  10  20  35  59  86 107 148 195 235 283 336
#     4   9  19  37  61  85 111 148 193 239 283 347
#     4  10  20  37  60  82 111 148 194 236 279 337
#     4   9  19  37  60  84 111 147 194 238 286 345
#     4   9  20  38  59  84 113 148 195 243 281 342
#
# _framework density 20.762708
#
# number of rings (size 3 to 8) (size 9 to 14) (size 15 to 20)
#    0.000    2.000    2.500    2.250    0.000    6.000 
#    0.000    0.000    2.750    0.000    0.000    0.000 
#    0.000    0.000    0.000    0.000    0.000    0.000 
#
# Total GULP energy -89315.049880 kJ/mol
# GULP energy per Si atom -5582.190617 kJ/mol
# Density = 2.071545 g / cm^3
# Si number density = 20.762708 Si / 1000 Ang^3
#
#
#
# Elastic Constant Matrix: (Units=GPa)
#
#
# Indices 1 2 3 4 5 6 
#
# 1 106.5122 19.2832 92.1128 -3.1878 2.4367 17.0291
# 2 19.2832 30.8185 30.9809 -6.2856 4.5920 11.3271
# 3 92.1128 30.9809 162.7432 21.4853 -2.2597 28.9043
# 4 -3.1878 -6.2856 21.4853 27.9535 10.5229 4.6068
# 5 2.4367 4.5920 -2.2597 10.5229 50.5769 -1.8568
# 6 17.0291 11.3271 28.9043 4.6068 -1.8568 26.0298
#
#
#
# Elastic Compliance Matrix: (Units=1/GPa)
#
#
# Indices 1 2 3 4 5 6 
#
# 1 0.025366 0.011012 -0.018752 0.023750 -0.008198 -0.005352
# 2 0.011012 0.064930 -0.020533 0.041431 -0.016741 -0.021186
# 3 -0.018752 -0.020533 0.024764 -0.029493 0.009997 -0.000363
# 4 0.023750 0.041431 -0.029493 0.082310 -0.023977 -0.017094
# 5 -0.008198 -0.016741 0.009997 -0.023977 0.027406 0.007745
# 6 -0.005352 -0.021186 -0.000363 -0.017094 0.007745 0.055119
#
#
# Mechanical properties :
#
#
# Convention : Reuss Voigt Hill
#
# Bulk Modulus (GPa) = 17.08991 64.98086 41.03538
# Shear Modulus (GPa) = 14.04703 31.42516 22.73610
#
# Velocity S-wave (km/s) = 2.60388 3.89464 3.31274
# Velocity P-wave (km/s) = 4.15803 7.18256 5.86849
#
# Compressibility (1/GPa) = 0.05851407
#
# Stress axis : x y z
#
# Youngs Moduli (GPa) = 39.42251 15.40118 40.38074
#
# Poissons Ratio (x) = -0.16960 0.75724
# Poissons Ratio (y) = -0.43412 0.82913
# Poissons Ratio (z) = 0.73927 0.31623
#
# Static dielectric constant tensor:
#      x y z
#    x 1.746230 -0.037740 -0.002340 
#    y -0.037740 1.771180 -0.010410 
#    z -0.002340 -0.010410 1.749600 
# 
# From -- ./inp_files/577294.got.cif
#   From: 2010.05.17/outbox.cif.g08.bks.cpg/sg2_289_cif.got.tgz:577294.got - 2010.06.03 11:33:40.
