data_PCOD9095429
_publ_section_title
;
Structure prediction by ZEFSAII (Michael W. Deem and Ramdas Pophale) SiO2 
 PCOD9095429
Probable space group: P -1
;
_chemical_formula_sum "Si O2"
_cell_formula_units_Z 16
_cell_length_a 10.406378
_cell_length_b 11.006723
_cell_length_c 14.938723
_cell_angle_alpha 57.950939
_cell_angle_beta 153.314322
_cell_angle_gamma 111.510053
_cell_volume 624.832959
_symmetry_space_group_name_H-M "P -1"
_symmetry_group_IT_number 2
_symmetry_cell_setting 'triclinic'
loop_
_space_group_symop_operation_xyz
x,y,z
-x,-y,-z
loop_
_atom_site_type_symbol
_atom_site_label
_atom_site_fract_x
_atom_site_fract_y
_atom_site_fract_z
Si Si1 0.823596 0.520924 0.173827
Si Si2 0.328319 0.950012 0.682305
Si Si3 0.461344 0.740787 0.115496
Si Si4 0.415206 0.270677 0.605485
Si Si5 0.644294 0.708360 0.635792
Si Si6 0.718232 0.527238 0.919555
Si Si7 0.854499 0.777450 0.203380
Si Si8 0.141509 0.004561 0.354117
O O1 0.071333 0.364253 0.370855
O O2 0.500000 0.500000 0.000000
O O3 0.788191 0.602705 0.023431
O O4 0.959330 0.610974 0.294993
O O5 0.439386 0.097446 0.688790
O O6 0.293221 0.912738 0.571354
O O7 0.555630 0.839588 0.932828
O O8 0.000000 0.000000 0.500000
O O9 0.431423 0.705786 0.215778
O O10 0.470817 0.587638 0.131806
O O11 0.751119 0.780206 0.241813
O O12 0.179510 0.880273 0.863649
O O13 0.511246 0.303923 0.552081
O O14 0.562711 0.641873 0.702345
O O15 0.681612 0.874156 0.607983
O O16 0.972871 0.592171 0.870825
O O17 0.054957 0.891551 0.274818
#
# Coordination Sequence:
#
# PCOD9095429 Si02
#       8
#     2   2   2   2   2   2   2   2
#     4  11  22  39  55  84 124 156 189 234 299 353
#     4  11  19  34  58  81 117 155 193 237 289 342
#     4  11  19  34  58  89 119 148 197 242 288 344
#     4  10  21  35  57  87 116 152 198 241 285 347
#     4   8  18  36  61  81 108 154 204 240 281 329
#     4   9  18  37  58  80 114 158 191 242 287 336
#     4  12  22  35  56  90 122 153 187 239 299 350
#     4  10  20  35  57  88 114 150 199 244 283 339
#
# _framework density 25.606845
#
# number of rings (size 3 to 8) (size 9 to 14) (size 15 to 20)
#    0.000    1.750    3.750    2.625    0.000    1.000 
#    2.250    0.625    0.000    3.000    0.000    0.000 
#    0.000    0.000    0.000    0.000    0.000    0.000 
#
# Total GULP energy -89376.875367 kJ/mol
# GULP energy per Si atom -5586.054710 kJ/mol
# Density = 2.554856 g / cm^3
# Si number density = 25.606845 Si / 1000 Ang^3
#
#
#
# Elastic Constant Matrix: (Units=GPa)
#
#
# Indices 1 2 3 4 5 6 
#
# 1 59.1291 36.2267 27.6065 1.3063 -21.4775 -2.8293
# 2 36.2267 105.8406 10.7784 19.1296 -6.9206 -15.7695
# 3 27.6065 10.7784 87.6832 6.0816 -22.7099 -8.7458
# 4 1.3063 19.1296 6.0816 41.0813 -2.5688 -3.3773
# 5 -21.4775 -6.9206 -22.7099 -2.5688 42.5582 5.6003
# 6 -2.8293 -15.7695 -8.7458 -3.3773 5.6003 31.5061
#
#
#
# Elastic Compliance Matrix: (Units=1/GPa)
#
#
# Indices 1 2 3 4 5 6 
#
# 1 0.030042 -0.010724 -0.006180 0.005175 0.011198 -0.005821
# 2 -0.010724 0.014923 0.001824 -0.006518 -0.003313 0.006903
# 3 -0.006180 0.001824 0.014786 -0.002280 0.004480 0.003422
# 4 0.005175 -0.006518 -0.002280 0.027612 0.002113 -0.000846
# 5 0.011198 -0.003313 0.004480 0.002113 0.031763 -0.004829
# 6 -0.005821 0.006903 0.003422 -0.000846 -0.004829 0.036390
#
#
# Mechanical properties :
#
#
# Convention : Reuss Voigt Hill
#
# Bulk Modulus (GPa) = 33.79215 44.65288 39.22251
# Shear Modulus (GPa) = 25.57048 34.89853 30.23450
#
# Velocity S-wave (km/s) = 3.16346 3.69570 3.43989
# Velocity P-wave (km/s) = 5.15446 5.97383 5.57921
#
# Compressibility (1/GPa) = 0.02959268
#
# Stress axis : x y z
#
# Youngs Moduli (GPa) = 33.28674 67.01230 67.63215
#
# Poissons Ratio (x) = 0.71862 0.41794
# Poissons Ratio (y) = 0.35696 -0.12338
# Poissons Ratio (z) = 0.20570 -0.12225
#
# Static dielectric constant tensor:
#      x y z
#    x 2.074920 -0.051190 -0.019160 
#    y -0.051190 2.022110 0.050640 
#    z -0.019160 0.050640 2.028590 
# 
# From -- ./inp_files/518920.got.cif
#   From: 2010.05.17/outbox.cif.g08.bks.cpg/sg2_260_cif.got.tgz:518920.got - 2010.06.03 11:33:40.
