data_PCOD9095149
_publ_section_title
;
Structure prediction by ZEFSAII (Michael W. Deem and Ramdas Pophale) SiO2 
 PCOD9095149
Probable space group: P -1
;
_chemical_formula_sum "Si O2"
_cell_formula_units_Z 16
_cell_length_a 9.349338
_cell_length_b 13.970815
_cell_length_c 17.822416
_cell_angle_alpha 157.317629
_cell_angle_beta 49.173950
_cell_angle_gamma 132.594806
_cell_volume 657.319449
_symmetry_space_group_name_H-M "P -1"
_symmetry_group_IT_number 2
_symmetry_cell_setting 'triclinic'
loop_
_space_group_symop_operation_xyz
x,y,z
-x,-y,-z
loop_
_atom_site_type_symbol
_atom_site_label
_atom_site_fract_x
_atom_site_fract_y
_atom_site_fract_z
Si Si1 0.079984 0.745788 0.595167
Si Si2 0.858657 0.424125 0.876559
Si Si3 0.562077 0.872464 0.172320
Si Si4 0.411889 0.278308 0.428785
Si Si5 0.904737 0.162083 0.824662
Si Si6 0.817422 0.623237 0.814055
Si Si7 0.818453 0.991398 0.952258
Si Si8 0.739540 0.395814 0.181480
O O1 0.277588 0.934915 0.694303
O O2 0.128250 0.630571 0.416903
O O3 0.000000 0.500000 0.500000
O O4 0.915710 0.899482 0.778647
O O5 0.923141 0.268591 0.810948
O O6 0.027842 0.464696 0.786033
O O7 0.642019 0.266750 0.820092
O O8 0.893095 0.709039 0.108243
O O9 0.521690 0.059093 0.253788
O O10 0.655906 0.647598 0.947279
O O11 0.500000 0.500000 0.500000
O O12 0.384269 0.409463 0.612717
O O13 0.201712 0.131769 0.361959
O O14 0.752827 0.285756 0.014360
O O15 0.014215 0.816660 0.917709
O O16 0.746459 0.749454 0.855083
O O17 0.683311 0.161289 0.089544
#
# Coordination Sequence:
#
# PCOD9095149 Si02
#       8
#     2   2   2   2   2   2   2   2
#     4   9  19  35  56  79 103 143 187 227 280 326
#     4   8  18  40  55  77 113 154 189 228 265 331
#     4  10  20  35  55  82 111 142 188 231 269 336
#     4  11  23  34  54  90 120 142 182 231 281 338
#     4   8  19  38  54  76 112 151 188 223 265 333
#     4   9  18  34  52  79 107 144 183 236 279 318
#     4   9  18  33  56  77 109 142 188 227 278 336
#     4  10  20  36  57  83 112 156 179 227 285 325
#
# _framework density 24.341284000000002
#
# number of rings (size 3 to 8) (size 9 to 14) (size 15 to 20)
#    0.750    2.000    0.000    1.500    0.000    7.500 
#    2.250    2.500    0.000    1.500    0.000    0.000 
#    0.000    0.000    0.000    0.000    0.000    0.000 
#
# Total GULP energy -89184.929595 kJ/mol
# GULP energy per Si atom -5574.058100 kJ/mol
# Density = 2.428588 g / cm^3
# Si number density = 24.341284 Si / 1000 Ang^3
#
#
#
# Elastic Constant Matrix: (Units=GPa)
#
#
# Indices 1 2 3 4 5 6 
#
# 1 51.4368 23.8427 27.2258 7.7127 3.6495 1.3623
# 2 23.8427 95.3586 13.5570 24.4074 5.2418 -2.1628
# 3 27.2258 13.5570 148.1194 -12.7135 6.5931 9.5252
# 4 7.7127 24.4074 -12.7135 31.7295 -1.9182 -0.2241
# 5 3.6495 5.2418 6.5931 -1.9182 21.1559 -3.1434
# 6 1.3623 -2.1628 9.5252 -0.2241 -3.1434 31.4538
#
#
#
# Elastic Compliance Matrix: (Units=1/GPa)
#
#
# Indices 1 2 3 4 5 6 
#
# 1 0.024598 -0.004214 -0.004415 -0.004647 -0.002286 -0.000280
# 2 -0.004214 0.014814 -0.001471 -0.011152 -0.003313 0.001236
# 3 -0.004415 -0.001471 0.008392 0.005466 -0.001372 -0.002549
# 4 -0.004647 -0.011152 0.005466 0.043745 0.005628 -0.001347
# 5 -0.002286 -0.003313 -0.001372 0.005628 0.050216 0.005345
# 6 -0.000280 0.001236 -0.002549 -0.001347 0.005345 0.033186
#
#
# Mechanical properties :
#
#
# Convention : Reuss Voigt Hill
#
# Bulk Modulus (GPa) = 36.22550 47.12954 41.67752
# Shear Modulus (GPa) = 24.46782 32.22045 28.34414
#
# Velocity S-wave (km/s) = 3.17393 3.64221 3.41610
# Velocity P-wave (km/s) = 5.32413 6.09029 5.72005
#
# Compressibility (1/GPa) = 0.02760486
#
# Stress axis : x y z
#
# Youngs Moduli (GPa) = 40.65416 67.50420 119.16763
#
# Poissons Ratio (x) = 0.28446 0.52609
# Poissons Ratio (y) = 0.17131 0.17524
# Poissons Ratio (z) = 0.17948 0.09927
#
# Static dielectric constant tensor:
#      x y z
#    x 2.026590 -0.033160 -0.008840 
#    y -0.033160 1.969100 0.018220 
#    z -0.008840 0.018220 1.933680 
# 
# From -- ./inp_files/595898.got.cif
#   From: 2010.05.17/outbox.cif.g08.bks.cpg/sg2_298_cif.got.tgz:595898.got - 2010.06.03 11:33:40.
