data_PCOD9095031
_publ_section_title
;
Structure prediction by ZEFSAII (Michael W. Deem and Ramdas Pophale) SiO2 
 PCOD9095031
Probable space group: P -1
;
_chemical_formula_sum "Si O2"
_cell_formula_units_Z 16
_cell_length_a 20.060621
_cell_length_b 11.047678
_cell_length_c 14.164413
_cell_angle_alpha 50.707493
_cell_angle_beta 151.191524
_cell_angle_gamma 146.012706
_cell_volume 793.323321
_symmetry_space_group_name_H-M "P -1"
_symmetry_group_IT_number 2
_symmetry_cell_setting 'triclinic'
loop_
_space_group_symop_operation_xyz
x,y,z
-x,-y,-z
loop_
_atom_site_type_symbol
_atom_site_label
_atom_site_fract_x
_atom_site_fract_y
_atom_site_fract_z
Si Si1 0.688371 0.655887 0.952069
Si Si2 0.841466 0.398556 0.437871
Si Si3 0.549593 0.672840 0.593444
Si Si4 0.287746 0.516738 0.183520
Si Si5 0.051812 0.802110 0.210139
Si Si6 0.430654 0.952523 0.046824
Si Si7 0.280287 0.147003 0.732238
Si Si8 0.877057 0.797209 0.311542
O O1 0.580101 0.695675 0.732520
O O2 0.513359 0.379012 0.882337
O O3 0.767634 0.772321 0.095142
O O4 0.884084 0.745155 0.097602
O O5 0.906338 0.337076 0.632615
O O6 0.622613 0.163381 0.243854
O O7 0.844571 0.583742 0.373988
O O8 0.000000 0.500000 0.500000
O O9 0.350083 0.571190 0.343614
O O10 0.580809 0.517390 0.679868
O O11 0.741281 0.928241 0.664518
O O12 0.347852 0.722822 0.100125
O O13 0.054726 0.286612 0.980773
O O14 0.268473 0.958312 0.844660
O O15 0.500000 0.000000 0.000000
O O16 0.218209 0.208875 0.709658
O O17 0.119685 0.032264 0.504420
#
# Coordination Sequence:
#
# PCOD9095031 Si02
#       8
#     2   2   2   2   2   2   2   2
#     4  11  21  36  60  84 120 158 201 242 287 362
#     4  12  21  36  59  91 122 149 195 246 304 352
#     4  10  22  36  54  88 120 162 197 241 302 345
#     4  10  20  35  53  79 123 154 189 246 294 346
#     4  11  21  36  57  89 123 156 193 247 298 351
#     4  12  22  35  60  90 120 154 193 253 302 353
#     4  11  24  41  60  89 121 158 202 242 314 351
#     4  11  24  40  62  87 122 160 195 253 297 366
#
# _framework density 20.168322
#
# number of rings (size 3 to 8) (size 9 to 14) (size 15 to 20)
#    0.000    1.000    3.750    5.625    0.000    4.000 
#    0.000    0.000    0.000    3.000    0.000    7.875 
#    0.000    0.000    0.000    0.000    0.000    0.000 
#
# Total GULP energy -89374.414978 kJ/mol
# GULP energy per Si atom -5585.900936 kJ/mol
# Density = 2.012242 g / cm^3
# Si number density = 20.168322 Si / 1000 Ang^3
#
#
#
# Elastic Constant Matrix: (Units=GPa)
#
#
# Indices 1 2 3 4 5 6 
#
# 1 51.5272 30.2072 28.8468 -8.7067 -19.1601 -19.2187
# 2 30.2072 70.9042 12.3381 -10.6879 -1.6569 -9.7631
# 3 28.8468 12.3381 112.3030 -0.9842 -44.6514 -0.5725
# 4 -8.7067 -10.6879 -0.9842 42.3759 -1.2494 -4.2817
# 5 -19.1601 -1.6569 -44.6514 -1.2494 39.8619 -4.8905
# 6 -19.2187 -9.7631 -0.5725 -4.2817 -4.8905 21.5583
#
#
#
# Elastic Compliance Matrix: (Units=1/GPa)
#
#
# Indices 1 2 3 4 5 6 
#
# 1 0.084192 -0.020366 0.002286 0.022092 0.052971 0.082297
# 2 -0.020366 0.021210 -0.002302 -0.000445 -0.012927 -0.011633
# 3 0.002286 -0.002302 0.016857 0.001543 0.020725 0.006451
# 4 0.022092 -0.000445 0.001543 0.031557 0.016956 0.029648
# 5 0.052971 -0.012927 0.020725 0.016956 0.081583 0.063793
# 6 0.082297 -0.011633 0.006451 0.029648 0.063793 0.135014
#
#
# Mechanical properties :
#
#
# Convention : Reuss Voigt Hill
#
# Bulk Modulus (GPa) = 12.27084 41.94649 27.10867
# Shear Modulus (GPa) = 11.40660 31.64870 21.52765
#
# Velocity S-wave (km/s) = 2.38075 3.96565 3.27065
# Velocity P-wave (km/s) = 3.69523 6.46621 5.26624
#
# Compressibility (1/GPa) = 0.08149398
#
# Stress axis : x y z
#
# Youngs Moduli (GPa) = 11.87760 47.14824 59.32279
#
# Poissons Ratio (x) = 0.96023 -0.13559
# Poissons Ratio (y) = 0.24190 0.13655
# Poissons Ratio (z) = -0.02715 0.10853
#
# Static dielectric constant tensor:
#      x y z
#    x 1.712220 0.008440 -0.049280 
#    y 0.008440 1.729130 -0.002610 
#    z -0.049280 -0.002610 1.776460 
# 
# From -- ./inp_files/456031.got.cif
#   From: 2010.05.17/outbox.cif.g08.bks.cpg/sg2_229_cif.got.tgz:456031.got - 2010.06.03 11:33:40.
