data_PCOD9095869
_publ_section_title
;
Structure prediction by ZEFSAII (Michael W. Deem and Ramdas Pophale) SiO2 
 PCOD9095869
Probable space group: P -1
;
_chemical_formula_sum "Si O2"
_cell_formula_units_Z 14
_cell_length_a 8.541935
_cell_length_b 8.522996
_cell_length_c 20.934481
_cell_angle_alpha 42.274333
_cell_angle_beta 140.606783
_cell_angle_gamma 128.558538
_cell_volume 645.899590
_symmetry_space_group_name_H-M "P -1"
_symmetry_group_IT_number 2
_symmetry_cell_setting 'triclinic'
loop_
_space_group_symop_operation_xyz
x,y,z
-x,-y,-z
loop_
_atom_site_type_symbol
_atom_site_label
_atom_site_fract_x
_atom_site_fract_y
_atom_site_fract_z
Si Si1 0.002413 0.360484 0.845175
Si Si2 0.221483 0.864293 0.954287
Si Si3 0.745379 0.775244 0.681217
Si Si4 0.783476 0.320772 0.517960
Si Si5 0.236356 0.121227 0.096396
Si Si6 0.433463 0.392770 0.188206
Si Si7 0.940697 0.687237 0.272851
O O1 0.951303 0.610130 0.778652
O O2 0.034248 0.360503 0.779698
O O3 0.775179 0.149569 0.846176
O O4 0.224158 0.274950 0.982784
O O5 0.028130 0.866745 0.952285
O O6 0.105458 0.040545 0.815845
O O7 0.276533 0.595008 0.049758
O O8 0.500000 0.000000 0.000000
O O9 0.493701 0.664620 0.598237
O O10 0.689320 0.739849 0.749358
O O11 0.810187 0.044210 0.599012
O O12 0.000000 0.500000 0.500000
O O13 0.832140 0.359857 0.597136
O O14 0.440967 0.217042 0.183731
O O15 0.689575 0.519828 0.258573
#
# Coordination Sequence:
#
# PCOD9095869 Si02
#       7
#     2   2   2   2   2   2   2
#     4  10  22  39  57  94 128 164 197 255 321 379
#     4   9  18  32  59  91 120 160 203 252 304 364
#     4  11  23  41  71  92 119 166 217 256 315 364
#     4  11  24  45  67  92 118 165 222 270 297 362
#     4  10  20  35  60  90 136 162 196 249 319 383
#     4  11  20  37  63  94 122 166 211 250 310 379
#     4  10  22  40  59  89 134 160 206 264 308 372
#
# _framework density 21.675194999999999
#
# number of rings (size 3 to 8) (size 9 to 14) (size 15 to 20)
#    0.000    1.714    2.857    2.143    2.000    1.143 
#    2.571    0.714    0.000    0.000    0.000    0.000 
#    0.000    0.000    0.000    0.000    0.000    0.000 
#
# Total GULP energy -77979.304850 kJ/mol
# GULP energy per Si atom -5569.950346 kJ/mol
# Density = 2.162586 g / cm^3
# Si number density = 21.675195 Si / 1000 Ang^3
#
#
#
# Elastic Constant Matrix: (Units=GPa)
#
#
# Indices 1 2 3 4 5 6 
#
# 1 21.3276 15.6801 16.4122 1.6906 -17.6296 12.9012
# 2 15.6801 111.5716 25.2849 5.7662 -6.6296 22.7554
# 3 16.4122 25.2849 47.9733 -1.0156 -17.7523 3.7556
# 4 1.6906 5.7662 -1.0156 43.9910 -5.1391 -2.5044
# 5 -17.6296 -6.6296 -17.7523 -5.1391 22.4222 -0.7910
# 6 12.9012 22.7554 3.7556 -2.5044 -0.7910 32.0206
#
#
#
# Elastic Compliance Matrix: (Units=1/GPa)
#
#
# Indices 1 2 3 4 5 6 
#
# 1 0.377075 -0.006377 -0.009016 0.011579 0.285226 -0.138384
# 2 -0.006377 0.012230 -0.006640 -0.002712 -0.007479 -0.005740
# 3 -0.009016 -0.006640 0.034264 0.004557 0.019303 0.005166
# 4 0.011579 -0.002712 0.004557 0.024746 0.017550 -0.000903
# 5 0.285226 -0.007479 0.019303 0.017550 0.282301 -0.103521
# 6 -0.138384 -0.005740 0.005166 -0.000903 -0.103521 0.087831
#
#
# Mechanical properties :
#
#
# Convention : Reuss Voigt Hill
#
# Bulk Modulus (GPa) = 2.63501 32.84742 17.74122
# Shear Modulus (GPa) = 5.05554 27.91978 16.48766
#
# Velocity S-wave (km/s) = 1.52888 3.59290 2.76102
# Velocity P-wave (km/s) = 2.08205 5.69203 4.28568
#
# Compressibility (1/GPa) = 0.37950461
#
# Stress axis : x y z
#
# Youngs Moduli (GPa) = 2.65199 81.76359 29.18525
#
# Poissons Ratio (x) = 0.52137 0.26312
# Poissons Ratio (y) = 0.01691 0.19380
# Poissons Ratio (z) = 0.02391 0.54292
#
# Static dielectric constant tensor:
#      x y z
#    x 1.829110 0.022600 -0.021300 
#    y 0.022600 1.871100 -0.000360 
#    z -0.021300 -0.000360 1.797680 
# 
# From -- ./inp_files/199270.got.cif
#   From: 2010.05.17/outbox.cif.g08.bks.cpg/sg2_100_cif.got.tgz:199270.got - 2010.06.03 11:33:40.
