data_PCOD9095342
_publ_section_title
;
Structure prediction by ZEFSAII (Michael W. Deem and Ramdas Pophale) SiO2 
 PCOD9095342
Probable space group: P -1
;
_chemical_formula_sum "Si O2"
_cell_formula_units_Z 16
_cell_length_a 11.977263
_cell_length_b 17.430177
_cell_length_c 10.763002
_cell_angle_alpha 137.727108
_cell_angle_beta 109.539885
_cell_angle_gamma 38.008945
_cell_volume 744.533520
_symmetry_space_group_name_H-M "P -1"
_symmetry_group_IT_number 2
_symmetry_cell_setting 'triclinic'
loop_
_space_group_symop_operation_xyz
x,y,z
-x,-y,-z
loop_
_atom_site_type_symbol
_atom_site_label
_atom_site_fract_x
_atom_site_fract_y
_atom_site_fract_z
Si Si1 0.667725 0.003310 0.701786
Si Si2 0.192938 0.299480 0.931148
Si Si3 0.360171 0.783830 0.855775
Si Si4 0.879956 0.204592 0.534491
Si Si5 0.470461 0.436048 0.796263
Si Si6 0.248948 0.003970 0.562840
Si Si7 0.832580 0.454003 0.638622
Si Si8 0.914130 0.149556 0.996079
O O1 0.905457 0.771123 0.574557
O O2 0.451821 0.098620 0.739290
O O3 0.708906 0.995410 0.563820
O O4 0.603252 0.168018 0.952115
O O5 0.176320 0.179773 0.813962
O O6 0.185579 0.398670 0.156067
O O7 0.000000 0.500000 0.000000
O O8 0.605581 0.593747 0.652960
O O9 0.248131 0.760337 0.842754
O O10 0.152819 0.999478 0.954700
O O11 0.649365 0.333579 0.638305
O O12 0.830303 0.368583 0.653068
O O13 0.031764 0.099770 0.586907
O O14 0.016210 0.018001 0.261340
O O15 0.542339 0.247185 0.623211
O O16 0.500000 0.500000 0.000000
O O17 0.224108 0.653611 0.907378
#
# Coordination Sequence:
#
# PCOD9095342 Si02
#       8
#     2   2   2   2   2   2   2   2
#     4  10  20  37  56  87 114 149 188 238 291 336
#     4  11  21  34  57  86 116 147 191 242 286 337
#     4  10  20  36  58  83 117 147 197 239 281 335
#     4  11  21  37  54  86 117 153 187 221 292 349
#     4  12  24  38  57  81 122 160 182 229 287 352
#     4  11  22  36  55  85 120 151 186 225 288 352
#     4  10  20  35  57  81 118 148 183 241 289 325
#     4  11  22  36  56  86 115 155 192 234 283 340
#
# _framework density 21.489967
#
# number of rings (size 3 to 8) (size 9 to 14) (size 15 to 20)
#    0.000    1.250    7.500    0.750    1.750    1.500 
#    0.000    0.000    0.000    3.000    0.000    5.250 
#    0.000    0.000    0.000    0.000    0.000    0.000 
#
# Total GULP energy -89154.573025 kJ/mol
# GULP energy per Si atom -5572.160814 kJ/mol
# Density = 2.144105 g / cm^3
# Si number density = 21.489967 Si / 1000 Ang^3
#
#
#
# Elastic Constant Matrix: (Units=GPa)
#
#
# Indices 1 2 3 4 5 6 
#
# 1 60.1812 26.7580 31.4834 11.8334 5.5916 -23.1361
# 2 26.7580 118.4173 36.9040 49.2148 4.7136 -24.9633
# 3 31.4834 36.9040 114.5034 24.5618 27.4811 -6.7036
# 4 11.8334 49.2148 24.5618 40.4251 -6.0984 -5.8771
# 5 5.5916 4.7136 27.4811 -6.0984 40.2803 14.7108
# 6 -23.1361 -24.9633 -6.7036 -5.8771 14.7108 29.5120
#
#
#
# Elastic Compliance Matrix: (Units=1/GPa)
#
#
# Indices 1 2 3 4 5 6 
#
# 1 0.037364 0.013658 0.000836 -0.025167 -0.029735 0.050845
# 2 0.013658 0.037675 0.008007 -0.052886 -0.039294 0.053448
# 3 0.000836 0.008007 0.016863 -0.020964 -0.022396 0.018247
# 4 -0.025167 -0.052886 -0.020964 0.107818 0.070602 -0.082948
# 5 -0.029735 -0.039294 -0.022396 0.070602 0.094009 -0.094436
# 6 0.050845 0.053448 0.018247 -0.082948 -0.094436 0.153655
#
#
# Mechanical properties :
#
#
# Convention : Reuss Voigt Hill
#
# Bulk Modulus (GPa) = 7.30441 53.71030 30.50735
# Shear Modulus (GPa) = 11.16027 35.24060 23.20044
#
# Velocity S-wave (km/s) = 2.28134 4.05392 3.28928
# Velocity P-wave (km/s) = 3.21648 6.85272 5.35283
#
# Compressibility (1/GPa) = 0.13690363
#
# Stress axis : x y z
#
# Youngs Moduli (GPa) = 26.76340 26.54314 59.30060
#
# Poissons Ratio (x) = -0.36253 -0.04958
# Poissons Ratio (y) = -0.36554 -0.47479
# Poissons Ratio (z) = -0.02238 -0.21252
#
# Static dielectric constant tensor:
#      x y z
#    x 1.822010 -0.037850 -0.039790 
#    y -0.037850 1.846190 0.040960 
#    z -0.039790 0.040960 1.907370 
# 
# From -- ./inp_files/437403.got.cif
#   From: 2010.05.17/outbox.cif.g08.bks.cpg/sg2_219_cif.got.tgz:437403.got - 2010.06.03 11:33:40.
