data_PCOD9095492
_publ_section_title
;
Structure prediction by ZEFSAII (Michael W. Deem and Ramdas Pophale) SiO2 
 PCOD9095492
Probable space group: P -1
;
_chemical_formula_sum "Si O2"
_cell_formula_units_Z 14
_cell_length_a 13.632417
_cell_length_b 10.074772
_cell_length_c 7.680470
_cell_angle_alpha 83.439430
_cell_angle_beta 133.224656
_cell_angle_gamma 75.821554
_cell_volume 683.289279
_symmetry_space_group_name_H-M "P -1"
_symmetry_group_IT_number 2
_symmetry_cell_setting 'triclinic'
loop_
_space_group_symop_operation_xyz
x,y,z
-x,-y,-z
loop_
_atom_site_type_symbol
_atom_site_label
_atom_site_fract_x
_atom_site_fract_y
_atom_site_fract_z
Si Si1 0.612800 0.915494 0.993855
Si Si2 0.126106 0.684001 0.352545
Si Si3 0.312897 0.341904 0.659560
Si Si4 0.911437 0.938530 0.279159
Si Si5 0.539772 0.819898 0.471057
Si Si6 0.843285 0.771909 0.771318
Si Si7 0.756739 0.101392 0.713546
O O1 0.641281 0.747049 0.090227
O O2 0.764909 0.934272 0.183250
O O3 0.500000 0.000000 0.000000
O O4 0.528662 0.009636 0.708798
O O5 0.245552 0.517617 0.564390
O O6 0.198955 0.786863 0.352282
O O7 0.023920 0.773106 0.376992
O O8 0.007523 0.685499 0.062513
O O9 0.439582 0.275580 0.670225
O O10 0.187708 0.295855 0.431565
O O11 0.853077 0.039405 0.017892
O O12 0.000000 0.000000 0.500000
O O13 0.713518 0.767523 0.741860
O O14 0.416546 0.814889 0.449175
O O15 0.799293 0.947977 0.681590
#
# Coordination Sequence:
#
# PCOD9095492 Si02
#       7
#     2   2   2   2   2   2   2
#     4   9  18  35  58  77 104 146 188 220 262 327
#     4  11  22  35  54  88 117 139 179 229 282 328
#     4   9  20  33  58  81 117 142 179 228 281 317
#     4  10  22  36  56  81 109 148 188 224 270 325
#     4   8  18  34  58  82 106 145 191 221 267 322
#     4   9  18  33  56  81 105 144 184 223 266 326
#     4  10  20  35  58  83 110 142 190 227 266 329
#
# _framework density 20.489125999999999
#
# number of rings (size 3 to 8) (size 9 to 14) (size 15 to 20)
#    0.857    1.714    0.000    2.571    4.000    1.143 
#    0.000    0.000    0.000   12.000    0.000    0.000 
#    0.000    0.000    0.000    0.000    0.000    0.000 
#
# Total GULP energy -78043.330069 kJ/mol
# GULP energy per Si atom -5574.523576 kJ/mol
# Density = 2.044249 g / cm^3
# Si number density = 20.489126 Si / 1000 Ang^3
#
#
#
# Elastic Constant Matrix: (Units=GPa)
#
#
# Indices 1 2 3 4 5 6 
#
# 1 114.6029 35.7326 27.4840 -13.5705 14.0787 11.6543
# 2 35.7326 88.7913 32.4981 -20.6819 -2.5737 0.0782
# 3 27.4840 32.4981 40.9414 -10.8146 3.3439 1.7469
# 4 -13.5705 -20.6819 -10.8146 38.6566 -2.6523 -1.7246
# 5 14.0787 -2.5737 3.3439 -2.6523 25.3544 2.5033
# 6 11.6543 0.0782 1.7469 -1.7246 2.5033 19.5921
#
#
#
# Elastic Compliance Matrix: (Units=1/GPa)
#
#
# Indices 1 2 3 4 5 6 
#
# 1 0.012285 -0.003215 -0.004806 0.000576 -0.005855 -0.006068
# 2 -0.003215 0.018241 -0.011308 0.005963 0.005488 0.002672
# 3 -0.004806 -0.011308 0.037555 0.002560 -0.003183 0.000187
# 4 0.000576 0.005963 0.002560 0.030255 0.002946 0.001692
# 5 -0.005855 0.005488 -0.003183 0.002946 0.044139 -0.001635
# 6 -0.006068 0.002672 0.000187 0.001692 -0.001635 0.054981
#
#
# Mechanical properties :
#
#
# Convention : Reuss Voigt Hill
#
# Bulk Modulus (GPa) = 33.98648 48.41834 41.20241
# Shear Modulus (GPa) = 20.33180 26.62867 23.48024
#
# Velocity S-wave (km/s) = 3.15353 3.60898 3.38891
# Velocity P-wave (km/s) = 5.46656 6.40693 5.95534
#
# Compressibility (1/GPa) = 0.02942346
#
# Stress axis : x y z
#
# Youngs Moduli (GPa) = 81.39810 54.82284 26.62767
#
# Poissons Ratio (x) = 0.17628 0.12796
# Poissons Ratio (y) = 0.26173 0.30110
# Poissons Ratio (z) = 0.39117 0.61992
#
# Static dielectric constant tensor:
#      x y z
#    x 1.757030 -0.032500 -0.020070 
#    y -0.032500 1.735310 0.038120 
#    z -0.020070 0.038120 1.807150 
# 
# From -- ./inp_files/295330.got.cif
#   From: 2010.05.17/outbox.cif.g08.bks.cpg/sg2_148_cif.got.tgz:295330.got - 2010.06.03 11:33:40.
