data_PCOD9095373
_publ_section_title
;
Structure prediction by ZEFSAII (Michael W. Deem and Ramdas Pophale) SiO2 
 PCOD9095373
Probable space group: P -1
;
_chemical_formula_sum "Si O2"
_cell_formula_units_Z 12
_cell_length_a 18.940687
_cell_length_b 8.165001
_cell_length_c 14.334586
_cell_angle_alpha 56.580709
_cell_angle_beta 151.387129
_cell_angle_gamma 140.132881
_cell_volume 623.460385
_symmetry_space_group_name_H-M "P -1"
_symmetry_group_IT_number 2
_symmetry_cell_setting 'triclinic'
loop_
_space_group_symop_operation_xyz
x,y,z
-x,-y,-z
loop_
_atom_site_type_symbol
_atom_site_label
_atom_site_fract_x
_atom_site_fract_y
_atom_site_fract_z
Si Si1 0.761609 0.807224 0.318110
Si Si2 0.118974 0.239569 0.138481
Si Si3 0.445832 0.841170 0.333032
Si Si4 0.945355 0.865727 0.693383
Si Si5 0.193594 0.709694 0.268900
Si Si6 0.389009 0.159875 0.043029
O O1 0.802115 0.857968 0.459786
O O2 0.663823 0.883545 0.115006
O O3 0.603632 0.477992 0.215648
O O4 0.000000 0.000000 0.500000
O O5 0.993945 0.327685 0.965529
O O6 0.352488 0.539915 0.296310
O O7 0.095148 0.124897 0.249014
O O8 0.000000 0.000000 0.000000
O O9 0.331477 0.813765 0.302917
O O10 0.683386 0.070859 0.572376
O O11 0.405019 0.959732 0.167730
O O12 0.873631 0.570852 0.690198
O O13 0.192815 0.091974 0.884173
#
# Coordination Sequence:
#
# PCOD9095373 Si02
#       6
#     2   2   2   2   2   2
#     4   9  19  28  48  82 102 121 159 216 257 291
#     4  11  22  33  48  75 109 138 166 202 246 299
#     4  10  18  31  54  74  99 134 167 207 250 297
#     4  10  17  32  52  75 102 131 166 205 248 294
#     4  10  18  31  52  76  98 131 170 206 252 296
#     4  10  16  30  51  78 102 125 161 209 257 292
#
# _framework density 19.247415
#
# number of rings (size 3 to 8) (size 9 to 14) (size 15 to 20)
#    0.000    2.000    5.000    1.000    0.000    0.667 
#    0.000    0.000    0.000    1.000    0.000    7.000 
#    0.000    0.000    0.000    0.000    0.000    0.000 
#
# Total GULP energy -66834.146131 kJ/mol
# GULP energy per Si atom -5569.512178 kJ/mol
# Density = 1.920361 g / cm^3
# Si number density = 19.247415 Si / 1000 Ang^3
#
#
#
# Elastic Constant Matrix: (Units=GPa)
#
#
# Indices 1 2 3 4 5 6 
#
# 1 24.2724 30.2722 34.4959 3.9229 -22.0216 5.5640
# 2 30.2722 84.9274 53.7768 0.0484 -19.3092 20.2483
# 3 34.4959 53.7768 157.0465 -6.7268 -37.2565 14.5688
# 4 3.9229 0.0484 -6.7268 38.7697 -0.1802 -6.2016
# 5 -22.0216 -19.3092 -37.2565 -0.1802 37.3280 -1.1217
# 6 5.5640 20.2483 14.5688 -6.2016 -1.1217 21.4447
#
#
#
# Elastic Compliance Matrix: (Units=1/GPa)
#
#
# Indices 1 2 3 4 5 6 
#
# 1 0.168429 -0.037908 -0.007234 -0.018650 0.072308 -0.004604
# 2 -0.037908 0.027984 -0.002328 0.000899 -0.010667 -0.015304
# 3 -0.007234 -0.002328 0.010111 0.002204 0.004572 -0.001917
# 4 -0.018650 0.000899 0.002204 0.029733 -0.007874 0.010680
# 5 0.072308 -0.010667 0.004572 -0.007874 0.068139 -0.010508
# 6 -0.004604 -0.015304 -0.001917 0.010680 -0.010508 0.066118
#
#
# Mechanical properties :
#
#
# Convention : Reuss Voigt Hill
#
# Bulk Modulus (GPa) = 8.96179 55.92624 32.44402
# Shear Modulus (GPa) = 9.94731 29.35522 19.65126
#
# Velocity S-wave (km/s) = 2.27582 3.90956 3.19875
# Velocity P-wave (km/s) = 3.40176 7.03556 5.52590
#
# Compressibility (1/GPa) = 0.11158488
#
# Stress axis : x y z
#
# Youngs Moduli (GPa) = 5.93721 35.73467 98.90512
#
# Poissons Ratio (x) = 1.35462 0.71545
# Poissons Ratio (y) = 0.22507 0.23028
# Poissons Ratio (z) = 0.04295 0.08320
#
# Static dielectric constant tensor:
#      x y z
#    x 1.672380 0.036870 -0.008730 
#    y 0.036870 1.703630 0.030050 
#    z -0.008730 0.030050 1.745560 
# 
# From -- ./inp_files/100320.got.cif
#   From: 2010.05.17/outbox.cif.g08.bks.cpg/sg2_51_cif.got.tgz:100320.got - 2010.06.03 11:33:40.
