data_PCOD9095714
_publ_section_title
;
Structure prediction by ZEFSAII (Michael W. Deem and Ramdas Pophale) SiO2 
 PCOD9095714
Probable space group: P -1
;
_chemical_formula_sum "Si O2"
_cell_formula_units_Z 16
_cell_length_a 8.855560
_cell_length_b 15.503512
_cell_length_c 26.483906
_cell_angle_alpha 20.742895
_cell_angle_beta 36.947792
_cell_angle_gamma 48.449281
_cell_volume 711.120374
_symmetry_space_group_name_H-M "P -1"
_symmetry_group_IT_number 2
_symmetry_cell_setting 'triclinic'
loop_
_space_group_symop_operation_xyz
x,y,z
-x,-y,-z
loop_
_atom_site_type_symbol
_atom_site_label
_atom_site_fract_x
_atom_site_fract_y
_atom_site_fract_z
Si Si1 0.391050 0.597956 0.524282
Si Si2 0.246438 0.601266 0.772984
Si Si3 0.838174 0.188042 0.929982
Si Si4 0.143975 0.299431 0.578726
Si Si5 0.619157 0.895666 0.978812
Si Si6 0.098389 0.430340 0.208846
Si Si7 0.718215 0.046986 0.340871
Si Si8 0.380514 0.041969 0.340901
O O1 0.500000 0.500000 0.500000
O O2 0.560804 0.570205 0.544147
O O3 0.432642 0.903300 0.352895
O O4 0.067745 0.424064 0.708055
O O5 0.152976 0.708015 0.789792
O O6 0.010458 0.482971 0.859735
O O7 0.456714 0.852587 0.548386
O O8 0.395202 0.402644 0.852830
O O9 0.785508 0.320395 0.922042
O O10 0.556318 0.069413 0.040175
O O11 0.000000 0.000000 0.000000
O O12 0.000000 0.500000 0.500000
O O13 0.144323 0.147741 0.609476
O O14 0.939742 0.074561 0.792424
O O15 0.500000 0.000000 0.000000
O O16 0.859036 0.201608 0.431404
O O17 0.290441 0.280402 0.224930
O O18 0.624684 0.132073 0.266743
#
# Coordination Sequence:
#
# PCOD9095714 Si02
#       8
#     2   2   2   2   2   2   2   2
#     4  10  21  37  59  84 112 146 189 236 282 338
#     4  10  20  35  59  89 116 150 196 242 286 343
#     4  11  22  38  59  82 113 151 189 232 286 346
#     4  11  23  40  60  84 118 155 192 238 293 348
#     4  12  24  38  60  88 119 151 193 244 291 342
#     4   9  17  32  55  81 110 144 188 231 275 332
#     4   9  19  36  58  83 116 154 194 235 286 348
#     4   8  16  32  54  80 108 146 187 228 274 331
#
# _framework density 22.499708999999999
#
# number of rings (size 3 to 8) (size 9 to 14) (size 15 to 20)
#    0.000    2.000    0.000    4.500    0.000    4.500 
#    0.000    0.000    0.000    4.500    0.000    0.000 
#    0.000    0.000    0.000    0.000    0.000    0.000 
#
# Total GULP energy -89288.136446 kJ/mol
# GULP energy per Si atom -5580.508528 kJ/mol
# Density = 2.244850 g / cm^3
# Si number density = 22.499709 Si / 1000 Ang^3
#
#
#
# Elastic Constant Matrix: (Units=GPa)
#
#
# Indices 1 2 3 4 5 6 
#
# 1 78.0789 47.8429 13.9226 -32.4497 0.7089 -4.2992
# 2 47.8429 182.6738 8.6886 -47.3492 -3.9227 24.5601
# 3 13.9226 8.6886 36.2775 -6.3416 -7.6093 6.7020
# 4 -32.4497 -47.3492 -6.3416 42.1302 -4.6676 -2.6945
# 5 0.7089 -3.9227 -7.6093 -4.6676 19.1656 -7.4865
# 6 -4.2992 24.5601 6.7020 -2.6945 -7.4865 45.3700
#
#
#
# Elastic Compliance Matrix: (Units=1/GPa)
#
#
# Indices 1 2 3 4 5 6 
#
# 1 0.021101 -0.002548 -0.005849 0.013025 0.001611 0.005282
# 2 -0.002548 0.008852 0.001717 0.008292 0.002923 -0.004312
# 3 -0.005849 0.001717 0.033560 0.003681 0.013209 -0.004043
# 4 0.013025 0.008292 0.003681 0.045293 0.014189 0.001233
# 5 0.001611 0.002923 0.013209 0.014189 0.064587 0.008119
# 6 0.005282 -0.004312 -0.004043 0.001233 0.008119 0.026886
#
#
# Mechanical properties :
#
#
# Convention : Reuss Voigt Hill
#
# Bulk Modulus (GPa) = 19.93883 48.65983 34.29933
# Shear Modulus (GPa) = 21.70558 36.43825 29.07191
#
# Velocity S-wave (km/s) = 3.10934 4.02867 3.59848
# Velocity P-wave (km/s) = 4.66602 6.58134 5.70464
#
# Compressibility (1/GPa) = 0.05015340
#
# Stress axis : x y z
#
# Youngs Moduli (GPa) = 47.39086 112.97217 29.79756
#
# Poissons Ratio (x) = 0.28782 0.17428
# Poissons Ratio (y) = 0.12074 -0.05116
# Poissons Ratio (z) = 0.27719 -0.19397
#
# Static dielectric constant tensor:
#      x y z
#    x 1.797620 0.007840 -0.000030 
#    y 0.007840 1.881760 0.004390 
#    z -0.000030 0.004390 1.903480 
# 
# From -- ./inp_files/240464.got.cif
#   From: 2010.05.17/outbox.cif.g08.bks.cpg/sg2_121_cif.got.tgz:240464.got - 2010.06.03 11:33:40.
