data_PCOD9095469
_publ_section_title
;
Structure prediction by ZEFSAII (Michael W. Deem and Ramdas Pophale) SiO2 
 PCOD9095469
Probable space group: P -1
;
_chemical_formula_sum "Si O2"
_cell_formula_units_Z 12
_cell_length_a 14.385933
_cell_length_b 7.224435
_cell_length_c 8.598480
_cell_angle_alpha 57.665017
_cell_angle_beta 143.605944
_cell_angle_gamma 120.190144
_cell_volume 443.322833
_symmetry_space_group_name_H-M "P -1"
_symmetry_group_IT_number 2
_symmetry_cell_setting 'triclinic'
loop_
_space_group_symop_operation_xyz
x,y,z
-x,-y,-z
loop_
_atom_site_type_symbol
_atom_site_label
_atom_site_fract_x
_atom_site_fract_y
_atom_site_fract_z
Si Si1 0.781606 0.244064 0.852473
Si Si2 0.657874 0.478707 0.129611
Si Si3 0.050518 0.462807 0.332648
Si Si4 0.056233 0.118217 0.859302
Si Si5 0.554251 0.270301 0.781018
Si Si6 0.724840 0.013733 0.353362
O O1 0.617619 0.291973 0.683354
O O2 0.909386 0.302868 0.136122
O O3 0.849224 0.406381 0.731387
O O4 0.789774 0.992078 0.926112
O O5 0.814845 0.626985 0.341059
O O6 0.621190 0.465559 0.902264
O O7 0.698179 0.228626 0.322235
O O8 0.500000 0.500000 0.000000
O O9 0.960912 0.629341 0.239371
O O10 0.911179 0.027222 0.589221
O O11 0.000000 0.000000 0.000000
O O12 0.634585 0.060812 0.052460
O O13 0.368816 0.199738 0.593753
#
# Coordination Sequence:
#
# PCOD9095469 Si02
#       6
#     2   2   2   2   2   2
#     4  10  20  35  58  78 106 140 175 220 262 305
#     4   9  18  35  55  74 110 142 168 217 271 304
#     4   9  20  37  53  78 110 137 177 217 259 319
#     4   9  18  36  57  76 107 144 170 213 273 308
#     4   9  19  35  54  79 104 136 181 213 259 315
#     4   8  18  36  53  73 110 133 175 215 259 316
#
# _framework density 27.068308999999999
#
# number of rings (size 3 to 8) (size 9 to 14) (size 15 to 20)
#    1.000    2.000    0.000    0.000    2.333    1.333 
#    3.000    8.333    0.000    0.000    0.000    0.000 
#    0.000    0.000    0.000    0.000    0.000    0.000 
#
# Total GULP energy -67070.383991 kJ/mol
# GULP energy per Si atom -5589.198666 kJ/mol
# Density = 2.700670 g / cm^3
# Si number density = 27.068309 Si / 1000 Ang^3
#
#
#
# Elastic Constant Matrix: (Units=GPa)
#
#
# Indices 1 2 3 4 5 6 
#
# 1 155.7074 26.5283 18.2149 -3.5883 6.9856 -4.7196
# 2 26.5283 66.7007 22.3741 1.6274 4.9507 -6.3894
# 3 18.2149 22.3741 74.6913 1.4172 7.7049 -6.8598
# 4 -3.5883 1.6274 1.4172 40.2526 7.7864 3.4029
# 5 6.9856 4.9507 7.7049 7.7864 31.5650 -0.1288
# 6 -4.7196 -6.3894 -6.8598 3.4029 -0.1288 36.9949
#
#
#
# Elastic Compliance Matrix: (Units=1/GPa)
#
#
# Indices 1 2 3 4 5 6 
#
# 1 0.007018 -0.002415 -0.000862 0.000967 -0.001202 0.000225
# 2 -0.002415 0.017717 -0.004420 -0.000757 -0.000971 0.001999
# 3 -0.000862 -0.004420 0.015400 -0.000056 -0.002853 0.001977
# 4 0.000967 -0.000757 -0.000056 0.026451 -0.006617 -0.002474
# 5 -0.001202 -0.000971 -0.002853 -0.006617 0.034427 -0.000122
# 6 0.000225 0.001999 0.001977 -0.002474 -0.000122 0.027998
#
#
# Mechanical properties :
#
#
# Convention : Reuss Voigt Hill
#
# Bulk Modulus (GPa) = 40.41889 47.92601 44.17245
# Shear Modulus (GPa) = 32.75429 37.09467 34.92448
#
# Velocity S-wave (km/s) = 3.48237 3.70592 3.59588
# Velocity P-wave (km/s) = 5.57976 6.00465 5.79610
#
# Compressibility (1/GPa) = 0.02474091
#
# Stress axis : x y z
#
# Youngs Moduli (GPa) = 142.50011 56.44139 64.93618
#
# Poissons Ratio (x) = 0.13629 0.05596
# Poissons Ratio (y) = 0.34411 0.28705
# Poissons Ratio (z) = 0.12279 0.24949
#
# Static dielectric constant tensor:
#      x y z
#    x 2.168900 0.070080 -0.024920 
#    y 0.070080 2.146780 -0.003230 
#    z -0.024920 -0.003230 2.157920 
# 
# From -- ./inp_files/166279.got.cif
#   From: 2010.05.17/outbox.cif.g08.bks.cpg/sg2_84_cif.got.tgz:166279.got - 2010.06.03 11:33:40.
