data_PCOD9095831
_publ_section_title
;
Structure prediction by ZEFSAII (Michael W. Deem and Ramdas Pophale) SiO2 
 PCOD9095831
Probable space group: P -1
;
_chemical_formula_sum "Si O2"
_cell_formula_units_Z 16
_cell_length_a 14.050948
_cell_length_b 17.179261
_cell_length_c 7.047312
_cell_angle_alpha 146.643240
_cell_angle_beta 115.114708
_cell_angle_gamma 50.403314
_cell_volume 696.955484
_symmetry_space_group_name_H-M "P -1"
_symmetry_group_IT_number 2
_symmetry_cell_setting 'triclinic'
loop_
_space_group_symop_operation_xyz
x,y,z
-x,-y,-z
loop_
_atom_site_type_symbol
_atom_site_label
_atom_site_fract_x
_atom_site_fract_y
_atom_site_fract_z
Si Si1 0.703871 0.570497 0.399656
Si Si2 0.549521 0.122722 0.294901
Si Si3 0.025762 0.062794 0.844174
Si Si4 0.613784 0.104120 0.874609
Si Si5 0.007662 0.660571 0.870802
Si Si6 0.254070 0.147343 0.812922
Si Si7 0.604559 0.543636 0.653607
Si Si8 0.804766 0.206005 0.259068
O O1 0.576936 0.683185 0.391605
O O2 0.843045 0.419741 0.132314
O O3 0.662619 0.505779 0.412309
O O4 0.727681 0.710927 0.793151
O O5 0.666535 0.025955 0.343519
O O6 0.598512 0.116210 0.111571
O O7 0.500000 0.000000 0.000000
O O8 0.139795 0.896549 0.708229
O O9 0.000000 0.000000 0.500000
O O10 0.039331 0.214412 0.097290
O O11 0.913066 0.143672 0.066972
O O12 0.675975 0.917118 0.460264
O O13 0.476190 0.251416 0.973847
O O14 0.711758 0.152814 0.002655
O O15 0.000000 0.500000 0.500000
O O16 0.896358 0.774633 0.162724
O O17 0.500000 0.500000 0.500000
O O18 0.721154 0.411982 0.618074
#
# Coordination Sequence:
#
# PCOD9095831 Si02
#       8
#     2   2   2   2   2   2   2   2
#     4   9  18  35  58  83 121 161 196 251 311 361
#     4   9  19  34  56  82 118 160 197 244 309 359
#     4  11  22  38  64  87 119 162 210 246 299 370
#     4  10  20  36  60  87 120 152 205 252 303 367
#     4  10  20  37  63  88 124 164 197 253 318 362
#     4  10  20  35  60  88 118 161 204 246 307 373
#     4   9  18  35  57  83 116 158 196 250 306 351
#     4  10  21  38  60  84 121 158 199 252 307 357
#
# _framework density 22.956990999999999
#
# number of rings (size 3 to 8) (size 9 to 14) (size 15 to 20)
#    0.000    2.250    1.250    1.500    0.000    4.500 
#    2.250    0.000    5.500   21.750    0.000    0.000 
#    0.000    0.000    0.000    0.000    0.000    0.000 
#
# Total GULP energy -89271.504263 kJ/mol
# GULP energy per Si atom -5579.469016 kJ/mol
# Density = 2.290474 g / cm^3
# Si number density = 22.956991 Si / 1000 Ang^3
#
#
#
# Elastic Constant Matrix: (Units=GPa)
#
#
# Indices 1 2 3 4 5 6 
#
# 1 108.7805 37.4043 29.4780 15.4043 -21.4680 6.4959
# 2 37.4043 125.8987 31.7511 13.2063 -11.1811 -9.0154
# 3 29.4780 31.7511 77.4569 10.4731 -20.1906 -16.1434
# 4 15.4043 13.2063 10.4731 27.4952 -6.3245 -6.4472
# 5 -21.4680 -11.1811 -20.1906 -6.3245 26.2620 18.3870
# 6 6.4959 -9.0154 -16.1434 -6.4472 18.3870 38.9564
#
#
#
# Elastic Compliance Matrix: (Units=1/GPa)
#
#
# Indices 1 2 3 4 5 6 
#
# 1 0.016178 -0.002989 -0.002204 -0.005785 0.018740 -0.014105
# 2 -0.002989 0.009668 -0.002729 -0.001948 -0.002678 0.002546
# 3 -0.002204 -0.002729 0.017874 -0.001659 0.008319 0.002942
# 4 -0.005785 -0.001948 -0.001659 0.042540 -0.002087 0.007851
# 5 0.018740 -0.002678 0.008319 -0.002087 0.087522 -0.041952
# 6 -0.014105 0.002546 0.002942 0.007851 -0.041952 0.050930
#
#
# Mechanical properties :
#
#
# Convention : Reuss Voigt Hill
#
# Bulk Modulus (GPa) = 35.87554 56.60030 46.23792
# Shear Modulus (GPa) = 20.01208 32.77623 26.39415
#
# Velocity S-wave (km/s) = 2.95569 3.78262 3.39443
# Velocity P-wave (km/s) = 5.22584 6.61711 5.96219
#
# Compressibility (1/GPa) = 0.02787414
#
# Stress axis : x y z
#
# Youngs Moduli (GPa) = 61.81291 103.43099 55.94724
#
# Poissons Ratio (x) = 0.30920 0.12331
# Poissons Ratio (y) = 0.18479 0.15270
# Poissons Ratio (z) = 0.13624 0.28231
#
# Static dielectric constant tensor:
#      x y z
#    x 1.857450 -0.028890 -0.017280 
#    y -0.028890 1.883680 0.039540 
#    z -0.017280 0.039540 1.887020 
# 
# From -- ./inp_files/98695.got.cif
#   From: 2010.05.17/outbox.cif.g08.bks.cpg/sg2_50_cif.got.tgz:98695.got - 2010.06.03 11:33:40.
