data_PCOD9095328
_publ_section_title
;
Structure prediction by ZEFSAII (Michael W. Deem and Ramdas Pophale) SiO2 
 PCOD9095328
Probable space group: P -1
;
_chemical_formula_sum "Si O2"
_cell_formula_units_Z 14
_cell_length_a 21.630013
_cell_length_b 6.611809
_cell_length_c 9.501651
_cell_angle_alpha 49.620970
_cell_angle_beta 131.171795
_cell_angle_gamma 136.333208
_cell_volume 666.633302
_symmetry_space_group_name_H-M "P -1"
_symmetry_group_IT_number 2
_symmetry_cell_setting 'triclinic'
loop_
_space_group_symop_operation_xyz
x,y,z
-x,-y,-z
loop_
_atom_site_type_symbol
_atom_site_label
_atom_site_fract_x
_atom_site_fract_y
_atom_site_fract_z
Si Si1 0.868562 0.210684 0.564674
Si Si2 0.589142 0.291189 0.579985
Si Si3 0.469982 0.019725 0.102883
Si Si4 0.631458 0.640802 0.221485
Si Si5 0.084051 0.703357 0.735005
Si Si6 0.194943 0.490042 0.203056
Si Si7 0.178909 0.373380 0.547648
O O1 0.882790 0.252054 0.399184
O O2 0.803072 0.344878 0.454866
O O3 0.972820 0.435893 0.688437
O O4 0.829594 0.858948 0.711000
O O5 0.610296 0.576613 0.385058
O O6 0.689143 0.294782 0.718012
O O7 0.500000 0.000000 0.500000
O O8 0.557356 0.265430 0.705236
O O9 0.553915 0.337683 0.155642
O O10 0.379815 0.069186 0.953722
O O11 0.500000 0.000000 0.000000
O O12 0.730094 0.665542 0.320419
O O13 0.101201 0.041386 0.645942
O O14 0.144421 0.609963 0.968139
O O15 0.156489 0.449660 0.324052
#
# Coordination Sequence:
#
# PCOD9095328 Si02
#       7
#     2   2   2   2   2   2   2
#     4  10  22  38  58  88 119 150 192 243 292 340
#     4   9  19  37  56  79 114 149 185 233 285 335
#     4  10  20  35  57  80 106 145 189 233 283 336
#     4   9  20  36  52  78 112 143 186 237 279 334
#     4  10  21  38  59  85 119 153 192 241 290 344
#     4  10  21  37  59  85 116 153 194 240 286 343
#     4  10  21  37  58  82 115 155 192 234 289 346
#
# _framework density 21.001052000000001
#
# number of rings (size 3 to 8) (size 9 to 14) (size 15 to 20)
#    0.000    2.286    0.000    1.714    0.000    6.857 
#    0.000    8.571    0.000    0.000    0.000    0.000 
#    0.000    0.000    0.000    0.000    0.000    0.000 
#
# Total GULP energy -78069.485716 kJ/mol
# GULP energy per Si atom -5576.391837 kJ/mol
# Density = 2.095325 g / cm^3
# Si number density = 21.001052 Si / 1000 Ang^3
#
#
#
# Elastic Constant Matrix: (Units=GPa)
#
#
# Indices 1 2 3 4 5 6 
#
# 1 71.4217 23.3425 29.9058 -6.1732 -1.5989 -0.5436
# 2 23.3425 44.9603 27.5451 -7.8239 1.6332 9.3568
# 3 29.9058 27.5451 124.4987 -1.0745 -3.8082 11.2478
# 4 -6.1732 -7.8239 -1.0745 28.6967 4.9682 6.3251
# 5 -1.5989 1.6332 -3.8082 4.9682 29.4984 6.9295
# 6 -0.5436 9.3568 11.2478 6.3251 6.9295 32.4693
#
#
#
# Elastic Compliance Matrix: (Units=1/GPa)
#
#
# Indices 1 2 3 4 5 6 
#
# 1 0.017946 -0.008200 -0.002799 0.000735 0.000128 0.003463
# 2 -0.008200 0.032931 -0.004447 0.009519 -0.002221 -0.009467
# 3 -0.002799 -0.004447 0.009963 -0.001281 0.002167 -0.002430
# 4 0.000735 0.009519 -0.001281 0.040469 -0.005347 -0.009029
# 5 0.000128 -0.002221 0.002167 -0.005347 0.036838 -0.006929
# 6 0.003463 -0.009467 -0.002430 -0.009029 -0.006929 0.037664
#
#
# Mechanical properties :
#
#
# Convention : Reuss Voigt Hill
#
# Bulk Modulus (GPa) = 33.39049 44.71862 39.05455
# Shear Modulus (GPa) = 23.07506 28.80536 25.94021
#
# Velocity S-wave (km/s) = 3.31835 3.70755 3.51833
# Velocity P-wave (km/s) = 5.53316 6.29823 5.92805
#
# Compressibility (1/GPa) = 0.02994865
#
# Stress axis : x y z
#
# Youngs Moduli (GPa) = 55.72265 30.36694 100.36950
#
# Poissons Ratio (x) = 0.24900 0.28096
# Poissons Ratio (y) = 0.45691 0.44631
# Poissons Ratio (z) = 0.15598 0.13503
#
# Static dielectric constant tensor:
#      x y z
#    x 1.773030 0.045810 0.007040 
#    y 0.045810 1.794650 0.026800 
#    z 0.007040 0.026800 1.762540 
# 
# From -- ./inp_files/46467.got.cif
#   From: 2010.05.17/outbox.cif.g08.bks.cpg/sg2_24_cif.got.tgz:46467.got - 2010.06.03 11:33:40.
