data_PCOD9095533
_publ_section_title
;
Structure prediction by ZEFSAII (Michael W. Deem and Ramdas Pophale) SiO2 
 PCOD9095533
Probable space group: P -1
;
_chemical_formula_sum "Si O2"
_cell_formula_units_Z 14
_cell_length_a 12.864829
_cell_length_b 9.106484
_cell_length_c 11.094161
_cell_angle_alpha 40.651227
_cell_angle_beta 75.405511
_cell_angle_gamma 97.499780
_cell_volume 704.680156
_symmetry_space_group_name_H-M "P -1"
_symmetry_group_IT_number 2
_symmetry_cell_setting 'triclinic'
loop_
_space_group_symop_operation_xyz
x,y,z
-x,-y,-z
loop_
_atom_site_type_symbol
_atom_site_label
_atom_site_fract_x
_atom_site_fract_y
_atom_site_fract_z
Si Si1 0.276393 0.793061 0.508166
Si Si2 0.884694 0.586801 0.860218
Si Si3 0.862577 0.271758 0.649328
Si Si4 0.519418 0.692690 0.984959
Si Si5 0.749871 0.513848 0.696378
Si Si6 0.846706 0.087518 0.313741
Si Si7 0.259845 0.316945 0.946944
O O1 0.169088 0.732885 0.479541
O O2 0.249210 0.915170 0.558016
O O3 0.272615 0.530689 0.714318
O O4 0.404514 0.013171 0.273477
O O5 0.842624 0.574558 0.744303
O O6 0.023577 0.811321 0.715862
O O7 0.873521 0.311766 0.070209
O O8 0.791734 0.624400 0.951692
O O9 0.768308 0.334490 0.708724
O O10 0.000000 0.500000 0.500000
O O11 0.835881 0.984668 0.870712
O O12 0.500000 0.500000 0.000000
O O13 0.389079 0.618770 0.128321
O O14 0.610412 0.665639 0.069899
O O15 0.792240 0.801213 0.453659
#
# Coordination Sequence:
#
# PCOD9095533 Si02
#       7
#     2   2   2   2   2   2   2
#     4  10  22  40  60  84 119 156 191 239 289 339
#     4  10  20  35  58  86 112 146 195 244 289 336
#     4  11  24  40  60  87 119 155 191 233 292 352
#     4  11  21  39  60  88 116 150 198 240 285 339
#     4  12  22  36  60  85 115 152 192 238 286 338
#     4  10  20  35  58  86 112 146 195 244 289 336
#     4  10  22  40  60  84 119 156 191 239 289 339
#
# _framework density 19.867170999999999
#
# number of rings (size 3 to 8) (size 9 to 14) (size 15 to 20)
#    0.000    1.429    2.857    3.000    0.000    5.714 
#    0.000    1.429    0.000    0.000    0.000    0.000 
#    0.000    0.000    0.000    0.000    0.000    0.000 
#
# Total GULP energy -78263.048886 kJ/mol
# GULP energy per Si atom -5590.217778 kJ/mol
# Density = 1.982195 g / cm^3
# Si number density = 19.867171 Si / 1000 Ang^3
#
#
#
# Elastic Constant Matrix: (Units=GPa)
#
#
# Indices 1 2 3 4 5 6 
#
# 1 55.9183 -6.1245 27.5214 -6.8954 1.0663 -5.4052
# 2 -6.1245 48.3365 15.9873 -15.4225 12.7756 -7.7765
# 3 27.5214 15.9873 104.7385 -25.3932 20.5217 3.4093
# 4 -6.8954 -15.4225 -25.3932 27.5638 -9.3273 -7.7199
# 5 1.0663 12.7756 20.5217 -9.3273 30.5360 -5.0288
# 6 -5.4052 -7.7765 3.4093 -7.7199 -5.0288 23.2669
#
#
#
# Elastic Compliance Matrix: (Units=1/GPa)
#
#
# Indices 1 2 3 4 5 6 
#
# 1 0.025304 0.010330 -0.006936 0.012000 0.005684 0.015557
# 2 0.010330 0.035152 -0.002137 0.025960 -0.001972 0.022649
# 3 -0.006936 -0.002137 0.015051 0.007443 -0.007304 -0.003640
# 4 0.012000 0.025960 0.007443 0.075899 0.013228 0.038416
# 5 0.005684 -0.001972 -0.007304 0.013228 0.044931 0.015832
# 6 0.015557 0.022649 -0.003640 0.038416 0.015832 0.070865
#
#
# Mechanical properties :
#
#
# Convention : Reuss Voigt Hill
#
# Bulk Modulus (GPa) = 12.81731 31.52907 22.17319
# Shear Modulus (GPa) = 17.20012 27.71393 22.45702
#
# Velocity S-wave (km/s) = 2.94556 3.73897 3.36573
# Velocity P-wave (km/s) = 4.24664 5.87744 5.12729
#
# Compressibility (1/GPa) = 0.07801950
#
# Stress axis : x y z
#
# Youngs Moduli (GPa) = 39.51995 28.44796 66.44260
#
# Poissons Ratio (x) = -0.29386 0.46086
# Poissons Ratio (y) = -0.40824 0.14198
# Poissons Ratio (z) = 0.27412 0.06079
#
# Static dielectric constant tensor:
#      x y z
#    x 1.697820 -0.010050 -0.005530 
#    y -0.010050 1.676240 -0.010440 
#    z -0.005530 -0.010440 1.696810 
# 
# From -- ./inp_files/255951.got.cif
#   From: 2010.05.17/outbox.cif.g08.bks.cpg/sg2_128_cif.got.tgz:255951.got - 2010.06.03 11:33:40.
