data_PCOD9095190
_publ_section_title
;
Structure prediction by ZEFSAII (Michael W. Deem and Ramdas Pophale) SiO2 
 PCOD9095190
Probable space group: P -1
;
_chemical_formula_sum "Si O2"
_cell_formula_units_Z 16
_cell_length_a 12.420896
_cell_length_b 11.791680
_cell_length_c 11.247016
_cell_angle_alpha 69.650728
_cell_angle_beta 27.123592
_cell_angle_gamma 57.280273
_cell_volume 592.435462
_symmetry_space_group_name_H-M "P -1"
_symmetry_group_IT_number 2
_symmetry_cell_setting 'triclinic'
loop_
_space_group_symop_operation_xyz
x,y,z
-x,-y,-z
loop_
_atom_site_type_symbol
_atom_site_label
_atom_site_fract_x
_atom_site_fract_y
_atom_site_fract_z
Si Si1 0.157349 0.135492 0.364628
Si Si2 0.234091 0.453307 0.688985
Si Si3 0.625938 0.162561 0.823469
Si Si4 0.688896 0.655526 0.605182
Si Si5 0.263831 0.584482 0.020529
Si Si6 0.489595 0.963112 0.716298
Si Si7 0.593420 0.343592 0.596949
Si Si8 0.930141 0.878131 0.104537
O O1 0.330338 0.051589 0.342033
O O2 0.823445 0.206599 0.679991
O O3 0.238086 0.008679 0.235518
O O4 0.301839 0.222654 0.153083
O O5 0.262823 0.362417 0.579272
O O6 0.504263 0.362304 0.541395
O O7 0.199612 0.599823 0.622476
O O8 0.000000 0.500000 0.000000
O O9 0.662996 0.197920 0.639022
O O10 0.536514 0.571974 0.816653
O O11 0.475426 0.821033 0.791215
O O12 0.005585 0.609428 0.346611
O O13 0.359670 0.453694 0.882793
O O14 0.158203 0.721110 0.985784
O O15 0.693059 0.926147 0.419132
O O16 0.199875 0.103872 0.906958
O O17 0.000000 0.000000 0.000000
#
# Coordination Sequence:
#
# PCOD9095190 Si02
#       8
#     2   2   2   2   2   2   2   2
#     4  10  24  46  66  93 120 166 224 272 317 372
#     4  10  20  37  59  96 130 169 200 253 318 394
#     4  10  24  45  68  90 123 165 221 276 315 370
#     4  10  20  35  56  85 129 158 199 246 302 371
#     4  10  20  35  55  87 128 160 199 245 304 376
#     4  10  22  38  62  92 125 169 205 266 320 379
#     4  10  22  38  63  93 128 170 206 267 322 378
#     4  10  20  36  59  93 130 169 199 252 320 389
#
# _framework density 27.007162999999998
#
# number of rings (size 3 to 8) (size 9 to 14) (size 15 to 20)
#    0.000    2.000    2.500    0.000    3.500    3.000 
#    2.250    0.000    0.000   18.000    0.000    0.000 
#    0.000    0.000    0.000    0.000    0.000    0.000 
#
# Total GULP energy -89279.364311 kJ/mol
# GULP energy per Si atom -5579.960269 kJ/mol
# Density = 2.694569 g / cm^3
# Si number density = 27.007163 Si / 1000 Ang^3
#
#
#
# Elastic Constant Matrix: (Units=GPa)
#
#
# Indices 1 2 3 4 5 6 
#
# 1 104.7951 33.0624 37.5191 -17.6562 -28.9153 -2.2349
# 2 33.0624 102.9414 28.6406 -26.6208 -5.7502 7.9917
# 3 37.5191 28.6406 147.4763 -38.8631 -19.2434 -7.9837
# 4 -17.6562 -26.6208 -38.8631 44.9051 6.2916 4.9828
# 5 -28.9153 -5.7502 -19.2434 6.2916 42.0311 -5.9050
# 6 -2.2349 7.9917 -7.9837 4.9828 -5.9050 29.1020
#
#
#
# Elastic Compliance Matrix: (Units=1/GPa)
#
#
# Indices 1 2 3 4 5 6 
#
# 1 0.013753 -0.003705 -0.001333 0.000453 0.008755 0.003407
# 2 -0.003705 0.013122 -0.000449 0.006969 -0.002814 -0.005775
# 3 -0.001333 -0.000449 0.009446 0.006800 0.002606 0.001977
# 4 0.000453 0.006969 0.006800 0.033336 -0.001457 -0.006017
# 5 0.008755 -0.002814 0.002606 -0.001457 0.032095 0.008922
# 6 0.003407 -0.005775 0.001977 -0.006017 0.008922 0.039592
#
#
# Mechanical properties :
#
#
# Convention : Reuss Voigt Hill
#
# Bulk Modulus (GPa) = 39.45148 61.51745 50.48447
# Shear Modulus (GPa) = 31.10072 40.27370 35.68721
#
# Velocity S-wave (km/s) = 3.39717 3.86582 3.63905
# Velocity P-wave (km/s) = 5.47970 6.53864 6.03245
#
# Compressibility (1/GPa) = 0.02534759
#
# Stress axis : x y z
#
# Youngs Moduli (GPa) = 72.71004 76.20515 105.86195
#
# Poissons Ratio (x) = 0.28231 0.14115
# Poissons Ratio (y) = 0.26936 0.04756
# Poissons Ratio (z) = 0.09695 0.03424
#
# Static dielectric constant tensor:
#      x y z
#    x 2.205090 -0.037860 -0.125320 
#    y -0.037860 2.175300 0.057060 
#    z -0.125320 0.057060 2.208880 
# 
# From -- ./inp_files/427948.got.cif
#   From: 2010.05.17/outbox.cif.g08.bks.cpg/sg2_214_cif.got.tgz:427948.got - 2010.06.03 11:33:40.
