data_PCOD9095826
_publ_section_title
;
Structure prediction by ZEFSAII (Michael W. Deem and Ramdas Pophale) SiO2 
 PCOD9095826
Probable space group: P -1
;
_chemical_formula_sum "Si O2"
_cell_formula_units_Z 16
_cell_length_a 12.288674
_cell_length_b 9.144641
_cell_length_c 11.090023
_cell_angle_alpha 46.746840
_cell_angle_beta 97.377929
_cell_angle_gamma 124.077002
_cell_volume 681.049380
_symmetry_space_group_name_H-M "P -1"
_symmetry_group_IT_number 2
_symmetry_cell_setting 'triclinic'
loop_
_space_group_symop_operation_xyz
x,y,z
-x,-y,-z
loop_
_atom_site_type_symbol
_atom_site_label
_atom_site_fract_x
_atom_site_fract_y
_atom_site_fract_z
Si Si1 0.077912 0.592370 0.087097
Si Si2 0.198769 0.201510 0.020822
Si Si3 0.835686 0.714879 0.769039
Si Si4 0.071319 0.408132 0.725851
Si Si5 0.436453 0.200099 0.662861
Si Si6 0.184753 0.131130 0.570900
Si Si7 0.674556 0.952559 0.016640
Si Si8 0.291724 0.676416 0.395774
O O1 0.193181 0.549975 0.120938
O O2 0.974425 0.465179 0.261850
O O3 0.000000 0.500000 0.000000
O O4 0.175467 0.898200 0.968198
O O5 0.228480 0.301744 0.104048
O O6 0.145763 0.330437 0.865749
O O7 0.334293 0.262633 0.937849
O O8 0.067625 0.878154 0.187787
O O9 0.791580 0.802276 0.604520
O O10 0.011951 0.916541 0.688266
O O11 0.180804 0.604902 0.525357
O O12 0.500000 0.500000 0.500000
O O13 0.278553 0.049524 0.668417
O O14 0.436507 0.145413 0.836247
O O15 0.543654 0.177326 0.623698
O O16 0.233828 0.392906 0.498096
O O17 0.696730 0.149086 0.808568
#
# Coordination Sequence:
#
# PCOD9095826 Si02
#       8
#     2   2   2   2   2   2   2   2
#     4  11  21  35  60  93 128 157 189 253 308 361
#     4  10  20  35  60  87 126 157 196 247 301 361
#     4  11  20  36  61  90 126 159 189 249 304 365
#     4  10  21  35  59  91 122 158 204 242 302 355
#     4  10  22  40  64  85 117 163 208 249 295 357
#     4  10  21  36  59  89 122 160 204 235 305 360
#     4  11  23  38  61  93 120 154 210 251 301 354
#     4  11  21  39  61  89 123 158 210 252 287 355
#
# _framework density 23.493155000000002
#
# number of rings (size 3 to 8) (size 9 to 14) (size 15 to 20)
#    0.000    1.500    3.750    2.625    1.750    4.000 
#    0.000    0.000    0.000   15.000    0.000    0.000 
#    0.000    0.000    0.000    0.000    0.000    0.000 
#
# Total GULP energy -89317.938186 kJ/mol
# GULP energy per Si atom -5582.371137 kJ/mol
# Density = 2.343968 g / cm^3
# Si number density = 23.493155 Si / 1000 Ang^3
#
#
#
# Elastic Constant Matrix: (Units=GPa)
#
#
# Indices 1 2 3 4 5 6 
#
# 1 73.8718 28.3235 20.8523 21.2121 -1.1151 -6.1081
# 2 28.3235 68.6536 22.3614 26.7919 -4.1297 -18.6717
# 3 20.8523 22.3614 103.0502 31.9472 -3.2291 -7.9412
# 4 21.2121 26.7919 31.9472 32.2600 -2.0850 -3.5330
# 5 -1.1151 -4.1297 -3.2291 -2.0850 32.4372 8.4736
# 6 -6.1081 -18.6717 -7.9412 -3.5330 8.4736 35.3001
#
#
#
# Elastic Compliance Matrix: (Units=1/GPa)
#
#
# Indices 1 2 3 4 5 6 
#
# 1 0.017415 -0.004002 -0.000193 -0.007949 -0.000487 0.000175
# 2 -0.004002 0.026749 0.002293 -0.020589 -0.001002 0.012152
# 3 -0.000193 0.002293 0.014313 -0.015643 -0.000038 0.002843
# 4 -0.007949 -0.020589 -0.015643 0.067923 0.002413 -0.009566
# 5 -0.000487 -0.001002 -0.000038 0.002413 0.033005 -0.008304
# 6 0.000175 0.012152 0.002843 -0.009566 -0.008304 0.036462
#
#
# Mechanical properties :
#
#
# Convention : Reuss Voigt Hill
#
# Bulk Modulus (GPa) = 18.29015 43.18331 30.73673
# Shear Modulus (GPa) = 22.94675 31.60203 27.27439
#
# Velocity S-wave (km/s) = 3.12868 3.67162 3.41097
# Velocity P-wave (km/s) = 4.56659 6.03287 5.35020
#
# Compressibility (1/GPa) = 0.05467422
#
# Stress axis : x y z
#
# Youngs Moduli (GPa) = 57.42055 37.38399 69.86736
#
# Poissons Ratio (x) = 0.14960 0.01350
# Poissons Ratio (y) = 0.22978 -0.16022
# Poissons Ratio (z) = 0.01109 -0.08573
#
# Static dielectric constant tensor:
#      x y z
#    x 1.951730 0.035020 -0.050620 
#    y 0.035020 1.931620 -0.069360 
#    z -0.050620 -0.069360 1.993780 
# 
# From -- ./inp_files/418927.got.cif
#   From: 2010.05.17/outbox.cif.g08.bks.cpg/sg2_210_cif.got.tgz:418927.got - 2010.06.03 11:33:40.
