data_PCOD9095360
_publ_section_title
;
Structure prediction by ZEFSAII (Michael W. Deem and Ramdas Pophale) SiO2 
 PCOD9095360
Probable space group: P -1
;
_chemical_formula_sum "Si O2"
_cell_formula_units_Z 16
_cell_length_a 7.313229
_cell_length_b 14.040039
_cell_length_c 7.971958
_cell_angle_alpha 112.506181
_cell_angle_beta 55.001206
_cell_angle_gamma 106.547145
_cell_volume 617.147187
_symmetry_space_group_name_H-M "P -1"
_symmetry_group_IT_number 2
_symmetry_cell_setting 'triclinic'
loop_
_space_group_symop_operation_xyz
x,y,z
-x,-y,-z
loop_
_atom_site_type_symbol
_atom_site_label
_atom_site_fract_x
_atom_site_fract_y
_atom_site_fract_z
Si Si1 0.940542 0.717843 0.745074
Si Si2 0.273813 0.918564 0.629808
Si Si3 0.712763 0.426932 0.674969
Si Si4 0.623382 0.024920 0.737642
Si Si5 0.411107 0.235778 0.577119
Si Si6 0.671793 0.463044 0.112682
Si Si7 0.029528 0.333744 0.918172
Si Si8 0.445959 0.179315 0.163111
O O1 0.096958 0.825574 0.713845
O O2 0.062685 0.622171 0.534231
O O3 0.921741 0.687597 0.928376
O O4 0.711575 0.749335 0.806692
O O5 0.227053 0.960523 0.498477
O O6 0.504730 0.862273 0.442334
O O7 0.364154 0.993813 0.784411
O O8 0.526291 0.330767 0.684923
O O9 0.717074 0.459339 0.887014
O O10 0.586016 0.515804 0.705785
O O11 0.672937 0.928542 0.764231
O O12 0.621606 0.130001 0.915400
O O13 0.515592 0.236731 0.337982
O O14 0.146678 0.242694 0.703677
O O15 0.827756 0.563405 0.160872
O O16 0.775963 0.360714 0.052028
#
# Coordination Sequence:
#
# PCOD9095360 Si02
#       8
#     2   2   2   2   2   2   2   2
#     4  11  22  34  54  86 114 141 183 229 275 328
#     4   9  19  37  57  79 113 149 184 228 275 325
#     4   9  19  37  56  79 108 141 186 231 274 326
#     4   9  19  38  59  78 109 151 186 224 276 330
#     4   9  18  36  56  78 113 148 183 227 272 323
#     4   9  19  38  59  78 107 148 187 226 278 329
#     4  10  20  35  58  83 112 147 182 228 278 328
#     4  10  20  35  57  83 110 145 187 225 274 330
#
# _framework density 25.925747000000001
#
# number of rings (size 3 to 8) (size 9 to 14) (size 15 to 20)
#    0.000    2.500    0.000    1.500    0.000    2.000 
#    0.000   26.250    0.000    0.000    0.000    0.000 
#    0.000    0.000    0.000    0.000    0.000    0.000 
#
# Total GULP energy -89278.175365 kJ/mol
# GULP energy per Si atom -5579.885960 kJ/mol
# Density = 2.586674 g / cm^3
# Si number density = 25.925747 Si / 1000 Ang^3
#
#
#
# Elastic Constant Matrix: (Units=GPa)
#
#
# Indices 1 2 3 4 5 6 
#
# 1 77.2364 20.2610 7.9516 -4.3705 -14.7966 -16.9465
# 2 20.2610 86.7862 16.1923 -7.6613 -5.8849 -13.5061
# 3 7.9516 16.1923 72.5095 3.6406 -4.7064 4.8836
# 4 -4.3705 -7.6613 3.6406 28.3566 -6.1113 -1.3931
# 5 -14.7966 -5.8849 -4.7064 -6.1113 37.2090 5.3141
# 6 -16.9465 -13.5061 4.8836 -1.3931 5.3141 50.4932
#
#
#
# Elastic Compliance Matrix: (Units=1/GPa)
#
#
# Indices 1 2 3 4 5 6 
#
# 1 0.015905 -0.002066 -0.001382 0.003532 0.005773 0.004409
# 2 -0.002066 0.013538 -0.003148 0.004148 0.001142 0.003227
# 3 -0.001382 -0.003148 0.015043 -0.002969 0.000785 -0.002926
# 4 0.003532 0.004148 -0.002969 0.039111 0.007701 0.002851
# 5 0.005773 0.001142 0.000785 0.007701 0.030840 -0.000866
# 6 0.004409 0.003227 -0.002926 0.002851 -0.000866 0.022600
#
#
# Mechanical properties :
#
#
# Convention : Reuss Voigt Hill
#
# Bulk Modulus (GPa) = 31.95591 36.14913 34.05252
# Shear Modulus (GPa) = 31.12154 36.02022 33.57088
#
# Velocity S-wave (km/s) = 3.46845 3.73146 3.60236
# Velocity P-wave (km/s) = 5.32850 5.70426 5.51958
#
# Compressibility (1/GPa) = 0.03129312
#
# Stress axis : x y z
#
# Youngs Moduli (GPa) = 62.87433 73.86624 66.47611
#
# Poissons Ratio (x) = 0.15259 0.09189
# Poissons Ratio (y) = 0.12989 0.20928
# Poissons Ratio (z) = 0.08692 0.23254
#
# Static dielectric constant tensor:
#      x y z
#    x 2.105110 0.022320 -0.037640 
#    y 0.022320 2.059750 0.063170 
#    z -0.037640 0.063170 2.061810 
# 
# From -- ./inp_files/202931.got.cif
#   From: 2010.05.17/outbox.cif.g08.bks.cpg/sg2_102_cif.got.tgz:202931.got - 2010.06.03 11:33:40.
