data_PCOD9095256
_publ_section_title
;
Structure prediction by ZEFSAII (Michael W. Deem and Ramdas Pophale) SiO2 
 PCOD9095256
Probable space group: P -1
;
_chemical_formula_sum "Si O2"
_cell_formula_units_Z 16
_cell_length_a 7.956168
_cell_length_b 8.562588
_cell_length_c 16.467589
_cell_angle_alpha 107.667347
_cell_angle_beta 107.457064
_cell_angle_gamma 40.943693
_cell_volume 695.988710
_symmetry_space_group_name_H-M "P -1"
_symmetry_group_IT_number 2
_symmetry_cell_setting 'triclinic'
loop_
_space_group_symop_operation_xyz
x,y,z
-x,-y,-z
loop_
_atom_site_type_symbol
_atom_site_label
_atom_site_fract_x
_atom_site_fract_y
_atom_site_fract_z
Si Si1 0.263043 0.372114 0.064087
Si Si2 0.686314 0.170965 0.692890
Si Si3 0.270996 0.002602 0.024607
Si Si4 0.294614 0.178340 0.428609
Si Si5 0.979463 0.007873 0.865209
Si Si6 0.180738 0.935055 0.618946
Si Si7 0.459120 0.642332 0.760817
Si Si8 0.881546 0.350270 0.520116
O O1 0.356614 0.128967 0.070559
O O2 0.303514 0.453592 0.164074
O O3 0.000000 0.500000 0.000000
O O4 0.477392 0.271978 0.010572
O O5 0.479239 0.452032 0.689401
O O6 0.752194 0.169859 0.794299
O O7 0.645254 0.005358 0.655827
O O8 0.920251 0.057995 0.648911
O O9 0.069796 0.113026 0.938429
O O10 0.116632 0.043090 0.085536
O O11 0.281536 0.378404 0.434127
O O12 0.023617 0.317400 0.454107
O O13 0.500000 0.000000 0.500000
O O14 0.223115 0.787786 0.812492
O O15 0.382880 0.815177 0.703045
O O16 0.242283 0.740397 0.536983
O O17 0.093531 0.150970 0.587193
#
# Coordination Sequence:
#
# PCOD9095256 Si02
#       8
#     2   2   2   2   2   2   2   2
#     4  10  20  35  58  86 122 158 195 252 306 361
#     4  10  20  35  56  82 119 155 195 247 299 355
#     4   9  19  37  59  81 115 156 204 248 297 364
#     4  10  20  35  57  83 119 155 196 247 296 355
#     4   9  19  37  59  82 112 159 206 248 295 365
#     4   9  19  37  59  82 115 157 206 246 294 363
#     4  10  20  35  59  87 122 160 199 252 306 357
#     4   9  19  37  59  83 112 159 203 245 295 355
#
# _framework density 22.988880000000002
#
# number of rings (size 3 to 8) (size 9 to 14) (size 15 to 20)
#    0.000    2.500    0.000    1.500    0.000    4.000 
#    4.500    7.500    0.000    0.000    0.000    0.000 
#    0.000    0.000    0.000    0.000    0.000    0.000 
#
# Total GULP energy -89102.332879 kJ/mol
# GULP energy per Si atom -5568.895805 kJ/mol
# Density = 2.293656 g / cm^3
# Si number density = 22.988880 Si / 1000 Ang^3
#
#
#
# Elastic Constant Matrix: (Units=GPa)
#
#
# Indices 1 2 3 4 5 6 
#
# 1 75.2989 18.7367 35.5400 1.5920 2.0058 13.4374
# 2 18.7367 106.0659 65.7372 -1.0580 19.6669 34.2385
# 3 35.5400 65.7372 126.6688 -4.6829 11.1116 12.2811
# 4 1.5920 -1.0580 -4.6829 41.3062 1.0077 17.2618
# 5 2.0058 19.6669 11.1116 1.0077 34.0557 6.5810
# 6 13.4374 34.2385 12.2811 17.2618 6.5810 32.2789
#
#
#
# Elastic Compliance Matrix: (Units=1/GPa)
#
#
# Indices 1 2 3 4 5 6 
#
# 1 0.016846 0.004063 -0.005679 0.003443 0.000561 -0.011118
# 2 0.004063 0.027219 -0.011138 0.012724 -0.006557 -0.031792
# 3 -0.005679 -0.011138 0.014156 -0.002730 0.000258 0.010200
# 4 0.003443 0.012724 -0.002730 0.038409 -0.001190 -0.034188
# 5 0.000561 -0.006557 0.000258 -0.001190 0.032964 0.000539
# 6 -0.011118 -0.031792 0.010200 -0.034188 0.000539 0.083623
#
#
# Mechanical properties :
#
#
# Convention : Reuss Voigt Hill
#
# Bulk Modulus (GPa) = 30.56899 60.89571 45.73235
# Shear Modulus (GPa) = 20.02978 34.06283 27.04630
#
# Velocity S-wave (km/s) = 2.95495 3.85347 3.43373
# Velocity P-wave (km/s) = 4.99685 6.80777 5.97136
#
# Compressibility (1/GPa) = 0.03271289
#
# Stress axis : x y z
#
# Youngs Moduli (GPa) = 59.36092 36.73965 70.64307
#
# Poissons Ratio (x) = -0.14928 0.40120
# Poissons Ratio (y) = -0.24119 0.78679
# Poissons Ratio (z) = 0.33712 0.40919
#
# Static dielectric constant tensor:
#      x y z
#    x 1.900190 -0.005150 0.033350 
#    y -0.005150 1.994120 0.005110 
#    z 0.033350 0.005110 1.882380 
# 
# From -- ./inp_files/557386.got.cif
#   From: 2010.05.17/outbox.cif.g08.bks.cpg/sg2_279_cif.got.tgz:557386.got - 2010.06.03 11:33:40.
