data_PCOD9095590
_publ_section_title
;
Structure prediction by ZEFSAII (Michael W. Deem and Ramdas Pophale) SiO2 
 PCOD9095590
Probable space group: P -1
;
_chemical_formula_sum "Si O2"
_cell_formula_units_Z 14
_cell_length_a 7.692601
_cell_length_b 12.690007
_cell_length_c 9.502118
_cell_angle_alpha 73.248621
_cell_angle_beta 126.665811
_cell_angle_gamma 134.468190
_cell_volume 517.089237
_symmetry_space_group_name_H-M "P -1"
_symmetry_group_IT_number 2
_symmetry_cell_setting 'triclinic'
loop_
_space_group_symop_operation_xyz
x,y,z
-x,-y,-z
loop_
_atom_site_type_symbol
_atom_site_label
_atom_site_fract_x
_atom_site_fract_y
_atom_site_fract_z
Si Si1 0.813193 0.369140 0.243356
Si Si2 0.858134 0.627739 0.107605
Si Si3 0.298754 0.181924 0.566322
Si Si4 0.105613 0.294546 0.584332
Si Si5 0.378808 0.060559 0.009588
Si Si6 0.513961 0.979325 0.352652
Si Si7 0.236222 0.220098 0.215295
O O1 0.934027 0.525569 0.182191
O O2 0.073389 0.398921 0.447766
O O3 0.537040 0.291501 0.250939
O O4 0.637801 0.240234 0.085946
O O5 0.948165 0.709437 0.274049
O O6 0.500000 0.500000 0.000000
O O7 0.886142 0.714005 0.949204
O O8 0.527922 0.159028 0.667635
O O9 0.309082 0.255869 0.400117
O O10 0.354557 0.288730 0.677235
O O11 0.000000 0.000000 0.500000
O O12 0.847612 0.142223 0.428593
O O13 0.323139 0.995331 0.164306
O O14 0.038724 0.965084 0.837540
O O15 0.500000 0.000000 0.000000
O O16 0.500000 0.000000 0.500000
#
# Coordination Sequence:
#
# PCOD9095590 Si02
#       7
#     2   2   2   2   2   2   2
#     4  10  22  40  64  91 125 169 213 254 309 382
#     4  10  23  40  62  92 125 165 213 262 312 372
#     4  10  21  37  59  89 125 160 201 256 314 370
#     4  10  20  39  61  85 122 167 207 254 310 374
#     4  11  22  38  62  94 124 156 204 264 316 364
#     4  10  20  35  58  90 120 158 204 250 309 375
#     4  11  22  39  63  95 125 161 209 260 313 373
#
# _framework density 27.074629000000002
#
# number of rings (size 3 to 8) (size 9 to 14) (size 15 to 20)
#    0.000    1.714    0.000    6.000    0.000    8.000 
#    0.000    5.714    0.000    3.429    0.000    0.000 
#    0.000    0.000    0.000    0.000    0.000    0.000 
#
# Total GULP energy -78077.924134 kJ/mol
# GULP energy per Si atom -5576.994581 kJ/mol
# Density = 2.701301 g / cm^3
# Si number density = 27.074629 Si / 1000 Ang^3
#
#
#
# Elastic Constant Matrix: (Units=GPa)
#
#
# Indices 1 2 3 4 5 6 
#
# 1 102.7928 33.4801 9.1235 0.4250 -20.3501 -27.6827
# 2 33.4801 150.6031 49.4937 -6.5534 -8.2235 -15.7754
# 3 9.1235 49.4937 110.4739 -34.4414 -10.6605 -16.1743
# 4 0.4250 -6.5534 -34.4414 53.2616 -0.0941 14.6888
# 5 -20.3501 -8.2235 -10.6605 -0.0941 25.9501 7.0222
# 6 -27.6827 -15.7754 -16.1743 14.6888 7.0222 45.7231
#
#
#
# Elastic Compliance Matrix: (Units=1/GPa)
#
#
# Indices 1 2 3 4 5 6 
#
# 1 0.014132 -0.002402 0.001363 -0.001535 0.008890 0.007337
# 2 -0.002402 0.008484 -0.004176 -0.001850 -0.001124 0.000762
# 3 0.001363 -0.004176 0.014046 0.008330 0.005313 0.000861
# 4 -0.001535 -0.001850 0.008330 0.026040 0.003774 -0.007566
# 5 0.008890 -0.001124 0.005313 0.003774 0.047802 -0.001680
# 6 0.007337 0.000762 0.000861 -0.007566 -0.001680 0.029569
#
#
# Mechanical properties :
#
#
# Convention : Reuss Voigt Hill
#
# Bulk Modulus (GPa) = 38.12296 60.89604 49.50950
# Shear Modulus (GPa) = 31.39748 43.10512 37.25130
#
# Velocity S-wave (km/s) = 3.40908 3.99442 3.71330
# Velocity P-wave (km/s) = 5.44123 6.61926 6.05895
#
# Compressibility (1/GPa) = 0.02623091
#
# Stress axis : x y z
#
# Youngs Moduli (GPa) = 70.76121 117.86215 71.19424
#
# Poissons Ratio (x) = 0.28314 -0.09702
# Poissons Ratio (y) = 0.16999 0.29733
# Poissons Ratio (z) = -0.09643 0.49222
#
# Static dielectric constant tensor:
#      x y z
#    x 3.288950 -0.232770 0.253050 
#    y -0.232770 2.389800 0.019190 
#    z 0.253050 0.019190 2.133320 
# 
# From -- ./inp_files/186991.got.cif
#   From: 2010.05.17/outbox.cif.g08.bks.cpg/sg2_94_cif.got.tgz:186991.got - 2010.06.03 11:33:40.
