data_PCOD9095566
_publ_section_title
;
Structure prediction by ZEFSAII (Michael W. Deem and Ramdas Pophale) SiO2 
 PCOD9095566
Probable space group: P -1
;
_chemical_formula_sum "Si O2"
_cell_formula_units_Z 14
_cell_length_a 13.850937
_cell_length_b 7.506020
_cell_length_c 9.783832
_cell_angle_alpha 66.150252
_cell_angle_beta 96.759436
_cell_angle_gamma 135.354053
_cell_volume 630.483828
_symmetry_space_group_name_H-M "P -1"
_symmetry_group_IT_number 2
_symmetry_cell_setting 'triclinic'
loop_
_space_group_symop_operation_xyz
x,y,z
-x,-y,-z
loop_
_atom_site_type_symbol
_atom_site_label
_atom_site_fract_x
_atom_site_fract_y
_atom_site_fract_z
Si Si1 0.802679 0.501543 0.810604
Si Si2 0.394004 0.589674 0.988259
Si Si3 0.287785 0.053660 0.054514
Si Si4 0.686621 0.007567 0.372052
Si Si5 0.370976 0.686723 0.642236
Si Si6 0.912754 0.189969 0.141607
Si Si7 0.629508 0.509121 0.577540
O O1 0.738735 0.548529 0.672493
O O2 0.964717 0.775940 0.798341
O O3 0.789750 0.261920 0.826025
O O4 0.698087 0.380964 0.960839
O O5 0.553265 0.786647 0.007354
O O6 0.405490 0.649077 0.808593
O O7 0.314190 0.266530 0.098205
O O8 0.195225 0.021443 0.931250
O O9 0.644982 0.760414 0.534886
O O10 0.533823 0.802290 0.330726
O O11 0.732039 0.280641 0.357667
O O12 0.815149 0.123870 0.266406
O O13 0.336165 0.483907 0.579468
O O14 0.500000 0.000000 0.500000
O O15 0.000000 0.500000 0.000000
#
# Coordination Sequence:
#
# PCOD9095566 Si02
#       7
#     2   2   2   2   2   2   2
#     4  11  23  39  60  90 123 160 199 244 303 365
#     4  11  22  37  65  91 116 158 205 254 302 350
#     4  10  21  37  59  88 119 151 202 252 293 350
#     4  10  20  38  60  84 120 159 202 249 297 354
#     4  10  20  35  58  88 117 149 195 251 303 349
#     4  10  21  38  60  87 127 166 196 243 306 363
#     4  10  22  38  63  89 117 158 203 251 301 351
#
# _framework density 22.205169000000001
#
# number of rings (size 3 to 8) (size 9 to 14) (size 15 to 20)
#    0.000    1.714    0.000    5.571    0.000    8.000 
#    0.000    3.571    0.000    3.429    0.000    0.000 
#    0.000    0.000    0.000    0.000    0.000    0.000 
#
# Total GULP energy -78056.201192 kJ/mol
# GULP energy per Si atom -5575.442942 kJ/mol
# Density = 2.215463 g / cm^3
# Si number density = 22.205169 Si / 1000 Ang^3
#
#
#
# Elastic Constant Matrix: (Units=GPa)
#
#
# Indices 1 2 3 4 5 6 
#
# 1 100.9327 48.9604 21.9278 9.0034 22.6066 17.3136
# 2 48.9604 75.6829 27.7336 9.3587 9.1207 17.0088
# 3 21.9278 27.7336 77.2445 16.0407 7.9720 9.3049
# 4 9.0034 9.3587 16.0407 23.1036 11.3617 8.6819
# 5 22.6066 9.1207 7.9720 11.3617 35.0856 2.8116
# 6 17.3136 17.0088 9.3049 8.6819 2.8116 46.9628
#
#
#
# Elastic Compliance Matrix: (Units=1/GPa)
#
#
# Indices 1 2 3 4 5 6 
#
# 1 0.016783 -0.009240 -0.000865 0.003286 -0.009060 -0.002734
# 2 -0.009240 0.021562 -0.004575 -0.001822 0.002242 -0.003294
# 3 -0.000865 -0.004575 0.016777 -0.010229 0.001209 0.000470
# 4 0.003286 -0.001822 -0.010229 0.062464 -0.018830 -0.008945
# 5 -0.009060 0.002242 0.001209 -0.018830 0.039306 0.003417
# 6 -0.002734 -0.003294 0.000470 -0.008945 0.003417 0.024850
#
#
# Mechanical properties :
#
#
# Convention : Reuss Voigt Hill
#
# Bulk Modulus (GPa) = 38.81607 50.12263 44.46935
# Shear Modulus (GPa) = 22.75940 31.37964 27.06952
#
# Velocity S-wave (km/s) = 3.20497 3.76329 3.49530
# Velocity P-wave (km/s) = 5.58698 6.44241 6.02989
#
# Compressibility (1/GPa) = 0.02576253
#
# Stress axis : x y z
#
# Youngs Moduli (GPa) = 59.58467 46.37694 59.60667
#
# Poissons Ratio (x) = 0.42853 0.05154
# Poissons Ratio (y) = 0.55057 0.27270
# Poissons Ratio (z) = 0.05152 0.21217
#
# Static dielectric constant tensor:
#      x y z
#    x 1.884600 -0.055570 0.001450 
#    y -0.055570 1.871630 0.045240 
#    z 0.001450 0.045240 1.838690 
# 
# From -- ./inp_files/294904.got.cif
#   From: 2010.05.17/outbox.cif.g08.bks.cpg/sg2_148_cif.got.tgz:294904.got - 2010.06.03 11:33:40.
