data_PCOD9095838
_publ_section_title
;
Structure prediction by ZEFSAII (Michael W. Deem and Ramdas Pophale) SiO2 
 PCOD9095838
Probable space group: P -1
;
_chemical_formula_sum "Si O2"
_cell_formula_units_Z 14
_cell_length_a 14.176452
_cell_length_b 7.178566
_cell_length_c 7.755592
_cell_angle_alpha 117.918429
_cell_angle_beta 70.295861
_cell_angle_gamma 122.167240
_cell_volume 586.259746
_symmetry_space_group_name_H-M "P -1"
_symmetry_group_IT_number 2
_symmetry_cell_setting 'triclinic'
loop_
_space_group_symop_operation_xyz
x,y,z
-x,-y,-z
loop_
_atom_site_type_symbol
_atom_site_label
_atom_site_fract_x
_atom_site_fract_y
_atom_site_fract_z
Si Si1 0.598279 0.728554 0.202177
Si Si2 0.045603 0.817456 0.956043
Si Si3 0.622041 0.375227 0.528937
Si Si4 0.412121 0.740988 0.892024
Si Si5 0.218482 0.859598 0.573321
Si Si6 0.183549 0.572493 0.139750
Si Si7 0.755125 0.801114 0.844624
O O1 0.485407 0.739715 0.328567
O O2 0.567606 0.454701 0.100918
O O3 0.696545 0.863068 0.341502
O O4 0.663902 0.836581 0.032783
O O5 0.117224 0.794935 0.741346
O O6 0.934057 0.576065 0.946980
O O7 0.132470 0.952493 0.115279
O O8 0.000000 0.000000 0.000000
O O9 0.579617 0.318420 0.336970
O O10 0.703675 0.257591 0.460175
O O11 0.693176 0.652621 0.651133
O O12 0.287173 0.695049 0.000379
O O13 0.500000 0.000000 0.000000
O O14 0.180136 0.755081 0.362172
O O15 0.211403 0.382229 0.149014
#
# Coordination Sequence:
#
# PCOD9095838 Si02
#       7
#     2   2   2   2   2   2   2
#     4  10  20  37  58  82 113 151 187 227 279 335
#     4   9  17  34  59  84 109 142 188 235 273 325
#     4  11  21  35  55  85 119 148 182 233 278 325
#     4  11  24  39  55  81 116 153 187 224 279 341
#     4  10  20  35  60  89 109 142 191 234 276 326
#     4   9  18  35  56  79 111 148 184 224 272 329
#     4   8  18  33  56  84 108 142 190 231 271 319
#
# _framework density 23.880202000000001
#
# number of rings (size 3 to 8) (size 9 to 14) (size 15 to 20)
#    0.000    2.286    0.000    3.429    0.000    4.571 
#    0.000    1.429    0.000    0.000    0.000    0.000 
#    0.000    0.000    0.000    0.000    0.000    0.000 
#
# Total GULP energy -78336.580657 kJ/mol
# GULP energy per Si atom -5595.470047 kJ/mol
# Density = 2.382585 g / cm^3
# Si number density = 23.880202 Si / 1000 Ang^3
#
#
#
# Elastic Constant Matrix: (Units=GPa)
#
#
# Indices 1 2 3 4 5 6 
#
# 1 86.2782 47.1610 39.9207 -5.2721 -7.8905 32.2432
# 2 47.1610 140.0067 58.0158 28.1948 -1.9715 43.1536
# 3 39.9207 58.0158 149.7568 18.5479 5.2718 33.3757
# 4 -5.2721 28.1948 18.5479 35.9844 15.6478 10.3753
# 5 -7.8905 -1.9715 5.2718 15.6478 47.7015 -0.5607
# 6 32.2432 43.1536 33.3757 10.3753 -0.5607 50.4769
#
#
#
# Elastic Compliance Matrix: (Units=1/GPa)
#
#
# Indices 1 2 3 4 5 6 
#
# 1 0.019339 -0.004923 -0.002643 0.010666 -0.000312 -0.008593
# 2 -0.004923 0.013000 -0.001499 -0.010098 0.003144 -0.004868
# 3 -0.002643 -0.001499 0.008850 -0.002866 -0.000564 -0.002299
# 4 0.010666 -0.010098 -0.002866 0.046388 -0.013623 -0.005971
# 5 -0.000312 0.003144 -0.000564 -0.013623 0.025585 0.000969
# 6 -0.008593 -0.004868 -0.002299 -0.005971 0.000969 0.032219
#
#
# Mechanical properties :
#
#
# Convention : Reuss Voigt Hill
#
# Bulk Modulus (GPa) = 43.36749 74.02629 58.69689
# Shear Modulus (GPa) = 29.20613 42.22886 35.71750
#
# Velocity S-wave (km/s) = 3.50097 4.20975 3.87162
# Velocity P-wave (km/s) = 5.87727 7.39565 6.67974
#
# Compressibility (1/GPa) = 0.02305875
#
# Stress axis : x y z
#
# Youngs Moduli (GPa) = 51.71007 76.92192 112.99449
#
# Poissons Ratio (x) = 0.37868 0.29865
# Poissons Ratio (y) = 0.25456 0.16939
# Poissons Ratio (z) = 0.13667 0.11531
#
# Static dielectric constant tensor:
#      x y z
#    x 1.954570 -0.037750 0.027320 
#    y -0.037750 1.935860 0.053130 
#    z 0.027320 0.053130 1.898300 
# 
# From -- ./inp_files/188174.got.cif
#   From: 2010.05.17/outbox.cif.g08.bks.cpg/sg2_95_cif.got.tgz:188174.got - 2010.06.03 11:33:40.
