data_PCOD9095171
_publ_section_title
;
Structure prediction by ZEFSAII (Michael W. Deem and Ramdas Pophale) SiO2 
 PCOD9095171
Probable space group: P -1
;
_chemical_formula_sum "Si O2"
_cell_formula_units_Z 14
_cell_length_a 20.744741
_cell_length_b 10.437717
_cell_length_c 16.837871
_cell_angle_alpha 51.494473
_cell_angle_beta 18.277257
_cell_angle_gamma 41.212015
_cell_volume 675.013210
_symmetry_space_group_name_H-M "P -1"
_symmetry_group_IT_number 2
_symmetry_cell_setting 'triclinic'
loop_
_space_group_symop_operation_xyz
x,y,z
-x,-y,-z
loop_
_atom_site_type_symbol
_atom_site_label
_atom_site_fract_x
_atom_site_fract_y
_atom_site_fract_z
Si Si1 0.971889 0.667603 0.793995
Si Si2 0.626669 0.055874 0.590138
Si Si3 0.082071 0.278168 0.903192
Si Si4 0.158216 0.082981 0.303350
Si Si5 0.360722 0.590062 0.499291
Si Si6 0.803429 0.758228 0.639317
Si Si7 0.353293 0.875444 0.636208
O O1 0.955730 0.719690 0.700421
O O2 0.020666 0.453908 0.844176
O O3 0.199547 0.649370 0.582740
O O4 0.670563 0.870520 0.099138
O O5 0.578935 0.254154 0.613563
O O6 0.731530 0.037831 0.387017
O O7 0.807902 0.853188 0.514319
O O8 0.342570 0.210043 0.672855
O O9 0.171596 0.066142 0.837629
O O10 0.836245 0.372079 0.214183
O O11 0.115199 0.168585 0.410101
O O12 0.000000 0.000000 0.500000
O O13 0.482496 0.888065 0.982741
O O14 0.614300 0.334181 0.304940
O O15 0.000000 0.500000 0.500000
#
# Coordination Sequence:
#
# PCOD9095171 Si02
#       7
#     2   2   2   2   2   2   2
#     4  10  20  38  61  81 116 156 188 241 299 342
#     4  11  21  37  62  83 114 157 192 235 300 348
#     4  10  20  35  56  84 119 150 190 233 283 352
#     4  10  22  43  66  89 120 161 207 255 309 361
#     4  11  20  38  56  85 120 148 191 234 284 353
#     4  10  24  43  62  93 125 154 207 263 302 360
#     4  10  20  35  55  84 117 153 190 233 283 349
#
# _framework density 20.740335000000002
#
# number of rings (size 3 to 8) (size 9 to 14) (size 15 to 20)
#    0.000    1.714    2.857    2.143    2.000    1.143 
#    0.000    4.286    0.000    0.000    0.000    0.000 
#    0.000    0.000    0.000    0.000    0.000    0.000 
#
# Total GULP energy -78243.862507 kJ/mol
# GULP energy per Si atom -5588.847322 kJ/mol
# Density = 2.069313 g / cm^3
# Si number density = 20.740335 Si / 1000 Ang^3
#
#
#
# Elastic Constant Matrix: (Units=GPa)
#
#
# Indices 1 2 3 4 5 6 
#
# 1 125.4497 72.5270 27.4358 16.7840 -15.5701 -19.6109
# 2 72.5270 129.3895 24.6125 24.7614 -7.5535 -8.3761
# 3 27.4358 24.6125 41.6664 0.8953 -21.4366 -0.4562
# 4 16.7840 24.7614 0.8953 26.8151 8.3324 2.4073
# 5 -15.5701 -7.5535 -21.4366 8.3324 19.6507 0.5936
# 6 -19.6109 -8.3761 -0.4562 2.4073 0.5936 40.3827
#
#
#
# Elastic Compliance Matrix: (Units=1/GPa)
#
#
# Indices 1 2 3 4 5 6 
#
# 1 0.015097 -0.005569 0.001631 -0.009781 0.015550 0.006549
# 2 -0.005569 0.013318 -0.003971 -0.008750 0.000069 0.000534
# 3 0.001631 -0.003971 0.072685 -0.028146 0.090957 0.001130
# 4 -0.009781 -0.008750 -0.028146 0.076316 -0.073865 -0.010346
# 5 0.015550 0.000069 0.090957 -0.073865 0.193474 0.010153
# 6 0.006549 0.000534 0.001130 -0.010346 0.010153 0.028535
#
#
# Mechanical properties :
#
#
# Convention : Reuss Voigt Hill
#
# Bulk Modulus (GPa) = 11.72575 60.62847 36.17711
# Shear Modulus (GPa) = 11.26967 28.83169 20.05068
#
# Velocity S-wave (km/s) = 2.33356 3.73249 3.11263
# Velocity P-wave (km/s) = 3.59535 6.91888 5.51350
#
# Compressibility (1/GPa) = 0.08528239
#
# Stress axis : x y z
#
# Youngs Moduli (GPa) = 66.24013 75.08359 13.75808
#
# Poissons Ratio (x) = 0.41812 -0.02244
# Poissons Ratio (y) = 0.36888 0.05463
# Poissons Ratio (z) = -0.10805 0.29816
#
# Static dielectric constant tensor:
#      x y z
#    x 1.747660 -0.007240 -0.036440 
#    y -0.007240 1.724310 -0.017290 
#    z -0.036440 -0.017290 1.750830 
# 
# From -- ./inp_files/337947.got.cif
#   From: 2010.05.17/outbox.cif.g08.bks.cpg/sg2_169_cif.got.tgz:337947.got - 2010.06.03 11:33:40.
