data_PCOD9095033
_publ_section_title
;
Structure prediction by ZEFSAII (Michael W. Deem and Ramdas Pophale) SiO2 
 PCOD9095033
Probable space group: P -1
;
_chemical_formula_sum "Si O2"
_cell_formula_units_Z 16
_cell_length_a 14.957634
_cell_length_b 5.528673
_cell_length_c 19.947414
_cell_angle_alpha 63.848424
_cell_angle_beta 151.985824
_cell_angle_gamma 112.359719
_cell_volume 695.324431
_symmetry_space_group_name_H-M "P -1"
_symmetry_group_IT_number 2
_symmetry_cell_setting 'triclinic'
loop_
_space_group_symop_operation_xyz
x,y,z
-x,-y,-z
loop_
_atom_site_type_symbol
_atom_site_label
_atom_site_fract_x
_atom_site_fract_y
_atom_site_fract_z
Si Si1 0.334225 0.600572 0.529100
Si Si2 0.127630 0.425045 0.894141
Si Si3 0.300685 0.247769 0.290804
Si Si4 0.151703 0.255363 0.627936
Si Si5 0.842877 0.190718 0.838889
Si Si6 0.019062 0.001685 0.246554
Si Si7 0.164287 0.073717 0.503899
Si Si8 0.472859 0.594787 0.766992
O O1 0.476719 0.702198 0.553834
O O2 0.224415 0.332613 0.469650
O O3 0.459259 0.528421 0.686727
O O4 0.175197 0.828216 0.413326
O O5 0.946825 0.328320 0.828773
O O6 0.098101 0.747348 0.830906
O O7 0.318978 0.369144 0.070400
O O8 0.116744 0.226313 0.847328
O O9 0.225860 0.558000 0.191894
O O10 0.155564 0.131084 0.263487
O O11 0.304455 0.024806 0.261115
O O12 0.153411 0.169855 0.562307
O O13 0.360946 0.369586 0.763522
O O14 0.000000 0.500000 0.500000
O O15 0.048766 0.038796 0.632488
O O16 0.000000 0.000000 0.000000
O O17 0.337746 0.859165 0.648045
#
# Coordination Sequence:
#
# PCOD9095033 Si02
#       8
#     2   2   2   2   2   2   2   2
#     4  11  23  35  61  88 116 153 211 253 286 349
#     4  10  23  39  59  82 122 160 201 238 306 358
#     4  10  22  36  55  80 113 163 206 243 290 345
#     4   8  16  35  56  89 120 146 180 244 307 351
#     4  10  20  35  53  80 116 154 195 255 299 339
#     4  10  24  42  56  82 125 170 196 245 303 349
#     4   9  19  33  59  91 117 145 190 253 297 342
#     4  10  21  35  62  92 114 151 201 249 290 361
#
# _framework density 23.010842
#
# number of rings (size 3 to 8) (size 9 to 14) (size 15 to 20)
#    0.000    2.250    0.000    1.500    8.750    1.000 
#    0.000    3.750    0.000    1.500    0.000    0.000 
#    0.000    0.000    0.000    0.000    0.000    0.000 
#
# Total GULP energy -89180.325547 kJ/mol
# GULP energy per Si atom -5573.770347 kJ/mol
# Density = 2.295847 g / cm^3
# Si number density = 23.010842 Si / 1000 Ang^3
#
#
#
# Elastic Constant Matrix: (Units=GPa)
#
#
# Indices 1 2 3 4 5 6 
#
# 1 43.9217 27.4907 14.2468 3.9522 8.8950 -6.8314
# 2 27.4907 165.9811 59.4040 9.0498 7.2424 -4.5097
# 3 14.2468 59.4040 96.8746 3.9815 -8.7035 -10.1148
# 4 3.9522 9.0498 3.9815 36.7089 5.1581 11.7075
# 5 8.8950 7.2424 -8.7035 5.1581 26.5066 1.2537
# 6 -6.8314 -4.5097 -10.1148 11.7075 1.2537 32.7110
#
#
#
# Elastic Compliance Matrix: (Units=1/GPa)
#
#
# Indices 1 2 3 4 5 6 
#
# 1 0.028587 -0.003182 -0.002334 -0.002694 -0.009255 0.006129
# 2 -0.003182 0.008486 -0.005037 -0.000580 -0.002757 -0.000739
# 3 -0.002334 -0.005037 0.014936 -0.002445 0.007349 0.004030
# 4 -0.002694 -0.000580 -0.002445 0.032843 -0.005519 -0.012942
# 5 -0.009255 -0.002757 0.007349 -0.005519 0.045063 0.000208
# 6 0.006129 -0.000739 0.004030 -0.012942 0.000208 0.037619
#
#
# Mechanical properties :
#
#
# Convention : Reuss Voigt Hill
#
# Bulk Modulus (GPa) = 32.35877 56.56226 44.46052
# Shear Modulus (GPa) = 25.13326 32.89437 29.01382
#
# Velocity S-wave (km/s) = 3.30848 3.78500 3.55473
# Velocity P-wave (km/s) = 5.35609 6.61329 6.01761
#
# Compressibility (1/GPa) = 0.03090353
#
# Stress axis : x y z
#
# Youngs Moduli (GPa) = 34.98149 117.83604 66.95263
#
# Poissons Ratio (x) = 0.37498 0.15624
# Poissons Ratio (y) = 0.11132 0.33723
# Poissons Ratio (z) = 0.08163 0.59352
#
# Static dielectric constant tensor:
#      x y z
#    x 1.959350 0.001580 -0.039430 
#    y 0.001580 1.971870 0.042330 
#    z -0.039430 0.042330 1.841720 
# 
# From -- ./inp_files/37847.got.cif
#   From: 2010.05.17/outbox.cif.g08.bks.cpg/sg2_19_cif.got.tgz:37847.got - 2010.06.03 11:33:40.
