data_PCOD9095721
_publ_section_title
;
Structure prediction by ZEFSAII (Michael W. Deem and Ramdas Pophale) SiO2 
 PCOD9095721
Probable space group: P -1
;
_chemical_formula_sum "Si O2"
_cell_formula_units_Z 14
_cell_length_a 10.905255
_cell_length_b 19.937740
_cell_length_c 6.274020
_cell_angle_alpha 102.913476
_cell_angle_beta 71.853532
_cell_angle_gamma 149.451113
_cell_volume 656.036438
_symmetry_space_group_name_H-M "P -1"
_symmetry_group_IT_number 2
_symmetry_cell_setting 'triclinic'
loop_
_space_group_symop_operation_xyz
x,y,z
-x,-y,-z
loop_
_atom_site_type_symbol
_atom_site_label
_atom_site_fract_x
_atom_site_fract_y
_atom_site_fract_z
Si Si1 0.693474 0.614847 0.691068
Si Si2 0.837507 0.986256 0.191351
Si Si3 0.609036 0.295185 0.561494
Si Si4 0.867566 0.639131 0.206975
Si Si5 0.978420 0.170672 0.968114
Si Si6 0.765219 0.784650 0.517779
Si Si7 0.944176 0.529037 0.861168
O O1 0.835835 0.625637 0.470285
O O2 0.412946 0.465022 0.785287
O O3 0.663164 0.671100 0.610433
O O4 0.866794 0.717898 0.859355
O O5 0.574517 0.839182 0.310389
O O6 0.006173 0.084498 0.372316
O O7 0.805150 0.038346 0.093865
O O8 0.000000 0.000000 0.000000
O O9 0.446976 0.257281 0.437836
O O10 0.711026 0.395794 0.753334
O O11 0.838748 0.367848 0.360482
O O12 0.074691 0.790412 0.137507
O O13 0.910800 0.586764 0.034468
O O14 0.141705 0.194710 0.750600
O O15 0.000000 0.500000 0.000000
#
# Coordination Sequence:
#
# PCOD9095721 Si02
#       7
#     2   2   2   2   2   2   2
#     4   9  19  33  59  91 120 154 198 258 304 358
#     4  11  23  37  64  97 125 157 198 259 305 361
#     4  11  24  40  61  94 124 165 208 242 308 365
#     4  10  20  36  57  85 120 160 203 251 303 355
#     4  10  20  35  59  89 122 153 196 257 308 352
#     4  10  20  36  62  97 123 152 201 254 312 361
#     4  11  26  42  62  86 127 169 205 250 297 371
#
# _framework density 21.34028
#
# number of rings (size 3 to 8) (size 9 to 14) (size 15 to 20)
#    0.000    1.714    1.429    2.571    4.000    4.571 
#    0.000    0.714    0.000    8.571    0.000    0.000 
#    0.000    0.000    0.000    0.000    0.000    0.000 
#
# Total GULP energy -78108.648735 kJ/mol
# GULP energy per Si atom -5579.189195 kJ/mol
# Density = 2.129171 g / cm^3
# Si number density = 21.340280 Si / 1000 Ang^3
#
#
#
# Elastic Constant Matrix: (Units=GPa)
#
#
# Indices 1 2 3 4 5 6 
#
# 1 47.4017 29.5251 26.2243 -12.8137 -5.9589 -19.3617
# 2 29.5251 127.1168 53.4274 -19.9252 -9.1715 -25.0400
# 3 26.2243 53.4274 116.6408 2.4510 -15.7413 -20.2703
# 4 -12.8137 -19.9252 2.4510 39.3340 -15.4300 7.3090
# 5 -5.9589 -9.1715 -15.7413 -15.4300 27.0995 6.1360
# 6 -19.3617 -25.0400 -20.2703 7.3090 6.1360 24.1219
#
#
#
# Elastic Compliance Matrix: (Units=1/GPa)
#
#
# Indices 1 2 3 4 5 6 
#
# 1 0.035159 -0.000719 -0.003437 0.010369 0.006939 0.019679
# 2 -0.000719 0.012200 -0.004031 0.006843 0.004271 0.005540
# 3 -0.003437 -0.004031 0.012227 -0.003979 0.001793 0.004081
# 4 0.010369 0.006843 -0.003979 0.046523 0.031017 -0.009904
# 5 0.006939 0.004271 0.001793 0.031017 0.061647 -0.013569
# 6 0.019679 0.005540 0.004081 -0.009904 -0.013569 0.072884
#
#
# Mechanical properties :
#
#
# Convention : Reuss Voigt Hill
#
# Bulk Modulus (GPa) = 23.14184 56.61256 39.87720
# Shear Modulus (GPa) = 18.42167 30.24325 24.33246
#
# Velocity S-wave (km/s) = 2.94127 3.76864 3.38037
# Velocity P-wave (km/s) = 4.73313 6.74707 5.82776
#
# Compressibility (1/GPa) = 0.04321178
#
# Stress axis : x y z
#
# Youngs Moduli (GPa) = 28.44215 81.96538 81.78377
#
# Poissons Ratio (x) = 0.05897 0.28107
# Poissons Ratio (y) = 0.02046 0.32969
# Poissons Ratio (z) = 0.09775 0.33042
#
# Static dielectric constant tensor:
#      x y z
#    x 1.800400 -0.026710 0.044500 
#    y -0.026710 1.760130 -0.006050 
#    z 0.044500 -0.006050 1.818820 
# 
# From -- ./inp_files/67350.got.cif
#   From: 2010.05.17/outbox.cif.g08.bks.cpg/sg2_34_cif.got.tgz:67350.got - 2010.06.03 11:33:40.
