data_PCOD9095203
_publ_section_title
;
Structure prediction by ZEFSAII (Michael W. Deem and Ramdas Pophale) SiO2 
 PCOD9095203
Probable space group: P -1
;
_chemical_formula_sum "Si O2"
_cell_formula_units_Z 16
_cell_length_a 13.010259
_cell_length_b 6.895816
_cell_length_c 10.279614
_cell_angle_alpha 47.014186
_cell_angle_beta 97.432613
_cell_angle_gamma 99.956301
_cell_volume 664.401745
_symmetry_space_group_name_H-M "P -1"
_symmetry_group_IT_number 2
_symmetry_cell_setting 'triclinic'
loop_
_space_group_symop_operation_xyz
x,y,z
-x,-y,-z
loop_
_atom_site_type_symbol
_atom_site_label
_atom_site_fract_x
_atom_site_fract_y
_atom_site_fract_z
Si Si1 0.698082 0.863773 0.795368
Si Si2 0.704840 0.341450 0.901174
Si Si3 0.458406 0.768619 0.498964
Si Si4 0.674974 0.513897 0.197297
Si Si5 0.143566 0.753803 0.253577
Si Si6 0.352781 0.027963 0.724542
Si Si7 0.156786 0.292762 0.657425
Si Si8 0.069491 0.737494 0.971428
O O1 0.677264 0.637451 0.784514
O O2 0.641868 0.115661 0.630845
O O3 0.819435 0.968595 0.794946
O O4 0.655977 0.717442 0.986981
O O5 0.749263 0.289379 0.790669
O O6 0.812254 0.327328 0.005923
O O7 0.630449 0.111558 0.067960
O O8 0.415140 0.516750 0.694219
O O9 0.500000 0.000000 0.500000
O O10 0.549373 0.780427 0.402763
O O11 0.670509 0.224881 0.261119
O O12 0.784875 0.605258 0.245590
O O13 0.118786 0.525372 0.459394
O O14 0.063153 0.740545 0.126560
O O15 0.252096 0.183540 0.645186
O O16 0.071019 0.039782 0.783221
O O17 0.000000 0.500000 0.000000
#
# Coordination Sequence:
#
# PCOD9095203 Si02
#       8
#     2   2   2   2   2   2   2   2
#     4  11  19  39  56  78 115 149 190 221 272 332
#     4   8  20  36  59  79 109 151 178 222 289 319
#     4  10  22  33  53  86 111 146 194 236 264 308
#     4  10  20  35  56  77 107 152 184 229 273 314
#     4  10  21  35  60  83 105 151 179 223 278 330
#     4   9  20  37  52  80 113 148 189 229 270 315
#     4  11  20  37  60  80 112 148 183 220 282 334
#     4   9  20  40  60  86 112 134 182 232 276 335
#
# _framework density 24.081814999999999
#
# number of rings (size 3 to 8) (size 9 to 14) (size 15 to 20)
#    0.750    1.500    2.500    0.000    3.500    5.500 
#    0.000    1.875    0.000    0.750    0.000    0.000 
#    0.000    0.000    0.000    0.000    0.000    0.000 
#
# Total GULP energy -89322.723503 kJ/mol
# GULP energy per Si atom -5582.670219 kJ/mol
# Density = 2.402700 g / cm^3
# Si number density = 24.081815 Si / 1000 Ang^3
#
#
#
# Elastic Constant Matrix: (Units=GPa)
#
#
# Indices 1 2 3 4 5 6 
#
# 1 36.0197 4.4403 -10.4466 -0.1072 -14.4068 -7.5585
# 2 4.4403 102.2541 18.9594 -4.9139 -6.7394 12.0976
# 3 -10.4466 18.9594 78.7899 -13.2847 -4.0184 3.0270
# 4 -0.1072 -4.9139 -13.2847 38.7825 2.7572 -4.4865
# 5 -14.4068 -6.7394 -4.0184 2.7572 22.6413 -3.3902
# 6 -7.5585 12.0976 3.0270 -4.4865 -3.3902 39.8069
#
#
#
# Elastic Compliance Matrix: (Units=1/GPa)
#
#
# Indices 1 2 3 4 5 6 
#
# 1 0.045272 -0.002717 0.008074 0.001691 0.030967 0.011636
# 2 -0.002717 0.010873 -0.002822 -0.000044 0.000477 -0.003570
# 3 0.008074 -0.002822 0.015502 0.004760 0.006818 0.002329
# 4 0.001691 -0.000044 0.004760 0.027837 -0.001030 0.003022
# 5 0.030967 0.000477 0.006818 -0.001030 0.066967 0.010804
# 6 0.011636 -0.003570 0.002329 0.003022 0.010804 0.029499
#
#
# Mechanical properties :
#
#
# Convention : Reuss Voigt Hill
#
# Bulk Modulus (GPa) = 13.03529 26.99667 20.01598
# Shear Modulus (GPa) = 23.09967 33.85350 28.47659
#
# Velocity S-wave (km/s) = 3.10048 3.75343 3.44247
# Velocity P-wave (km/s) = 4.27106 5.47896 4.91228
#
# Compressibility (1/GPa) = 0.07671481
#
# Stress axis : x y z
#
# Youngs Moduli (GPa) = 22.08882 91.97449 64.50616
#
# Poissons Ratio (x) = 0.24992 -0.52081
# Poissons Ratio (y) = 0.06002 0.18207
# Poissons Ratio (z) = -0.17834 0.25959
#
# Static dielectric constant tensor:
#      x y z
#    x 2.013170 -0.013040 -0.019360 
#    y -0.013040 1.948750 -0.001810 
#    z -0.019360 -0.001810 1.925730 
# 
# From -- ./inp_files/445484.got.cif
#   From: 2010.05.17/outbox.cif.g08.bks.cpg/sg2_223_cif.got.tgz:445484.got - 2010.06.03 11:33:40.
