data_PCOD9095546
_publ_section_title
;
Structure prediction by ZEFSAII (Michael W. Deem and Ramdas Pophale) SiO2 
 PCOD9095546
Probable space group: P -1
;
_chemical_formula_sum "Si O2"
_cell_formula_units_Z 16
_cell_length_a 11.834876
_cell_length_b 6.855940
_cell_length_c 17.726148
_cell_angle_alpha 116.737435
_cell_angle_beta 125.542803
_cell_angle_gamma 43.555283
_cell_volume 805.353001
_symmetry_space_group_name_H-M "P -1"
_symmetry_group_IT_number 2
_symmetry_cell_setting 'triclinic'
loop_
_space_group_symop_operation_xyz
x,y,z
-x,-y,-z
loop_
_atom_site_type_symbol
_atom_site_label
_atom_site_fract_x
_atom_site_fract_y
_atom_site_fract_z
Si Si1 0.508661 0.784837 0.387465
Si Si2 0.196073 0.776920 0.302448
Si Si3 0.666234 0.431557 0.004437
Si Si4 0.476219 0.726656 0.196966
Si Si5 0.788604 0.745491 0.053302
Si Si6 0.183631 0.791818 0.832552
Si Si7 0.376821 0.408840 0.448213
Si Si8 0.214082 0.338938 0.139600
O O1 0.328665 0.850079 0.361915
O O2 0.530441 0.655052 0.292131
O O3 0.658349 0.580137 0.473522
O O4 0.476183 0.076630 0.414389
O O5 0.223370 0.611521 0.361653
O O6 0.235546 0.568033 0.213045
O O7 0.995047 0.057563 0.257957
O O8 0.672712 0.681509 0.039558
O O9 0.837650 0.204100 0.084163
O O10 0.500000 0.500000 0.000000
O O11 0.648429 0.335814 0.900075
O O12 0.663809 0.528202 0.190033
O O13 0.357957 0.058711 0.194353
O O14 0.004607 0.491781 0.102587
O O15 0.750901 0.023699 0.118829
O O16 0.755612 0.751299 0.951935
O O17 0.500000 0.500000 0.500000
#
# Coordination Sequence:
#
# PCOD9095546 Si02
#       8
#     2   2   2   2   2   2   2   2
#     4  10  20  36  63  86 110 145 188 237 289 336
#     4  10  20  37  60  84 114 148 192 234 281 351
#     4  10  22  37  53  79 118 162 196 230 284 334
#     4  11  21  37  54  85 117 148 194 236 286 339
#     4  10  21  38  56  79 119 157 201 244 275 336
#     4  10  23  38  53  84 119 157 192 229 293 336
#     4   9  19  37  61  89 110 139 185 238 289 345
#     4  10  20  35  58  87 113 153 199 243 286 326
#
# _framework density 19.867063999999999
#
# number of rings (size 3 to 8) (size 9 to 14) (size 15 to 20)
#    0.000    2.000    2.500    0.750    1.750    2.500 
#    4.500    0.625    0.000    6.750    0.000    0.000 
#    0.000    0.000    0.000    0.000    0.000    0.000 
#
# Total GULP energy -89118.304054 kJ/mol
# GULP energy per Si atom -5569.894003 kJ/mol
# Density = 1.982185 g / cm^3
# Si number density = 19.867064 Si / 1000 Ang^3
#
#
#
# Elastic Constant Matrix: (Units=GPa)
#
#
# Indices 1 2 3 4 5 6 
#
# 1 48.5342 13.7200 13.3359 4.3446 1.7957 14.8401
# 2 13.7200 60.0241 10.2836 -7.9734 2.4506 -2.8785
# 3 13.3359 10.2836 116.1344 -17.0993 -17.4043 -4.2490
# 4 4.3446 -7.9734 -17.0993 27.4790 6.8038 10.9412
# 5 1.7957 2.4506 -17.4043 6.8038 27.2602 3.4439
# 6 14.8401 -2.8785 -4.2490 10.9412 3.4439 25.5157
#
#
#
# Elastic Compliance Matrix: (Units=1/GPa)
#
#
# Indices 1 2 3 4 5 6 
#
# 1 0.029188 -0.007057 -0.003788 -0.001796 -0.001049 -0.017491
# 2 -0.007057 0.019449 -0.000452 0.005647 -0.003522 0.004277
# 3 -0.003788 -0.000452 0.010770 0.005417 0.005706 0.000853
# 4 -0.001796 0.005647 0.005417 0.050732 -0.007295 -0.018186
# 5 -0.001049 -0.003522 0.005706 -0.007295 0.042719 -0.001475
# 6 -0.017491 0.004277 0.000853 -0.018186 -0.001475 0.057986
#
#
# Mechanical properties :
#
#
# Convention : Reuss Voigt Hill
#
# Bulk Modulus (GPa) = 27.16452 33.26353 30.21403
# Shear Modulus (GPa) = 20.34920 28.54119 24.44519
#
# Velocity S-wave (km/s) = 3.20389 3.79437 3.51157
# Velocity P-wave (km/s) = 5.23349 5.99798 5.62873
#
# Compressibility (1/GPa) = 0.03681272
#
# Stress axis : x y z
#
# Youngs Moduli (GPa) = 34.26107 51.41524 92.85314
#
# Poissons Ratio (x) = 0.36284 0.35176
# Poissons Ratio (y) = 0.24178 0.04194
# Poissons Ratio (z) = 0.12979 0.02322
#
# Static dielectric constant tensor:
#      x y z
#    x 1.712020 0.003640 -0.009430 
#    y 0.003640 1.733320 -0.030970 
#    z -0.009430 -0.030970 1.791800 
# 
# From -- ./inp_files/564247.got.cif
#   From: 2010.05.17/outbox.cif.g08.bks.cpg/sg2_283_cif.got.tgz:564247.got - 2010.06.03 11:33:40.
