data_PCOD9095757
_publ_section_title
;
Structure prediction by ZEFSAII (Michael W. Deem and Ramdas Pophale) SiO2 
 PCOD9095757
Probable space group: P -1
;
_chemical_formula_sum "Si O2"
_cell_formula_units_Z 14
_cell_length_a 19.577918
_cell_length_b 11.651447
_cell_length_c 9.519213
_cell_angle_alpha 104.806669
_cell_angle_beta 45.997470
_cell_angle_gamma 141.806740
_cell_volume 731.450311
_symmetry_space_group_name_H-M "P -1"
_symmetry_group_IT_number 2
_symmetry_cell_setting 'triclinic'
loop_
_space_group_symop_operation_xyz
x,y,z
-x,-y,-z
loop_
_atom_site_type_symbol
_atom_site_label
_atom_site_fract_x
_atom_site_fract_y
_atom_site_fract_z
Si Si1 0.069449 0.291512 0.055426
Si Si2 0.663112 0.228982 0.666533
Si Si3 0.447614 0.070210 0.673903
Si Si4 0.631995 0.758631 0.570175
Si Si5 0.013691 0.646665 0.084480
Si Si6 0.598466 0.470888 0.456755
Si Si7 0.596593 0.266661 0.070648
O O1 0.189829 0.303204 0.851150
O O2 0.227374 0.533414 0.004745
O O3 0.860281 0.039775 0.348016
O O4 0.021964 0.306685 0.982045
O O5 0.486715 0.094935 0.789548
O O6 0.853673 0.474316 0.383035
O O7 0.595895 0.017425 0.691001
O O8 0.670389 0.281252 0.830979
O O9 0.579420 0.321135 0.505941
O O10 0.500000 0.000000 0.500000
O O11 0.233175 0.887791 0.901580
O O12 0.592381 0.576989 0.599898
O O13 0.567980 0.700745 0.478709
O O14 0.487018 0.693864 0.829467
O O15 0.000000 0.500000 0.000000
#
# Coordination Sequence:
#
# PCOD9095757 Si02
#       7
#     2   2   2   2   2   2   2
#     4  11  20  36  61  89 118 148 199 244 292 345
#     4  11  23  40  58  87 123 152 199 241 294 354
#     4  12  21  37  61  89 119 147 192 246 296 343
#     4  10  20  37  60  86 122 152 199 237 294 349
#     4  12  21  33  62  88 114 149 191 246 295 341
#     4  10  20  35  59  93 116 153 192 249 290 339
#     4  10  24  40  58  84 122 163 189 242 294 354
#
# _framework density 19.140056000000001
#
# number of rings (size 3 to 8) (size 9 to 14) (size 15 to 20)
#    0.000    1.143    4.286    3.857    0.000    1.143 
#    0.000    4.286    0.000    1.714    0.000    0.000 
#    0.000    0.000    0.000    0.000    0.000    0.000 
#
# Total GULP energy -78005.148368 kJ/mol
# GULP energy per Si atom -5571.796312 kJ/mol
# Density = 1.909649 g / cm^3
# Si number density = 19.140056 Si / 1000 Ang^3
#
#
#
# Elastic Constant Matrix: (Units=GPa)
#
#
# Indices 1 2 3 4 5 6 
#
# 1 70.5113 30.5348 18.3678 1.2591 -12.7129 2.5506
# 2 30.5348 81.8890 32.6606 -3.8930 -9.0145 -2.1198
# 3 18.3678 32.6606 69.8438 -14.0712 -14.0315 11.4982
# 4 1.2591 -3.8930 -14.0712 23.9712 6.1755 -5.4049
# 5 -12.7129 -9.0145 -14.0315 6.1755 31.8183 -4.3654
# 6 2.5506 -2.1198 11.4982 -5.4049 -4.3654 36.7533
#
#
#
# Elastic Compliance Matrix: (Units=1/GPa)
#
#
# Indices 1 2 3 4 5 6 
#
# 1 0.018260 -0.005741 -0.001735 -0.004605 0.005652 -0.001061
# 2 -0.005741 0.017322 -0.007256 -0.000322 -0.000027 0.003617
# 3 -0.001735 -0.007256 0.021790 0.009415 0.004317 -0.005218
# 4 -0.004605 -0.000322 0.009415 0.050107 -0.006970 0.003896
# 5 0.005652 -0.000027 0.004317 -0.006970 0.037161 0.001644
# 6 -0.001061 0.003617 -0.005218 0.003896 0.001644 0.029891
#
#
# Mechanical properties :
#
#
# Convention : Reuss Voigt Hill
#
# Bulk Modulus (GPa) = 35.83254 42.81894 39.32574
# Shear Modulus (GPa) = 23.44140 27.88731 25.66435
#
# Velocity S-wave (km/s) = 3.50341 3.82122 3.66576
# Velocity P-wave (km/s) = 5.92681 6.47217 6.20548
#
# Compressibility (1/GPa) = 0.02790760
#
# Stress axis : x y z
#
# Youngs Moduli (GPa) = 54.76469 57.73122 45.89238
#
# Poissons Ratio (x) = 0.33143 0.07962
# Poissons Ratio (y) = 0.31440 0.33300
# Poissons Ratio (z) = 0.09502 0.41890
#
# Static dielectric constant tensor:
#      x y z
#    x 1.693090 -0.064680 0.038420 
#    y -0.064680 1.661580 0.012160 
#    z 0.038420 0.012160 1.652810 
# 
# From -- ./inp_files/332130.got.cif
#   From: 2010.05.17/outbox.cif.g08.bks.cpg/sg2_167_cif.got.tgz:332130.got - 2010.06.03 11:33:40.
