data_PCOD9095126
_publ_section_title
;
Structure prediction by ZEFSAII (Michael W. Deem and Ramdas Pophale) SiO2 
 PCOD9095126
Probable space group: P -1
;
_chemical_formula_sum "Si O2"
_cell_formula_units_Z 12
_cell_length_a 9.815429
_cell_length_b 6.627093
_cell_length_c 8.665161
_cell_angle_alpha 86.513172
_cell_angle_beta 110.230930
_cell_angle_gamma 88.364547
_cell_volume 527.156796
_symmetry_space_group_name_H-M "P -1"
_symmetry_group_IT_number 2
_symmetry_cell_setting 'triclinic'
loop_
_space_group_symop_operation_xyz
x,y,z
-x,-y,-z
loop_
_atom_site_type_symbol
_atom_site_label
_atom_site_fract_x
_atom_site_fract_y
_atom_site_fract_z
Si Si1 0.401597 0.690296 0.017895
Si Si2 0.114414 0.044880 0.176030
Si Si3 0.903305 0.345127 0.668492
Si Si4 0.647298 0.914432 0.219047
Si Si5 0.810049 0.636140 0.031962
Si Si6 0.887418 0.767872 0.529088
O O1 0.492417 0.811556 0.173710
O O2 0.500000 0.500000 0.000000
O O3 0.258342 0.577965 0.012985
O O4 0.371187 0.860872 0.867508
O O5 0.170778 0.448584 0.433114
O O6 0.041505 0.140776 0.296295
O O7 0.206913 0.216517 0.128688
O O8 0.000000 0.000000 0.000000
O O9 0.005174 0.736831 0.441620
O O10 0.025744 0.398002 0.840530
O O11 0.818441 0.167829 0.723030
O O12 0.731181 0.769150 0.131483
O O13 0.749941 0.901826 0.407463
#
# Coordination Sequence:
#
# PCOD9095126 Si02
#       6
#     2   2   2   2   2   2
#     4   9  18  35  58  79 100 133 180 224 266 312
#     4  10  21  34  50  78 114 147 177 214 263 316
#     4   9  20  35  54  80 109 144 180 215 262 315
#     4   9  19  35  57  79 102 136 179 224 263 310
#     4   9  19  33  52  79 108 140 175 215 264 316
#     4  10  20  35  55  80 108 143 181 219 261 315
#
# _framework density 22.763625000000001
#
# number of rings (size 3 to 8) (size 9 to 14) (size 15 to 20)
#    0.000    2.667    0.000    0.500    0.000   13.333 
#    0.000    0.833    0.000   10.000    0.000    0.000 
#    0.000    0.000    0.000    0.000    0.000    0.000 
#
# Total GULP energy -66958.559403 kJ/mol
# GULP energy per Si atom -5579.879950 kJ/mol
# Density = 2.271181 g / cm^3
# Si number density = 22.763625 Si / 1000 Ang^3
#
#
#
# Elastic Constant Matrix: (Units=GPa)
#
#
# Indices 1 2 3 4 5 6 
#
# 1 47.0743 33.3001 27.5539 -1.6802 8.5721 22.3922
# 2 33.3001 159.7101 42.2943 -21.0839 13.1376 33.1977
# 3 27.5539 42.2943 127.0756 0.9738 -1.1931 6.1132
# 4 -1.6802 -21.0839 0.9738 33.7611 -4.0681 -0.7098
# 5 8.5721 13.1376 -1.1931 -4.0681 20.8671 -2.1958
# 6 22.3922 33.1977 6.1132 -0.7098 -2.1958 45.1674
#
#
#
# Elastic Compliance Matrix: (Units=1/GPa)
#
#
# Indices 1 2 3 4 5 6 
#
# 1 0.037766 -0.000951 -0.007166 -0.000981 -0.017402 -0.017916
# 2 -0.000951 0.009698 -0.002803 0.005288 -0.005524 -0.006463
# 3 -0.007166 -0.002803 0.010205 -0.001652 0.005441 0.004470
# 4 -0.000981 0.005288 -0.001652 0.033254 0.003199 -0.002499
# 5 -0.017402 -0.005524 0.005441 0.003199 0.061059 0.014970
# 6 -0.017916 -0.006463 0.004470 -0.002499 0.014970 0.035855
#
#
# Mechanical properties :
#
#
# Convention : Reuss Voigt Hill
#
# Bulk Modulus (GPa) = 27.91080 60.01741 43.96410
# Shear Modulus (GPa) = 22.56116 35.33991 28.95053
#
# Velocity S-wave (km/s) = 3.15160 3.94442 3.57008
# Velocity P-wave (km/s) = 5.05284 6.86785 6.02903
#
# Compressibility (1/GPa) = 0.03582842
#
# Stress axis : x y z
#
# Youngs Moduli (GPa) = 26.47881 103.11687 97.99260
#
# Poissons Ratio (x) = 0.09802 0.70226
# Poissons Ratio (y) = 0.02517 0.27468
# Poissons Ratio (z) = 0.18976 0.28904
#
# Static dielectric constant tensor:
#      x y z
#    x 1.933480 0.007880 -0.003590 
#    y 0.007880 1.904400 0.029170 
#    z -0.003590 0.029170 1.847110 
# 
# From -- ./inp_files/23328.got.cif
#   From: 2010.05.17/outbox.cif.g08.bks.cpg/sg2_12_cif.got.tgz:23328.got - 2010.06.03 11:33:40.
