data_PCOD9095358
_publ_section_title
;
Structure prediction by ZEFSAII (Michael W. Deem and Ramdas Pophale) SiO2 
 PCOD9095358
Probable space group: P -1
;
_chemical_formula_sum "Si O2"
_cell_formula_units_Z 16
_cell_length_a 8.078976
_cell_length_b 7.866953
_cell_length_c 15.437212
_cell_angle_alpha 104.762086
_cell_angle_beta 137.177251
_cell_angle_gamma 89.999503
_cell_volume 618.285549
_symmetry_space_group_name_H-M "P -1"
_symmetry_group_IT_number 2
_symmetry_cell_setting 'triclinic'
loop_
_space_group_symop_operation_xyz
x,y,z
-x,-y,-z
loop_
_atom_site_type_symbol
_atom_site_label
_atom_site_fract_x
_atom_site_fract_y
_atom_site_fract_z
Si Si1 0.051940 0.879150 0.657131
Si Si2 0.385113 0.035643 0.165316
Si Si3 0.512834 0.258561 0.407463
Si Si4 0.512831 0.648909 0.407463
Si Si5 0.788303 0.090655 0.089010
Si Si6 0.948057 0.722013 0.342868
Si Si7 0.788303 0.498350 0.089010
Si Si8 0.614889 0.370322 0.834685
O O1 0.328848 0.856247 0.741519
O O2 0.044875 0.909528 0.762246
O O3 0.814665 0.717298 0.514272
O O4 0.036046 0.064360 0.628713
O O5 0.357858 0.120303 0.258564
O O6 0.387007 0.828020 0.156035
O O7 0.202538 0.022781 0.010490
O O8 0.436059 0.443031 0.386054
O O9 0.500004 0.218150 0.500000
O O10 0.814670 0.296984 0.514273
O O11 0.357856 0.638268 0.258564
O O12 0.820300 0.302055 0.104115
O O13 0.500000 0.000000 0.000000
O O14 0.955124 0.647275 0.237755
O O15 0.671148 0.614727 0.258480
O O16 0.500000 0.500000 0.000000
O O17 0.797463 0.512284 0.989510
#
# Coordination Sequence:
#
# PCOD9095358 Si02
#       8
#     2   2   2   2   2   2   2   2
#     4  10  20  35  57  83 108 137 176 218 263 316
#     4   9  19  35  56  82 108 136 173 216 261 314
#     4  11  24  38  52  75 107 142 181 222 263 312
#     4  11  24  38  52  75 107 142 181 222 263 312
#     4   9  17  31  53  82 112 137 169 215 263 312
#     4  10  20  35  57  83 108 137 176 218 263 316
#     4   9  17  31  53  82 112 137 169 215 263 312
#     4   9  19  35  56  82 108 136 173 216 261 314
#
# _framework density 25.878011000000001
#
# number of rings (size 3 to 8) (size 9 to 14) (size 15 to 20)
#    0.000    2.250    0.000    4.500    0.000   11.000 
#    0.000    1.250    0.000    0.000    0.000    0.000 
#    0.000    0.000    0.000    0.000    0.000    0.000 
#
# Total GULP energy -89455.562286 kJ/mol
# GULP energy per Si atom -5590.972643 kJ/mol
# Density = 2.581911 g / cm^3
# Si number density = 25.878011 Si / 1000 Ang^3
#
#
#
# Elastic Constant Matrix: (Units=GPa)
#
#
# Indices 1 2 3 4 5 6 
#
# 1 85.9867 -8.9446 55.8078 -1.9109 -27.3613 0.6452
# 2 -8.9446 39.0648 9.4919 1.6073 3.5873 1.1393
# 3 55.8078 9.4919 252.4992 -7.6894 -29.8605 -0.4100
# 4 -1.9109 1.6073 -7.6894 -11.1816 0.2385 -20.3401
# 5 -27.3613 3.5873 -29.8605 0.2385 56.2599 -1.3267
# 6 0.6452 1.1393 -0.4100 -20.3401 -1.3267 10.0799
#
#
#
# Elastic Compliance Matrix: (Units=1/GPa)
#
#
# Indices 1 2 3 4 5 6 
#
# 1 0.015806 0.003783 -0.002931 0.000302 0.005885 -0.000175
# 2 0.003783 0.026868 -0.001874 0.002311 -0.000850 0.001196
# 3 -0.002931 -0.001874 0.004792 -0.000944 0.001214 -0.001151
# 4 0.000302 0.002311 -0.000944 -0.018762 -0.001327 -0.038354
# 5 0.005885 -0.000850 0.001214 -0.001327 0.021339 -0.000100
# 6 -0.000175 0.001196 -0.001151 -0.038354 -0.000100 0.021629
#
#
# Mechanical properties :
#
#
# Convention : Reuss Voigt Hill
#
# Bulk Modulus (GPa) = 22.01554 54.47344 38.24449
# Shear Modulus (GPa) = 56.27087 32.44467 44.35777
#
# Velocity S-wave (km/s) = 4.66818 3.54468 4.14467
# Velocity P-wave (km/s) = 6.13039 6.15214 6.14128
#
# Compressibility (1/GPa) = 0.04542246
#
# Stress axis : x y z
#
# Youngs Moduli (GPa) = 63.26675 37.21854 208.69736
#
# Poissons Ratio (x) = -0.14082 0.61166
# Poissons Ratio (y) = -0.23937 0.39119
# Poissons Ratio (z) = 0.18543 0.06976
#
# Static dielectric constant tensor:
#      x y z
#    x 2.744070 0.000530 -0.075950 
#    y 0.000530 1.909500 -0.003520 
#    z -0.075950 -0.003520 2.035590 
# 
# From -- ./inp_files/203108.got.cif
#   From: 2010.05.17/outbox.cif.g08.bks.cpg/sg2_102_cif.got.tgz:203108.got - 2010.06.03 11:33:40.
