data_PCOD9095943
_publ_section_title
;
Structure prediction by ZEFSAII (Michael W. Deem and Ramdas Pophale) SiO2 
 PCOD9095943
Probable space group: P -1
;
_chemical_formula_sum "Si O2"
_cell_formula_units_Z 16
_cell_length_a 9.501112
_cell_length_b 11.723715
_cell_length_c 10.525378
_cell_angle_alpha 125.388685
_cell_angle_beta 81.341274
_cell_angle_gamma 59.089784
_cell_volume 629.723477
_symmetry_space_group_name_H-M "P -1"
_symmetry_group_IT_number 2
_symmetry_cell_setting 'triclinic'
loop_
_space_group_symop_operation_xyz
x,y,z
-x,-y,-z
loop_
_atom_site_type_symbol
_atom_site_label
_atom_site_fract_x
_atom_site_fract_y
_atom_site_fract_z
Si Si1 0.716152 0.037697 0.258953
Si Si2 0.195389 0.729718 0.889239
Si Si3 0.897684 0.399075 0.386414
Si Si4 0.903301 0.926099 0.414251
Si Si5 0.955822 0.636805 0.393577
Si Si6 0.663527 0.761006 0.061813
Si Si7 0.350982 0.925538 0.981970
Si Si8 0.345532 0.499139 0.959196
O O1 0.735218 0.085921 0.428530
O O2 0.677833 0.903326 0.207097
O O3 0.947792 0.902064 0.076236
O O4 0.574574 0.157993 0.227399
O O5 0.215186 0.651408 0.695326
O O6 0.270285 0.831052 0.971468
O O7 0.327146 0.531895 0.833953
O O8 0.845162 0.585801 0.446262
O O9 0.892057 0.412190 0.547209
O O10 0.150671 0.179616 0.181167
O O11 0.843476 0.852665 0.481858
O O12 0.108192 0.705734 0.175742
O O13 0.000000 0.000000 0.500000
O O14 0.098836 0.456079 0.152770
O O15 0.588062 0.700579 0.131639
O O16 0.520105 0.856607 0.016166
O O17 0.500000 0.500000 0.000000
#
# Coordination Sequence:
#
# PCOD9095943 Si02
#       8
#     2   2   2   2   2   2   2   2
#     4  10  21  36  61  87 112 152 197 237 281 346
#     4  10  20  35  61  86 113 155 199 234 277 353
#     4  10  21  37  60  83 118 153 194 234 286 350
#     4  10  24  38  61  82 116 152 196 238 286 344
#     4  10  22  37  57  86 117 149 190 239 295 330
#     4  11  21  38  61  89 118 149 192 246 284 343
#     4  11  21  36  64  86 119 152 195 237 287 341
#     4  10  21  38  59  86 116 151 191 236 295 333
#
# _framework density 25.407978
#
# number of rings (size 3 to 8) (size 9 to 14) (size 15 to 20)
#    0.000    1.750    3.750    1.875    7.000    1.500 
#    0.000    1.875    0.000    1.500    0.000    0.000 
#    0.000    0.000    0.000    0.000    0.000    0.000 
#
# Total GULP energy -89401.377352 kJ/mol
# GULP energy per Si atom -5587.586084 kJ/mol
# Density = 2.535015 g / cm^3
# Si number density = 25.407978 Si / 1000 Ang^3
#
#
#
# Elastic Constant Matrix: (Units=GPa)
#
#
# Indices 1 2 3 4 5 6 
#
# 1 85.3498 2.2745 20.1693 5.8949 16.1274 6.3353
# 2 2.2745 100.8187 25.9675 -10.9239 -6.1606 7.4321
# 3 20.1693 25.9675 59.0543 5.8005 15.5650 -6.4452
# 4 5.8949 -10.9239 5.8005 32.8274 -14.7575 9.6195
# 5 16.1274 -6.1606 15.5650 -14.7575 41.4997 -0.6191
# 6 6.3353 7.4321 -6.4452 9.6195 -0.6191 36.1065
#
#
#
# Elastic Compliance Matrix: (Units=1/GPa)
#
#
# Indices 1 2 3 4 5 6 
#
# 1 0.013948 -0.000224 -0.002927 -0.004130 -0.005853 -0.001924
# 2 -0.000224 0.016995 -0.013886 0.017406 0.013854 -0.010337
# 3 -0.002927 -0.013886 0.034031 -0.024687 -0.022233 0.015642
# 4 -0.004130 0.017406 -0.024687 0.064550 0.036046 -0.023844
# 5 -0.005853 0.013854 -0.022233 0.036046 0.049368 -0.014550
# 6 -0.001924 -0.010337 0.015642 -0.023844 -0.014550 0.039057
#
#
# Mechanical properties :
#
#
# Convention : Reuss Voigt Hill
#
# Bulk Modulus (GPa) = 32.36185 38.00506 35.18345
# Shear Modulus (GPa) = 19.06049 35.20750 27.13399
#
# Velocity S-wave (km/s) = 2.74191 3.72652 3.27147
# Velocity P-wave (km/s) = 4.77374 5.78847 5.30542
#
# Compressibility (1/GPa) = 0.03090058
#
# Stress axis : x y z
#
# Youngs Moduli (GPa) = 71.69412 58.84088 29.38474
#
# Poissons Ratio (x) = 0.01318 0.08601
# Poissons Ratio (y) = 0.01606 0.40803
# Poissons Ratio (z) = 0.20985 0.81706
#
# Static dielectric constant tensor:
#      x y z
#    x 1.998010 -0.024690 -0.085120 
#    y -0.024690 2.084350 -0.018540 
#    z -0.085120 -0.018540 2.070050 
# 
# From -- ./inp_files/393131.got.cif
#   From: 2010.05.17/outbox.cif.g08.bks.cpg/sg2_197_cif.got.tgz:393131.got - 2010.06.03 11:33:40.
