data_PCOD9095021
_publ_section_title
;
Structure prediction by ZEFSAII (Michael W. Deem and Ramdas Pophale) SiO2 
 PCOD9095021
Probable space group: P -1
;
_chemical_formula_sum "Si O2"
_cell_formula_units_Z 16
_cell_length_a 15.946794
_cell_length_b 5.105091
_cell_length_c 11.485734
_cell_angle_alpha 99.996592
_cell_angle_beta 99.773406
_cell_angle_gamma 78.341365
_cell_volume 893.022800
_symmetry_space_group_name_H-M "P -1"
_symmetry_group_IT_number 2
_symmetry_cell_setting 'triclinic'
loop_
_space_group_symop_operation_xyz
x,y,z
-x,-y,-z
loop_
_atom_site_type_symbol
_atom_site_label
_atom_site_fract_x
_atom_site_fract_y
_atom_site_fract_z
Si Si1 0.253065 0.130468 0.663015
Si Si2 0.600834 0.773950 0.575922
Si Si3 0.058578 0.728786 0.042676
Si Si4 0.789359 0.661974 0.586070
Si Si5 0.420390 0.776141 0.587437
Si Si6 0.090814 0.950058 0.703416
Si Si7 0.101700 0.868019 0.325845
Si Si8 0.849939 0.546177 0.160646
O O1 0.237850 0.298953 0.552978
O O2 0.171757 0.971008 0.640867
O O3 0.240051 0.326664 0.787713
O O4 0.343610 0.927712 0.661391
O O5 0.698652 0.700508 0.637216
O O6 0.519429 0.788645 0.644045
O O7 0.589050 0.529748 0.466071
O O8 0.592808 0.052738 0.523671
O O9 0.088444 0.774389 0.183342
O O10 0.140182 0.617632 0.968833
O O11 0.000000 0.500000 0.000000
O O12 0.000000 0.000000 0.000000
O O13 0.847741 0.380184 0.608766
O O14 0.843320 0.894420 0.644982
O O15 0.103493 0.192337 0.814196
O O16 0.994413 0.026112 0.639427
O O17 0.101881 0.665600 0.749275
#
# Coordination Sequence:
#
# PCOD9095021 Si02
#       8
#     2   2   2   2   2   2   2   2
#     4   9  22  34  54  76 111 136 168 218 253 314
#     4   9  18  33  50  77 101 137 170 214 247 311
#     4  12  20  38  58  71  98 131 189 236 250 282
#     4  11  23  34  51  76 115 138 171 202 261 327
#     4   9  17  31  56  74 100 134 175 208 265 289
#     4  10  21  34  49  75 104 131 184 201 260 298
#     4  12  23  35  52  77 101 150 173 207 264 306
#     4  10  20  35  53  76  97 134 173 230 251 288
#
# _framework density 17.916674
#
# number of rings (size 3 to 8) (size 9 to 14) (size 15 to 20)
#    0.750    1.000    2.500    3.000    5.250    1.000 
#    0.000    0.000    0.000    0.000    0.000    1.750 
#    0.000    0.000    0.000    0.000    0.000    0.000 
#
# Total GULP energy -89121.071941 kJ/mol
# GULP energy per Si atom -5570.066996 kJ/mol
# Density = 1.787590 g / cm^3
# Si number density = 17.916674 Si / 1000 Ang^3
#
#
#
# Elastic Constant Matrix: (Units=GPa)
#
#
# Indices 1 2 3 4 5 6 
#
# 1 60.4997 -20.4638 -6.8828 30.2732 -58.4047 33.9546
# 2 -20.4638 72.1761 -7.0089 16.3550 -28.4980 21.4586
# 3 -6.8828 -7.0089 39.7061 18.3467 -36.7968 10.1895
# 4 30.2732 16.3550 18.3467 17.5291 6.6296 -13.8503
# 5 -58.4047 -28.4980 -36.7968 6.6296 -9.6289 41.5751
# 6 33.9546 21.4586 10.1895 -13.8503 41.5751 -1.6377
#
#
#
# Elastic Compliance Matrix: (Units=1/GPa)
#
#
# Indices 1 2 3 4 5 6 
#
# 1 0.008173 -0.001466 -0.004334 -0.001730 -0.005208 0.005711
# 2 -0.001466 0.011046 -0.002310 -0.001569 -0.004354 0.002710
# 3 -0.004334 -0.002310 0.021480 -0.003247 -0.001158 0.011589
# 4 -0.001730 -0.001569 -0.003247 0.049826 0.019228 -0.009871
# 5 -0.005208 -0.004354 -0.001158 0.019228 0.013695 0.012834
# 6 0.005711 0.002710 0.011589 -0.009871 0.012834 0.024683
#
#
# Mechanical properties :
#
#
# Convention : Reuss Voigt Hill
#
# Bulk Modulus (GPa) = 40.85078 11.51900 26.18489
# Shear Modulus (GPa) = 32.61957 15.03499 23.82728
#
# Velocity S-wave (km/s) = 4.27151 2.89997 3.65073
# Velocity P-wave (km/s) = 6.86860 4.20194 5.69359
#
# Compressibility (1/GPa) = 0.02447933
#
# Stress axis : x y z
#
# Youngs Moduli (GPa) = 122.34995 90.53185 46.55577
#
# Poissons Ratio (x) = 0.13269 0.20179
# Poissons Ratio (y) = 0.17932 0.10753
# Poissons Ratio (z) = 0.53030 0.20910
#
# Static dielectric constant tensor:
#      x y z
#    x 1.685670 -0.017560 -0.049410 
#    y -0.017560 1.625000 0.011230 
#    z -0.049410 0.011230 1.619520 
# 
# From -- ./inp_files/441262.got.cif
#   From: 2010.05.17/outbox.cif.g08.bks.cpg/sg2_221_cif.got.tgz:441262.got - 2010.06.03 11:33:40.
