data_PCOD9095905
_publ_section_title
;
Structure prediction by ZEFSAII (Michael W. Deem and Ramdas Pophale) SiO2 
 PCOD9095905
Probable space group: P -1
;
_chemical_formula_sum "Si O2"
_cell_formula_units_Z 16
_cell_length_a 11.392510
_cell_length_b 8.795257
_cell_length_c 19.457757
_cell_angle_alpha 57.154286
_cell_angle_beta 148.139621
_cell_angle_gamma 133.515576
_cell_volume 741.715536
_symmetry_space_group_name_H-M "P -1"
_symmetry_group_IT_number 2
_symmetry_cell_setting 'triclinic'
loop_
_space_group_symop_operation_xyz
x,y,z
-x,-y,-z
loop_
_atom_site_type_symbol
_atom_site_label
_atom_site_fract_x
_atom_site_fract_y
_atom_site_fract_z
Si Si1 0.276123 0.211554 0.646994
Si Si2 0.348240 0.542464 0.354589
Si Si3 0.037824 0.744142 0.874911
Si Si4 0.185168 0.798197 0.644662
Si Si5 0.370365 0.195356 0.974940
Si Si6 0.310091 0.487392 0.115361
Si Si7 0.901323 0.541877 0.204398
Si Si8 0.307305 0.142530 0.113891
O O1 0.456648 0.314600 0.643656
O O2 0.442284 0.329851 0.766897
O O3 0.028170 0.235683 0.508590
O O4 0.190294 0.967978 0.658974
O O5 0.500000 0.500000 0.500000
O O6 0.139732 0.330961 0.262317
O O7 0.173704 0.627981 0.280611
O O8 0.855203 0.690038 0.865165
O O9 0.256611 0.989468 0.922315
O O10 0.150473 0.590886 0.982396
O O11 0.103509 0.588256 0.699044
O O12 0.472129 0.888187 0.734129
O O13 0.184614 0.293106 0.857472
O O14 0.670705 0.378124 0.078657
O O15 0.355362 0.119663 0.064097
O O16 0.372959 0.370970 0.116159
O O17 0.000000 0.000000 0.000000
#
# Coordination Sequence:
#
# PCOD9095905 Si02
#       8
#     2   2   2   2   2   2   2   2
#     4  10  22  40  65  86 121 158 206 246 299 353
#     4  11  22  39  63  88 120 163 199 241 299 368
#     4  10  21  36  61  91 122 153 202 250 294 353
#     4  10  22  40  61  88 118 164 197 253 295 355
#     4  10  21  38  59  88 121 159 195 253 302 349
#     4  10  20  35  60  94 120 153 198 256 295 349
#     4  10  21  38  61  85 125 157 198 245 304 352
#     4  11  21  34  60  91 122 154 201 239 303 359
#
# _framework density 21.571612999999999
#
# number of rings (size 3 to 8) (size 9 to 14) (size 15 to 20)
#    0.000    1.750    2.500    2.250    5.250    1.000 
#    0.000    4.375    2.750    0.000    0.000    0.000 
#    0.000    0.000    0.000    0.000    0.000    0.000 
#
# Total GULP energy -89345.959386 kJ/mol
# GULP energy per Si atom -5584.122462 kJ/mol
# Density = 2.152252 g / cm^3
# Si number density = 21.571613 Si / 1000 Ang^3
#
#
#
# Elastic Constant Matrix: (Units=GPa)
#
#
# Indices 1 2 3 4 5 6 
#
# 1 50.5594 -6.9370 30.5643 8.5500 12.2933 7.2982
# 2 -6.9370 53.2987 20.7508 5.1742 -6.5632 -11.6420
# 3 30.5643 20.7508 145.1365 5.5780 12.9515 -4.8349
# 4 8.5500 5.1742 5.5780 27.6791 -7.9677 -3.6516
# 5 12.2933 -6.5632 12.9515 -7.9677 44.2715 7.4883
# 6 7.2982 -11.6420 -4.8349 -3.6516 7.4883 21.0960
#
#
#
# Elastic Compliance Matrix: (Units=1/GPa)
#
#
# Indices 1 2 3 4 5 6 
#
# 1 0.028682 0.004541 -0.005989 -0.011401 -0.006139 -0.008584
# 2 0.004541 0.023435 -0.003965 -0.003403 0.001162 0.009452
# 3 -0.005989 -0.003965 0.008955 0.000599 -0.001895 0.002713
# 4 -0.011401 -0.003403 0.000599 0.043684 0.009252 0.006481
# 5 -0.006139 0.001162 -0.001895 0.009252 0.027681 -0.005894
# 6 -0.008584 0.009452 0.002713 0.006481 -0.005894 0.059424
#
#
# Mechanical properties :
#
#
# Convention : Reuss Voigt Hill
#
# Bulk Modulus (GPa) = 19.90246 37.52785 28.71515
# Shear Modulus (GPa) = 22.78571 32.25042 27.51806
#
# Velocity S-wave (km/s) = 3.25358 3.87077 3.57551
# Velocity P-wave (km/s) = 4.83328 6.11652 5.51237
#
# Compressibility (1/GPa) = 0.05024506
#
# Stress axis : x y z
#
# Youngs Moduli (GPa) = 34.86473 42.67162 111.67281
#
# Poissons Ratio (x) = -0.19377 0.66885
# Poissons Ratio (y) = -0.15832 0.44277
# Poissons Ratio (z) = 0.20882 0.16919
#
# Static dielectric constant tensor:
#      x y z
#    x 1.856880 0.071710 0.030600 
#    y 0.071710 1.822980 0.021690 
#    z 0.030600 0.021690 1.794030 
# 
# From -- ./inp_files/345515.got.cif
#   From: 2010.05.17/outbox.cif.g08.bks.cpg/sg2_173_cif.got.tgz:345515.got - 2010.06.03 11:33:40.
