data_PCOD9095578
_publ_section_title
;
Structure prediction by ZEFSAII (Michael W. Deem and Ramdas Pophale) SiO2 
 PCOD9095578
Probable space group: P -1
;
_chemical_formula_sum "Si O2"
_cell_formula_units_Z 13
_cell_length_a 7.338792
_cell_length_b 20.004502
_cell_length_c 6.965484
_cell_angle_alpha 121.010590
_cell_angle_beta 85.440608
_cell_angle_gamma 49.544887
_cell_volume 515.470971
_symmetry_space_group_name_H-M "P -1"
_symmetry_group_IT_number 2
_symmetry_cell_setting 'triclinic'
loop_
_space_group_symop_operation_xyz
x,y,z
-x,-y,-z
loop_
_atom_site_type_symbol
_atom_site_label
_atom_site_fract_x
_atom_site_fract_y
_atom_site_fract_z
Si Si1 0.482126 0.533153 0.334556
Si Si2 0.341833 0.275723 0.651759
Si Si3 0.740973 0.004495 0.282624
Si Si4 0.710967 0.985615 0.698211
Si Si5 0.000000 0.000000 0.000000
Si Si6 0.106553 0.708643 0.306797
Si Si7 0.034828 0.495057 0.715924
O O1 0.500000 0.500000 0.500000
O O2 0.167543 0.670495 0.468104
O O3 0.717653 0.523347 0.280019
O O4 0.598803 0.420883 0.029609
O O5 0.683318 0.118785 0.378119
O O6 0.170792 0.371588 0.624637
O O7 0.169056 0.253608 0.682138
O O8 0.274396 0.363370 0.948541
O O9 0.562178 0.985762 0.221214
O O10 0.062849 0.896424 0.985270
O O11 0.712135 0.021533 0.538418
O O12 0.014784 0.826900 0.447525
O O13 0.733610 0.037605 0.944105
O O14 0.000000 0.500000 0.500000
#
# Coordination Sequence:
#
# PCOD9095578 Si02
#       7
#     2   2   2   2   1   2   2
#     4  10  20  35  58  89 119 156 201 247 306 370
#     4   9  20  39  59  82 120 161 199 250 309 371
#     4  10  23  44  66  91 130 174 212 267 328 380
#     4  10  23  44  66  91 130 174 212 267 328 380
#     4  12  24  40  64 100 124 164 228 268 310 384
#     4   9  20  39  59  82 120 161 199 250 309 371
#     4  10  20  35  58  89 119 156 201 247 306 370
#
# _framework density 25.219653999999998
#
# number of rings (size 3 to 8) (size 9 to 14) (size 15 to 20)
#    0.000    2.154    0.000    1.846    2.154    3.692 
#    0.000    6.154    0.000    0.000    0.000    0.000 
#    0.000    0.000    0.000    0.000    0.000    0.000 
#
# Total GULP energy -72447.584909 kJ/mol
# GULP energy per Si atom -5572.891147 kJ/mol
# Density = 2.516225 g / cm^3
# Si number density = 25.219654 Si / 1000 Ang^3
#
#
#
# Elastic Constant Matrix: (Units=GPa)
#
#
# Indices 1 2 3 4 5 6 
#
# 1 135.0533 19.1349 32.8436 -4.0011 10.7252 26.6490
# 2 19.1349 147.8003 76.3667 -13.2818 7.7371 28.2527
# 3 32.8436 76.3667 112.1010 -18.1853 17.2912 14.1577
# 4 -4.0011 -13.2818 -18.1853 51.1443 -0.9077 -3.4835
# 5 10.7252 7.7371 17.2912 -0.9077 46.1316 -4.3858
# 6 26.6490 28.2527 14.1577 -3.4835 -4.3858 39.9637
#
#
#
# Elastic Compliance Matrix: (Units=1/GPa)
#
#
# Indices 1 2 3 4 5 6 
#
# 1 0.009285 0.001500 -0.002647 -0.000309 -0.002048 -0.006566
# 2 0.001500 0.011778 -0.007605 0.000018 -0.000105 -0.006643
# 3 -0.002647 -0.007605 0.015859 0.003484 -0.003851 0.001405
# 4 -0.000309 0.000018 0.003484 0.020805 -0.000762 0.000689
# 5 -0.002048 -0.000105 -0.003851 -0.000762 0.024111 0.005384
# 6 -0.006566 -0.006643 0.001405 0.000689 0.005384 0.034251
#
#
# Mechanical properties :
#
#
# Convention : Reuss Voigt Hill
#
# Bulk Modulus (GPa) = 51.49994 72.40498 61.95246
# Shear Modulus (GPa) = 35.69759 45.22188 40.45974
#
# Velocity S-wave (km/s) = 3.76635 4.23912 4.00971
# Velocity P-wave (km/s) = 6.27525 7.26170 6.78642
#
# Compressibility (1/GPa) = 0.01941750
#
# Stress axis : x y z
#
# Youngs Moduli (GPa) = 107.70264 84.90395 63.05627
#
# Poissons Ratio (x) = -0.12739 0.16693
# Poissons Ratio (y) = -0.16159 0.47955
# Poissons Ratio (z) = 0.28512 0.64571
#
# Static dielectric constant tensor:
#      x y z
#    x 2.078150 -0.010490 -0.095640 
#    y -0.010490 2.194820 0.051120 
#    z -0.095640 0.051120 2.097330 
# 
# From -- ./inp_files/50730.got.cif
#   From: 2010.05.17/outbox.cif.g08.bks.cpg/sg2_26_cif.got.tgz:50730.got - 2010.06.03 11:33:40.
