data_PCOD9095521
_publ_section_title
;
Structure prediction by ZEFSAII (Michael W. Deem and Ramdas Pophale) SiO2 
 PCOD9095521
Probable space group: P -1
;
_chemical_formula_sum "Si O2"
_cell_formula_units_Z 16
_cell_length_a 7.535771
_cell_length_b 22.071297
_cell_length_c 19.214902
_cell_angle_alpha 21.495677
_cell_angle_beta 124.186481
_cell_angle_gamma 134.535878
_cell_volume 782.831519
_symmetry_space_group_name_H-M "P -1"
_symmetry_group_IT_number 2
_symmetry_cell_setting 'triclinic'
loop_
_space_group_symop_operation_xyz
x,y,z
-x,-y,-z
loop_
_atom_site_type_symbol
_atom_site_label
_atom_site_fract_x
_atom_site_fract_y
_atom_site_fract_z
Si Si1 0.161876 0.548837 0.910679
Si Si2 0.156089 0.112026 0.598804
Si Si3 0.450928 0.122302 0.263937
Si Si4 0.340179 0.539199 0.165339
Si Si5 0.913643 0.111143 0.314499
Si Si6 0.733083 0.681260 0.221420
Si Si7 0.723431 0.949744 0.049233
Si Si8 0.430993 0.768238 0.318967
O O1 0.430882 0.766139 0.754319
O O2 0.958752 0.525365 0.833829
O O3 0.000000 0.500000 0.000000
O O4 0.156473 0.351597 0.111370
O O5 0.316143 0.335724 0.360311
O O6 0.314919 0.136439 0.676823
O O7 0.139294 0.962759 0.697370
O O8 0.860883 0.044585 0.621130
O O9 0.646808 0.071020 0.331465
O O10 0.494731 0.291050 0.038239
O O11 0.482788 0.615822 0.188870
O O12 0.000000 0.000000 0.500000
O O13 0.730114 0.786473 0.179372
O O14 0.728815 0.478645 0.443689
O O15 0.001031 0.875885 0.038577
O O16 0.508528 0.819995 0.199882
O O17 0.682292 0.097891 0.835227
#
# Coordination Sequence:
#
# PCOD9095521 Si02
#       8
#     2   2   2   2   2   2   2   2
#     4   8  17  33  53  77 111 151 181 236 283 326
#     4  11  22  37  61  85 114 158 191 239 293 342
#     4  10  21  38  58  81 118 156 193 237 291 344
#     4   9  19  36  56  82 119 144 192 245 283 340
#     4  10  20  35  58  85 114 149 200 240 282 346
#     4  10  20  36  62  85 113 158 191 237 303 352
#     4  10  21  37  61  85 115 156 191 239 302 352
#     4  10  22  38  57  88 122 145 198 247 286 355
#
# _framework density 20.438624000000001
#
# number of rings (size 3 to 8) (size 9 to 14) (size 15 to 20)
#    0.000    2.500    0.000    3.750    3.500    2.500 
#    0.000    3.750   16.500    0.000    0.000    0.000 
#    0.000    0.000    0.000    0.000    0.000    0.000 
#
# Total GULP energy -89112.620898 kJ/mol
# GULP energy per Si atom -5569.538806 kJ/mol
# Density = 2.039210 g / cm^3
# Si number density = 20.438624 Si / 1000 Ang^3
#
#
#
# Elastic Constant Matrix: (Units=GPa)
#
#
# Indices 1 2 3 4 5 6 
#
# 1 57.5031 13.6142 18.6045 -7.2159 10.7066 1.7059
# 2 13.6142 97.4530 34.5952 -5.0241 12.3356 12.7444
# 3 18.6045 34.5952 96.9405 -3.9097 12.5560 -3.6473
# 4 -7.2159 -5.0241 -3.9097 29.8362 -0.7955 9.1660
# 5 10.7066 12.3356 12.5560 -0.7955 24.4983 1.7720
# 6 1.7059 12.7444 -3.6473 9.1660 1.7720 24.3415
#
#
#
# Elastic Compliance Matrix: (Units=1/GPa)
#
#
# Indices 1 2 3 4 5 6 
#
# 1 0.020425 -0.000277 -0.002829 0.005324 -0.006932 -0.003210
# 2 -0.000277 0.013838 -0.004580 0.004425 -0.003682 -0.009310
# 3 -0.002829 -0.004580 0.013103 -0.001488 -0.003611 0.005383
# 4 0.005324 0.004425 -0.001488 0.040927 -0.001144 -0.018241
# 5 -0.006932 -0.003682 -0.003611 -0.001144 0.047600 -0.001162
# 6 -0.003210 -0.009310 0.005383 -0.018241 -0.001162 0.053941
#
#
# Mechanical properties :
#
#
# Convention : Reuss Voigt Hill
#
# Bulk Modulus (GPa) = 31.25668 42.83605 37.04637
# Shear Modulus (GPa) = 23.16182 28.07405 25.61793
#
# Velocity S-wave (km/s) = 3.37001 3.71020 3.54419
# Velocity P-wave (km/s) = 5.51985 6.27360 5.90876
#
# Compressibility (1/GPa) = 0.03199316
#
# Stress axis : x y z
#
# Youngs Moduli (GPa) = 48.95876 72.26666 76.31724
#
# Poissons Ratio (x) = 0.02004 0.21592
# Poissons Ratio (y) = 0.01358 0.34953
# Poissons Ratio (z) = 0.13852 0.33098
#
# Static dielectric constant tensor:
#      x y z
#    x 1.755190 0.037650 0.020320 
#    y 0.037650 1.750590 -0.005990 
#    z 0.020320 -0.005990 1.785010 
# 
# From -- ./inp_files/591879.got.cif
#   From: 2010.05.17/outbox.cif.g08.bks.cpg/sg2_296_cif.got.tgz:591879.got - 2010.06.03 11:33:40.
