data_PCOD9095166
_publ_section_title
;
Structure prediction by ZEFSAII (Michael W. Deem and Ramdas Pophale) SiO2 
 PCOD9095166
Probable space group: P -1
;
_chemical_formula_sum "Si O2"
_cell_formula_units_Z 16
_cell_length_a 9.932943
_cell_length_b 20.867652
_cell_length_c 11.497675
_cell_angle_alpha 124.865230
_cell_angle_beta 122.801039
_cell_angle_gamma 28.482611
_cell_volume 927.815814
_symmetry_space_group_name_H-M "P -1"
_symmetry_group_IT_number 2
_symmetry_cell_setting 'triclinic'
loop_
_space_group_symop_operation_xyz
x,y,z
-x,-y,-z
loop_
_atom_site_type_symbol
_atom_site_label
_atom_site_fract_x
_atom_site_fract_y
_atom_site_fract_z
Si Si1 0.972073 0.837883 0.017764
Si Si2 0.120926 0.263798 0.265947
Si Si3 0.854946 0.675928 0.409161
Si Si4 0.174144 0.832668 0.521662
Si Si5 0.563596 0.955342 0.148852
Si Si6 0.829144 0.588154 0.630769
Si Si7 0.243071 0.139697 0.601389
Si Si8 0.221888 0.863503 0.312735
O O1 0.183419 0.816915 0.143169
O O2 0.821191 0.857215 0.077960
O O3 0.075104 0.726097 0.867067
O O4 0.702409 0.982018 0.970097
O O5 0.055984 0.317377 0.421466
O O6 0.429463 0.097142 0.243566
O O7 0.129887 0.335307 0.261235
O O8 0.861232 0.737845 0.376559
O O9 0.530470 0.777893 0.374851
O O10 0.041394 0.522461 0.328582
O O11 0.499113 0.703812 0.578418
O O12 0.167548 0.842881 0.389005
O O13 0.006577 0.823480 0.472424
O O14 0.007711 0.975358 0.638715
O O15 0.646065 0.893913 0.250311
O O16 0.000000 0.500000 0.500000
O O17 0.500000 0.000000 0.500000
#
# Coordination Sequence:
#
# PCOD9095166 Si02
#       8
#     2   2   2   2   2   2   2   2
#     4   9  18  29  53  84 110 135 182 233 272 323
#     4   9  16  33  54  79 107 144 178 225 278 314
#     4  11  22  36  59  77 121 141 181 231 275 325
#     4  11  21  31  59  83 114 137 190 230 268 323
#     4   9  17  29  53  80 108 142 172 228 277 318
#     4  10  20  35  55  84 110 146 182 234 270 314
#     4  12  20  35  53  86 115 146 174 230 284 323
#     4  11  19  33  56  92  99 137 193 236 260 313
#
# _framework density 17.244802
#
# number of rings (size 3 to 8) (size 9 to 14) (size 15 to 20)
#    0.750    1.000    6.250    0.750    0.000    0.500 
#    0.000    1.250    0.000    0.750    0.000    0.000 
#    0.000    0.000    0.000    0.000    0.000    0.000 
#
# Total GULP energy -89090.499643 kJ/mol
# GULP energy per Si atom -5568.156228 kJ/mol
# Density = 1.720555 g / cm^3
# Si number density = 17.244802 Si / 1000 Ang^3
#
#
#
# Elastic Constant Matrix: (Units=GPa)
#
#
# Indices 1 2 3 4 5 6 
#
# 1 100.8830 41.2119 28.3248 -5.9043 8.1681 23.2084
# 2 41.2119 88.7675 13.0412 -5.1991 4.4754 17.4444
# 3 28.3248 13.0412 91.2797 -11.1320 8.7491 9.3497
# 4 -5.9043 -5.1991 -11.1320 10.8756 2.9720 0.9054
# 5 8.1681 4.4754 8.7491 2.9720 25.7875 -5.0435
# 6 23.2084 17.4444 9.3497 0.9054 -5.0435 37.7381
#
#
#
# Elastic Compliance Matrix: (Units=1/GPa)
#
#
# Indices 1 2 3 4 5 6 
#
# 1 0.014783 -0.004505 -0.001944 0.005965 -0.005373 -0.007388
# 2 -0.004505 0.014736 0.000927 0.006822 -0.003182 -0.004859
# 3 -0.001944 0.000927 0.014580 0.016639 -0.007233 -0.004211
# 4 0.005965 0.006822 0.016639 0.124158 -0.026441 -0.017456
# 5 -0.005373 -0.003182 -0.007233 -0.026441 0.049229 0.013781
# 6 -0.007388 -0.004859 -0.004211 -0.017456 0.013781 0.036592
#
#
# Mechanical properties :
#
#
# Convention : Reuss Voigt Hill
#
# Bulk Modulus (GPa) = 30.25368 49.56510 39.90939
# Shear Modulus (GPa) = 18.10679 28.10374 23.10527
#
# Velocity S-wave (km/s) = 3.24386 4.04133 3.66435
# Velocity P-wave (km/s) = 5.62245 7.11202 6.41065
#
# Compressibility (1/GPa) = 0.03305383
#
# Stress axis : x y z
#
# Youngs Moduli (GPa) = 67.64694 67.86228 68.58749
#
# Poissons Ratio (x) = 0.30574 0.13335
# Poissons Ratio (y) = 0.30477 -0.06361
# Poissons Ratio (z) = 0.13152 -0.06293
#
# Static dielectric constant tensor:
#      x y z
#    x 1.579380 0.021250 0.013430 
#    y 0.021250 1.591900 0.003730 
#    z 0.013430 0.003730 1.616810 
# 
# From -- ./inp_files/404222.got.cif
#   From: 2010.05.17/outbox.cif.g08.bks.cpg/sg2_203_cif.got.tgz:404222.got - 2010.06.03 11:33:40.
