data_PCOD9095557
_publ_section_title
;
Structure prediction by ZEFSAII (Michael W. Deem and Ramdas Pophale) SiO2 
 PCOD9095557
Probable space group: P -1
;
_chemical_formula_sum "Si O2"
_cell_formula_units_Z 15
_cell_length_a 19.331101
_cell_length_b 12.548324
_cell_length_c 7.304991
_cell_angle_alpha 70.392417
_cell_angle_beta 64.854825
_cell_angle_gamma 19.718306
_cell_volume 529.030365
_symmetry_space_group_name_H-M "P -1"
_symmetry_group_IT_number 2
_symmetry_cell_setting 'triclinic'
loop_
_space_group_symop_operation_xyz
x,y,z
-x,-y,-z
loop_
_atom_site_type_symbol
_atom_site_label
_atom_site_fract_x
_atom_site_fract_y
_atom_site_fract_z
Si Si1 0.944343 0.914619 0.747085
Si Si2 0.954005 0.449112 0.966287
Si Si3 0.500000 0.000000 0.500000
Si Si4 0.247668 0.198953 0.365919
Si Si5 0.034717 0.038478 0.706203
Si Si6 0.595258 0.438735 0.135403
Si Si7 0.554697 0.715472 0.845642
Si Si8 0.573445 0.230658 0.374981
O O1 0.943472 0.916312 0.527638
O O2 0.040248 0.900912 0.713742
O O3 0.074250 0.624700 0.838014
O O4 0.716494 0.228451 0.933469
O O5 0.768079 0.726877 0.861081
O O6 0.184945 0.109263 0.792704
O O7 0.000000 0.500000 0.000000
O O8 0.335497 0.159810 0.447766
O O9 0.548298 0.028411 0.265146
O O10 0.000000 0.500000 0.500000
O O11 0.399088 0.878275 0.409531
O O12 0.793361 0.404816 0.839189
O O13 0.206489 0.810146 0.805245
O O14 0.501219 0.459272 0.329909
O O15 0.464576 0.732597 0.051295
O O16 0.590566 0.606488 0.668348
#
# Coordination Sequence:
#
# PCOD9095557 Si02
#       8
#     2   2   1   2   2   2   2   2
#     4   9  20  36  54  93 115 144 218 249 293 370
#     4  10  21  35  62  85 124 167 199 255 308 373
#     4  10  22  34  60  92 120 160 202 260 302 376
#     4   9  20  36  59  84 119 159 207 245 305 369
#     4  10  21  35  64  86 114 160 200 251 304 359
#     4  10  20  36  66  86 111 164 204 246 308 365
#     4  10  20  35  58  87 123 147 201 250 307 365
#     4   9  20  37  58  88 114 154 209 250 303 369
#
# _framework density 28.353759
#
# number of rings (size 3 to 8) (size 9 to 14) (size 15 to 20)
#    0.000    2.400    0.000    2.000    9.333    2.133 
#    0.000    0.000   23.467   19.200    0.000    0.000 
#    0.000    0.000    0.000    0.000    0.000    0.000 
#
# Total GULP energy -83688.985674 kJ/mol
# GULP energy per Si atom -5579.265712 kJ/mol
# Density = 2.828922 g / cm^3
# Si number density = 28.353759 Si / 1000 Ang^3
#
#
#
# Elastic Constant Matrix: (Units=GPa)
#
#
# Indices 1 2 3 4 5 6 
#
# 1 108.2097 53.0178 76.0588 -31.5491 -15.7028 -7.4352
# 2 53.0178 103.2886 57.3329 -56.7650 -13.6633 -0.2077
# 3 76.0588 57.3329 208.8867 -73.0513 -1.9118 21.1109
# 4 -31.5491 -56.7650 -73.0513 66.5297 10.8295 0.8083
# 5 -15.7028 -13.6633 -1.9118 10.8295 49.9501 -19.0219
# 6 -7.4352 -0.2077 21.1109 0.8083 -19.0219 50.8891
#
#
#
# Elastic Compliance Matrix: (Units=1/GPa)
#
#
# Indices 1 2 3 4 5 6 
#
# 1 0.019074 -0.009237 -0.008927 -0.010254 0.009177 0.010045
# 2 -0.009237 0.022885 0.004873 0.021006 -0.002783 -0.004651
# 3 -0.008927 0.004873 0.013202 0.015887 -0.008259 -0.010100
# 4 -0.010254 0.021006 0.015887 0.047699 -0.012298 -0.013357
# 5 0.009177 -0.002783 -0.008259 -0.012298 0.030757 0.016448
# 6 0.010045 -0.004651 -0.010100 -0.013357 0.016448 0.031650
#
#
# Mechanical properties :
#
#
# Convention : Reuss Voigt Hill
#
# Bulk Modulus (GPa) = 34.99176 88.13377 61.56277
# Shear Modulus (GPa) = 24.82936 49.07213 36.95075
#
# Velocity S-wave (km/s) = 2.96243 4.16469 3.61391
# Velocity P-wave (km/s) = 4.90604 7.36732 6.25886
#
# Compressibility (1/GPa) = 0.02857816
#
# Stress axis : x y z
#
# Youngs Moduli (GPa) = 52.42777 43.69720 75.74887
#
# Poissons Ratio (x) = 0.40361 0.67622
# Poissons Ratio (y) = 0.48425 -0.36910
# Poissons Ratio (z) = 0.46803 -0.21292
#
# Static dielectric constant tensor:
#      x y z
#    x 2.112260 0.054540 -0.007570 
#    y 0.054540 2.430870 0.131370 
#    z -0.007570 0.131370 2.232440 
# 
# From -- ./inp_files/346850.got.cif
#   From: 2010.05.17/outbox.cif.g08.bks.cpg/sg2_174_cif.got.tgz:346850.got - 2010.06.03 11:33:40.
