data_PCOD9095888
_publ_section_title
;
Structure prediction by ZEFSAII (Michael W. Deem and Ramdas Pophale) SiO2 
 PCOD9095888
Probable space group: P -1
;
_chemical_formula_sum "Si O2"
_cell_formula_units_Z 16
_cell_length_a 13.801497
_cell_length_b 7.452744
_cell_length_c 11.842599
_cell_angle_alpha 120.738546
_cell_angle_beta 134.929336
_cell_angle_gamma 60.286791
_cell_volume 722.856297
_symmetry_space_group_name_H-M "P -1"
_symmetry_group_IT_number 2
_symmetry_cell_setting 'triclinic'
loop_
_space_group_symop_operation_xyz
x,y,z
-x,-y,-z
loop_
_atom_site_type_symbol
_atom_site_label
_atom_site_fract_x
_atom_site_fract_y
_atom_site_fract_z
Si Si1 0.532513 0.002476 0.897399
Si Si2 0.976509 0.229880 0.496874
Si Si3 0.794736 0.733173 0.919670
Si Si4 0.847081 0.183999 0.011988
Si Si5 0.713638 0.356209 0.161511
Si Si6 0.852545 0.021108 0.730295
Si Si7 0.925673 0.373075 0.744882
Si Si8 0.725899 0.794279 0.384611
O O1 0.386903 0.034434 0.721604
O O2 0.644641 0.798274 0.876881
O O3 0.603757 0.207680 0.015005
O O4 0.500000 0.000000 0.000000
O O5 0.854188 0.243934 0.308956
O O6 0.927964 0.381503 0.614167
O O7 0.119418 0.260186 0.564580
O O8 0.000000 0.000000 0.500000
O O9 0.822134 0.568035 0.785404
O O10 0.917277 0.642953 0.082243
O O11 0.816354 0.960805 0.962531
O O12 0.762692 0.376049 0.079366
O O13 0.012268 0.144649 0.161167
O O14 0.811099 0.187189 0.852066
O O15 0.668597 0.579307 0.259820
O O16 0.744780 0.888448 0.552845
O O17 0.887998 0.156911 0.696032
#
# Coordination Sequence:
#
# PCOD9095888 Si02
#       8
#     2   2   2   2   2   2   2   2
#     4  11  24  44  66  89 132 175 208 266 329 387
#     4  12  21  38  66  97 129 159 217 272 313 366
#     4   9  20  39  59  92 122 167 211 257 323 381
#     4   9  19  37  59  86 130 164 204 259 321 365
#     4  11  24  41  63  95 126 172 218 261 319 382
#     4  10  20  35  60  92 126 163 205 265 316 371
#     4  10  20  36  64  94 123 160 217 267 313 374
#     4  12  24  39  64  99 129 166 220 261 321 385
#
# _framework density 22.134414
#
# number of rings (size 3 to 8) (size 9 to 14) (size 15 to 20)
#    0.000    1.500    2.500    3.750    1.750    4.000 
#    0.000    3.125    2.750    0.000    0.000    0.000 
#    0.000    0.000    0.000    0.000    0.000    0.000 
#
# Total GULP energy -89410.220327 kJ/mol
# GULP energy per Si atom -5588.138770 kJ/mol
# Density = 2.208404 g / cm^3
# Si number density = 22.134414 Si / 1000 Ang^3
#
#
#
# Elastic Constant Matrix: (Units=GPa)
#
#
# Indices 1 2 3 4 5 6 
#
# 1 62.2499 1.4090 39.1504 -8.3486 -11.7487 -10.6304
# 2 1.4090 57.5977 25.7848 5.9901 3.4577 -14.5885
# 3 39.1504 25.7848 140.0840 4.7483 -20.8795 -20.0378
# 4 -8.3486 5.9901 4.7483 39.2530 -4.0211 4.5135
# 5 -11.7487 3.4577 -20.8795 -4.0211 30.3546 0.9816
# 6 -10.6304 -14.5885 -20.0378 4.5135 0.9816 23.6104
#
#
#
# Elastic Compliance Matrix: (Units=1/GPa)
#
#
# Indices 1 2 3 4 5 6 
#
# 1 0.021822 0.002446 -0.005109 0.004731 0.005090 0.005885
# 2 0.002446 0.023128 -0.003648 -0.004646 -0.005246 0.013402
# 3 -0.005109 -0.003648 0.010790 -0.001818 0.005466 0.004723
# 4 0.004731 -0.004646 -0.001818 0.028865 0.005193 -0.008018
# 5 0.005090 -0.005246 0.005466 0.005193 0.039926 0.001037
# 6 0.005885 0.013402 0.004723 -0.008018 0.001037 0.058783
#
#
# Mechanical properties :
#
#
# Convention : Reuss Voigt Hill
#
# Bulk Modulus (GPa) = 23.19210 43.62445 33.40827
# Shear Modulus (GPa) = 23.77469 31.54941 27.66205
#
# Velocity S-wave (km/s) = 3.28091 3.77948 3.53899
# Velocity P-wave (km/s) = 4.98529 6.22878 5.64140
#
# Compressibility (1/GPa) = 0.04311814
#
# Stress axis : x y z
#
# Youngs Moduli (GPa) = 45.82507 43.23814 92.67889
#
# Poissons Ratio (x) = -0.10578 0.47350
# Poissons Ratio (y) = -0.11210 0.33811
# Poissons Ratio (z) = 0.23412 0.15774
#
# Static dielectric constant tensor:
#      x y z
#    x 1.971930 0.031210 0.003890 
#    y 0.031210 1.874320 0.051510 
#    z 0.003890 0.051510 1.803710 
# 
# From -- ./inp_files/345343.got.cif
#   From: 2010.05.17/outbox.cif.g08.bks.cpg/sg2_173_cif.got.tgz:345343.got - 2010.06.03 11:33:40.
