data_PCOD9095505
_publ_section_title
;
Structure prediction by ZEFSAII (Michael W. Deem and Ramdas Pophale) SiO2 
 PCOD9095505
Probable space group: P -1
;
_chemical_formula_sum "Si O2"
_cell_formula_units_Z 16
_cell_length_a 16.558894
_cell_length_b 6.407831
_cell_length_c 9.500954
_cell_angle_alpha 78.567097
_cell_angle_beta 123.375425
_cell_angle_gamma 102.568995
_cell_volume 817.863954
_symmetry_space_group_name_H-M "P -1"
_symmetry_group_IT_number 2
_symmetry_cell_setting 'triclinic'
loop_
_space_group_symop_operation_xyz
x,y,z
-x,-y,-z
loop_
_atom_site_type_symbol
_atom_site_label
_atom_site_fract_x
_atom_site_fract_y
_atom_site_fract_z
Si Si1 0.674187 0.498542 0.301205
Si Si2 0.872366 0.006454 0.984752
Si Si3 0.363050 0.486460 0.270508
Si Si4 0.221160 0.647878 0.331807
Si Si5 0.289032 0.255584 0.964349
Si Si6 0.504140 0.138782 0.128209
Si Si7 0.942343 0.692522 0.873404
Si Si8 0.571978 0.762096 0.397484
O O1 0.733746 0.343803 0.470762
O O2 0.579283 0.356323 0.162525
O O3 0.636392 0.667734 0.351372
O O4 0.733376 0.628897 0.216694
O O5 0.832169 0.160732 0.807636
O O6 0.791575 0.933078 0.033716
O O7 0.898686 0.801600 0.951494
O O8 0.973196 0.128721 0.128192
O O9 0.307258 0.622104 0.307085
O O10 0.303203 0.427945 0.080981
O O11 0.468782 0.608683 0.319677
O O12 0.378682 0.270969 0.400725
O O13 0.146781 0.424949 0.286229
O O14 0.395239 0.179744 0.055330
O O15 0.547390 0.995872 0.307862
O O16 0.500000 0.000000 0.000000
O O17 0.000000 0.500000 0.000000
#
# Coordination Sequence:
#
# PCOD9095505 Si02
#       8
#     2   2   2   2   2   2   2   2
#     4  11  24  38  56  85 124 158 199 240 299 341
#     4  10  21  37  66  93 112 152 201 235 295 364
#     4  10  20  35  58  83 121 149 204 251 289 330
#     4  10  21  39  62  89 117 154 192 249 294 353
#     4  12  22  38  58  88 120 158 201 248 285 351
#     4  12  23  37  58  78 122 172 202 233 292 345
#     4   9  19  40  65  91 119 146 188 247 303 352
#     4  10  21  38  53  82 117 163 198 248 287 343
#
# _framework density 19.563154999999998
#
# number of rings (size 3 to 8) (size 9 to 14) (size 15 to 20)
#    0.000    1.500    3.750    1.875    1.750    0.500 
#    0.000    0.625    0.000    6.750    0.000    0.000 
#    0.000    0.000    0.000    0.000    0.000    0.000 
#
# Total GULP energy -89322.804063 kJ/mol
# GULP energy per Si atom -5582.675254 kJ/mol
# Density = 1.951863 g / cm^3
# Si number density = 19.563155 Si / 1000 Ang^3
#
#
#
# Elastic Constant Matrix: (Units=GPa)
#
#
# Indices 1 2 3 4 5 6 
#
# 1 86.2653 29.0197 34.4895 -3.1580 -5.4769 23.3015
# 2 29.0197 55.1096 20.3153 -7.7476 -10.5048 9.2978
# 3 34.4895 20.3153 82.1853 -7.3933 -14.2913 9.8244
# 4 -3.1580 -7.7476 -7.3933 32.6244 2.3305 9.6808
# 5 -5.4769 -10.5048 -14.2913 2.3305 15.5715 -1.2310
# 6 23.3015 9.2978 9.8244 9.6808 -1.2310 36.6958
#
#
#
# Elastic Compliance Matrix: (Units=1/GPa)
#
#
# Indices 1 2 3 4 5 6 
#
# 1 0.018269 -0.006554 -0.005482 0.001967 -0.004042 -0.009127
# 2 -0.006554 0.025606 -0.000355 0.005340 0.013593 -0.003185
# 3 -0.005482 -0.000355 0.017248 0.002750 0.013146 -0.001332
# 4 0.001967 0.005340 0.002750 0.036560 0.000321 -0.012973
# 5 -0.004042 0.013593 0.013146 0.000321 0.083854 -0.001669
# 6 -0.009127 -0.003185 -0.001332 -0.012973 -0.001669 0.037577
#
#
# Mechanical properties :
#
#
# Convention : Reuss Voigt Hill
#
# Bulk Modulus (GPa) = 27.51475 43.46767 35.49121
# Shear Modulus (GPa) = 19.53058 26.29404 22.91231
#
# Velocity S-wave (km/s) = 3.16307 3.67012 3.42599
# Velocity P-wave (km/s) = 5.23786 6.34248 5.81645
#
# Compressibility (1/GPa) = 0.03634415
#
# Stress axis : x y z
#
# Youngs Moduli (GPa) = 54.73712 39.05269 57.97673
#
# Poissons Ratio (x) = 0.25593 0.31781
# Poissons Ratio (y) = 0.35872 0.02056
# Poissons Ratio (z) = 0.30005 0.01385
#
# Static dielectric constant tensor:
#      x y z
#    x 1.682400 0.018910 0.017430 
#    y 0.018910 1.727210 -0.006750 
#    z 0.017430 -0.006750 1.708760 
# 
# From -- ./inp_files/53441.got.cif
#   From: 2010.05.17/outbox.cif.g08.bks.cpg/sg2_27_cif.got.tgz:53441.got - 2010.06.03 11:33:40.
