data_PCOD9095063
_publ_section_title
;
Structure prediction by ZEFSAII (Michael W. Deem and Ramdas Pophale) SiO2 
 PCOD9095063
Probable space group: P -1
;
_chemical_formula_sum "Si O2"
_cell_formula_units_Z 16
_cell_length_a 13.940616
_cell_length_b 12.133951
_cell_length_c 11.747615
_cell_angle_alpha 156.534017
_cell_angle_beta 91.442970
_cell_angle_gamma 85.569992
_cell_volume 783.696492
_symmetry_space_group_name_H-M "P -1"
_symmetry_group_IT_number 2
_symmetry_cell_setting 'triclinic'
loop_
_space_group_symop_operation_xyz
x,y,z
-x,-y,-z
loop_
_atom_site_type_symbol
_atom_site_label
_atom_site_fract_x
_atom_site_fract_y
_atom_site_fract_z
Si Si1 0.970747 0.980488 0.135008
Si Si2 0.606168 0.574824 0.594552
Si Si3 0.110636 0.569479 0.079026
Si Si4 0.875146 0.582426 0.628235
Si Si5 0.697090 0.976939 0.116305
Si Si6 0.745764 0.594404 0.421274
Si Si7 0.176498 0.905735 0.184224
Si Si8 0.831629 0.970331 0.317696
O O1 0.907872 0.283033 0.401675
O O2 0.917399 0.857701 0.125154
O O3 0.079645 0.984519 0.180803
O O4 0.960108 0.771137 0.831420
O O5 0.500000 0.500000 0.500000
O O6 0.652537 0.677465 0.576686
O O7 0.673111 0.284884 0.355262
O O8 0.611461 0.801397 0.910003
O O9 0.172331 0.268187 0.814893
O O10 0.141921 0.745292 0.139879
O O11 0.133398 0.759738 0.367408
O O12 0.000000 0.500000 0.000000
O O13 0.835267 0.550474 0.471403
O O14 0.786300 0.780771 0.873393
O O15 0.733682 0.012074 0.279379
O O16 0.773260 0.817487 0.542338
O O17 0.746813 0.303985 0.083222
#
# Coordination Sequence:
#
# PCOD9095063 Si02
#       8
#     2   2   2   2   2   2   2   2
#     4  11  21  33  54  79 109 161 205 233 277 323
#     4  11  22  41  69  96 118 144 182 237 307 383
#     4  12  24  38  56  81 112 165 220 255 278 309
#     4  10  20  35  54  77 116 157 192 228 277 346
#     4  10  20  38  62  94 119 148 192 240 300 357
#     4  11  23  39  54  81 121 149 186 243 293 359
#     4  12  25  36  53  80 117 161 206 243 282 331
#     4  11  21  37  59  80 118 157 203 259 281 319
#
# _framework density 20.416067000000002
#
# number of rings (size 3 to 8) (size 9 to 14) (size 15 to 20)
#    0.000    1.000    1.250    9.750    1.750    3.000 
#    0.000    0.000    0.000    0.000    0.000   17.500 
#    0.000    0.000    0.000    0.000    0.000    0.000 
#
# Total GULP energy -89352.363597 kJ/mol
# GULP energy per Si atom -5584.522725 kJ/mol
# Density = 2.036960 g / cm^3
# Si number density = 20.416067 Si / 1000 Ang^3
#
#
#
# Elastic Constant Matrix: (Units=GPa)
#
#
# Indices 1 2 3 4 5 6 
#
# 1 76.4982 29.8298 9.7328 1.5745 23.0861 3.2916
# 2 29.8298 101.1432 30.3784 16.6849 5.5921 1.5684
# 3 9.7328 30.3784 107.4521 7.9269 17.6532 -8.6549
# 4 1.5745 16.6849 7.9269 42.9218 -4.0826 4.4548
# 5 23.0861 5.5921 17.6532 -4.0826 32.7063 -1.4684
# 6 3.2916 1.5684 -8.6549 4.4548 -1.4684 18.3460
#
#
#
# Elastic Compliance Matrix: (Units=1/GPa)
#
#
# Indices 1 2 3 4 5 6 
#
# 1 0.019247 -0.005416 0.001775 0.000103 -0.013753 -0.003279
# 2 -0.005416 0.013001 -0.003428 -0.003882 0.002940 -0.000579
# 3 0.001775 -0.003428 0.011890 -0.002180 -0.007108 0.005544
# 4 0.000103 -0.003882 -0.002180 0.026357 0.004755 -0.006735
# 5 -0.013753 0.002940 -0.007108 0.004755 0.044266 0.001251
# 6 -0.003279 -0.000579 0.005544 -0.006735 0.001251 0.059497
#
#
# Mechanical properties :
#
#
# Convention : Reuss Voigt Hill
#
# Bulk Modulus (GPa) = 33.33198 47.21950 40.27574
# Shear Modulus (GPa) = 25.20219 33.13833 29.17026
#
# Velocity S-wave (km/s) = 3.51726 4.03320 3.78403
# Velocity P-wave (km/s) = 5.73207 6.69834 6.23395
#
# Compressibility (1/GPa) = 0.03000122
#
# Stress axis : x y z
#
# Youngs Moduli (GPa) = 51.95510 76.91882 84.10453
#
# Poissons Ratio (x) = 0.41657 -0.14932
# Poissons Ratio (y) = 0.28137 0.28832
# Poissons Ratio (z) = -0.09224 0.26369
#
# Static dielectric constant tensor:
#      x y z
#    x 1.762020 0.015440 0.037520 
#    y 0.015440 1.809060 -0.007190 
#    z 0.037520 -0.007190 1.781350 
# 
# From -- ./inp_files/452706.got.cif
#   From: 2010.05.17/outbox.cif.g08.bks.cpg/sg2_227_cif.got.tgz:452706.got - 2010.06.03 11:33:40.
