data_PCOD9095748
_publ_section_title
;
Structure prediction by ZEFSAII (Michael W. Deem and Ramdas Pophale) SiO2 
 PCOD9095748
Probable space group: P -1
;
_chemical_formula_sum "Si O2"
_cell_formula_units_Z 16
_cell_length_a 11.365820
_cell_length_b 20.985400
_cell_length_c 8.879650
_cell_angle_alpha 27.377441
_cell_angle_beta 57.914892
_cell_angle_gamma 53.678508
_cell_volume 784.628499
_symmetry_space_group_name_H-M "P -1"
_symmetry_group_IT_number 2
_symmetry_cell_setting 'triclinic'
loop_
_space_group_symop_operation_xyz
x,y,z
-x,-y,-z
loop_
_atom_site_type_symbol
_atom_site_label
_atom_site_fract_x
_atom_site_fract_y
_atom_site_fract_z
Si Si1 0.998103 0.591108 0.535630
Si Si2 0.077737 0.264114 0.039556
Si Si3 0.304307 0.422052 0.149107
Si Si4 0.615724 0.879363 0.770635
Si Si5 0.512592 0.145709 0.766104
Si Si6 0.759970 0.276420 0.261870
Si Si7 0.436154 0.356646 0.872131
Si Si8 0.284846 0.648548 0.217159
O O1 0.936177 0.692285 0.219218
O O2 0.858116 0.592169 0.725742
O O3 0.066389 0.422729 0.787464
O O4 0.129331 0.646708 0.391077
O O5 0.223006 0.133120 0.253034
O O6 0.934447 0.224027 0.270566
O O7 0.402731 0.286141 0.463787
O O8 0.294886 0.571205 0.929549
O O9 0.377379 0.415386 0.951907
O O10 0.500000 0.000000 0.500000
O O11 0.533711 0.854006 0.029935
O O12 0.649486 0.749080 0.902302
O O13 0.671329 0.167912 0.596732
O O14 0.500000 0.000000 0.000000
O O15 0.733082 0.310485 0.030818
O O16 0.392106 0.484539 0.511478
O O17 0.610466 0.272609 0.938403
#
# Coordination Sequence:
#
# PCOD9095748 Si02
#       8
#     2   2   2   2   2   2   2   2
#     4   9  17  35  63  93 121 157 201 263 300 357
#     4   9  18  38  63  92 117 158 210 252 308 357
#     4  11  21  37  65  96 122 161 209 255 307 362
#     4  12  25  43  62  85 127 172 201 246 315 379
#     4  12  25  43  62  90 122 165 216 252 301 372
#     4  10  22  40  69  91 119 159 214 265 298 357
#     4  11  23  35  57  96 130 158 194 254 315 369
#     4  10  20  35  59  91 131 149 197 253 319 349
#
# _framework density 20.391818000000001
#
# number of rings (size 3 to 8) (size 9 to 14) (size 15 to 20)
#    0.000    1.500    3.750    2.625    3.500    0.500 
#    0.000    2.500    0.000    0.000    0.000    0.000 
#    0.000    0.000    0.000    0.000    0.000    0.000 
#
# Total GULP energy -89179.243907 kJ/mol
# GULP energy per Si atom -5573.702744 kJ/mol
# Density = 2.034541 g / cm^3
# Si number density = 20.391818 Si / 1000 Ang^3
#
#
#
# Elastic Constant Matrix: (Units=GPa)
#
#
# Indices 1 2 3 4 5 6 
#
# 1 136.3701 32.0257 46.6842 7.3322 -3.0746 -41.3629
# 2 32.0257 48.6943 44.1785 16.4269 -4.7607 -20.5844
# 3 46.6842 44.1785 78.3514 10.3034 7.7504 -17.4640
# 4 7.3322 16.4269 10.3034 22.0331 -5.5555 -7.3052
# 5 -3.0746 -4.7607 7.7504 -5.5555 42.2933 2.6622
# 6 -41.3629 -20.5844 -17.4640 -7.3052 2.6622 34.5286
#
#
#
# Elastic Compliance Matrix: (Units=1/GPa)
#
#
# Indices 1 2 3 4 5 6 
#
# 1 0.013334 0.003438 -0.007020 0.001633 0.001934 0.014668
# 2 0.003438 0.065680 -0.031842 -0.026063 0.008734 0.020981
# 3 -0.007020 -0.031842 0.033100 0.005433 -0.008892 -0.008816
# 4 0.001633 -0.026063 0.005433 0.063600 0.004400 0.002283
# 5 0.001934 0.008734 -0.008892 0.004400 0.026857 0.001886
# 6 0.014668 0.020981 -0.008816 0.002283 0.001886 0.054920
#
#
# Mechanical properties :
#
#
# Convention : Reuss Voigt Hill
#
# Bulk Modulus (GPa) = 24.23301 56.57696 40.40499
# Shear Modulus (GPa) = 14.61589 29.13950 21.87770
#
# Velocity S-wave (km/s) = 2.68013 3.78429 3.27902
# Velocity P-wave (km/s) = 4.63540 6.84833 5.84750
#
# Compressibility (1/GPa) = 0.04126603
#
# Stress axis : x y z
#
# Youngs Moduli (GPa) = 74.99893 15.22535 30.21134
#
# Poissons Ratio (x) = -0.05235 0.21208
# Poissons Ratio (y) = -0.25788 0.96200
# Poissons Ratio (z) = 0.52648 0.48481
#
# Static dielectric constant tensor:
#      x y z
#    x 1.808010 -0.021570 -0.072910 
#    y -0.021570 1.715130 0.008920 
#    z -0.072910 0.008920 1.883850 
# 
# From -- ./inp_files/281389.got.cif
#   From: 2010.05.17/outbox.cif.g08.bks.cpg/sg2_141_cif.got.tgz:281389.got - 2010.06.03 11:33:40.
