data_PCOD9095650
_publ_section_title
;
Structure prediction by ZEFSAII (Michael W. Deem and Ramdas Pophale) SiO2 
 PCOD9095650
Probable space group: P -1
;
_chemical_formula_sum "Si O2"
_cell_formula_units_Z 14
_cell_length_a 7.130559
_cell_length_b 10.876574
_cell_length_c 12.660942
_cell_angle_alpha 83.219194
_cell_angle_beta 46.551865
_cell_angle_gamma 70.421034
_cell_volume 662.535126
_symmetry_space_group_name_H-M "P -1"
_symmetry_group_IT_number 2
_symmetry_cell_setting 'triclinic'
loop_
_space_group_symop_operation_xyz
x,y,z
-x,-y,-z
loop_
_atom_site_type_symbol
_atom_site_label
_atom_site_fract_x
_atom_site_fract_y
_atom_site_fract_z
Si Si1 0.948391 0.653001 0.127526
Si Si2 0.754516 0.870268 0.878894
Si Si3 0.144217 0.970843 0.613969
Si Si4 0.635371 0.859610 0.601966
Si Si5 0.633054 0.639611 0.044450
Si Si6 0.988135 0.268966 0.692454
Si Si7 0.160159 0.851739 0.916202
O O1 0.719464 0.676883 0.123112
O O2 0.844869 0.693818 0.281917
O O3 0.147723 0.501765 0.056826
O O4 0.122872 0.745996 0.021316
O O5 0.995596 0.837396 0.877091
O O6 0.652309 0.747292 0.941518
O O7 0.917082 0.901360 0.712696
O O8 0.500000 0.000000 0.000000
O O9 0.258637 0.015675 0.458111
O O10 0.008235 0.115184 0.708852
O O11 0.409243 0.892716 0.590331
O O12 0.468901 0.839794 0.768006
O O13 0.884110 0.734237 0.473046
O O14 0.326190 0.640364 0.177614
O O15 0.000000 0.000000 0.000000
#
# Coordination Sequence:
#
# PCOD9095650 Si02
#       7
#     2   2   2   2   2   2   2
#     4  10  21  35  53  82 107 139 183 216 262 319
#     4  10  16  30  52  76 102 136 171 218 259 307
#     4   8  15  27  54  75 102 136 174 215 263 308
#     4   8  16  30  52  80 103 136 175 217 270 310
#     4  10  21  33  53  81 113 137 178 223 261 308
#     4  10  17  34  59  73 105 145 178 212 268 311
#     4  10  20  32  55  81 103 137 177 222 270 311
#
# _framework density 21.130956000000001
#
# number of rings (size 3 to 8) (size 9 to 14) (size 15 to 20)
#    0.857    1.714    1.429    2.143    0.000    0.000 
#    0.000    0.714    6.286   18.000    0.000    0.000 
#    0.000    0.000    0.000    0.000    0.000    0.000 
#
# Total GULP energy -77980.601670 kJ/mol
# GULP energy per Si atom -5570.042976 kJ/mol
# Density = 2.108286 g / cm^3
# Si number density = 21.130956 Si / 1000 Ang^3
#
#
#
# Elastic Constant Matrix: (Units=GPa)
#
#
# Indices 1 2 3 4 5 6 
#
# 1 59.8336 -4.9758 4.1725 -4.7940 -6.4224 3.5308
# 2 -4.9758 58.4746 8.8844 -10.2697 8.6627 -0.1785
# 3 4.1725 8.8844 93.8833 -15.8155 -7.5632 1.5870
# 4 -4.7940 -10.2697 -15.8155 18.9705 5.5714 -1.5216
# 5 -6.4224 8.6627 -7.5632 5.5714 23.2607 -0.5494
# 6 3.5308 -0.1785 1.5870 -1.5216 -0.5494 22.0593
#
#
#
# Elastic Compliance Matrix: (Units=1/GPa)
#
#
# Indices 1 2 3 4 5 6 
#
# 1 0.017689 0.001793 0.000077 0.004389 0.003132 -0.002442
# 2 0.001793 0.021677 -0.000504 0.015158 -0.011356 0.000687
# 3 0.000077 -0.000504 0.012466 0.009544 0.001971 -0.000206
# 4 0.004389 0.015158 0.009544 0.075976 -0.019446 0.003490
# 5 0.003132 -0.011356 0.001971 -0.019446 0.053366 -0.000747
# 6 -0.002442 0.000687 -0.000206 0.003490 -0.000747 0.045966
#
#
# Mechanical properties :
#
#
# Convention : Reuss Voigt Hill
#
# Bulk Modulus (GPa) = 18.32715 25.37263 21.84989
# Shear Modulus (GPa) = 20.61044 26.46545 23.53795
#
# Velocity S-wave (km/s) = 3.12648 3.54284 3.34115
# Velocity P-wave (km/s) = 4.66102 5.36367 5.02464
#
# Compressibility (1/GPa) = 0.05456386
#
# Stress axis : x y z
#
# Youngs Moduli (GPa) = 56.53328 46.13126 80.21937
#
# Poissons Ratio (x) = -0.08271 -0.00619
# Poissons Ratio (y) = -0.10135 0.04043
# Poissons Ratio (z) = -0.00437 0.02325
#
# Static dielectric constant tensor:
#      x y z
#    x 1.813060 0.005440 0.007700 
#    y 0.005440 1.725840 -0.035510 
#    z 0.007700 -0.035510 1.811070 
# 
# From -- ./inp_files/497915.got.cif
#   From: 2010.05.17/outbox.cif.g08.bks.cpg/sg2_249_cif.got.tgz:497915.got - 2010.06.03 11:33:40.
