data_PCOD9095883
_publ_section_title
;
Structure prediction by ZEFSAII (Michael W. Deem and Ramdas Pophale) SiO2 
 PCOD9095883
Probable space group: P -1
;
_chemical_formula_sum "Si O2"
_cell_formula_units_Z 16
_cell_length_a 11.898368
_cell_length_b 5.133663
_cell_length_c 16.207660
_cell_angle_alpha 78.556781
_cell_angle_beta 73.783034
_cell_angle_gamma 56.349765
_cell_volume 790.140106
_symmetry_space_group_name_H-M "P -1"
_symmetry_group_IT_number 2
_symmetry_cell_setting 'triclinic'
loop_
_space_group_symop_operation_xyz
x,y,z
-x,-y,-z
loop_
_atom_site_type_symbol
_atom_site_label
_atom_site_fract_x
_atom_site_fract_y
_atom_site_fract_z
Si Si1 0.828875 0.944419 0.042792
Si Si2 0.757173 0.112307 0.628551
Si Si3 0.568302 0.521901 0.327005
Si Si4 0.028484 0.924870 0.131631
Si Si5 0.886183 0.818091 0.459069
Si Si6 0.882660 0.397815 0.695936
Si Si7 0.738722 0.485083 0.142128
Si Si8 0.370055 0.123227 0.579303
O O1 0.758295 0.749440 0.082817
O O2 0.968518 0.800414 0.080094
O O3 0.731111 0.283630 0.082349
O O4 0.875406 0.979871 0.941024
O O5 0.595521 0.251448 0.643079
O O6 0.779739 0.330680 0.671153
O O7 0.824519 0.079539 0.526654
O O8 0.833425 0.759530 0.671060
O O9 0.620968 0.580146 0.226827
O O10 0.640044 0.603382 0.380047
O O11 0.605255 0.167037 0.350660
O O12 0.101987 0.694351 0.206168
O O13 0.886581 0.236676 0.170201
O O14 0.763063 0.785472 0.452703
O O15 0.000000 0.500000 0.500000
O O16 0.969559 0.834908 0.363933
O O17 0.500000 0.000000 0.500000
#
# Coordination Sequence:
#
# PCOD9095883 Si02
#       8
#     2   2   2   2   2   2   2   2
#     4   9  20  35  61  92 127 149 192 257 335 357
#     4  11  25  42  58  86 123 175 200 258 306 360
#     4  12  25  41  65  87 128 160 223 249 303 374
#     4   9  21  36  62  94 121 154 199 256 322 374
#     4  10  24  42  62  91 127 163 205 260 310 359
#     4  11  24  38  64  87 123 160 214 251 309 375
#     4  10  20  35  60  92 117 158 191 254 310 366
#     4  12  25  42  65  91 120 172 212 257 308 369
#
# _framework density 20.249573999999999
#
# number of rings (size 3 to 8) (size 9 to 14) (size 15 to 20)
#    0.750    0.750    1.250    3.375    5.250    3.000 
#    0.000    0.000    0.000    4.500    0.000    0.000 
#    0.000    0.000    0.000    0.000    0.000    0.000 
#
# Total GULP energy -89365.868142 kJ/mol
# GULP energy per Si atom -5585.366759 kJ/mol
# Density = 2.020348 g / cm^3
# Si number density = 20.249574 Si / 1000 Ang^3
#
#
#
# Elastic Constant Matrix: (Units=GPa)
#
#
# Indices 1 2 3 4 5 6 
#
# 1 47.0844 7.5740 10.4967 -13.5376 2.0360 -5.0361
# 2 7.5740 44.7339 13.7746 -2.0654 -12.5019 3.5364
# 3 10.4967 13.7746 100.2059 -7.3630 -7.4526 -9.5117
# 4 -13.5376 -2.0654 -7.3630 23.7587 4.5914 -9.2387
# 5 2.0360 -12.5019 -7.4526 4.5914 24.9711 -2.2879
# 6 -5.0361 3.5364 -9.5117 -9.2387 -2.2879 37.6068
#
#
#
# Elastic Compliance Matrix: (Units=1/GPa)
#
#
# Indices 1 2 3 4 5 6 
#
# 1 0.030255 -0.007393 -0.000337 0.022009 -0.009445 0.009494
# 2 -0.007393 0.028856 -0.003163 -0.007721 0.015022 -0.005486
# 3 -0.000337 -0.003163 0.011284 0.004425 0.001390 0.004278
# 4 0.022009 -0.007721 0.004425 0.065977 -0.014628 0.020111
# 5 -0.009445 0.015022 0.001390 -0.014628 0.051185 -0.002806
# 6 0.009494 -0.005486 0.004278 0.020111 -0.002806 0.034230
#
#
# Mechanical properties :
#
#
# Convention : Reuss Voigt Hill
#
# Bulk Modulus (GPa) = 20.57249 28.41277 24.49263
# Shear Modulus (GPa) = 19.24739 27.94592 23.59665
#
# Velocity S-wave (km/s) = 3.08638 3.71897 3.41734
# Velocity P-wave (km/s) = 4.78356 5.70111 5.26237
#
# Compressibility (1/GPa) = 0.04860859
#
# Stress axis : x y z
#
# Youngs Moduli (GPa) = 33.05282 34.65522 88.62002
#
# Poissons Ratio (x) = 0.25620 0.02988
# Poissons Ratio (y) = 0.24435 0.28030
# Poissons Ratio (z) = 0.01114 0.10961
#
# Static dielectric constant tensor:
#      x y z
#    x 1.711300 0.009870 -0.000940 
#    y 0.009870 1.734070 0.010470 
#    z -0.000940 0.010470 1.715570 
# 
# From -- ./inp_files/564022.got.cif
#   From: 2010.05.17/outbox.cif.g08.bks.cpg/sg2_283_cif.got.tgz:564022.got - 2010.06.03 11:33:40.
