data_PCOD9095720
_publ_section_title
;
Structure prediction by ZEFSAII (Michael W. Deem and Ramdas Pophale) SiO2 
 PCOD9095720
Probable space group: P -1
;
_chemical_formula_sum "Si O2"
_cell_formula_units_Z 12
_cell_length_a 9.215468
_cell_length_b 7.550310
_cell_length_c 16.587046
_cell_angle_alpha 116.912536
_cell_angle_beta 32.108223
_cell_angle_gamma 98.704121
_cell_volume 476.945615
_symmetry_space_group_name_H-M "P -1"
_symmetry_group_IT_number 2
_symmetry_cell_setting 'triclinic'
loop_
_space_group_symop_operation_xyz
x,y,z
-x,-y,-z
loop_
_atom_site_type_symbol
_atom_site_label
_atom_site_fract_x
_atom_site_fract_y
_atom_site_fract_z
Si Si1 0.216915 0.111594 0.946030
Si Si2 0.157887 0.181793 0.820397
Si Si3 0.419732 0.349778 0.447361
Si Si4 0.065188 0.290131 0.485002
Si Si5 0.825909 0.957639 0.871806
Si Si6 0.364159 0.696464 0.431727
O O1 0.151081 0.275000 0.933344
O O2 0.590905 0.930094 0.735359
O O3 0.128533 0.182322 0.094805
O O4 0.000000 0.000000 0.000000
O O5 0.383645 0.908053 0.669557
O O6 0.847557 0.183096 0.934558
O O7 0.352061 0.252630 0.685439
O O8 0.500000 0.500000 0.500000
O O9 0.085618 0.370751 0.582811
O O10 0.492066 0.437677 0.346941
O O11 0.000000 0.500000 0.500000
O O12 0.792460 0.243575 0.571109
O O13 0.081902 0.838951 0.656510
O O14 0.500000 0.000000 0.000000
#
# Coordination Sequence:
#
# PCOD9095720 Si02
#       6
#     2   2   2   2   2   2
#     4   9  19  35  55  85 119 157 194 240 306 358
#     4  10  22  39  63  88 117 160 206 244 292 363
#     4  10  20  35  59  89 121 150 198 251 297 342
#     4   9  19  35  57  86 117 157 199 246 293 356
#     4  11  20  35  59  91 123 156 195 244 312 359
#     4  11  21  38  64  91 115 156 207 250 291 358
#
# _framework density 25.1601
#
# number of rings (size 3 to 8) (size 9 to 14) (size 15 to 20)
#    0.000    2.000    3.333    0.500    0.000    2.667 
#    0.000    0.000    0.000   59.000    0.000    0.000 
#    0.000    0.000    0.000    0.000    0.000    0.000 
#
# Total GULP energy -66823.584358 kJ/mol
# GULP energy per Si atom -5568.632030 kJ/mol
# Density = 2.510283 g / cm^3
# Si number density = 25.160100 Si / 1000 Ang^3
#
#
#
# Elastic Constant Matrix: (Units=GPa)
#
#
# Indices 1 2 3 4 5 6 
#
# 1 196.2199 3.1220 44.3783 -4.7865 -20.1485 18.6857
# 2 3.1220 55.4352 34.8936 -9.3847 -4.4369 -1.2004
# 3 44.3783 34.8936 116.2041 -13.4876 -3.8063 5.5093
# 4 -4.7865 -9.3847 -13.4876 38.5893 4.0582 -1.9865
# 5 -20.1485 -4.4369 -3.8063 4.0582 45.4044 -1.3987
# 6 18.6857 -1.2004 5.5093 -1.9865 -1.3987 29.3853
#
#
#
# Elastic Compliance Matrix: (Units=1/GPa)
#
#
# Indices 1 2 3 4 5 6 
#
# 1 0.006235 0.001367 -0.002577 -0.000239 0.002603 -0.003318
# 2 0.001367 0.023192 -0.007130 0.003191 0.002043 0.001728
# 3 -0.002577 -0.007130 0.011990 0.002207 -0.001057 -0.000802
# 4 -0.000239 0.003191 0.002207 0.027731 -0.002037 0.001647
# 5 0.002603 0.002043 -0.001057 -0.002037 0.023461 -0.000395
# 6 -0.003318 0.001728 -0.000802 0.001647 -0.000395 0.036454
#
#
# Mechanical properties :
#
#
# Convention : Reuss Voigt Hill
#
# Bulk Modulus (GPa) = 40.42719 59.18301 49.80510
# Shear Modulus (GPa) = 32.47006 41.70682 37.08844
#
# Velocity S-wave (km/s) = 3.59630 4.07585 3.84356
# Velocity P-wave (km/s) = 5.77472 6.76193 6.28773
#
# Compressibility (1/GPa) = 0.02473583
#
# Stress axis : x y z
#
# Youngs Moduli (GPa) = 160.39035 43.11903 83.40100
#
# Poissons Ratio (x) = -0.05893 0.21490
# Poissons Ratio (y) = -0.21921 0.59469
# Poissons Ratio (z) = 0.41327 0.30746
#
# Static dielectric constant tensor:
#      x y z
#    x 2.200250 0.080280 0.006930 
#    y 0.080280 2.059720 0.033820 
#    z 0.006930 0.033820 2.205010 
# 
# From -- ./inp_files/290032.got.cif
#   From: 2010.05.17/outbox.cif.g08.bks.cpg/sg2_146_cif.got.tgz:290032.got - 2010.06.03 11:33:40.
