data_PCOD9095638
_publ_section_title
;
Structure prediction by ZEFSAII (Michael W. Deem and Ramdas Pophale) SiO2 
 PCOD9095638
Probable space group: P -1
;
_chemical_formula_sum "Si O2"
_cell_formula_units_Z 16
_cell_length_a 7.623857
_cell_length_b 20.779988
_cell_length_c 10.992330
_cell_angle_alpha 148.025802
_cell_angle_beta 136.827890
_cell_angle_gamma 49.427670
_cell_volume 628.507365
_symmetry_space_group_name_H-M "P -1"
_symmetry_group_IT_number 2
_symmetry_cell_setting 'triclinic'
loop_
_space_group_symop_operation_xyz
x,y,z
-x,-y,-z
loop_
_atom_site_type_symbol
_atom_site_label
_atom_site_fract_x
_atom_site_fract_y
_atom_site_fract_z
Si Si1 0.034941 0.663703 0.400979
Si Si2 0.422196 0.952732 0.588354
Si Si3 0.100481 0.108539 0.145747
Si Si4 0.720003 0.455970 0.315683
Si Si5 0.400351 0.359677 0.256177
Si Si6 0.558942 0.173079 0.854306
Si Si7 0.122031 0.740724 0.100351
Si Si8 0.767482 0.417597 0.871404
O O1 0.327889 0.680016 0.610442
O O2 0.058994 0.663881 0.267851
O O3 0.890461 0.766154 0.574060
O O4 0.926372 0.534000 0.166224
O O5 0.594959 0.936349 0.772405
O O6 0.530826 0.874523 0.397563
O O7 0.169808 0.881045 0.364881
O O8 0.429903 0.086538 0.751675
O O9 0.870474 0.136518 0.976413
O O10 0.000000 0.000000 0.000000
O O11 0.670471 0.503491 0.505518
O O12 0.495788 0.529283 0.240636
O O13 0.000000 0.500000 0.500000
O O14 0.757348 0.319672 0.059727
O O15 0.441498 0.307217 0.056173
O O16 0.169901 0.289675 0.084671
O O17 0.266725 0.661022 0.153033
#
# Coordination Sequence:
#
# PCOD9095638 Si02
#       8
#     2   2   2   2   2   2   2   2
#     4   9  19  37  57  83 114 153 199 240 284 354
#     4  10  21  38  62  88 117 151 200 244 293 356
#     4   9  18  36  62  85 111 149 199 245 287 344
#     4   9  19  38  54  80 122 151 187 236 289 356
#     4   9  20  39  56  83 115 153 194 238 288 349
#     4   9  20  41  63  84 114 158 197 245 292 345
#     4  11  22  36  56  89 118 153 190 243 302 346
#     4  10  20  35  59  83 116 157 193 241 293 344
#
# _framework density 25.457139999999999
#
# number of rings (size 3 to 8) (size 9 to 14) (size 15 to 20)
#    0.000    2.500    0.000    1.125    1.750    1.000 
#   20.250    0.000    0.000    4.500    0.000    0.000 
#    0.000    0.000    0.000    0.000    0.000    0.000 
#
# Total GULP energy -89191.824280 kJ/mol
# GULP energy per Si atom -5574.489018 kJ/mol
# Density = 2.539920 g / cm^3
# Si number density = 25.457140 Si / 1000 Ang^3
#
#
#
# Elastic Constant Matrix: (Units=GPa)
#
#
# Indices 1 2 3 4 5 6 
#
# 1 69.6032 8.9848 14.8804 -7.7669 -23.2284 0.6277
# 2 8.9848 79.0413 25.3725 -45.5347 10.6935 7.4918
# 3 14.8804 25.3725 115.8779 -10.3053 15.1386 -6.8634
# 4 -7.7669 -45.5347 -10.3053 52.3465 -9.5921 0.2243
# 5 -23.2284 10.6935 15.1386 -9.5921 41.2975 -4.1735
# 6 0.6277 7.4918 -6.8634 0.2243 -4.1735 23.7514
#
#
#
# Elastic Compliance Matrix: (Units=1/GPa)
#
#
# Indices 1 2 3 4 5 6 
#
# 1 0.020510 -0.000562 -0.003924 0.004386 0.014236 0.000962
# 2 -0.000562 0.029626 -0.004676 0.024500 -0.001716 -0.011214
# 3 -0.003924 -0.004676 0.010770 -0.003532 -0.005383 0.003778
# 4 0.004386 0.024500 -0.003532 0.041550 0.006244 -0.008160
# 5 0.014236 -0.001716 -0.005383 0.006244 0.036593 0.004981
# 6 0.000962 -0.011214 0.003778 -0.008160 0.004981 0.047659
#
#
# Mechanical properties :
#
#
# Convention : Reuss Voigt Hill
#
# Bulk Modulus (GPa) = 23.48335 40.33310 31.90823
# Shear Modulus (GPa) = 22.80752 37.83141 30.31946
#
# Velocity S-wave (km/s) = 2.99644 3.85916 3.45483
# Velocity P-wave (km/s) = 4.60610 5.97791 5.33627
#
# Compressibility (1/GPa) = 0.04258336
#
# Stress axis : x y z
#
# Youngs Moduli (GPa) = 48.75605 33.75423 92.84763
#
# Poissons Ratio (x) = 0.01898 0.36429
# Poissons Ratio (y) = 0.02741 0.43413
# Poissons Ratio (z) = 0.19130 0.15783
#
# Static dielectric constant tensor:
#      x y z
#    x 2.072070 -0.004030 0.019120 
#    y -0.004030 2.050570 0.058530 
#    z 0.019120 0.058530 2.063650 
# 
# From -- ./inp_files/202533.got.cif
#   From: 2010.05.17/outbox.cif.g08.bks.cpg/sg2_102_cif.got.tgz:202533.got - 2010.06.03 11:33:40.
