data_PCOD9095395
_publ_section_title
;
Structure prediction by ZEFSAII (Michael W. Deem and Ramdas Pophale) SiO2 
 PCOD9095395
Probable space group: P -1
;
_chemical_formula_sum "Si O2"
_cell_formula_units_Z 16
_cell_length_a 16.727684
_cell_length_b 15.210482
_cell_length_c 8.947530
_cell_angle_alpha 105.762416
_cell_angle_beta 107.034501
_cell_angle_gamma 139.586469
_cell_volume 850.296105
_symmetry_space_group_name_H-M "P -1"
_symmetry_group_IT_number 2
_symmetry_cell_setting 'triclinic'
loop_
_space_group_symop_operation_xyz
x,y,z
-x,-y,-z
loop_
_atom_site_type_symbol
_atom_site_label
_atom_site_fract_x
_atom_site_fract_y
_atom_site_fract_z
Si Si1 0.458849 0.600818 0.923510
Si Si2 0.556233 0.252301 0.805706
Si Si3 0.757346 0.967303 0.705127
Si Si4 0.687138 0.159832 0.564543
Si Si5 0.066296 0.430795 0.053280
Si Si6 0.215920 0.203382 0.785794
Si Si7 0.919715 0.852064 0.014677
Si Si8 0.453541 0.559463 0.552070
O O1 0.347442 0.412498 0.873354
O O2 0.417896 0.539805 0.698921
O O3 0.405524 0.644536 0.984455
O O4 0.696143 0.810639 0.180215
O O5 0.404613 0.154449 0.560317
O O6 0.768350 0.440803 0.920220
O O7 0.430409 0.035253 0.684859
O O8 0.632524 0.803551 0.701780
O O9 0.931079 0.215804 0.952965
O O10 0.892291 0.015335 0.747922
O O11 0.795152 0.363500 0.671920
O O12 0.500000 0.000000 0.500000
O O13 0.880952 0.302589 0.813811
O O14 0.197714 0.210049 0.951794
O O15 0.000000 0.000000 0.500000
O O16 0.753040 0.622350 0.735982
O O17 0.000000 0.000000 0.000000
O O18 0.500000 0.500000 0.500000
#
# Coordination Sequence:
#
# PCOD9095395 Si02
#       8
#     2   2   2   2   2   2   2   2
#     4  11  23  36  50  76 109 145 190 233 279 326
#     4  10  20  35  57  85 115 140 179 234 282 334
#     4  11  21  34  57  80 109 145 191 234 273 329
#     4   8  16  32  58  88 117 138 166 221 283 340
#     4   9  17  33  57  89 112 139 176 220 282 341
#     4  11  22  34  53  75 101 143 189 238 282 319
#     4  12  22  37  55  75 106 150 197 235 278 324
#     4  12  23  38  52  71 107 154 195 234 275 322
#
# _framework density 18.816974999999999
#
# number of rings (size 3 to 8) (size 9 to 14) (size 15 to 20)
#    0.000    1.500    2.500    3.750    1.750    1.000 
#    0.000    0.000    0.000    0.750    0.000   35.875 
#    0.000    0.000    0.000    0.000    0.000    0.000 
#
# Total GULP energy -89068.362185 kJ/mol
# GULP energy per Si atom -5566.772637 kJ/mol
# Density = 1.877415 g / cm^3
# Si number density = 18.816975 Si / 1000 Ang^3
#
#
#
# Elastic Constant Matrix: (Units=GPa)
#
#
# Indices 1 2 3 4 5 6 
#
# 1 96.5642 32.1021 35.5761 4.8411 -5.6488 11.4697
# 2 32.1021 111.5432 31.1351 17.2678 -27.3351 2.4274
# 3 35.5761 31.1351 79.1139 11.1883 1.6465 10.7778
# 4 4.8411 17.2678 11.1883 34.2812 -0.4121 -7.4754
# 5 -5.6488 -27.3351 1.6465 -0.4121 45.1641 8.6029
# 6 11.4697 2.4274 10.7778 -7.4754 8.6029 22.3498
#
#
#
# Elastic Compliance Matrix: (Units=1/GPa)
#
#
# Indices 1 2 3 4 5 6 
#
# 1 0.013431 -0.002011 -0.004475 -0.000567 0.001637 -0.005336
# 2 -0.002011 0.013728 -0.003144 -0.006494 0.008983 -0.004573
# 3 -0.004475 -0.003144 0.017564 -0.005022 -0.001854 -0.006798
# 4 -0.000567 -0.006494 -0.005022 0.038201 -0.007073 0.018918
# 5 0.001637 0.008983 -0.001854 -0.007073 0.030661 -0.015089
# 6 -0.005336 -0.004573 -0.006798 0.018918 -0.015089 0.063392
#
#
# Mechanical properties :
#
#
# Convention : Reuss Voigt Hill
#
# Bulk Modulus (GPa) = 39.27259 53.87199 46.57229
# Shear Modulus (GPa) = 24.42300 32.91957 28.67129
#
# Velocity S-wave (km/s) = 3.60658 4.18719 3.90769
# Velocity P-wave (km/s) = 6.18542 7.21584 6.72041
#
# Compressibility (1/GPa) = 0.02546305
#
# Stress axis : x y z
#
# Youngs Moduli (GPa) = 74.45376 72.84464 56.93306
#
# Poissons Ratio (x) = 0.14651 0.25478
# Poissons Ratio (y) = 0.14975 0.17898
# Poissons Ratio (z) = 0.33319 0.22901
#
# Static dielectric constant tensor:
#      x y z
#    x 1.717830 -0.037940 0.019860 
#    y -0.037940 1.613680 0.048660 
#    z 0.019860 0.048660 1.708450 
# 
# From -- ./inp_files/135704.got.cif
#   From: 2010.05.17/outbox.cif.g08.bks.cpg/sg2_68_cif.got.tgz:135704.got - 2010.06.03 11:33:40.
