data_PCOD9095614
_publ_section_title
;
Structure prediction by ZEFSAII (Michael W. Deem and Ramdas Pophale) SiO2 
 PCOD9095614
Probable space group: P -1
;
_chemical_formula_sum "Si O2"
_cell_formula_units_Z 16
_cell_length_a 13.716954
_cell_length_b 12.613453
_cell_length_c 8.877261
_cell_angle_alpha 135.478903
_cell_angle_beta 66.244034
_cell_angle_gamma 139.124513
_cell_volume 672.975687
_symmetry_space_group_name_H-M "P -1"
_symmetry_group_IT_number 2
_symmetry_cell_setting 'triclinic'
loop_
_space_group_symop_operation_xyz
x,y,z
-x,-y,-z
loop_
_atom_site_type_symbol
_atom_site_label
_atom_site_fract_x
_atom_site_fract_y
_atom_site_fract_z
Si Si1 0.062133 0.309795 0.957633
Si Si2 0.577962 0.793367 0.305470
Si Si3 0.933591 0.352505 0.576147
Si Si4 0.742371 0.480084 0.501649
Si Si5 0.335546 0.691195 0.944326
Si Si6 0.775679 0.088066 0.721952
Si Si7 0.746021 0.699093 0.973458
Si Si8 0.635468 0.082784 0.335635
O O1 0.201903 0.483552 0.925592
O O2 0.896041 0.128389 0.794987
O O3 0.055650 0.456448 0.207918
O O4 0.111731 0.220265 0.937966
O O5 0.410977 0.551221 0.128607
O O6 0.633500 0.843527 0.494579
O O7 0.589868 0.976777 0.424356
O O8 0.703257 0.825069 0.164737
O O9 0.870749 0.230125 0.654487
O O10 0.815847 0.217230 0.371030
O O11 0.089502 0.422139 0.523801
O O12 0.663797 0.393015 0.299763
O O13 0.760096 0.659237 0.752904
O O14 0.650854 0.270001 0.457939
O O15 0.285118 0.815461 0.075903
O O16 0.505719 0.870639 0.096849
#
# Coordination Sequence:
#
# PCOD9095614 Si02
#       8
#     2   2   2   2   2   2   2   2
#     4  11  19  38  65  89 118 165 194 252 298 354
#     4  10  24  44  59  89 121 162 211 242 289 369
#     4  10  20  35  58  95 126 150 193 247 312 354
#     4  12  22  38  61  95 125 154 194 255 309 353
#     4  11  21  37  62  96 121 151 204 254 304 349
#     4  10  20  36  64  89 125 155 198 255 292 356
#     4  11  24  41  67  84 120 167 203 244 300 359
#     4  11  22  36  62  88 122 157 199 252 295 349
#
# _framework density 23.775003000000002
#
# number of rings (size 3 to 8) (size 9 to 14) (size 15 to 20)
#    0.000    1.250    5.000    2.250    0.000    2.500 
#    0.000    3.125    2.750    0.000    0.000    0.000 
#    0.000    0.000    0.000    0.000    0.000    0.000 
#
# Total GULP energy -89383.858734 kJ/mol
# GULP energy per Si atom -5586.491171 kJ/mol
# Density = 2.372089 g / cm^3
# Si number density = 23.775003 Si / 1000 Ang^3
#
#
#
# Elastic Constant Matrix: (Units=GPa)
#
#
# Indices 1 2 3 4 5 6 
#
# 1 115.7590 7.5059 70.2827 3.2482 32.6893 36.5024
# 2 7.5059 35.9643 6.3690 -8.9488 2.5632 7.9718
# 3 70.2827 6.3690 118.2565 -16.5959 18.0487 10.9259
# 4 3.2482 -8.9488 -16.5959 30.5930 11.8199 0.8948
# 5 32.6893 2.5632 18.0487 11.8199 54.9615 10.8651
# 6 36.5024 7.9718 10.9259 0.8948 10.8651 23.8416
#
#
#
# Elastic Compliance Matrix: (Units=1/GPa)
#
#
# Indices 1 2 3 4 5 6 
#
# 1 0.033258 0.003516 -0.016611 -0.008620 -0.004293 -0.042203
# 2 0.003516 0.033428 -0.000565 0.010587 -0.002682 -0.015477
# 3 -0.016611 -0.000565 0.018806 0.012204 -0.002379 0.017629
# 4 -0.008620 0.010587 0.012204 0.047356 -0.011002 0.007302
# 5 -0.004293 -0.002682 -0.002379 -0.011002 0.024449 -0.002169
# 6 -0.042203 -0.015477 0.017629 0.007302 -0.002169 0.104368
#
#
# Mechanical properties :
#
#
# Convention : Reuss Voigt Hill
#
# Bulk Modulus (GPa) = 17.19041 48.69944 32.94493
# Shear Modulus (GPa) = 16.21405 34.26736 25.24071
#
# Velocity S-wave (km/s) = 2.61431 3.80059 3.26183
# Velocity P-wave (km/s) = 4.04462 6.30771 5.29840
#
# Compressibility (1/GPa) = 0.05817195
#
# Stress axis : x y z
#
# Youngs Moduli (GPa) = 30.06814 29.91545 53.17525
#
# Poissons Ratio (x) = -0.10519 0.88328
# Poissons Ratio (y) = -0.10573 0.03005
# Poissons Ratio (z) = 0.49945 0.01691
#
# Static dielectric constant tensor:
#      x y z
#    x 1.873170 0.057010 0.011340 
#    y 0.057010 2.020940 -0.001120 
#    z 0.011340 -0.001120 1.909280 
# 
# From -- ./inp_files/314223.got.cif
#   From: 2010.05.17/outbox.cif.g08.bks.cpg/sg2_158_cif.got.tgz:314223.got - 2010.06.03 11:33:40.
