data_PCOD9095280
_publ_section_title
;
Structure prediction by ZEFSAII (Michael W. Deem and Ramdas Pophale) SiO2 
 PCOD9095280
Probable space group: P -1
;
_chemical_formula_sum "Si O2"
_cell_formula_units_Z 14
_cell_length_a 9.478962
_cell_length_b 15.140743
_cell_length_c 11.831299
_cell_angle_alpha 18.716558
_cell_angle_beta 99.336041
_cell_angle_gamma 93.019734
_cell_volume 509.585372
_symmetry_space_group_name_H-M "P -1"
_symmetry_group_IT_number 2
_symmetry_cell_setting 'triclinic'
loop_
_space_group_symop_operation_xyz
x,y,z
-x,-y,-z
loop_
_atom_site_type_symbol
_atom_site_label
_atom_site_fract_x
_atom_site_fract_y
_atom_site_fract_z
Si Si1 0.795150 0.012545 0.694471
Si Si2 0.399394 0.053327 0.804454
Si Si3 0.149061 0.404447 0.219306
Si Si4 0.263757 0.951905 0.591509
Si Si5 0.654678 0.595604 0.296942
Si Si6 0.952386 0.201510 0.861999
Si Si7 0.558793 0.468017 0.208945
O O1 0.800514 0.870550 0.745869
O O2 0.672798 0.333132 0.285969
O O3 0.723813 0.855043 0.969694
O O4 0.957927 0.985316 0.795006
O O5 0.218461 0.227089 0.563041
O O6 0.457121 0.276586 0.467174
O O7 0.483105 0.742832 0.132527
O O8 0.500000 0.000000 0.000000
O O9 0.245776 0.149063 0.458148
O O10 0.176993 0.712145 0.872793
O O11 0.000000 0.500000 0.000000
O O12 0.440335 0.783231 0.800563
O O13 0.773354 0.342201 0.687903
O O14 0.661916 0.458440 0.341462
O O15 0.000000 0.500000 0.500000
O O16 0.000000 0.000000 0.000000
#
# Coordination Sequence:
#
# PCOD9095280 Si02
#       7
#     2   2   2   2   2   2   2
#     4  10  22  36  61  95 129 165 204 250 318 391
#     4  10  23  43  64  92 122 169 222 265 318 376
#     4  11  25  47  66  92 131 166 215 274 315 367
#     4  11  24  41  66  96 127 168 211 257 320 384
#     4  10  20  38  61  89 128 163 204 260 314 372
#     4  10  20  35  56  84 127 164 199 248 304 364
#     4  10  20  39  61  91 127 162 203 263 311 373
#
# _framework density 27.473316000000001
#
# number of rings (size 3 to 8) (size 9 to 14) (size 15 to 20)
#    0.000    1.714    2.857    0.857    2.000    2.286 
#    2.571    0.000    0.000    0.000    0.000    0.000 
#    0.000    0.000    0.000    0.000    0.000    0.000 
#
# Total GULP energy -78046.284667 kJ/mol
# GULP energy per Si atom -5574.734619 kJ/mol
# Density = 2.741079 g / cm^3
# Si number density = 27.473316 Si / 1000 Ang^3
#
#
#
# Elastic Constant Matrix: (Units=GPa)
#
#
# Indices 1 2 3 4 5 6 
#
# 1 87.7092 5.7762 48.0109 5.5694 22.6658 22.3941
# 2 5.7762 124.4471 21.1477 -7.5203 11.4937 12.5867
# 3 48.0109 21.1477 136.2642 4.4105 11.0443 15.1410
# 4 5.5694 -7.5203 4.4105 51.4100 18.2242 8.7001
# 5 22.6658 11.4937 11.0443 18.2242 56.8633 3.2485
# 6 22.3941 12.5867 15.1410 8.7001 3.2485 31.3975
#
#
#
# Elastic Compliance Matrix: (Units=1/GPa)
#
#
# Indices 1 2 3 4 5 6 
#
# 1 0.018796 0.002081 -0.005136 0.003313 -0.007296 -0.011927
# 2 0.002081 0.009178 -0.001448 0.003207 -0.003144 -0.005028
# 3 -0.005136 -0.001448 0.009351 -0.000700 0.000757 -0.000150
# 4 0.003313 0.003207 -0.000700 0.024404 -0.009133 -0.009128
# 5 -0.007296 -0.003144 0.000757 -0.009133 0.023556 0.006192
# 6 -0.011927 -0.005028 -0.000150 -0.009128 0.006192 0.044333
#
#
# Mechanical properties :
#
#
# Convention : Reuss Voigt Hill
#
# Bulk Modulus (GPa) = 35.31296 55.36556 45.33926
# Shear Modulus (GPa) = 33.76953 46.16652 39.96803
#
# Velocity S-wave (km/s) = 3.50976 4.10373 3.81831
# Velocity P-wave (km/s) = 5.41351 6.53073 5.99818
#
# Compressibility (1/GPa) = 0.02831822
#
# Stress axis : x y z
#
# Youngs Moduli (GPa) = 53.20355 108.95998 106.94054
#
# Poissons Ratio (x) = -0.22671 0.54925
# Poissons Ratio (y) = -0.11070 0.15482
# Poissons Ratio (z) = 0.27326 0.15774
#
# Static dielectric constant tensor:
#      x y z
#    x 2.383350 0.033110 -0.068340 
#    y 0.033110 2.187260 0.172570 
#    z -0.068340 0.172570 2.469320 
# 
# From -- ./inp_files/65866.got.cif
#   From: 2010.05.17/outbox.cif.g08.bks.cpg/sg2_33_cif.got.tgz:65866.got - 2010.06.03 11:33:40.
