data_PCOD9095810
_publ_section_title
;
Structure prediction by ZEFSAII (Michael W. Deem and Ramdas Pophale) SiO2 
 PCOD9095810
Probable space group: P -1
;
_chemical_formula_sum "Si O2"
_cell_formula_units_Z 14
_cell_length_a 8.145780
_cell_length_b 8.819544
_cell_length_c 7.496587
_cell_angle_alpha 68.329325
_cell_angle_beta 79.655914
_cell_angle_gamma 79.817325
_cell_volume 488.761877
_symmetry_space_group_name_H-M "P -1"
_symmetry_group_IT_number 2
_symmetry_cell_setting 'triclinic'
loop_
_space_group_symop_operation_xyz
x,y,z
-x,-y,-z
loop_
_atom_site_type_symbol
_atom_site_label
_atom_site_fract_x
_atom_site_fract_y
_atom_site_fract_z
Si Si1 0.925236 0.106095 0.642421
Si Si2 0.780670 0.470662 0.581986
Si Si3 0.826898 0.285065 0.121323
Si Si4 0.086552 0.408173 0.812869
Si Si5 0.623915 0.920504 0.783807
Si Si6 0.282387 0.040684 0.643656
Si Si7 0.467187 0.638639 0.094879
O O1 0.862579 0.298104 0.553757
O O2 0.766462 0.024630 0.774819
O O3 0.000000 0.000000 0.500000
O O4 0.095193 0.091273 0.732478
O O5 0.791742 0.612419 0.372962
O O6 0.909944 0.490255 0.714002
O O7 0.591461 0.449766 0.681913
O O8 0.826894 0.460125 0.142599
O O9 0.740123 0.153245 0.312474
O O10 0.714118 0.272865 0.973806
O O11 0.018098 0.273691 0.014112
O O12 0.444597 0.030455 0.741190
O O13 0.595097 0.769450 0.981434
O O14 0.678006 0.871493 0.588717
O O15 0.500000 0.500000 0.000000
#
# Coordination Sequence:
#
# PCOD9095810 Si02
#       7
#     2   2   2   2   2   2   2
#     4  10  20  35  60  86 115 159 199 237 300 357
#     4  10  21  36  56  89 120 151 206 249 287 362
#     4   9  18  35  58  84 115 155 198 241 298 361
#     4   9  18  34  58  82 117 150 188 254 297 336
#     4   9  19  35  57  84 118 155 194 244 291 345
#     4   9  18  34  57  86 115 151 200 241 287 356
#     4  10  22  39  58  83 119 160 200 246 301 356
#
# _framework density 28.643806999999999
#
# number of rings (size 3 to 8) (size 9 to 14) (size 15 to 20)
#    0.000    2.571    0.000    1.714    0.000   10.857 
#    0.000    8.571    0.000    0.000    0.000    0.000 
#    0.000    0.000    0.000    0.000    0.000    0.000 
#
# Total GULP energy -78133.526619 kJ/mol
# GULP energy per Si atom -5580.966187 kJ/mol
# Density = 2.857861 g / cm^3
# Si number density = 28.643807 Si / 1000 Ang^3
#
#
#
# Elastic Constant Matrix: (Units=GPa)
#
#
# Indices 1 2 3 4 5 6 
#
# 1 160.2960 46.4561 48.5729 -21.9874 -41.0669 21.0818
# 2 46.4561 115.2485 41.2690 -6.0500 -17.8661 32.1765
# 3 48.5729 41.2690 159.0096 -24.3556 -42.3718 27.7332
# 4 -21.9874 -6.0500 -24.3556 57.7513 24.3184 -13.2703
# 5 -41.0669 -17.8661 -42.3718 24.3184 59.8886 -13.8540
# 6 21.0818 32.1765 27.7332 -13.2703 -13.8540 37.9732
#
#
#
# Elastic Compliance Matrix: (Units=1/GPa)
#
#
# Indices 1 2 3 4 5 6 
#
# 1 0.008335 -0.002339 -0.000644 0.000827 0.004139 -0.000376
# 2 -0.002339 0.012516 -0.001275 -0.002226 0.000015 -0.009148
# 3 -0.000644 -0.001275 0.008592 0.000762 0.004249 -0.003021
# 4 0.000827 -0.002226 0.000762 0.022105 -0.007149 0.005987
# 5 0.004139 0.000015 0.004249 -0.007149 0.025797 0.001499
# 6 -0.000376 -0.009148 -0.003021 0.005987 0.001499 0.039140
#
#
# Mechanical properties :
#
#
# Convention : Reuss Voigt Hill
#
# Bulk Modulus (GPa) = 47.78533 78.57223 63.17878
# Shear Modulus (GPa) = 37.88579 51.00636 44.44607
#
# Velocity S-wave (km/s) = 3.64077 4.22443 3.94341
# Velocity P-wave (km/s) = 5.86451 7.16133 6.54512
#
# Compressibility (1/GPa) = 0.02092693
#
# Stress axis : x y z
#
# Youngs Moduli (GPa) = 119.97897 79.89831 116.38208
#
# Poissons Ratio (x) = 0.18690 0.07491
# Poissons Ratio (y) = 0.28066 0.14841
# Poissons Ratio (z) = 0.07723 0.10189
#
# Static dielectric constant tensor:
#      x y z
#    x 2.320920 -0.135700 0.040690 
#    y -0.135700 2.344930 0.043700 
#    z 0.040690 0.043700 2.445390 
# 
# From -- ./inp_files/157889.got.cif
#   From: 2010.05.17/outbox.cif.g08.bks.cpg/sg2_79_cif.got.tgz:157889.got - 2010.06.03 11:33:40.
