data_PCOD9095693
_publ_section_title
;
Structure prediction by ZEFSAII (Michael W. Deem and Ramdas Pophale) SiO2 
 PCOD9095693
Probable space group: P -1
;
_chemical_formula_sum "Si O2"
_cell_formula_units_Z 16
_cell_length_a 14.355350
_cell_length_b 8.803772
_cell_length_c 14.041814
_cell_angle_alpha 125.182994
_cell_angle_beta 40.790998
_cell_angle_gamma 101.630307
_cell_volume 851.176227
_symmetry_space_group_name_H-M "P -1"
_symmetry_group_IT_number 2
_symmetry_cell_setting 'triclinic'
loop_
_space_group_symop_operation_xyz
x,y,z
-x,-y,-z
loop_
_atom_site_type_symbol
_atom_site_label
_atom_site_fract_x
_atom_site_fract_y
_atom_site_fract_z
Si Si1 0.495292 0.390168 0.367205
Si Si2 0.482379 0.599874 0.153460
Si Si3 0.737170 0.248622 0.965078
Si Si4 0.597191 0.977183 0.713881
Si Si5 0.056808 0.428074 0.321798
Si Si6 0.669324 0.857667 0.877433
Si Si7 0.746016 0.448700 0.552668
Si Si8 0.972428 0.825573 0.400061
O O1 0.500000 0.500000 0.500000
O O2 0.450405 0.200073 0.347989
O O3 0.358077 0.536408 0.453234
O O4 0.659052 0.312893 0.152901
O O5 0.314890 0.639251 0.344906
O O6 0.473516 0.824184 0.227830
O O7 0.500000 0.500000 0.000000
O O8 0.618992 0.430040 0.051530
O O9 0.913552 0.219177 0.796352
O O10 0.727712 0.032495 0.874095
O O11 0.786808 0.898286 0.548056
O O12 0.509146 0.049633 0.910947
O O13 0.231852 0.258655 0.145888
O O14 0.000000 0.500000 0.500000
O O15 0.932379 0.345595 0.352209
O O16 0.037383 0.618664 0.339949
O O17 0.702699 0.682042 0.708645
O O18 0.000000 0.000000 0.500000
#
# Coordination Sequence:
#
# PCOD9095693 Si02
#       8
#     2   2   2   2   2   2   2   2
#     4  10  23  45  65  82 116 169 223 258 290 343
#     4  11  21  32  56  91 128 153 190 238 318 381
#     4  10  24  38  58  92 124 159 201 252 303 369
#     4  11  23  37  61  91 123 163 195 247 313 372
#     4  10  21  35  53  87 128 165 190 236 303 380
#     4  10  21  37  58  88 129 159 195 240 315 384
#     4  10  20  35  59  87 121 163 201 250 301 370
#     4  12  23  34  56  95 133 154 192 245 314 384
#
# _framework density 18.797516999999999
#
# number of rings (size 3 to 8) (size 9 to 14) (size 15 to 20)
#    0.000    1.500    2.500    3.000   10.500    1.500 
#    0.000    3.125    0.000    3.000    0.000    0.000 
#    0.000    0.000    0.000    0.000    0.000    0.000 
#
# Total GULP energy -89310.685372 kJ/mol
# GULP energy per Si atom -5581.917836 kJ/mol
# Density = 1.875473 g / cm^3
# Si number density = 18.797517 Si / 1000 Ang^3
#
#
#
# Elastic Constant Matrix: (Units=GPa)
#
#
# Indices 1 2 3 4 5 6 
#
# 1 90.0764 30.7561 54.2567 -7.0320 7.0300 7.9921
# 2 30.7561 128.5550 40.1899 -17.0831 -1.7773 -6.1242
# 3 54.2567 40.1899 90.4740 -25.9839 -5.8606 14.9364
# 4 -7.0320 -17.0831 -25.9839 33.1965 3.4151 -10.1300
# 5 7.0300 -1.7773 -5.8606 3.4151 40.7209 2.7565
# 6 7.9921 -6.1242 14.9364 -10.1300 2.7565 23.8751
#
#
#
# Elastic Compliance Matrix: (Units=1/GPa)
#
#
# Indices 1 2 3 4 5 6 
#
# 1 0.019396 -0.001595 -0.012974 -0.006726 -0.004647 -0.001103
# 2 -0.001595 0.010201 -0.003554 0.004435 -0.000659 0.007332
# 3 -0.012974 -0.003554 0.025664 0.012558 0.005260 -0.007904
# 4 -0.006726 0.004435 0.012558 0.045581 -0.001681 0.015066
# 5 -0.004647 -0.000659 0.005260 -0.001681 0.026614 -0.005690
# 6 -0.001103 0.007332 -0.007904 0.015066 -0.005690 0.056128
#
#
# Mechanical properties :
#
#
# Convention : Reuss Voigt Hill
#
# Bulk Modulus (GPa) = 52.58985 62.16786 57.37885
# Shear Modulus (GPa) = 22.10724 31.81868 26.96296
#
# Velocity S-wave (km/s) = 3.43311 4.11872 3.79144
# Velocity P-wave (km/s) = 6.61459 7.46744 7.05391
#
# Compressibility (1/GPa) = 0.01901508
#
# Stress axis : x y z
#
# Youngs Moduli (GPa) = 51.55581 98.02898 38.96454
#
# Poissons Ratio (x) = 0.15635 0.50552
# Poissons Ratio (y) = 0.08223 0.13850
# Poissons Ratio (z) = 0.66888 0.34844
#
# Static dielectric constant tensor:
#      x y z
#    x 1.698370 -0.039870 -0.090600 
#    y -0.039870 1.707990 -0.013020 
#    z -0.090600 -0.013020 1.726630 
# 
# From -- ./inp_files/527796.got.cif
#   From: 2010.05.17/outbox.cif.g08.bks.cpg/sg2_264_cif.got.tgz:527796.got - 2010.06.03 11:33:40.
