data_PCOD9095514
_publ_section_title
;
Structure prediction by ZEFSAII (Michael W. Deem and Ramdas Pophale) SiO2 
 PCOD9095514
Probable space group: P -1
;
_chemical_formula_sum "Si O2"
_cell_formula_units_Z 16
_cell_length_a 12.513309
_cell_length_b 7.708680
_cell_length_c 12.352862
_cell_angle_alpha 111.925389
_cell_angle_beta 52.040556
_cell_angle_gamma 134.506668
_cell_volume 666.467411
_symmetry_space_group_name_H-M "P -1"
_symmetry_group_IT_number 2
_symmetry_cell_setting 'triclinic'
loop_
_space_group_symop_operation_xyz
x,y,z
-x,-y,-z
loop_
_atom_site_type_symbol
_atom_site_label
_atom_site_fract_x
_atom_site_fract_y
_atom_site_fract_z
Si Si1 0.982808 0.077628 0.220453
Si Si2 0.338149 0.364284 0.983245
Si Si3 0.731986 0.139026 0.284651
Si Si4 0.310350 0.777917 0.115356
Si Si5 0.837310 0.477870 0.635065
Si Si6 0.363836 0.443217 0.740817
Si Si7 0.204840 0.709494 0.945710
Si Si8 0.388539 0.629939 0.461402
O O1 0.909596 0.191299 0.223576
O O2 0.146093 0.110431 0.073494
O O3 0.073298 0.255138 0.308853
O O4 0.810153 0.793280 0.265856
O O5 0.292071 0.541721 0.056766
O O6 0.500000 0.500000 0.000000
O O7 0.381556 0.367915 0.832816
O O8 0.710852 0.097555 0.159615
O O9 0.718198 0.345712 0.375988
O O10 0.576854 0.902510 0.394042
O O11 0.264869 0.742970 0.262555
O O12 0.198770 0.774157 0.088795
O O13 0.500000 0.000000 0.000000
O O14 0.716226 0.429212 0.598694
O O15 0.000000 0.500000 0.500000
O O16 0.318755 0.618407 0.835822
O O17 0.548191 0.528537 0.595035
O O18 0.000000 0.500000 0.000000
#
# Coordination Sequence:
#
# PCOD9095514 Si02
#       8
#     2   2   2   2   2   2   2   2
#     4  10  20  36  58  89 117 153 206 244 294 349
#     4  10  20  35  58  84 118 157 195 243 297 353
#     4  10  20  38  59  86 115 158 199 240 292 361
#     4  10  22  38  57  89 117 150 196 247 304 352
#     4  11  20  36  64  90 119 157 204 254 293 358
#     4  10  21  36  55  87 122 155 195 249 293 357
#     4  11  23  38  59  85 123 155 191 242 308 354
#     4  10  21  36  62  86 114 154 205 243 289 349
#
# _framework density 24.007175
#
# number of rings (size 3 to 8) (size 9 to 14) (size 15 to 20)
#    0.000    1.750    1.250    4.875    0.000    3.500 
#    0.000    0.000    0.000    0.750    0.000    0.000 
#    0.000    0.000    0.000    0.000    0.000    0.000 
#
# Total GULP energy -89113.096845 kJ/mol
# GULP energy per Si atom -5569.568553 kJ/mol
# Density = 2.395253 g / cm^3
# Si number density = 24.007175 Si / 1000 Ang^3
#
#
#
# Elastic Constant Matrix: (Units=GPa)
#
#
# Indices 1 2 3 4 5 6 
#
# 1 123.2580 9.7750 47.0894 -5.9143 -8.7684 21.3318
# 2 9.7750 40.1976 8.2649 -4.6225 -4.2335 11.0169
# 3 47.0894 8.2649 117.0458 7.0587 -2.0180 -0.4800
# 4 -5.9143 -4.6225 7.0587 33.2715 -5.1926 -6.0642
# 5 -8.7684 -4.2335 -2.0180 -5.1926 53.2093 8.5611
# 6 21.3318 11.0169 -0.4800 -6.0642 8.5611 50.3211
#
#
#
# Elastic Compliance Matrix: (Units=1/GPa)
#
#
# Indices 1 2 3 4 5 6 
#
# 1 0.011000 0.000174 -0.004561 0.002472 0.002684 -0.004903
# 2 0.000174 0.027837 -0.002228 0.003769 0.003547 -0.006338
# 3 -0.004561 -0.002228 0.010715 -0.003154 -0.001208 0.002349
# 4 0.002472 0.003769 -0.003154 0.032496 0.003532 0.001412
# 5 0.002684 0.003547 -0.001208 0.003532 0.020623 -0.005008
# 6 -0.004903 -0.006338 0.002349 0.001412 -0.005008 0.024383
#
#
# Mechanical properties :
#
#
# Convention : Reuss Voigt Hill
#
# Bulk Modulus (GPa) = 27.53138 45.64001 36.58569
# Shear Modulus (GPa) = 32.81046 41.71852 37.26449
#
# Velocity S-wave (km/s) = 3.70089 4.17316 3.94410
# Velocity P-wave (km/s) = 5.45482 6.50174 6.00115
#
# Compressibility (1/GPa) = 0.03632220
#
# Stress axis : x y z
#
# Youngs Moduli (GPa) = 90.91178 35.92339 93.32950
#
# Poissons Ratio (x) = -0.00623 0.42563
# Poissons Ratio (y) = -0.01577 0.20790
# Poissons Ratio (z) = 0.41460 0.08002
#
# Static dielectric constant tensor:
#      x y z
#    x 2.039520 0.028360 0.087730 
#    y 0.028360 1.871830 -0.061630 
#    z 0.087730 -0.061630 2.084810 
# 
# From -- ./inp_files/177871.got.cif
#   From: 2010.05.17/outbox.cif.g08.bks.cpg/sg2_89_cif.got.tgz:177871.got - 2010.06.03 11:33:40.
