data_PCOD9095410
_publ_section_title
;
Structure prediction by ZEFSAII (Michael W. Deem and Ramdas Pophale) SiO2 
 PCOD9095410
Probable space group: P -1
;
_chemical_formula_sum "Si O2"
_cell_formula_units_Z 16
_cell_length_a 11.345309
_cell_length_b 12.089645
_cell_length_c 10.988429
_cell_angle_alpha 74.009116
_cell_angle_beta 116.853783
_cell_angle_gamma 151.985804
_cell_volume 603.607977
_symmetry_space_group_name_H-M "P -1"
_symmetry_group_IT_number 2
_symmetry_cell_setting 'triclinic'
loop_
_space_group_symop_operation_xyz
x,y,z
-x,-y,-z
loop_
_atom_site_type_symbol
_atom_site_label
_atom_site_fract_x
_atom_site_fract_y
_atom_site_fract_z
Si Si1 0.656530 0.485521 0.942314
Si Si2 0.675131 0.750860 0.887232
Si Si3 0.782590 0.921076 0.548413
Si Si4 0.830325 0.215930 0.509810
Si Si5 0.133739 0.984830 0.725249
Si Si6 0.027176 0.478894 0.880882
Si Si7 0.173439 0.462074 0.344753
Si Si8 0.640331 0.268247 0.273169
O O1 0.640080 0.602244 0.847288
O O2 0.451268 0.245756 0.840560
O O3 0.516194 0.394182 0.036461
O O4 0.948321 0.641209 0.056680
O O5 0.574546 0.795093 0.775122
O O6 0.000000 0.000000 0.000000
O O7 0.468597 0.633600 0.466813
O O8 0.968403 0.972660 0.692091
O O9 0.771325 0.038886 0.562841
O O10 0.889383 0.023896 0.428929
O O11 0.589614 0.120018 0.382999
O O12 0.004260 0.346748 0.424471
O O13 0.049370 0.440711 0.637106
O O14 0.994325 0.754029 0.757308
O O15 0.305430 0.718879 0.849575
O O16 0.794908 0.384763 0.739976
O O17 0.000000 0.500000 0.000000
#
# Coordination Sequence:
#
# PCOD9095410 Si02
#       8
#     2   2   2   2   2   2   2   2
#     4  10  22  39  57  83 116 152 199 242 286 350
#     4  10  22  38  58  84 115 154 196 242 292 343
#     4  10  20  35  57  86 118 152 194 241 296 357
#     4   9  19  37  60  86 118 152 189 247 302 345
#     4  10  21  36  56  82 118 157 191 242 297 347
#     4  10  21  38  61  86 119 160 200 244 293 350
#     4  10  21  36  57  87 116 151 199 242 293 354
#     4   9  19  39  61  87 123 155 197 249 295 352
#
# _framework density 26.507269000000001
#
# number of rings (size 3 to 8) (size 9 to 14) (size 15 to 20)
#    0.000    2.250    0.000    1.875    0.000    4.500 
#    0.000    8.125    0.000    0.000    0.000    0.000 
#    0.000    0.000    0.000    0.000    0.000    0.000 
#
# Total GULP energy -89351.532839 kJ/mol
# GULP energy per Si atom -5584.470802 kJ/mol
# Density = 2.644694 g / cm^3
# Si number density = 26.507269 Si / 1000 Ang^3
#
#
#
# Elastic Constant Matrix: (Units=GPa)
#
#
# Indices 1 2 3 4 5 6 
#
# 1 172.7596 38.9358 42.5079 -8.8977 26.0655 -19.1311
# 2 38.9358 69.2980 26.2209 4.1315 5.2065 -35.4168
# 3 42.5079 26.2209 99.9382 -21.7502 18.2303 -11.1360
# 4 -8.8977 4.1315 -21.7502 40.9199 5.4027 -6.8678
# 5 26.0655 5.2065 18.2303 5.4027 52.5282 0.9292
# 6 -19.1311 -35.4168 -11.1360 -6.8678 0.9292 36.9472
#
#
#
# Elastic Compliance Matrix: (Units=1/GPa)
#
#
# Indices 1 2 3 4 5 6 
#
# 1 0.007480 -0.003121 -0.001287 0.001828 -0.003160 0.000913
# 2 -0.003121 0.031949 -0.004226 -0.001476 -0.000485 0.027473
# 3 -0.001287 -0.004226 0.014655 0.008838 -0.004964 0.001467
# 4 0.001828 -0.001476 0.008838 0.032041 -0.007271 0.008335
# 5 -0.003160 -0.000485 -0.004964 -0.007271 0.023222 -0.005533
# 6 0.000913 0.027473 0.001467 0.008335 -0.005533 0.056005
#
#
# Mechanical properties :
#
#
# Convention : Reuss Voigt Hill
#
# Bulk Modulus (GPa) = 27.16216 61.92502 44.54359
# Shear Modulus (GPa) = 25.65532 41.70114 33.67823
#
# Velocity S-wave (km/s) = 3.11442 3.97066 3.56831
# Velocity P-wave (km/s) = 4.81686 6.66586 5.81532
#
# Compressibility (1/GPa) = 0.03681592
#
# Stress axis : x y z
#
# Youngs Moduli (GPa) = 133.68113 31.30023 68.23743
#
# Poissons Ratio (x) = 0.09769 0.08781
# Poissons Ratio (y) = 0.41722 0.28838
# Poissons Ratio (z) = 0.17202 0.13228
#
# Static dielectric constant tensor:
#      x y z
#    x 2.131040 -0.044510 -0.013080 
#    y -0.044510 2.118220 -0.018250 
#    z -0.013080 -0.018250 2.145330 
# 
# From -- ./inp_files/428021.got.cif
#   From: 2010.05.17/outbox.cif.g08.bks.cpg/sg2_215_cif.got.tgz:428021.got - 2010.06.03 11:33:40.
