data_PCOD9095155
_publ_section_title
;
Structure prediction by ZEFSAII (Michael W. Deem and Ramdas Pophale) SiO2 
 PCOD9095155
Probable space group: P -1
;
_chemical_formula_sum "Si O2"
_cell_formula_units_Z 16
_cell_length_a 13.053501
_cell_length_b 11.915833
_cell_length_c 11.703267
_cell_angle_alpha 31.997967
_cell_angle_beta 80.348097
_cell_angle_gamma 83.604010
_cell_volume 949.284468
_symmetry_space_group_name_H-M "P -1"
_symmetry_group_IT_number 2
_symmetry_cell_setting 'triclinic'
loop_
_space_group_symop_operation_xyz
x,y,z
-x,-y,-z
loop_
_atom_site_type_symbol
_atom_site_label
_atom_site_fract_x
_atom_site_fract_y
_atom_site_fract_z
Si Si1 0.604119 0.623633 0.915868
Si Si2 0.393485 0.661768 0.481098
Si Si3 0.935282 0.703349 0.864634
Si Si4 0.761685 0.390943 0.236269
Si Si5 0.482898 0.923518 0.834180
Si Si6 0.869574 0.010816 0.415550
Si Si7 0.603684 0.442326 0.684103
Si Si8 0.321020 0.173363 0.509050
O O1 0.568658 0.788624 0.873769
O O2 0.652426 0.744228 0.693990
O O3 0.500000 0.500000 0.000000
O O4 0.679135 0.458796 0.098584
O O5 0.301504 0.657394 0.594271
O O6 0.484521 0.513585 0.634144
O O7 0.358545 0.591118 0.422604
O O8 0.454976 0.891403 0.267509
O O9 0.019728 0.882428 0.739354
O O10 0.890393 0.810904 0.666066
O O11 0.842328 0.598193 0.049526
O O12 0.000000 0.500000 0.000000
O O13 0.817837 0.187463 0.352877
O O14 0.410385 0.026195 0.664124
O O15 0.408028 0.772990 0.056147
O O16 0.791190 0.946594 0.383223
O O17 0.669889 0.624863 0.582297
#
# Coordination Sequence:
#
# PCOD9095155 Si02
#       8
#     2   2   2   2   2   2   2   2
#     4  12  19  31  48  78 115 140 168 212 264 318
#     4  10  21  35  52  73 105 147 192 217 243 311
#     4   9  20  36  55  80 108 135 169 221 277 319
#     4  11  20  34  54  79 108 144 173 219 266 306
#     4  11  20  34  49  76 107 149 180 216 256 304
#     4  10  20  35  55  83 107 133 177 217 272 332
#     4  10  21  36  49  73 109 148 185 218 253 296
#     4  11  21  32  52  78 108 141 176 215 269 323
#
# _framework density 16.854800000000001
#
# number of rings (size 3 to 8) (size 9 to 14) (size 15 to 20)
#    0.000    1.500    3.750    3.000    0.000    0.000 
#    0.000    0.000    0.000    0.750    0.000    8.750 
#    0.000    0.000    0.000    0.000    0.000    0.000 
#
# Total GULP energy -89236.394187 kJ/mol
# GULP energy per Si atom -5577.274637 kJ/mol
# Density = 1.681644 g / cm^3
# Si number density = 16.854800 Si / 1000 Ang^3
#
#
#
# Elastic Constant Matrix: (Units=GPa)
#
#
# Indices 1 2 3 4 5 6 
#
# 1 76.2073 24.7441 21.6359 0.2350 -12.1775 6.1574
# 2 24.7441 63.7187 33.7639 10.0450 -5.6739 7.0435
# 3 21.6359 33.7639 79.5254 -6.8694 3.8012 1.0047
# 4 0.2350 10.0450 -6.8694 17.4375 -1.2460 2.3591
# 5 -12.1775 -5.6739 3.8012 -1.2460 33.1774 -8.5241
# 6 6.1574 7.0435 1.0047 2.3591 -8.5241 16.8608
#
#
#
# Elastic Compliance Matrix: (Units=1/GPa)
#
#
# Indices 1 2 3 4 5 6 
#
# 1 0.016296 -0.004722 -0.002474 0.002099 0.005145 -0.001524
# 2 -0.004722 0.028073 -0.012420 -0.020121 0.002389 -0.005240
# 3 -0.002474 -0.012420 0.020004 0.014669 -0.004645 0.000499
# 4 0.002099 -0.020121 0.014669 0.075188 -0.002864 -0.005203
# 5 0.005145 0.002389 -0.004645 -0.002864 0.037119 0.016566
# 6 -0.001524 -0.005240 0.000499 -0.005203 0.016566 0.071128
#
#
# Mechanical properties :
#
#
# Convention : Reuss Voigt Hill
#
# Bulk Modulus (GPa) = 39.77624 42.19323 40.98473
# Shear Modulus (GPa) = 16.92495 22.78231 19.85363
#
# Velocity S-wave (km/s) = 3.17229 3.68051 3.43581
# Velocity P-wave (km/s) = 6.08839 6.56881 6.33316
#
# Compressibility (1/GPa) = 0.02514064
#
# Stress axis : x y z
#
# Youngs Moduli (GPa) = 61.36302 35.62138 49.99029
#
# Poissons Ratio (x) = 0.16819 0.12369
# Poissons Ratio (y) = 0.28974 0.62090
# Poissons Ratio (z) = 0.15183 0.44243
#
# Static dielectric constant tensor:
#      x y z
#    x 1.637910 -0.077420 0.011200 
#    y -0.077420 1.711190 -0.095630 
#    z 0.011200 -0.095630 1.648170 
# 
# From -- ./inp_files/69881.got.cif
#   From: 2010.05.17/outbox.cif.g08.bks.cpg/sg2_35_cif.got.tgz:69881.got - 2010.06.03 11:33:40.
