data_PCOD9095515
_publ_section_title
;
Structure prediction by ZEFSAII (Michael W. Deem and Ramdas Pophale) SiO2 
 PCOD9095515
Probable space group: P -1
;
_chemical_formula_sum "Si O2"
_cell_formula_units_Z 16
_cell_length_a 20.599085
_cell_length_b 8.668013
_cell_length_c 17.494171
_cell_angle_alpha 133.583626
_cell_angle_beta 20.306289
_cell_angle_gamma 134.676559
_cell_volume 765.115556
_symmetry_space_group_name_H-M "P -1"
_symmetry_group_IT_number 2
_symmetry_cell_setting 'triclinic'
loop_
_space_group_symop_operation_xyz
x,y,z
-x,-y,-z
loop_
_atom_site_type_symbol
_atom_site_label
_atom_site_fract_x
_atom_site_fract_y
_atom_site_fract_z
Si Si1 0.472184 0.937370 0.786536
Si Si2 0.185852 0.236230 0.838112
Si Si3 0.668318 0.979148 0.865859
Si Si4 0.714435 0.619981 0.384588
Si Si5 0.519906 0.254349 0.574193
Si Si6 0.246563 0.789244 0.556231
Si Si7 0.948679 0.681489 0.409521
Si Si8 0.940636 0.335729 0.887405
O O1 0.590153 0.755631 0.615851
O O2 0.610299 0.095084 0.628978
O O3 0.415841 0.039821 0.961675
O O4 0.276114 0.803849 0.918374
O O5 0.314917 0.338165 0.656878
O O6 0.308803 0.285381 0.796677
O O7 0.151228 0.977160 0.766397
O O8 0.046447 0.403569 0.047270
O O9 0.847253 0.192207 0.738093
O O10 0.773937 0.781890 0.666138
O O11 0.500000 0.000000 0.000000
O O12 0.652919 0.379109 0.402823
O O13 0.936953 0.704285 0.188965
O O14 0.622371 0.305147 0.559248
O O15 0.500000 0.000000 0.500000
O O16 0.096343 0.579221 0.619211
O O17 0.969842 0.729813 0.311853
#
# Coordination Sequence:
#
# PCOD9095515 Si02
#       8
#     2   2   2   2   2   2   2   2
#     4  10  23  40  65  90 122 160 208 246 312 364
#     4  10  22  36  56  90 128 169 207 242 296 357
#     4  10  22  42  69  91 112 157 201 251 314 378
#     4  11  20  38  59  85 126 166 209 252 289 356
#     4  10  20  35  58  84 125 170 201 247 299 340
#     4  10  22  40  61  91 130 162 196 262 300 350
#     4  10  22  41  62  90 123 150 203 254 305 361
#     4  11  21  37  63  89 121 171 209 242 292 368
#
# _framework density 20.911874000000001
#
# number of rings (size 3 to 8) (size 9 to 14) (size 15 to 20)
#    0.000    1.750    2.500    1.500    3.500    1.000 
#    0.000    4.375    0.000    0.000    0.000    0.000 
#    0.000    0.000    0.000    0.000    0.000    0.000 
#
# Total GULP energy -89236.379440 kJ/mol
# GULP energy per Si atom -5577.273715 kJ/mol
# Density = 2.086428 g / cm^3
# Si number density = 20.911874 Si / 1000 Ang^3
#
#
#
# Elastic Constant Matrix: (Units=GPa)
#
#
# Indices 1 2 3 4 5 6 
#
# 1 86.3553 25.2240 39.8717 2.7430 -13.6819 7.2591
# 2 25.2240 102.1221 16.1243 -10.4789 -0.4068 10.9253
# 3 39.8717 16.1243 104.4104 15.3008 -1.1393 18.1487
# 4 2.7430 -10.4789 15.3008 28.6275 8.1040 2.2293
# 5 -13.6819 -0.4068 -1.1393 8.1040 43.3288 -0.7742
# 6 7.2591 10.9253 18.1487 2.2293 -0.7742 24.8458
#
#
#
# Elastic Compliance Matrix: (Units=1/GPa)
#
#
# Indices 1 2 3 4 5 6 
#
# 1 0.015822 -0.003274 -0.005479 -0.001311 0.005086 0.001096
# 2 -0.003274 0.011775 -0.000715 0.005944 -0.002131 -0.004298
# 3 -0.005479 -0.000715 0.014099 -0.006587 -0.000273 -0.007801
# 4 -0.001311 0.005944 -0.006587 0.043329 -0.008664 -0.001577
# 5 0.005086 -0.002131 -0.000273 -0.008664 0.026301 0.001248
# 6 0.001096 -0.004298 -0.007801 -0.001577 0.001248 0.047697
#
#
# Mechanical properties :
#
#
# Convention : Reuss Voigt Hill
#
# Bulk Modulus (GPa) = 43.94012 50.59199 47.26605
# Shear Modulus (GPa) = 26.94763 33.47159 30.20961
#
# Velocity S-wave (km/s) = 3.59364 4.00509 3.80493
# Velocity P-wave (km/s) = 6.18681 6.75523 6.47726
#
# Compressibility (1/GPa) = 0.02275825
#
# Stress axis : x y z
#
# Youngs Moduli (GPa) = 63.20482 84.92427 70.92907
#
# Poissons Ratio (x) = 0.27807 0.38862
# Poissons Ratio (y) = 0.20695 0.05073
# Poissons Ratio (z) = 0.34630 0.06074
#
# Static dielectric constant tensor:
#      x y z
#    x 1.769310 0.027590 -0.013810 
#    y 0.027590 1.792020 -0.016560 
#    z -0.013810 -0.016560 1.811800 
# 
# From -- ./inp_files/577592.got.cif
#   From: 2010.05.17/outbox.cif.g08.bks.cpg/sg2_289_cif.got.tgz:577592.got - 2010.06.03 11:33:40.
