data_PCOD9095715
_publ_section_title
;
Structure prediction by ZEFSAII (Michael W. Deem and Ramdas Pophale) SiO2 
 PCOD9095715
Probable space group: P -1
;
_chemical_formula_sum "Si O2"
_cell_formula_units_Z 14
_cell_length_a 11.733916
_cell_length_b 12.095445
_cell_length_c 9.466713
_cell_angle_alpha 34.018543
_cell_angle_beta 114.272077
_cell_angle_gamma 95.502886
_cell_volume 601.121874
_symmetry_space_group_name_H-M "P -1"
_symmetry_group_IT_number 2
_symmetry_cell_setting 'triclinic'
loop_
_space_group_symop_operation_xyz
x,y,z
-x,-y,-z
loop_
_atom_site_type_symbol
_atom_site_label
_atom_site_fract_x
_atom_site_fract_y
_atom_site_fract_z
Si Si1 0.016976 0.290007 0.314324
Si Si2 0.958356 0.715281 0.347957
Si Si3 0.525730 0.273795 0.830355
Si Si4 0.746969 0.020779 0.432116
Si Si5 0.420753 0.217042 0.330127
Si Si6 0.642651 0.980314 0.928454
Si Si7 0.216808 0.701677 0.633740
O O1 0.070019 0.314134 0.471001
O O2 0.868274 0.302293 0.263646
O O3 0.119291 0.074212 0.504035
O O4 0.000000 0.500000 0.000000
O O5 0.000000 0.500000 0.500000
O O6 0.099166 0.748653 0.401881
O O7 0.799598 0.905164 0.028428
O O8 0.500000 0.500000 0.500000
O O9 0.617748 0.082415 0.964525
O O10 0.618423 0.227041 0.067871
O O11 0.396005 0.225070 0.860272
O O12 0.756076 0.097771 0.513522
O O13 0.707810 0.819098 0.636964
O O14 0.500000 0.000000 0.500000
O O15 0.526698 0.170962 0.564159
O O16 0.354149 0.455084 0.962479
#
# Coordination Sequence:
#
# PCOD9095715 Si02
#       7
#     2   2   2   2   2   2   2
#     4  10  20  36  64  90 117 157 204 255 304 357
#     4  10  21  39  60  87 121 161 198 247 309 362
#     4  10  20  35  59  89 119 153 196 254 303 353
#     4  11  20  39  61  95 119 155 210 259 301 359
#     4  11  23  39  61  89 124 166 204 247 303 374
#     4  10  21  37  60  85 122 155 199 246 306 357
#     4  10  22  37  64  89 121 160 205 256 304 362
#
# _framework density 23.289784999999998
#
# number of rings (size 3 to 8) (size 9 to 14) (size 15 to 20)
#    0.857    0.857    2.857    2.143    0.000    1.714 
#    0.000    2.857    0.000    5.143    0.000    0.000 
#    0.000    0.000    0.000    0.000    0.000    0.000 
#
# Total GULP energy -78043.605728 kJ/mol
# GULP energy per Si atom -5574.543266 kJ/mol
# Density = 2.323678 g / cm^3
# Si number density = 23.289785 Si / 1000 Ang^3
#
#
#
# Elastic Constant Matrix: (Units=GPa)
#
#
# Indices 1 2 3 4 5 6 
#
# 1 66.9898 25.2885 37.8984 5.1225 9.0794 -0.1536
# 2 25.2885 143.2387 45.5519 10.8125 20.1931 0.1048
# 3 37.8984 45.5519 90.0349 5.1470 8.9775 13.6376
# 4 5.1225 10.8125 5.1470 30.2009 -6.4682 8.1462
# 5 9.0794 20.1931 8.9775 -6.4682 39.5556 0.6717
# 6 -0.1536 0.1048 13.6376 8.1462 0.6717 37.5088
#
#
#
# Elastic Compliance Matrix: (Units=1/GPa)
#
#
# Indices 1 2 3 4 5 6 
#
# 1 0.020661 -0.000112 -0.008709 -0.003827 -0.003405 0.004144
# 2 -0.000112 0.009344 -0.004380 -0.004233 -0.004486 0.002565
# 3 -0.008709 -0.004380 0.017866 0.002014 0.000628 -0.006968
# 4 -0.003827 -0.004233 0.002014 0.039456 0.009195 -0.009470
# 5 -0.003405 -0.004486 0.000628 0.009195 0.029760 -0.002759
# 6 0.004144 0.002565 -0.006968 -0.009470 -0.002759 0.031310
#
#
# Mechanical properties :
#
#
# Convention : Reuss Voigt Hill
#
# Bulk Modulus (GPa) = 46.57896 57.52679 52.05287
# Shear Modulus (GPa) = 27.47917 34.22136 30.85026
#
# Velocity S-wave (km/s) = 3.43867 3.83740 3.64349
# Velocity P-wave (km/s) = 5.98407 6.66245 6.33235
#
# Compressibility (1/GPa) = 0.02146892
#
# Stress axis : x y z
#
# Youngs Moduli (GPa) = 48.40109 107.02107 55.97119
#
# Poissons Ratio (x) = 0.01200 0.48747
# Poissons Ratio (y) = 0.00543 0.24513
# Poissons Ratio (z) = 0.42154 0.46870
#
# Static dielectric constant tensor:
#      x y z
#    x 1.963470 0.073620 0.030990 
#    y 0.073620 1.879100 0.067410 
#    z 0.030990 0.067410 1.909140 
# 
# From -- ./inp_files/97520.got.cif
#   From: 2010.05.17/outbox.cif.g08.bks.cpg/sg2_49_cif.got.tgz:97520.got - 2010.06.03 11:33:40.
