data_PCOD9095184
_publ_section_title
;
Structure prediction by ZEFSAII (Michael W. Deem and Ramdas Pophale) SiO2 
 PCOD9095184
Probable space group: P -1
;
_chemical_formula_sum "Si O2"
_cell_formula_units_Z 16
_cell_length_a 12.374945
_cell_length_b 5.566401
_cell_length_c 20.789579
_cell_angle_alpha 86.598706
_cell_angle_beta 46.848559
_cell_angle_gamma 108.775133
_cell_volume 904.598523
_symmetry_space_group_name_H-M "P -1"
_symmetry_group_IT_number 2
_symmetry_cell_setting 'triclinic'
loop_
_space_group_symop_operation_xyz
x,y,z
-x,-y,-z
loop_
_atom_site_type_symbol
_atom_site_label
_atom_site_fract_x
_atom_site_fract_y
_atom_site_fract_z
Si Si1 0.003788 0.326922 0.440465
Si Si2 0.848967 0.186449 0.055678
Si Si3 0.836981 0.358161 0.383005
Si Si4 0.381477 0.751455 0.762283
Si Si5 0.067049 0.154365 0.869091
Si Si6 0.821460 0.862398 0.313597
Si Si7 0.526546 0.241730 0.592849
Si Si8 0.285881 0.276938 0.389652
O O1 0.969417 0.434262 0.386570
O O2 0.846904 0.016761 0.520136
O O3 0.000000 0.500000 0.500000
O O4 0.180957 0.328321 0.376186
O O5 0.674865 0.170467 0.149170
O O6 0.877663 0.001514 0.099384
O O7 0.000000 0.500000 0.000000
O O8 0.889028 0.114805 0.969937
O O9 0.855585 0.635607 0.338443
O O10 0.646222 0.205378 0.493589
O O11 0.855379 0.136302 0.334573
O O12 0.217289 0.474129 0.807479
O O13 0.651960 0.497075 0.582789
O O14 0.544849 0.715115 0.704607
O O15 0.071772 0.055303 0.797408
O O16 0.620066 0.714230 0.379703
O O17 0.431878 0.982753 0.683455
#
# Coordination Sequence:
#
# PCOD9095184 Si02
#       8
#     2   2   2   2   2   2   2   2
#     4  11  23  40  57  77 113 161 217 260 285 330
#     4   9  19  33  57  81 117 152 197 238 305 359
#     4  12  26  39  57  86 120 175 202 240 295 359
#     4  11  18  34  58  86 120 152 197 246 302 356
#     4  10  20  35  55  85 120 156 191 247 294 370
#     4  12  25  38  59  86 131 159 201 236 303 376
#     4  12  22  37  55  89 123 161 200 238 300 359
#     4  11  21  35  62  80 115 157 205 260 295 335
#
# _framework density 17.687405999999999
#
# number of rings (size 3 to 8) (size 9 to 14) (size 15 to 20)
#    0.000    1.000    5.000    2.250    3.500    0.000 
#    0.000    0.000    0.000    0.000    0.000    1.750 
#    0.000    0.000    0.000    0.000    0.000    0.000 
#
# Total GULP energy -89313.405330 kJ/mol
# GULP energy per Si atom -5582.087833 kJ/mol
# Density = 1.764715 g / cm^3
# Si number density = 17.687406 Si / 1000 Ang^3
#
#
#
# Elastic Constant Matrix: (Units=GPa)
#
#
# Indices 1 2 3 4 5 6 
#
# 1 101.5979 26.5620 44.9864 16.1074 7.6806 -16.1893
# 2 26.5620 110.9651 41.3589 7.7287 17.3165 -9.3846
# 3 44.9864 41.3589 141.4596 39.7726 -1.0421 -11.3272
# 4 16.1074 7.7287 39.7726 30.7109 -6.8118 0.8176
# 5 7.6806 17.3165 -1.0421 -6.8118 24.2734 4.4524
# 6 -16.1893 -9.3846 -11.3272 0.8176 4.4524 21.0218
#
#
#
# Elastic Compliance Matrix: (Units=1/GPa)
#
#
# Indices 1 2 3 4 5 6 
#
# 1 0.014473 0.000181 -0.001363 -0.008308 -0.009449 0.012817
# 2 0.000181 0.012350 -0.002479 -0.002597 -0.010938 0.006734
# 3 -0.001363 -0.002479 0.013512 -0.017039 -0.003187 0.006462
# 4 -0.008308 -0.002597 -0.017039 0.066282 0.026941 -0.025023
# 5 -0.009449 -0.010938 -0.003187 0.026941 0.064664 -0.028621
# 6 0.012817 0.006734 0.006462 -0.025023 -0.028621 0.070964
#
#
# Mechanical properties :
#
#
# Convention : Reuss Voigt Hill
#
# Bulk Modulus (GPa) = 30.29175 64.42636 47.35905
# Shear Modulus (GPa) = 19.18863 31.27558 25.23210
#
# Velocity S-wave (km/s) = 3.29732 4.20961 3.78108
# Velocity P-wave (km/s) = 5.62670 7.75447 6.77464
#
# Compressibility (1/GPa) = 0.03301229
#
# Stress axis : x y z
#
# Youngs Moduli (GPa) = 69.09537 80.97112 74.00729
#
# Poissons Ratio (x) = -0.01464 0.10085
# Poissons Ratio (y) = -0.01249 0.18349
# Poissons Ratio (z) = 0.09416 0.20076
#
# Static dielectric constant tensor:
#      x y z
#    x 1.609010 -0.039770 0.003530 
#    y -0.039770 1.642190 0.048890 
#    z 0.003530 0.048890 1.629840 
# 
# From -- ./inp_files/563885.got.cif
#   From: 2010.05.17/outbox.cif.g08.bks.cpg/sg2_282_cif.got.tgz:563885.got - 2010.06.03 11:33:40.
