data_PCOD9095276
_publ_section_title
;
Structure prediction by ZEFSAII (Michael W. Deem and Ramdas Pophale) SiO2 
 PCOD9095276
Probable space group: P -1
;
_chemical_formula_sum "Si O2"
_cell_formula_units_Z 12
_cell_length_a 8.472097
_cell_length_b 5.273780
_cell_length_c 12.823850
_cell_angle_alpha 121.410202
_cell_angle_beta 97.485657
_cell_angle_gamma 104.598292
_cell_volume 448.847046
_symmetry_space_group_name_H-M "P -1"
_symmetry_group_IT_number 2
_symmetry_cell_setting 'triclinic'
loop_
_space_group_symop_operation_xyz
x,y,z
-x,-y,-z
loop_
_atom_site_type_symbol
_atom_site_label
_atom_site_fract_x
_atom_site_fract_y
_atom_site_fract_z
Si Si1 0.734617 0.636005 0.334474
Si Si2 0.056146 0.883361 0.086348
Si Si3 0.407198 0.668296 0.360150
Si Si4 0.398451 0.840241 0.153055
Si Si5 0.925059 0.371235 0.578622
Si Si6 0.724597 0.800992 0.133334
O O1 0.547626 0.500124 0.346045
O O2 0.689662 0.673899 0.220068
O O3 0.899586 0.539202 0.322834
O O4 0.825486 0.987944 0.472744
O O5 0.261414 0.996200 0.141028
O O6 0.930222 0.948895 0.172592
O O7 0.000000 0.500000 0.000000
O O8 0.000000 0.000000 0.000000
O O9 0.384329 0.767336 0.260020
O O10 0.220783 0.514966 0.364427
O O11 0.500000 0.000000 0.500000
O O12 0.594744 0.990743 0.156576
O O13 0.334582 0.488114 0.016547
O O14 0.000000 0.500000 0.500000
#
# Coordination Sequence:
#
# PCOD9095276 Si02
#       6
#     2   2   2   2   2   2
#     4   9  19  37  57  81 114 154 194 245 296 359
#     4  10  21  38  60  89 124 164 204 250 307 369
#     4   9  18  35  62  81 115 154 197 250 298 362
#     4   9  18  35  62  86 117 158 200 249 308 366
#     4  10  20  35  56  84 113 151 198 245 299 354
#     4   9  18  36  59  85 118 155 200 247 306 367
#
# _framework density 26.735166
#
# number of rings (size 3 to 8) (size 9 to 14) (size 15 to 20)
#    0.000    2.667    0.000    1.000    0.000    1.333 
#   12.000    0.000   40.333    0.000    0.000    0.000 
#    0.000    0.000    0.000    0.000    0.000    0.000 
#
# Total GULP energy -67045.407025 kJ/mol
# GULP energy per Si atom -5587.117252 kJ/mol
# Density = 2.667432 g / cm^3
# Si number density = 26.735166 Si / 1000 Ang^3
#
#
#
# Elastic Constant Matrix: (Units=GPa)
#
#
# Indices 1 2 3 4 5 6 
#
# 1 343.4703 66.3431 70.0985 -3.0584 -20.9164 6.7192
# 2 66.3431 54.9874 0.8385 -1.8480 1.9550 -8.3861
# 3 70.0985 0.8385 108.0547 3.5040 11.2765 -8.9970
# 4 -3.0584 -1.8480 3.5040 44.1168 -3.5637 -1.3051
# 5 -20.9164 1.9550 11.2765 -3.5637 58.3372 16.8751
# 6 6.7192 -8.3861 -8.9970 -1.3051 16.8751 67.6602
#
#
#
# Elastic Compliance Matrix: (Units=1/GPa)
#
#
# Indices 1 2 3 4 5 6 
#
# 1 0.005402 -0.007012 -0.004113 0.000632 0.003844 -0.002899
# 2 -0.007012 0.027772 0.005542 -0.000088 -0.006392 0.006468
# 3 -0.004113 0.005542 0.012834 -0.001388 -0.005420 0.004127
# 4 0.000632 -0.000088 -0.001388 0.022969 0.001991 -0.000312
# 5 0.003844 -0.006392 -0.005420 0.001991 0.022030 -0.007351
# 6 -0.002899 0.006468 0.004127 -0.000312 -0.007351 0.018245
#
#
# Mechanical properties :
#
#
# Convention : Reuss Voigt Hill
#
# Bulk Modulus (GPa) = 28.70095 86.78585 57.74340
# Shear Modulus (GPa) = 37.86957 58.63832 48.25394
#
# Velocity S-wave (km/s) = 3.76769 4.68835 4.25300
# Velocity P-wave (km/s) = 5.44847 7.86380 6.76480
#
# Compressibility (1/GPa) = 0.03484206
#
# Stress axis : x y z
#
# Youngs Moduli (GPa) = 185.12761 36.00704 77.91853
#
# Poissons Ratio (x) = 0.25248 0.32047
# Poissons Ratio (y) = 1.29812 -0.43182
# Poissons Ratio (z) = 0.76140 -0.19955
#
# Static dielectric constant tensor:
#      x y z
#    x 1.749040 0.664820 -0.000280 
#    y 0.664820 1.377480 0.261930 
#    z -0.000280 0.261930 2.072070 
# 
# From -- ./inp_files/25706.got.cif
#   From: 2010.05.17/outbox.cif.g08.bks.cpg/sg2_13_cif.got.tgz:25706.got - 2010.06.03 11:33:40.
