data_PCOD9095621
_publ_section_title
;
Structure prediction by ZEFSAII (Michael W. Deem and Ramdas Pophale) SiO2 
 PCOD9095621
Probable space group: P -1
;
_chemical_formula_sum "Si O2"
_cell_formula_units_Z 16
_cell_length_a 15.280527
_cell_length_b 10.191739
_cell_length_c 10.097637
_cell_angle_alpha 89.450410
_cell_angle_beta 80.653520
_cell_angle_gamma 26.977945
_cell_volume 671.069960
_symmetry_space_group_name_H-M "P -1"
_symmetry_group_IT_number 2
_symmetry_cell_setting 'triclinic'
loop_
_space_group_symop_operation_xyz
x,y,z
-x,-y,-z
loop_
_atom_site_type_symbol
_atom_site_label
_atom_site_fract_x
_atom_site_fract_y
_atom_site_fract_z
Si Si1 0.831198 0.627543 0.414104
Si Si2 0.934913 0.915576 0.739112
Si Si3 0.055142 0.592192 0.333994
Si Si4 0.892707 0.510665 0.970592
Si Si5 0.464566 0.398007 0.668301
Si Si6 0.191925 0.853455 0.503792
Si Si7 0.362924 0.266812 0.749413
Si Si8 0.168185 0.891944 0.965420
O O1 0.880878 0.713403 0.394795
O O2 0.651324 0.824675 0.358838
O O3 0.033830 0.277730 0.312918
O O4 0.808865 0.600855 0.566440
O O5 0.154560 0.629407 0.762287
O O6 0.919536 0.026882 0.611441
O O7 0.776621 0.162188 0.891361
O O8 0.954849 0.869049 0.364136
O O9 0.158438 0.420324 0.172218
O O10 0.695543 0.728388 0.101572
O O11 0.000000 0.500000 0.000000
O O12 0.334693 0.571106 0.560456
O O13 0.649575 0.248408 0.592318
O O14 0.520690 0.174714 0.698347
O O15 0.343636 0.621771 0.820665
O O16 0.937474 0.830325 0.052497
O O17 0.000000 0.000000 0.000000
#
# Coordination Sequence:
#
# PCOD9095621 Si02
#       8
#     2   2   2   2   2   2   2   2
#     4   8  16  30  49  75 101 120 166 216 245 291
#     4   8  17  33  50  77  97 129 170 209 260 288
#     4  10  16  30  52  75  98 132 166 203 257 302
#     4  11  18  29  53  81 100 125 172 216 251 300
#     4  11  21  35  48  73 110 132 170 210 253 304
#     4  10  22  33  49  74 103 142 166 202 253 316
#     4   9  18  33  50  74 104 125 165 225 247 282
#     4  11  18  33  54  76 103 133 169 217 257 289
#
# _framework density 23.842521999999999
#
# number of rings (size 3 to 8) (size 9 to 14) (size 15 to 20)
#    0.750    1.500    5.000    0.000    0.000    1.000 
#    2.250    0.625    0.000    0.000    0.000   11.375 
#    0.000    0.000    0.000    0.000    0.000    0.000 
#
# Total GULP energy -89180.215254 kJ/mol
# GULP energy per Si atom -5573.763453 kJ/mol
# Density = 2.378825 g / cm^3
# Si number density = 23.842522 Si / 1000 Ang^3
#
#
#
# Elastic Constant Matrix: (Units=GPa)
#
#
# Indices 1 2 3 4 5 6 
#
# 1 87.6780 5.6182 14.8006 7.2637 4.2924 28.7412
# 2 5.6182 32.3574 6.6074 7.2950 9.4210 7.6875
# 3 14.8006 6.6074 170.2017 -13.6376 10.6266 -0.7079
# 4 7.2637 7.2950 -13.6376 21.8532 3.0868 -2.4044
# 5 4.2924 9.4210 10.6266 3.0868 41.7941 0.7757
# 6 28.7412 7.6875 -0.7079 -2.4044 0.7757 26.8673
#
#
#
# Elastic Compliance Matrix: (Units=1/GPa)
#
#
# Indices 1 2 3 4 5 6 
#
# 1 0.021260 0.006687 -0.003253 -0.013994 -0.001348 -0.025955
# 2 0.006687 0.041962 -0.003401 -0.019588 -0.007448 -0.020788
# 3 -0.003253 -0.003401 0.006983 0.007348 -0.001316 0.005333
# 4 -0.013994 -0.019588 0.007348 0.064643 -0.001283 0.026591
# 5 -0.001348 -0.007448 -0.001316 -0.001283 0.026124 0.002670
# 6 -0.025955 -0.020788 0.005333 0.026591 0.002670 0.073376
#
#
# Mechanical properties :
#
#
# Convention : Reuss Voigt Hill
#
# Bulk Modulus (GPa) = 14.23098 38.25438 26.24268
# Shear Modulus (GPa) = 19.40193 35.65030 27.52611
#
# Velocity S-wave (km/s) = 2.85573 3.87103 3.40147
# Velocity P-wave (km/s) = 4.10552 6.00494 5.14366
#
# Compressibility (1/GPa) = 0.07026923
#
# Stress axis : x y z
#
# Youngs Moduli (GPa) = 47.03777 23.83116 143.19570
#
# Poissons Ratio (x) = -0.15936 0.46587
# Poissons Ratio (y) = -0.31454 0.48707
# Poissons Ratio (z) = 0.15303 0.08106
#
# Static dielectric constant tensor:
#      x y z
#    x 2.030400 -0.081490 0.006220 
#    y -0.081490 2.000850 0.008720 
#    z 0.006220 0.008720 1.986360 
# 
# From -- ./inp_files/346681.got.cif
#   From: 2010.05.17/outbox.cif.g08.bks.cpg/sg2_174_cif.got.tgz:346681.got - 2010.06.03 11:33:40.
