data_PCOD9095232
_publ_section_title
;
Structure prediction by ZEFSAII (Michael W. Deem and Ramdas Pophale) SiO2 
 PCOD9095232
Probable space group: P -1
;
_chemical_formula_sum "Si O2"
_cell_formula_units_Z 16
_cell_length_a 16.569931
_cell_length_b 6.556545
_cell_length_c 10.235340
_cell_angle_alpha 130.346543
_cell_angle_beta 124.087546
_cell_angle_gamma 81.598503
_cell_volume 659.199877
_symmetry_space_group_name_H-M "P -1"
_symmetry_group_IT_number 2
_symmetry_cell_setting 'triclinic'
loop_
_space_group_symop_operation_xyz
x,y,z
-x,-y,-z
loop_
_atom_site_type_symbol
_atom_site_label
_atom_site_fract_x
_atom_site_fract_y
_atom_site_fract_z
Si Si1 0.379360 0.982988 0.109400
Si Si2 0.236721 0.706565 0.111779
Si Si3 0.324156 0.407942 0.659380
Si Si4 0.788566 0.904626 0.133120
Si Si5 0.015912 0.801676 0.711863
Si Si6 0.568600 0.029257 0.447150
Si Si7 0.838539 0.460613 0.592609
Si Si8 0.869229 0.118287 0.700365
O O1 0.307710 0.886185 0.134040
O O2 0.500659 0.105160 0.305267
O O3 0.360880 0.692954 0.892863
O O4 0.329581 0.164487 0.050041
O O5 0.317929 0.756157 0.327250
O O6 0.148176 0.814098 0.135655
O O7 0.195987 0.372728 0.907609
O O8 0.264592 0.460385 0.496970
O O9 0.413564 0.272393 0.675847
O O10 0.229695 0.161046 0.540008
O O11 0.817278 0.168771 0.368761
O O12 0.862974 0.026575 0.125830
O O13 0.941465 0.695228 0.725230
O O14 0.000000 0.500000 0.500000
O O15 0.965006 0.027866 0.705408
O O16 0.500000 0.000000 0.500000
O O17 0.864255 0.388224 0.729247
#
# Coordination Sequence:
#
# PCOD9095232 Si02
#       8
#     2   2   2   2   2   2   2   2
#     4  10  20  37  57  77 108 145 182 224 264 314
#     4  10  22  36  53  80 110 142 178 221 272 323
#     4   9  18  35  58  83 107 139 184 222 262 317
#     4  10  21  35  55  81 107 141 182 222 266 317
#     4   9  20  36  55  82 108 140 183 221 264 317
#     4   9  19  35  56  80 110 144 175 220 275 319
#     4   9  19  36  58  81 106 140 181 223 264 315
#     4  10  20  35  56  81 111 143 175 219 272 319
#
# _framework density 24.271847999999999
#
# number of rings (size 3 to 8) (size 9 to 14) (size 15 to 20)
#    0.000    2.500    0.000    1.875    0.000    8.000 
#    0.000    5.000    0.000   13.500    0.000    0.000 
#    0.000    0.000    0.000    0.000    0.000    0.000 
#
# Total GULP energy -89254.334171 kJ/mol
# GULP energy per Si atom -5578.395886 kJ/mol
# Density = 2.421660 g / cm^3
# Si number density = 24.271848 Si / 1000 Ang^3
#
#
#
# Elastic Constant Matrix: (Units=GPa)
#
#
# Indices 1 2 3 4 5 6 
#
# 1 82.2762 24.2222 3.3717 -12.7185 -3.6458 -34.9188
# 2 24.2222 50.7470 2.6826 -1.2255 -9.0118 -16.7885
# 3 3.3717 2.6826 47.5591 -3.0592 0.4628 -19.9719
# 4 -12.7185 -1.2255 -3.0592 28.4784 -10.3144 4.6843
# 5 -3.6458 -9.0118 0.4628 -10.3144 29.7612 2.0796
# 6 -34.9188 -16.7885 -19.9719 4.6843 2.0796 40.5777
#
#
#
# Elastic Compliance Matrix: (Units=1/GPa)
#
#
# Indices 1 2 3 4 5 6 
#
# 1 0.023591 -0.003781 0.008130 0.008853 0.003181 0.021553
# 2 -0.003781 0.025209 0.002090 0.000839 0.006887 0.007755
# 3 0.008130 0.002090 0.029828 0.003609 0.000873 0.022081
# 4 0.008853 0.000839 0.003609 0.044887 0.016580 0.003711
# 5 0.003181 0.006887 0.000873 0.016580 0.041671 0.001967
# 6 0.021553 0.007755 0.022081 0.003711 0.001967 0.056739
#
#
# Mechanical properties :
#
#
# Convention : Reuss Voigt Hill
#
# Bulk Modulus (GPa) = 10.92823 26.79282 18.86053
# Shear Modulus (GPa) = 20.87260 29.78385 25.32822
#
# Velocity S-wave (km/s) = 2.93567 3.50679 3.23386
# Velocity P-wave (km/s) = 4.00039 5.24017 4.66168
#
# Compressibility (1/GPa) = 0.09150609
#
# Stress axis : x y z
#
# Youngs Moduli (GPa) = 42.38882 39.66912 33.52501
#
# Poissons Ratio (x) = 0.14999 -0.27257
# Poissons Ratio (y) = 0.16027 -0.07005
# Poissons Ratio (z) = -0.34464 -0.08289
#
# Static dielectric constant tensor:
#      x y z
#    x 1.912750 -0.036320 -0.021100 
#    y -0.036320 1.997810 -0.072860 
#    z -0.021100 -0.072860 1.969470 
# 
# From -- ./inp_files/45026.got.cif
#   From: 2010.05.17/outbox.cif.g08.bks.cpg/sg2_23_cif.got.tgz:45026.got - 2010.06.03 11:33:40.
