data_PCOD9095627
_publ_section_title
;
Structure prediction by ZEFSAII (Michael W. Deem and Ramdas Pophale) SiO2 
 PCOD9095627
Probable space group: P -1
;
_chemical_formula_sum "Si O2"
_cell_formula_units_Z 16
_cell_length_a 16.287222
_cell_length_b 14.141100
_cell_length_c 7.924388
_cell_angle_alpha 89.130039
_cell_angle_beta 89.785804
_cell_angle_gamma 24.353282
_cell_volume 752.305197
_symmetry_space_group_name_H-M "P -1"
_symmetry_group_IT_number 2
_symmetry_cell_setting 'triclinic'
loop_
_space_group_symop_operation_xyz
x,y,z
-x,-y,-z
loop_
_atom_site_type_symbol
_atom_site_label
_atom_site_fract_x
_atom_site_fract_y
_atom_site_fract_z
Si Si1 0.565042 0.310745 0.950526
Si Si2 0.718596 0.722003 0.501520
Si Si3 0.610309 0.619632 0.559666
Si Si4 0.186543 0.797690 0.882462
Si Si5 0.370997 0.717952 0.403881
Si Si6 0.743401 0.990194 0.177232
Si Si7 0.981087 0.898927 0.365159
Si Si8 0.963678 0.560341 0.202543
O O1 0.327055 0.561790 0.926472
O O2 0.654693 0.270924 0.791735
O O3 0.650067 0.288796 0.098909
O O4 0.662125 0.108498 0.993174
O O5 0.692336 0.636309 0.513583
O O6 0.834053 0.627709 0.327799
O O7 0.842140 0.624781 0.672356
O O8 0.500000 0.000000 0.500000
O O9 0.497159 0.682651 0.412114
O O10 0.448110 0.800083 0.704581
O O11 0.788401 0.361617 0.611318
O O12 0.085683 0.927467 0.702691
O O13 0.000000 0.000000 0.000000
O O14 0.500000 0.500000 0.500000
O O15 0.160888 0.963692 0.478765
O O16 0.909383 0.891096 0.238980
O O17 0.837585 0.789228 0.191522
O O18 0.000000 0.500000 0.000000
#
# Coordination Sequence:
#
# PCOD9095627 Si02
#       8
#     2   2   2   2   2   2   2   2
#     4  10  22  38  55  88 126 162 215 273 326 385
#     4  11  24  47  73 103 143 185 228 286 359 422
#     4  11  23  41  67  93 128 180 219 267 339 408
#     4  10  20  35  59  82 115 166 212 262 323 383
#     4  11  24  40  60  93 134 173 218 278 329 389
#     4  10  21  42  63  92 131 168 215 276 330 403
#     4  10  21  38  63  85 123 172 213 258 330 389
#     4  11  25  45  75 106 141 177 228 293 356 420
#
# _framework density 21.267965
#
# number of rings (size 3 to 8) (size 9 to 14) (size 15 to 20)
#    0.000    1.500    3.750    0.750    3.500    4.000 
#    2.250    0.000    0.000    0.000    0.000    0.000 
#    0.000    0.000    0.000    0.000    0.000    0.000 
#
# Total GULP energy -89126.280939 kJ/mol
# GULP energy per Si atom -5570.392559 kJ/mol
# Density = 2.121956 g / cm^3
# Si number density = 21.267965 Si / 1000 Ang^3
#
#
#
# Elastic Constant Matrix: (Units=GPa)
#
#
# Indices 1 2 3 4 5 6 
#
# 1 90.4814 18.5351 24.7647 -14.4946 0.9589 -10.3529
# 2 18.5351 157.8136 43.3437 -13.7629 1.2101 -8.4566
# 3 24.7647 43.3437 95.0492 -5.6707 -6.9997 -3.8212
# 4 -14.4946 -13.7629 -5.6707 33.0783 4.8733 -7.3601
# 5 0.9589 1.2101 -6.9997 4.8733 23.6880 -1.2058
# 6 -10.3529 -8.4566 -3.8212 -7.3601 -1.2058 30.5008
#
#
#
# Elastic Compliance Matrix: (Units=1/GPa)
#
#
# Indices 1 2 3 4 5 6 
#
# 1 0.013772 0.000249 -0.003224 0.007321 -0.002724 0.005999
# 2 0.000249 0.007713 -0.003412 0.003607 -0.002023 0.002586
# 3 -0.003224 -0.003412 0.013141 -0.001355 0.004439 -0.000546
# 4 0.007321 0.003607 -0.001355 0.038658 -0.008207 0.012319
# 5 -0.002724 -0.002023 0.004439 -0.008207 0.045372 -0.001116
# 6 0.005999 0.002586 -0.000546 0.012319 -0.001116 0.038399
#
#
# Mechanical properties :
#
#
# Convention : Reuss Voigt Hill
#
# Bulk Modulus (GPa) = 45.76445 57.40345 51.58395
# Shear Modulus (GPa) = 28.23044 34.56679 31.39862
#
# Velocity S-wave (km/s) = 3.64726 4.03587 3.84648
# Velocity P-wave (km/s) = 6.26908 6.98333 6.63582
#
# Compressibility (1/GPa) = 0.02185102
#
# Stress axis : x y z
#
# Youngs Moduli (GPa) = 72.61332 129.65005 76.09796
#
# Poissons Ratio (x) = -0.03227 0.24536
# Poissons Ratio (y) = -0.01808 0.25964
# Poissons Ratio (z) = 0.23413 0.44236
#
# Static dielectric constant tensor:
#      x y z
#    x 1.797070 -0.013970 -0.044560 
#    y -0.013970 1.795940 -0.023600 
#    z -0.044560 -0.023600 1.926160 
# 
# From -- ./inp_files/335357.got.cif
#   From: 2010.05.17/outbox.cif.g08.bks.cpg/sg2_168_cif.got.tgz:335357.got - 2010.06.03 11:33:40.
