data_PCOD9095581
_publ_section_title
;
Structure prediction by ZEFSAII (Michael W. Deem and Ramdas Pophale) SiO2 
 PCOD9095581
Probable space group: P -1
;
_chemical_formula_sum "Si O2"
_cell_formula_units_Z 16
_cell_length_a 11.275244
_cell_length_b 11.876508
_cell_length_c 11.756377
_cell_angle_alpha 115.839992
_cell_angle_beta 38.247889
_cell_angle_gamma 133.139307
_cell_volume 693.103385
_symmetry_space_group_name_H-M "P -1"
_symmetry_group_IT_number 2
_symmetry_cell_setting 'triclinic'
loop_
_space_group_symop_operation_xyz
x,y,z
-x,-y,-z
loop_
_atom_site_type_symbol
_atom_site_label
_atom_site_fract_x
_atom_site_fract_y
_atom_site_fract_z
Si Si1 0.240517 0.014929 0.342901
Si Si2 0.523353 0.491024 0.614285
Si Si3 0.513779 0.718607 0.890288
Si Si4 0.377459 0.104204 0.702030
Si Si5 0.935757 0.321430 0.739552
Si Si6 0.153362 0.107856 0.086613
Si Si7 0.587152 0.152104 0.343580
Si Si8 0.985432 0.231314 0.916825
O O1 0.413068 0.122052 0.156038
O O2 0.379162 0.109869 0.394358
O O3 0.173848 0.843037 0.314937
O O4 0.000000 0.000000 0.500000
O O5 0.500000 0.500000 0.500000
O O6 0.516155 0.617812 0.745210
O O7 0.269709 0.326974 0.768897
O O8 0.793677 0.546542 0.450401
O O9 0.715010 0.769782 0.856303
O O10 0.252037 0.639868 0.106683
O O11 0.463807 0.012625 0.658375
O O12 0.117641 0.964972 0.778275
O O13 0.558306 0.208734 0.510154
O O14 0.315700 0.175230 0.880171
O O15 0.958950 0.286429 0.838936
O O16 0.130817 0.953075 0.073416
O O17 0.840313 0.253946 0.130118
#
# Coordination Sequence:
#
# PCOD9095581 Si02
#       8
#     2   2   2   2   2   2   2   2
#     4  12  21  34  62 100 127 156 200 260 315 366
#     4  10  25  40  55  89 136 172 199 240 314 390
#     4  12  22  39  64  93 128 163 203 256 316 375
#     4   9  20  36  57  92 116 154 210 267 300 349
#     4  11  21  37  57  92 131 164 200 248 309 381
#     4  10  20  38  64  89 118 156 209 263 307 355
#     4  10  20  35  58  89 120 161 202 253 312 362
#     4  10  20  38  56  84 127 160 200 249 303 376
#
# _framework density 23.084579000000002
#
# number of rings (size 3 to 8) (size 9 to 14) (size 15 to 20)
#    0.000    1.500    3.750    2.625    0.000    2.000 
#    2.250    0.000    0.000    7.500    0.000    0.000 
#    0.000    0.000    0.000    0.000    0.000    0.000 
#
# Total GULP energy -89451.904079 kJ/mol
# GULP energy per Si atom -5590.744005 kJ/mol
# Density = 2.303204 g / cm^3
# Si number density = 23.084579 Si / 1000 Ang^3
#
#
#
# Elastic Constant Matrix: (Units=GPa)
#
#
# Indices 1 2 3 4 5 6 
#
# 1 78.8742 14.8161 14.3951 6.8599 -0.4753 13.1611
# 2 14.8161 78.4140 45.0350 5.8690 10.3503 15.7995
# 3 14.3951 45.0350 148.2416 -2.9329 -2.6678 6.5424
# 4 6.8599 5.8690 -2.9329 29.2426 3.4905 1.8925
# 5 -0.4753 10.3503 -2.6678 3.4905 42.5840 1.4640
# 6 13.1611 15.7995 6.5424 1.8925 1.4640 19.5329
#
#
#
# Elastic Compliance Matrix: (Units=1/GPa)
#
#
# Indices 1 2 3 4 5 6 
#
# 1 0.014695 -0.000231 -0.001000 -0.002995 0.000717 -0.009143
# 2 -0.000231 0.019334 -0.005413 -0.003006 -0.004346 -0.013053
# 3 -0.001000 -0.005413 0.008468 0.001853 0.001617 0.001914
# 4 -0.002995 -0.003006 0.001853 0.035912 -0.002148 0.000510
# 5 0.000717 -0.004346 0.001617 -0.002148 0.024796 0.000840
# 6 -0.009143 -0.013053 0.001914 0.000510 0.000840 0.067161
#
#
# Mechanical properties :
#
#
# Convention : Reuss Voigt Hill
#
# Bulk Modulus (GPa) = 34.23390 50.44692 42.34041
# Shear Modulus (GPa) = 25.85473 33.69080 29.77276
#
# Velocity S-wave (km/s) = 3.35027 3.82442 3.59517
# Velocity P-wave (km/s) = 5.46148 6.43445 5.96782
#
# Compressibility (1/GPa) = 0.02921081
#
# Stress axis : x y z
#
# Youngs Moduli (GPa) = 68.05195 51.72333 118.08562
#
# Poissons Ratio (x) = 0.01193 0.11805
# Poissons Ratio (y) = 0.01569 0.63916
# Poissons Ratio (z) = 0.06803 0.27996
#
# Static dielectric constant tensor:
#      x y z
#    x 1.858700 -0.017950 -0.013890 
#    y -0.017950 1.906480 -0.006150 
#    z -0.013890 -0.006150 1.914620 
# 
# From -- ./inp_files/426916.got.cif
#   From: 2010.05.17/outbox.cif.g08.bks.cpg/sg2_214_cif.got.tgz:426916.got - 2010.06.03 11:33:40.
