data_PCOD9095997
_publ_section_title
;
Structure prediction by ZEFSAII (Michael W. Deem and Ramdas Pophale) SiO2 
 PCOD9095997
Probable space group: P -1
;
_chemical_formula_sum "Si O2"
_cell_formula_units_Z 14
_cell_length_a 19.556336
_cell_length_b 9.467953
_cell_length_c 5.013495
_cell_angle_alpha 65.070737
_cell_angle_beta 91.946382
_cell_angle_gamma 131.386047
_cell_volume 589.316817
_symmetry_space_group_name_H-M "P -1"
_symmetry_group_IT_number 2
_symmetry_cell_setting 'triclinic'
loop_
_space_group_symop_operation_xyz
x,y,z
-x,-y,-z
loop_
_atom_site_type_symbol
_atom_site_label
_atom_site_fract_x
_atom_site_fract_y
_atom_site_fract_z
Si Si1 0.388833 0.315278 0.026413
Si Si2 0.427872 0.792604 0.356481
Si Si3 0.383011 0.996043 0.579469
Si Si4 0.895709 0.483027 0.158772
Si Si5 0.210248 0.697532 0.208664
Si Si6 0.698332 0.670552 0.507171
Si Si7 0.115290 0.841393 0.902003
O O1 0.332998 0.346645 0.181742
O O2 0.353042 0.086428 0.305451
O O3 0.500000 0.500000 0.000000
O O4 0.361246 0.310121 0.721297
O O5 0.392151 0.851547 0.530886
O O6 0.338871 0.559864 0.393953
O O7 0.505259 0.793959 0.481332
O O8 0.500000 0.000000 0.000000
O O9 0.311954 0.865544 0.928065
O O10 0.814980 0.403635 0.423475
O O11 0.005435 0.700751 0.081508
O O12 0.864301 0.501311 0.855451
O O13 0.893558 0.291675 0.247804
O O14 0.170865 0.811423 0.125988
O O15 0.811973 0.896814 0.324511
#
# Coordination Sequence:
#
# PCOD9095997 Si02
#       7
#     2   2   2   2   2   2   2
#     4  12  24  41  64  94 128 165 216 275 312 372
#     4  11  27  45  62  90 133 179 211 265 319 391
#     4  11  25  41  64  90 129 173 219 257 323 389
#     4   9  20  35  58  96 130 159 199 274 325 374
#     4  10  20  35  61  91 121 167 210 253 316 384
#     4  12  26  40  67  97 128 169 216 267 322 373
#     4   9  21  34  63  93 132 158 209 265 327 371
#
# _framework density 23.756322000000001
#
# number of rings (size 3 to 8) (size 9 to 14) (size 15 to 20)
#    0.857    0.571    2.857    1.714   10.000    0.000 
#    0.000    0.000    0.000    1.714    0.000    0.000 
#    0.000    0.000    0.000    0.000    0.000    0.000 
#
# Total GULP energy -78168.473886 kJ/mol
# GULP energy per Si atom -5583.462420 kJ/mol
# Density = 2.370225 g / cm^3
# Si number density = 23.756322 Si / 1000 Ang^3
#
#
#
# Elastic Constant Matrix: (Units=GPa)
#
#
# Indices 1 2 3 4 5 6 
#
# 1 54.4332 20.0063 27.1259 -7.3378 -25.4438 16.4380
# 2 20.0063 102.9815 39.0019 -30.3481 -19.7894 9.0038
# 3 27.1259 39.0019 102.9918 7.2275 -20.2513 1.9679
# 4 -7.3378 -30.3481 7.2275 48.8644 3.2866 -13.6849
# 5 -25.4438 -19.7894 -20.2513 3.2866 39.2136 -8.9182
# 6 16.4380 9.0038 1.9679 -13.6849 -8.9182 30.7404
#
#
#
# Elastic Compliance Matrix: (Units=1/GPa)
#
#
# Indices 1 2 3 4 5 6 
#
# 1 0.031768 0.000195 -0.005329 0.001387 0.015186 -0.011680
# 2 0.000195 0.015891 -0.005980 0.010992 0.004555 0.001839
# 3 -0.005329 -0.005980 0.014122 -0.006334 0.001657 0.001358
# 4 0.001387 0.010992 -0.006334 0.031399 0.003121 0.011328
# 5 0.015186 0.004555 0.001657 0.003121 0.038960 0.003131
# 6 -0.011680 0.001839 0.001358 0.011328 0.003131 0.044102
#
#
# Mechanical properties :
#
#
# Convention : Reuss Voigt Hill
#
# Bulk Modulus (GPa) = 25.28249 48.07497 36.67873
# Shear Modulus (GPa) = 23.62337 35.38184 29.50261
#
# Velocity S-wave (km/s) = 3.15684 3.86342 3.52786
# Velocity P-wave (km/s) = 4.89418 6.33892 5.66282
#
# Compressibility (1/GPa) = 0.03955307
#
# Stress axis : x y z
#
# Youngs Moduli (GPa) = 31.47831 62.92799 70.81123
#
# Poissons Ratio (x) = -0.01227 0.37735
# Poissons Ratio (y) = -0.00614 0.42346
# Poissons Ratio (z) = 0.16775 0.37631
#
# Static dielectric constant tensor:
#      x y z
#    x 1.982710 0.048690 0.081090 
#    y 0.048690 1.948850 -0.015650 
#    z 0.081090 -0.015650 1.951100 
# 
# From -- ./inp_files/115413.got.cif
#   From: 2010.05.17/outbox.cif.g08.bks.cpg/sg2_58_cif.got.tgz:115413.got - 2010.06.03 11:33:40.
