data_PCOD9095517
_publ_section_title
;
Structure prediction by ZEFSAII (Michael W. Deem and Ramdas Pophale) SiO2 
 PCOD9095517
Probable space group: P -1
;
_chemical_formula_sum "Si O2"
_cell_formula_units_Z 16
_cell_length_a 13.563110
_cell_length_b 9.587972
_cell_length_c 9.755593
_cell_angle_alpha 44.284080
_cell_angle_beta 109.122231
_cell_angle_gamma 77.547949
_cell_volume 611.808293
_symmetry_space_group_name_H-M "P -1"
_symmetry_group_IT_number 2
_symmetry_cell_setting 'triclinic'
loop_
_space_group_symop_operation_xyz
x,y,z
-x,-y,-z
loop_
_atom_site_type_symbol
_atom_site_label
_atom_site_fract_x
_atom_site_fract_y
_atom_site_fract_z
Si Si1 0.087225 0.000784 0.158448
Si Si2 0.898920 0.210182 0.184556
Si Si3 0.828246 0.693333 0.155354
Si Si4 0.471044 0.823660 0.360463
Si Si5 0.388768 0.377805 0.138590
Si Si6 0.381888 0.846972 0.802084
Si Si7 0.866007 0.830044 0.368264
Si Si8 0.391960 0.480165 0.619081
O O1 0.998505 0.157426 0.145680
O O2 0.233968 0.682973 0.468902
O O3 0.126384 0.165684 0.002456
O O4 0.000000 0.000000 0.000000
O O5 0.821978 0.119766 0.138587
O O6 0.770177 0.501039 0.991638
O O7 0.000000 0.000000 0.500000
O O8 0.827619 0.750761 0.275197
O O9 0.963205 0.379616 0.406970
O O10 0.666160 0.852627 0.934474
O O11 0.545612 0.714516 0.615620
O O12 0.402563 0.689845 0.412873
O O13 0.575660 0.709755 0.359045
O O14 0.528285 0.148668 0.270759
O O15 0.360430 0.644779 0.886535
O O16 0.225574 0.129770 0.573744
O O17 0.482810 0.708851 0.079946
#
# Coordination Sequence:
#
# PCOD9095517 Si02
#       8
#     2   2   2   2   2   2   2   2
#     4  11  20  33  55  83 111 144 182 222 270 325
#     4  11  22  37  56  83 115 148 177 221 277 329
#     4  10  20  35  58  85 110 141 181 231 274 321
#     4   9  16  29  50  78 103 133 180 230 264 299
#     4   9  18  30  51  77 107 136 181 226 265 309
#     4   9  16  31  51  77 102 138 179 226 264 312
#     4  10  20  36  58  82 112 143 180 228 277 321
#     4   9  16  26  49  74 102 136 177 225 261 303
#
# _framework density 26.151983000000001
#
# number of rings (size 3 to 8) (size 9 to 14) (size 15 to 20)
#    0.000    2.250    2.500    1.500    3.500    3.000 
#    0.000    2.500    0.000    9.000    0.000    0.000 
#    0.000    0.000    0.000    0.000    0.000    0.000 
#
# Total GULP energy -89422.392770 kJ/mol
# GULP energy per Si atom -5588.899548 kJ/mol
# Density = 2.609246 g / cm^3
# Si number density = 26.151983 Si / 1000 Ang^3
#
#
#
# Elastic Constant Matrix: (Units=GPa)
#
#
# Indices 1 2 3 4 5 6 
#
# 1 69.0544 26.8745 -8.0075 -15.7065 7.9910 -20.5546
# 2 26.8745 157.7261 28.9022 -25.0431 2.3708 -62.5135
# 3 -8.0075 28.9022 77.1953 -18.7785 21.5566 -17.9243
# 4 -15.7065 -25.0431 -18.7785 45.0118 -4.1464 12.0650
# 5 7.9910 2.3708 21.5566 -4.1464 30.6239 -16.8251
# 6 -20.5546 -62.5135 -17.9243 12.0650 -16.8251 44.9623
#
#
#
# Elastic Compliance Matrix: (Units=1/GPa)
#
#
# Indices 1 2 3 4 5 6 
#
# 1 0.019961 -0.000672 0.007224 0.007199 -0.005344 0.007139
# 2 -0.000672 0.021037 -0.005523 0.001963 0.021528 0.034269
# 3 0.007224 -0.005523 0.021746 0.008102 -0.018257 -0.004714
# 4 0.007199 0.001963 0.008102 0.028825 -0.003773 0.000104
# 5 -0.005344 0.021528 -0.018257 -0.003773 0.070974 0.047781
# 6 0.007139 0.034269 -0.004714 0.000104 0.047781 0.089124
#
#
# Mechanical properties :
#
#
# Convention : Reuss Voigt Hill
#
# Bulk Modulus (GPa) = 15.43167 44.39048 29.91107
# Shear Modulus (GPa) = 18.43582 41.20003 29.81793
#
# Velocity S-wave (km/s) = 2.65797 3.97345 3.38032
# Velocity P-wave (km/s) = 3.91578 6.16943 5.16697
#
# Compressibility (1/GPa) = 0.06480180
#
# Stress axis : x y z
#
# Youngs Moduli (GPa) = 50.09659 47.53527 45.98565
#
# Poissons Ratio (x) = 0.03193 -0.33218
# Poissons Ratio (y) = 0.03366 0.25398
# Poissons Ratio (z) = -0.36187 0.26254
#
# Static dielectric constant tensor:
#      x y z
#    x 2.113760 0.046800 -0.000440 
#    y 0.046800 2.213210 -0.097130 
#    z -0.000440 -0.097130 2.057280 
# 
# From -- ./inp_files/270366.got.cif
#   From: 2010.05.17/outbox.cif.g08.bks.cpg/sg2_136_cif.got.tgz:270366.got - 2010.06.03 11:33:40.
