data_PCOD9095550
_publ_section_title
;
Structure prediction by ZEFSAII (Michael W. Deem and Ramdas Pophale) SiO2 
 PCOD9095550
Probable space group: P -1
;
_chemical_formula_sum "Si O2"
_cell_formula_units_Z 13
_cell_length_a 12.275966
_cell_length_b 6.691546
_cell_length_c 7.159175
_cell_angle_alpha 59.482891
_cell_angle_beta 89.985469
_cell_angle_gamma 80.689748
_cell_volume 497.628639
_symmetry_space_group_name_H-M "P -1"
_symmetry_group_IT_number 2
_symmetry_cell_setting 'triclinic'
loop_
_space_group_symop_operation_xyz
x,y,z
-x,-y,-z
loop_
_atom_site_type_symbol
_atom_site_label
_atom_site_fract_x
_atom_site_fract_y
_atom_site_fract_z
Si Si1 0.847307 0.964350 0.013237
Si Si2 0.614483 0.903524 0.945824
Si Si3 0.951760 0.405384 0.855032
Si Si4 0.447578 0.395620 0.377016
Si Si5 0.648250 0.047215 0.450436
Si Si6 0.115790 0.070912 0.418395
Si Si7 0.500000 0.500000 0.000000
O O1 0.725121 0.912242 0.057290
O O2 0.866281 0.968649 0.785114
O O3 0.942017 0.743843 0.182463
O O4 0.875202 0.209446 0.971822
O O5 0.626520 0.026767 0.684288
O O6 0.598548 0.642212 0.020631
O O7 0.500000 0.000000 0.000000
O O8 0.888700 0.654483 0.658456
O O9 0.000000 0.500000 0.000000
O O10 0.500000 0.500000 0.500000
O O11 0.546162 0.258346 0.293878
O O12 0.407647 0.596316 0.135492
O O13 0.376984 0.198541 0.511319
O O14 0.773551 0.072997 0.416232
O O15 0.000000 0.000000 0.500000
#
# Coordination Sequence:
#
# PCOD9095550 Si02
#       7
#     2   2   2   2   2   2   1
#     4   9  20  38  59  85 117 158 203 246 302 369
#     4  10  20  35  58  87 118 154 197 249 307 368
#     4   9  19  38  59  81 116 157 199 250 301 351
#     4  10  20  39  61  84 121 161 194 247 309 360
#     4   9  21  38  55  83 118 151 198 247 300 370
#     4  10  21  37  59  85 115 155 200 252 304 356
#     4  10  22  36  58  92 118 154 208 242 294 376
#
# _framework density 26.123895000000001
#
# number of rings (size 3 to 8) (size 9 to 14) (size 15 to 20)
#    0.000    2.462    0.000    0.923    0.000    9.231 
#    0.000   18.462    0.000    0.000    0.000    0.000 
#    0.000    0.000    0.000    0.000    0.000    0.000 
#
# Total GULP energy -72496.104178 kJ/mol
# GULP energy per Si atom -5576.623398 kJ/mol
# Density = 2.606444 g / cm^3
# Si number density = 26.123895 Si / 1000 Ang^3
#
#
#
# Elastic Constant Matrix: (Units=GPa)
#
#
# Indices 1 2 3 4 5 6 
#
# 1 215.4717 62.9028 24.5292 -10.4105 -20.9966 22.7424
# 2 62.9028 156.8252 28.0346 -10.4566 -10.8657 37.6112
# 3 24.5292 28.0346 100.7486 18.0781 -18.6413 5.7192
# 4 -10.4105 -10.4566 18.0781 41.9229 1.6751 7.7802
# 5 -20.9966 -10.8657 -18.6413 1.6751 39.9331 -3.8571
# 6 22.7424 37.6112 5.7192 7.7802 -3.8571 36.7013
#
#
#
# Elastic Compliance Matrix: (Units=1/GPa)
#
#
# Indices 1 2 3 4 5 6 
#
# 1 0.005626 -0.001344 -0.000830 0.001741 0.001924 -0.002147
# 2 -0.001344 0.010300 -0.003038 0.005512 -0.000565 -0.010477
# 3 -0.000830 -0.003038 0.013142 -0.007551 0.005552 0.003764
# 4 0.001741 0.005512 -0.007551 0.031399 -0.003643 -0.012590
# 5 0.001924 -0.000565 0.005552 -0.003643 0.028869 0.002328
# 6 -0.002147 -0.010477 0.003764 -0.012590 0.002328 0.041641
#
#
# Mechanical properties :
#
#
# Convention : Reuss Voigt Hill
#
# Bulk Modulus (GPa) = 53.63847 78.21985 65.92916
# Shear Modulus (GPa) = 33.87199 47.55005 40.71102
#
# Velocity S-wave (km/s) = 3.60473 4.27098 3.95192
# Velocity P-wave (km/s) = 6.15649 7.37079 6.79083
#
# Compressibility (1/GPa) = 0.01864333
#
# Stress axis : x y z
#
# Youngs Moduli (GPa) = 177.74394 97.09140 76.09358
#
# Poissons Ratio (x) = 0.13049 0.06318
# Poissons Ratio (y) = 0.23888 0.23115
# Poissons Ratio (z) = 0.14759 0.29494
#
# Static dielectric constant tensor:
#      x y z
#    x 2.082150 -0.083960 0.089220 
#    y -0.083960 2.078090 0.031580 
#    z 0.089220 0.031580 2.307770 
# 
# From -- ./inp_files/33002.got.cif
#   From: 2010.05.17/outbox.cif.g08.bks.cpg/sg2_17_cif.got.tgz:33002.got - 2010.06.03 11:33:40.
