data_PCOD9095251
_publ_section_title
;
Structure prediction by ZEFSAII (Michael W. Deem and Ramdas Pophale) SiO2 
 PCOD9095251
Probable space group: P -1
;
_chemical_formula_sum "Si O2"
_cell_formula_units_Z 14
_cell_length_a 12.574527
_cell_length_b 9.297690
_cell_length_c 11.938755
_cell_angle_alpha 79.076530
_cell_angle_beta 33.378148
_cell_angle_gamma 101.391578
_cell_volume 567.406136
_symmetry_space_group_name_H-M "P -1"
_symmetry_group_IT_number 2
_symmetry_cell_setting 'triclinic'
loop_
_space_group_symop_operation_xyz
x,y,z
-x,-y,-z
loop_
_atom_site_type_symbol
_atom_site_label
_atom_site_fract_x
_atom_site_fract_y
_atom_site_fract_z
Si Si1 0.116906 0.726571 0.992802
Si Si2 0.244625 0.738898 0.625346
Si Si3 0.013067 0.713055 0.625122
Si Si4 0.221919 0.000063 0.007601
Si Si5 0.539405 0.254404 0.134516
Si Si6 0.460253 0.732619 0.124054
Si Si7 0.867547 0.727939 0.526992
O O1 0.212145 0.774564 0.775073
O O2 0.354818 0.798597 0.854381
O O3 0.030693 0.840987 0.101377
O O4 0.906406 0.492030 0.220478
O O5 0.113329 0.791199 0.649413
O O6 0.529237 0.856874 0.312071
O O7 0.247470 0.737470 0.360684
O O8 0.931523 0.786339 0.591822
O O9 0.768144 0.486330 0.887470
O O10 0.121637 0.831743 0.215644
O O11 0.307295 0.159283 0.006654
O O12 0.283933 0.212703 0.401573
O O13 0.483072 0.185395 0.064358
O O14 0.315053 0.504523 0.281149
#
# Coordination Sequence:
#
# PCOD9095251 Si02
#       7
#     2   2   2   2   2   2   2
#     4  10  20  39  60  81 107 141 188 230 266 314
#     4   9  20  36  60  83 103 140 190 233 263 306
#     4   9  17  34  59  82 104 139 185 227 266 312
#     4  11  21  35  58  85 110 141 184 228 272 321
#     4  10  20  35  56  82 115 148 175 218 279 333
#     4  10  20  35  57  84 109 142 185 228 271 316
#     4  11  21  35  55  83 118 144 172 222 280 333
#
# _framework density 24.673683
#
# number of rings (size 3 to 8) (size 9 to 14) (size 15 to 20)
#    0.000    2.000    0.000    7.286    0.000    5.714 
#    0.000    5.000    0.000   24.857    0.000    0.000 
#    0.000    0.000    0.000    0.000    0.000    0.000 
#
# Total GULP energy -77938.197769 kJ/mol
# GULP energy per Si atom -5567.014126 kJ/mol
# Density = 2.461752 g / cm^3
# Si number density = 24.673683 Si / 1000 Ang^3
#
#
#
# Elastic Constant Matrix: (Units=GPa)
#
#
# Indices 1 2 3 4 5 6 
#
# 1 133.8311 -23.0804 129.6750 11.1014 68.1423 -19.8925
# 2 -23.0804 410.8752 -335.9719 37.1077 -171.9141 247.0661
# 3 129.6750 -335.9719 527.6348 -76.1202 241.7701 -246.9664
# 4 11.1014 37.1077 -76.1202 57.1459 -28.8236 41.1397
# 5 68.1423 -171.9141 241.7701 -28.8236 147.0548 -111.1002
# 6 -19.8925 247.0661 -246.9664 41.1397 -111.1002 190.5701
#
#
#
# Elastic Compliance Matrix: (Units=1/GPa)
#
#
# Indices 1 2 3 4 5 6 
#
# 1 0.017806 -0.005668 -0.008319 -0.012015 -0.004977 -0.001881
# 2 -0.005668 0.015494 0.000884 0.008296 0.008581 -0.016321
# 3 -0.008319 0.000884 0.015837 0.009204 -0.012264 0.009372
# 4 -0.012015 0.008296 0.009204 0.031891 0.002004 -0.005797
# 5 -0.004977 0.008581 -0.012264 0.002004 0.033173 -0.008631
# 6 -0.001881 -0.016321 0.009372 -0.005797 -0.008631 0.034575
#
#
# Mechanical properties :
#
#
# Convention : Reuss Voigt Hill
#
# Bulk Modulus (GPa) = 43.60767 68.17629 55.89198
# Shear Modulus (GPa) = 27.37859 165.73540 96.55699
#
# Velocity S-wave (km/s) = 3.33472 8.20468 6.26247
# Velocity P-wave (km/s) = 5.70432 10.83729 8.65985
#
# Compressibility (1/GPa) = 0.02293175
#
# Stress axis : x y z
#
# Youngs Moduli (GPa) = 56.16074 64.54302 63.14390
#
# Poissons Ratio (x) = 0.36584 0.52527
# Poissons Ratio (y) = 0.31832 -0.05584
# Poissons Ratio (z) = 0.46718 -0.05708
#
# Static dielectric constant tensor:
#      x y z
#    x 1.955450 -0.028290 -0.065540 
#    y -0.028290 2.071710 0.046570 
#    z -0.065540 0.046570 1.985470 
# 
# From -- ./inp_files/425751.got.cif
#   From: 2010.05.17/outbox.cif.g08.bks.cpg/sg2_213_cif.got.tgz:425751.got - 2010.06.03 11:33:40.
