data_PCOD9095560
_publ_section_title
;
Structure prediction by ZEFSAII (Michael W. Deem and Ramdas Pophale) SiO2 
 PCOD9095560
Probable space group: P -1
;
_chemical_formula_sum "Si O2"
_cell_formula_units_Z 16
_cell_length_a 15.806164
_cell_length_b 11.610251
_cell_length_c 8.833181
_cell_angle_alpha 72.644092
_cell_angle_beta 51.755601
_cell_angle_gamma 113.973356
_cell_volume 747.573690
_symmetry_space_group_name_H-M "P -1"
_symmetry_group_IT_number 2
_symmetry_cell_setting 'triclinic'
loop_
_space_group_symop_operation_xyz
x,y,z
-x,-y,-z
loop_
_atom_site_type_symbol
_atom_site_label
_atom_site_fract_x
_atom_site_fract_y
_atom_site_fract_z
Si Si1 0.708701 0.703723 0.688148
Si Si2 0.896467 0.120183 0.309946
Si Si3 0.206543 0.419998 0.599987
Si Si4 0.655621 0.085594 0.189624
Si Si5 0.825071 0.420207 0.689641
Si Si6 0.810533 0.625660 0.864550
Si Si7 0.432276 0.693212 0.494727
Si Si8 0.814938 0.290131 0.228826
O O1 0.786181 0.686596 0.478162
O O2 0.782727 0.719111 0.758927
O O3 0.773899 0.896643 0.515608
O O4 0.500000 0.500000 0.000000
O O5 0.780830 0.139098 0.420517
O O6 0.012433 0.216952 0.295509
O O7 0.045528 0.262614 0.957261
O O8 0.190905 0.526079 0.472701
O O9 0.387625 0.587756 0.429651
O O10 0.810758 0.243797 0.076240
O O11 0.500000 0.000000 0.500000
O O12 0.617757 0.915382 0.247501
O O13 0.677360 0.190847 0.980628
O O14 0.812256 0.513980 0.792649
O O15 0.000000 0.500000 0.500000
O O16 0.648597 0.458798 0.222777
O O17 0.312344 0.708661 0.611842
O O18 0.000000 0.500000 0.000000
#
# Coordination Sequence:
#
# PCOD9095560 Si02
#       8
#     2   2   2   2   2   2   2   2
#     4  11  26  44  64  90 123 167 219 268 306 357
#     4  11  22  41  69  90 124 168 215 248 319 378
#     4  10  23  40  64  88 128 166 208 262 311 370
#     4  10  20  35  58  87 129 170 201 239 315 373
#     4  11  21  35  58  98 133 159 201 259 312 378
#     4  10  21  41  65  87 126 168 207 257 310 375
#     4  10  21  38  64  94 127 167 205 254 323 373
#     4  11  18  33  66  98 121 160 207 246 307 384
#
# _framework density 21.402571999999999
#
# number of rings (size 3 to 8) (size 9 to 14) (size 15 to 20)
#    0.000    1.500    5.000    1.500    3.500    1.500 
#    2.250    2.500    2.750    0.000    0.000    0.000 
#    0.000    0.000    0.000    0.000    0.000    0.000 
#
# Total GULP energy -89315.049884 kJ/mol
# GULP energy per Si atom -5582.190618 kJ/mol
# Density = 2.135386 g / cm^3
# Si number density = 21.402572 Si / 1000 Ang^3
#
#
#
# Elastic Constant Matrix: (Units=GPa)
#
#
# Indices 1 2 3 4 5 6 
#
# 1 64.9356 20.0594 13.2417 0.8033 26.5308 10.3438
# 2 20.0594 71.6512 23.0060 -28.9658 24.2168 18.1580
# 3 13.2417 23.0060 70.3769 -18.2185 21.7256 7.2397
# 4 0.8033 -28.9658 -18.2185 35.4324 -5.5734 5.3558
# 5 26.5308 24.2168 21.7256 -5.5734 30.3190 -2.8647
# 6 10.3438 18.1580 7.2397 5.3558 -2.8647 38.7250
#
#
#
# Elastic Compliance Matrix: (Units=1/GPa)
#
#
# Indices 1 2 3 4 5 6 
#
# 1 0.029997 0.011619 0.007588 0.009156 -0.041097 -0.019186
# 2 0.011619 0.064113 0.018145 0.058232 -0.068367 -0.049669
# 3 0.007588 0.018145 0.027750 0.026261 -0.038287 -0.022187
# 4 0.009156 0.058232 0.026261 0.087097 -0.062178 -0.051305
# 5 -0.041097 -0.068367 -0.038287 -0.062178 0.146133 0.069602
# 6 -0.019186 -0.049669 -0.022187 -0.051305 0.069602 0.070630
#
#
# Mechanical properties :
#
#
# Convention : Reuss Voigt Hill
#
# Bulk Modulus (GPa) = 5.08743 35.50866 20.29805
# Shear Modulus (GPa) = 12.00377 30.93903 21.47140
#
# Velocity S-wave (km/s) = 2.37081 3.80620 3.17079
# Velocity P-wave (km/s) = 3.14269 5.99525 4.78641
#
# Compressibility (1/GPa) = 0.19656290
#
# Stress axis : x y z
#
# Youngs Moduli (GPa) = 33.33667 15.59757 36.03639
#
# Poissons Ratio (x) = -0.18123 -0.27345
# Poissons Ratio (y) = -0.38734 -0.65387
# Poissons Ratio (z) = -0.25297 -0.28301
#
# Static dielectric constant tensor:
#      x y z
#    x 1.834680 0.056610 -0.048490 
#    y 0.056610 1.801720 -0.044380 
#    z -0.048490 -0.044380 1.855320 
# 
# From -- ./inp_files/299563.got.cif
#   From: 2010.05.17/outbox.cif.g08.bks.cpg/sg2_150_cif.got.tgz:299563.got - 2010.06.03 11:33:40.
