data_PCOD9095417
_publ_section_title
;
Structure prediction by ZEFSAII (Michael W. Deem and Ramdas Pophale) SiO2 
 PCOD9095417
Probable space group: P -1
;
_chemical_formula_sum "Si O2"
_cell_formula_units_Z 12
_cell_length_a 16.227069
_cell_length_b 16.347366
_cell_length_c 9.390552
_cell_angle_alpha 45.854954
_cell_angle_beta 132.638137
_cell_angle_gamma 162.507508
_cell_volume 536.300156
_symmetry_space_group_name_H-M "P -1"
_symmetry_group_IT_number 2
_symmetry_cell_setting 'triclinic'
loop_
_space_group_symop_operation_xyz
x,y,z
-x,-y,-z
loop_
_atom_site_type_symbol
_atom_site_label
_atom_site_fract_x
_atom_site_fract_y
_atom_site_fract_z
Si Si1 0.788169 0.548597 0.222173
Si Si2 0.670946 0.048750 0.684982
Si Si3 0.998257 0.974512 0.858848
Si Si4 0.141593 0.715195 0.068652
Si Si5 0.561820 0.447954 0.371086
Si Si6 0.638172 0.293726 0.809999
O O1 0.663856 0.490393 0.288481
O O2 0.051619 0.715651 0.365901
O O3 0.541224 0.251829 0.219218
O O4 0.917856 0.767749 0.008342
O O5 0.500000 0.000000 0.500000
O O6 0.783267 0.174453 0.821503
O O7 0.758499 0.825328 0.687836
O O8 0.281095 0.285892 0.751517
O O9 0.000000 0.000000 0.000000
O O10 0.828246 0.445226 0.985622
O O11 0.333068 0.964963 0.881645
O O12 0.228711 0.665120 0.203909
O O13 0.632215 0.418682 0.605218
#
# Coordination Sequence:
#
# PCOD9095417 Si02
#       6
#     2   2   2   2   2   2
#     4  11  22  37  58  86 120 148 180 237 290 334
#     4  12  24  38  59  85 118 152 185 225 285 353
#     4  10  20  35  57  87 117 146 187 238 285 327
#     4  10  22  38  56  83 113 149 188 229 284 329
#     4  11  20  36  62  88 112 146 195 235 282 332
#     4  10  21  38  60  81 111 148 191 238 271 329
#
# _framework density 22.375530000000001
#
# number of rings (size 3 to 8) (size 9 to 14) (size 15 to 20)
#    0.000    1.333    0.000    8.500    0.000    4.000 
#    0.000    0.000    0.000   20.000    0.000    0.000 
#    0.000    0.000    0.000    0.000    0.000    0.000 
#
# Total GULP energy -67131.476140 kJ/mol
# GULP energy per Si atom -5594.289678 kJ/mol
# Density = 2.232460 g / cm^3
# Si number density = 22.375530 Si / 1000 Ang^3
#
#
#
# Elastic Constant Matrix: (Units=GPa)
#
#
# Indices 1 2 3 4 5 6 
#
# 1 44.9533 14.0510 1.8229 12.6028 1.8783 -11.3584
# 2 14.0510 117.1174 -2.6951 8.3044 1.1883 -13.0546
# 3 1.8229 -2.6951 48.2068 -2.0186 12.3789 -5.4177
# 4 12.6028 8.3044 -2.0186 31.3063 6.2558 9.8450
# 5 1.8783 1.1883 12.3789 6.2558 12.6424 4.3194
# 6 -11.3584 -13.0546 -5.4177 9.8450 4.3194 32.5514
#
#
#
# Elastic Compliance Matrix: (Units=1/GPa)
#
#
# Indices 1 2 3 4 5 6 
#
# 1 0.031432 -0.000722 0.000404 -0.017117 -0.002061 0.016196
# 2 -0.000722 0.009492 0.001663 -0.003224 -0.002577 0.005149
# 3 0.000404 0.001663 0.031714 0.006011 -0.037398 0.009231
# 4 -0.017117 -0.003224 0.006011 0.050229 -0.021540 -0.018599
# 5 -0.002061 -0.002577 -0.037398 -0.021540 0.133475 -0.019174
# 6 0.016196 0.005149 0.009231 -0.018599 -0.019174 0.048143
#
#
# Mechanical properties :
#
#
# Convention : Reuss Voigt Hill
#
# Bulk Modulus (GPa) = 13.27516 26.29279 19.78397
# Shear Modulus (GPa) = 15.29505 28.43994 21.86749
#
# Velocity S-wave (km/s) = 2.61734 3.56902 3.12956
# Velocity P-wave (km/s) = 3.88326 5.36284 4.68187
#
# Compressibility (1/GPa) = 0.07532868
#
# Stress axis : x y z
#
# Youngs Moduli (GPa) = 31.81494 105.35173 31.53173
#
# Poissons Ratio (x) = 0.07604 -0.01273
# Poissons Ratio (y) = 0.02296 -0.05245
# Poissons Ratio (z) = -0.01284 -0.17525
#
# Static dielectric constant tensor:
#      x y z
#    x 1.854060 -0.005180 0.020690 
#    y -0.005180 1.804270 -0.024010 
#    z 0.020690 -0.024010 1.819410 
# 
# From -- ./inp_files/63642.got.cif
#   From: 2010.05.17/outbox.cif.g08.bks.cpg/sg2_32_cif.got.tgz:63642.got - 2010.06.03 11:33:40.
