data_PCOD9095010
_publ_section_title
;
Structure prediction by ZEFSAII (Michael W. Deem and Ramdas Pophale) SiO2 
 PCOD9095010
Probable space group: P -1
;
_chemical_formula_sum "Si O2"
_cell_formula_units_Z 16
_cell_length_a 8.769820
_cell_length_b 5.301011
_cell_length_c 29.794965
_cell_angle_alpha 93.584634
_cell_angle_beta 35.702093
_cell_angle_gamma 77.402791
_cell_volume 715.638836
_symmetry_space_group_name_H-M "P -1"
_symmetry_group_IT_number 2
_symmetry_cell_setting 'triclinic'
loop_
_space_group_symop_operation_xyz
x,y,z
-x,-y,-z
loop_
_atom_site_type_symbol
_atom_site_label
_atom_site_fract_x
_atom_site_fract_y
_atom_site_fract_z
Si Si1 0.149314 0.291734 0.199043
Si Si2 0.654795 0.638619 0.752103
Si Si3 0.174813 0.933879 0.671813
Si Si4 0.438902 0.233479 0.674782
Si Si5 0.339430 0.255852 0.797494
Si Si6 0.154701 0.717872 0.584521
Si Si7 0.793760 0.369993 0.529310
Si Si8 0.660630 0.671793 0.942768
O O1 0.237971 0.418693 0.222491
O O2 0.339893 0.294953 0.111115
O O3 0.104397 0.043399 0.232704
O O4 0.824219 0.446772 0.255720
O O5 0.506049 0.442820 0.771244
O O6 0.939085 0.596831 0.654136
O O7 0.426873 0.977898 0.804480
O O8 0.108236 0.962337 0.634921
O O9 0.458382 0.619485 0.603265
O O10 0.306692 0.112982 0.666999
O O11 0.448172 0.116423 0.720516
O O12 0.731811 0.211120 0.583406
O O13 0.995553 0.480557 0.878170
O O14 0.500000 0.500000 0.500000
O O15 0.100304 0.777880 0.545667
O O16 0.000000 0.500000 0.500000
O O17 0.500000 0.500000 0.000000
O O18 0.500000 0.000000 0.000000
#
# Coordination Sequence:
#
# PCOD9095010 Si02
#       8
#     2   2   2   2   2   2   2   2
#     4   9  23  41  68  91 133 171 222 259 329 417
#     4  11  24  45  67 100 134 186 222 280 333 388
#     4   9  20  37  58  85 119 173 226 271 329 395
#     4  10  22  37  64  87 124 179 226 276 329 406
#     4  11  26  43  70 100 139 169 228 276 336 403
#     4   9  20  40  58  88 135 174 235 281 331 386
#     4  10  20  35  52  85 125 167 226 286 342 377
#     4  11  25  46  74 106 135 173 215 269 338 412
#
# _framework density 22.357645999999999
#
# number of rings (size 3 to 8) (size 9 to 14) (size 15 to 20)
#    0.000    2.000    0.000    2.250   14.000    1.000 
#    4.500    3.750    0.000    0.000    0.000    0.000 
#    0.000    0.000    0.000    0.000    0.000    0.000 
#
# Total GULP energy -89148.816984 kJ/mol
# GULP energy per Si atom -5571.801062 kJ/mol
# Density = 2.230676 g / cm^3
# Si number density = 22.357646 Si / 1000 Ang^3
#
#
#
# Elastic Constant Matrix: (Units=GPa)
#
#
# Indices 1 2 3 4 5 6 
#
# 1 135.4813 53.7128 66.1288 -22.8683 10.2393 -4.9946
# 2 53.7128 108.0247 52.6855 -9.2243 -4.8606 -5.9602
# 3 66.1288 52.6855 155.0732 -18.8181 1.8850 -4.7474
# 4 -22.8683 -9.2243 -18.8181 33.3434 -9.0169 -17.3013
# 5 10.2393 -4.8606 1.8850 -9.0169 46.3935 -8.9403
# 6 -4.9946 -5.9602 -4.7474 -17.3013 -8.9403 42.9852
#
#
#
# Elastic Compliance Matrix: (Units=1/GPa)
#
#
# Indices 1 2 3 4 5 6 
#
# 1 0.011472 -0.003685 -0.002738 0.006588 -0.000953 0.002973
# 2 -0.003685 0.012718 -0.002523 0.001581 0.003002 0.002318
# 3 -0.002738 -0.002523 0.009002 0.003931 0.001152 0.002148
# 4 0.006588 0.001581 0.003931 0.054737 0.014282 0.026420
# 5 -0.000953 0.003002 0.001152 0.014282 0.027085 0.011814
# 6 0.002973 0.002318 0.002148 0.026420 0.011814 0.037259
#
#
# Mechanical properties :
#
#
# Convention : Reuss Voigt Hill
#
# Bulk Modulus (GPa) = 65.36035 82.62592 73.99313
# Shear Modulus (GPa) = 28.52804 39.61455 34.07130
#
# Velocity S-wave (km/s) = 3.57597 4.21391 3.90798
# Velocity P-wave (km/s) = 6.80790 7.79184 7.31643
#
# Compressibility (1/GPa) = 0.01529980
#
# Stress axis : x y z
#
# Youngs Moduli (GPa) = 87.16650 78.62840 111.08489
#
# Poissons Ratio (x) = 0.28976 0.30416
# Poissons Ratio (y) = 0.32123 0.28027
# Poissons Ratio (z) = 0.23867 0.19838
#
# Static dielectric constant tensor:
#      x y z
#    x 1.677120 -0.865120 -0.054430 
#    y -0.865120 -2.011890 -0.229130 
#    z -0.054430 -0.229130 1.838260 
# 
# From -- ./inp_files/116343.got.cif
#   From: 2010.05.17/outbox.cif.g08.bks.cpg/sg2_59_cif.got.tgz:116343.got - 2010.06.03 11:33:40.
