data_PCOD9095641
_publ_section_title
;
Structure prediction by ZEFSAII (Michael W. Deem and Ramdas Pophale) SiO2 
 PCOD9095641
Probable space group: P -1
;
_chemical_formula_sum "Si O2"
_cell_formula_units_Z 15
_cell_length_a 7.914602
_cell_length_b 7.913266
_cell_length_c 15.132097
_cell_angle_alpha 36.854349
_cell_angle_beta 99.244130
_cell_angle_gamma 87.079174
_cell_volume 534.637882
_symmetry_space_group_name_H-M "P -1"
_symmetry_group_IT_number 2
_symmetry_cell_setting 'triclinic'
loop_
_space_group_symop_operation_xyz
x,y,z
-x,-y,-z
loop_
_atom_site_type_symbol
_atom_site_label
_atom_site_fract_x
_atom_site_fract_y
_atom_site_fract_z
Si Si1 0.500000 0.000000 0.000000
Si Si2 0.854661 0.022697 0.360057
Si Si3 0.928252 0.175138 0.784189
Si Si4 0.057390 0.370474 0.886876
Si Si5 0.389536 0.669847 0.653162
Si Si6 0.770818 0.278484 0.560758
Si Si7 0.316823 0.312310 0.198973
Si Si8 0.688392 0.159733 0.122661
O O1 0.582223 0.050844 0.083506
O O2 0.591245 0.642174 0.167786
O O3 0.783016 0.067714 0.435394
O O4 0.690736 0.032812 0.274905
O O5 0.881826 0.345446 0.207658
O O6 0.041449 0.780837 0.452668
O O7 0.021202 0.328690 0.799145
O O8 0.795803 0.394058 0.612263
O O9 0.096707 0.988024 0.818030
O O10 0.844036 0.953827 0.926818
O O11 0.859902 0.449996 0.877303
O O12 0.553704 0.751746 0.678412
O O13 0.377796 0.608431 0.574292
O O14 0.739873 0.969029 0.714474
O O15 0.359522 0.488825 0.045512
#
# Coordination Sequence:
#
# PCOD9095641 Si02
#       8
#     1   2   2   2   2   2   2   2
#     4  10  22  36  52  76 114 150 180 218 274 328
#     4  10  20  35  59  84 108 142 188 229 275 327
#     4   9  17  32  58  83 108 144 189 231 274 319
#     4   9  17  33  56  82 110 144 186 230 268 326
#     4  11  22  38  55  80 116 151 183 227 277 330
#     4  10  20  37  58  84 111 144 186 232 277 325
#     4   9  19  34  55  79 110 144 181 226 277 328
#     4   9  18  35  56  84 109 142 186 229 274 327
#
# _framework density 28.056374999999999
#
# number of rings (size 3 to 8) (size 9 to 14) (size 15 to 20)
#    0.000    2.400    0.000    2.400    0.000    6.400 
#    0.000   14.667    0.000    0.000    0.000    0.000 
#    0.000    0.000    0.000    0.000    0.000    0.000 
#
# Total GULP energy -83608.697717 kJ/mol
# GULP energy per Si atom -5573.913181 kJ/mol
# Density = 2.799252 g / cm^3
# Si number density = 28.056375 Si / 1000 Ang^3
#
#
#
# Elastic Constant Matrix: (Units=GPa)
#
#
# Indices 1 2 3 4 5 6 
#
# 1 57.2227 -3.0312 9.7500 3.9099 3.9827 5.8273
# 2 -3.0312 76.9453 32.2920 34.9612 -2.3875 29.7026
# 3 9.7500 32.2920 124.8507 33.3100 2.5690 9.0981
# 4 3.9099 34.9612 33.3100 65.0967 14.1965 13.8856
# 5 3.9827 -2.3875 2.5690 14.1965 27.9575 5.5481
# 6 5.8273 29.7026 9.0981 13.8856 5.5481 39.7435
#
#
#
# Elastic Compliance Matrix: (Units=1/GPa)
#
#
# Indices 1 2 3 4 5 6 
#
# 1 0.018569 0.003728 -0.001778 -0.001067 -0.000703 -0.004631
# 2 0.003728 0.026924 -0.003039 -0.011935 0.011564 -0.017417
# 3 -0.001778 -0.003039 0.009813 -0.003755 0.000701 0.001500
# 4 -0.001067 -0.011935 -0.003755 0.026317 -0.014433 0.002756
# 5 -0.000703 0.011564 0.000701 -0.014433 0.046124 -0.010097
# 6 -0.004631 -0.017417 0.001500 0.002756 -0.010097 0.038960
#
#
# Mechanical properties :
#
#
# Convention : Reuss Voigt Hill
#
# Bulk Modulus (GPa) = 18.82239 37.44893 28.13566
# Shear Modulus (GPa) = 26.79608 41.22672 34.01140
#
# Velocity S-wave (km/s) = 3.09379 3.83747 3.48552
# Velocity P-wave (km/s) = 4.41423 5.74557 5.12333
#
# Compressibility (1/GPa) = 0.05312823
#
# Stress axis : x y z
#
# Youngs Moduli (GPa) = 53.85197 37.14177 101.91011
#
# Poissons Ratio (x) = -0.13848 0.18119
# Poissons Ratio (y) = -0.20078 0.30973
# Poissons Ratio (z) = 0.09574 0.11288
#
# Static dielectric constant tensor:
#      x y z
#    x 2.245640 -0.052460 -0.065460 
#    y -0.052460 2.126030 0.036810 
#    z -0.065460 0.036810 2.226090 
# 
# From -- ./inp_files/235089.got.cif
#   From: 2010.05.17/outbox.cif.g08.bks.cpg/sg2_118_cif.got.tgz:235089.got - 2010.06.03 11:33:40.
