data_PCOD9095606
_publ_section_title
;
Structure prediction by ZEFSAII (Michael W. Deem and Ramdas Pophale) SiO2 
 PCOD9095606
Probable space group: P -1
;
_chemical_formula_sum "Si O2"
_cell_formula_units_Z 16
_cell_length_a 28.939865
_cell_length_b 16.397398
_cell_length_c 18.389359
_cell_angle_alpha 29.359294
_cell_angle_beta 159.883044
_cell_angle_gamma 163.926346
_cell_volume 786.561039
_symmetry_space_group_name_H-M "P -1"
_symmetry_group_IT_number 2
_symmetry_cell_setting 'triclinic'
loop_
_space_group_symop_operation_xyz
x,y,z
-x,-y,-z
loop_
_atom_site_type_symbol
_atom_site_label
_atom_site_fract_x
_atom_site_fract_y
_atom_site_fract_z
Si Si1 0.332283 0.558494 0.910034
Si Si2 0.226644 0.045362 0.501135
Si Si3 0.157803 0.086109 0.601861
Si Si4 0.705782 0.405038 0.868138
Si Si5 0.705661 0.567308 0.606800
Si Si6 0.052641 0.668112 0.677037
Si Si7 0.288082 0.852690 0.527677
Si Si8 0.877790 0.689982 0.058202
O O1 0.349641 0.758973 0.742659
O O2 0.332574 0.546930 0.007063
O O3 0.570584 0.692895 0.138568
O O4 0.049910 0.201067 0.747967
O O5 0.413913 0.157273 0.632875
O O6 0.355810 0.336589 0.507095
O O7 0.168796 0.856907 0.626689
O O8 0.186492 0.244275 0.453852
O O9 0.025430 0.788095 0.600330
O O10 0.000000 0.000000 0.500000
O O11 0.849537 0.614880 0.845304
O O12 0.756528 0.265168 0.060314
O O13 0.804713 0.587352 0.946840
O O14 0.499830 0.215462 0.553276
O O15 0.799199 0.313157 0.550348
O O16 0.054734 0.717776 0.315961
O O17 0.000000 0.000000 0.000000
#
# Coordination Sequence:
#
# PCOD9095606 Si02
#       8
#     2   2   2   2   2   2   2   2
#     4  11  22  38  60  89 123 162 204 248 294 352
#     4  10  20  35  58  92 129 163 192 227 286 365
#     4  11  25  47  66  81 107 154 211 265 309 350
#     4  11  20  33  57  91 128 161 189 234 292 360
#     4  11  22  38  60  88 123 158 200 245 292 356
#     4   9  21  39  60  87 123 161 197 236 291 359
#     4  10  21  37  60  95 131 159 191 238 296 363
#     4  11  20  33  59  95 134 170 195 227 285 359
#
# _framework density 20.341714
#
# number of rings (size 3 to 8) (size 9 to 14) (size 15 to 20)
#    0.000    1.500    0.000    6.375    0.000    5.000 
#    0.000    8.750    0.000    0.000    0.000    0.000 
#    0.000    0.000    0.000    0.000    0.000    0.000 
#
# Total GULP energy -89211.474719 kJ/mol
# GULP energy per Si atom -5575.717170 kJ/mol
# Density = 2.029541 g / cm^3
# Si number density = 20.341714 Si / 1000 Ang^3
#
#
#
# Elastic Constant Matrix: (Units=GPa)
#
#
# Indices 1 2 3 4 5 6 
#
# 1 130.4405 61.5890 71.7057 -2.0362 6.4073 -7.8955
# 2 61.5890 124.2395 48.7631 -13.6854 3.0247 -30.0010
# 3 71.7057 48.7631 120.6223 -1.7725 -8.7238 6.6196
# 4 -2.0362 -13.6854 -1.7725 29.4117 -6.7265 -7.4523
# 5 6.4073 3.0247 -8.7238 -6.7265 32.1357 1.2099
# 6 -7.8955 -30.0010 6.6196 -7.4523 1.2099 27.6834
#
#
#
# Elastic Compliance Matrix: (Units=1/GPa)
#
#
# Indices 1 2 3 4 5 6 
#
# 1 0.013559 -0.003924 -0.006894 -0.002149 -0.004689 0.000890
# 2 -0.003924 0.022078 -0.008033 0.016685 -0.001086 0.029267
# 3 -0.006894 -0.008033 0.016898 -0.006010 0.006085 -0.016596
# 4 -0.002149 0.016685 -0.006010 0.050973 0.006679 0.032336
# 5 -0.004689 -0.001086 0.006085 0.006679 0.035345 -0.003716
# 6 0.000890 0.029267 -0.016596 0.032336 -0.003716 0.080929
#
#
# Mechanical properties :
#
#
# Convention : Reuss Voigt Hill
#
# Bulk Modulus (GPa) = 67.40413 82.15755 74.78084
# Shear Modulus (GPa) = 19.05279 30.72914 24.89097
#
# Velocity S-wave (km/s) = 3.06377 3.89092 3.50185
# Velocity P-wave (km/s) = 6.76191 7.78859 7.29334
#
# Compressibility (1/GPa) = 0.01483589
#
# Stress axis : x y z
#
# Youngs Moduli (GPa) = 73.75047 45.29299 59.17766
#
# Poissons Ratio (x) = 0.17771 0.40796
# Poissons Ratio (y) = 0.28937 0.47535
# Poissons Ratio (z) = 0.50843 0.36382
#
# Static dielectric constant tensor:
#      x y z
#    x 1.688030 -0.043870 -0.060930 
#    y -0.043870 1.827470 0.026970 
#    z -0.060930 0.026970 1.792790 
# 
# From -- ./inp_files/579884.got.cif
#   From: 2010.05.17/outbox.cif.g08.bks.cpg/sg2_290_cif.got.tgz:579884.got - 2010.06.03 11:33:40.
