data_PCOD9095441
_publ_section_title
;
Structure prediction by ZEFSAII (Michael W. Deem and Ramdas Pophale) SiO2 
 PCOD9095441
Probable space group: P -1
;
_chemical_formula_sum "Si O2"
_cell_formula_units_Z 16
_cell_length_a 9.742716
_cell_length_b 14.095723
_cell_length_c 7.733401
_cell_angle_alpha 77.498133
_cell_angle_beta 99.531124
_cell_angle_gamma 141.140136
_cell_volume 650.530949
_symmetry_space_group_name_H-M "P -1"
_symmetry_group_IT_number 2
_symmetry_cell_setting 'triclinic'
loop_
_space_group_symop_operation_xyz
x,y,z
-x,-y,-z
loop_
_atom_site_type_symbol
_atom_site_label
_atom_site_fract_x
_atom_site_fract_y
_atom_site_fract_z
Si Si1 0.475747 0.329946 0.063752
Si Si2 0.159924 0.675542 0.506594
Si Si3 0.080871 0.351556 0.014597
Si Si4 0.318536 0.753387 0.879311
Si Si5 0.779593 0.592768 0.605322
Si Si6 0.346524 0.288111 0.683217
Si Si7 0.920565 0.984274 0.793521
Si Si8 0.733255 0.091487 0.793626
O O1 0.560795 0.275850 0.011180
O O2 0.284427 0.197840 0.207474
O O3 0.368158 0.325017 0.878218
O O4 0.704953 0.498991 0.105715
O O5 0.303144 0.723671 0.682281
O O6 0.272079 0.802449 0.332714
O O7 0.000000 0.500000 0.500000
O O8 0.004070 0.673790 0.552991
O O9 0.916765 0.349232 0.047244
O O10 0.184032 0.362706 0.204317
O O11 0.915855 0.196436 0.938260
O O12 0.487992 0.932681 0.860524
O O13 0.596252 0.409008 0.627651
O O14 0.717703 0.650521 0.456797
O O15 0.149708 0.106252 0.690520
O O16 0.820244 0.039922 0.734480
O O17 0.000000 0.000000 0.000000
#
# Coordination Sequence:
#
# PCOD9095441 Si02
#       8
#     2   2   2   2   2   2   2   2
#     4   9  18  32  57  86 113 150 196 243 290 345
#     4  11  22  37  60  91 122 153 196 244 292 358
#     4  10  20  35  57  89 117 156 198 242 291 357
#     4  10  21  37  57  85 120 158 195 239 301 349
#     4   9  19  35  59  87 119 157 195 240 300 343
#     4   9  16  34  60  81 113 157 199 235 294 347
#     4   9  18  34  58  83 110 155 195 241 292 344
#     4  11  21  36  59  84 119 156 199 243 295 349
#
# _framework density 24.595296000000001
#
# number of rings (size 3 to 8) (size 9 to 14) (size 15 to 20)
#    0.000    2.250    1.250    1.875    0.000    2.000 
#    0.000    6.875   13.750    6.750    0.000    0.000 
#    0.000    0.000    0.000    0.000    0.000    0.000 
#
# Total GULP energy -89206.190480 kJ/mol
# GULP energy per Si atom -5575.386905 kJ/mol
# Density = 2.453932 g / cm^3
# Si number density = 24.595296 Si / 1000 Ang^3
#
#
#
# Elastic Constant Matrix: (Units=GPa)
#
#
# Indices 1 2 3 4 5 6 
#
# 1 37.6387 25.3012 14.9529 -7.7544 15.1451 2.5749
# 2 25.3012 195.3580 48.0597 -10.4537 -1.9564 28.4951
# 3 14.9529 48.0597 73.1876 -6.9260 26.9057 -1.9452
# 4 -7.7544 -10.4537 -6.9260 35.7603 -1.9359 -0.2849
# 5 15.1451 -1.9564 26.9057 -1.9359 22.3361 -5.3097
# 6 2.5749 28.4951 -1.9452 -0.2849 -5.3097 48.3271
#
#
#
# Elastic Compliance Matrix: (Units=1/GPa)
#
#
# Indices 1 2 3 4 5 6 
#
# 1 0.052514 -0.011518 0.019634 0.008564 -0.059942 -0.001752
# 2 -0.011518 0.010771 -0.013937 -0.000744 0.024622 -0.003597
# 3 0.019634 -0.013937 0.043729 0.005073 -0.066372 0.001669
# 4 0.008564 -0.000744 0.005073 0.030064 -0.009540 -0.000684
# 5 -0.059942 0.024622 -0.066372 -0.009540 0.167736 0.004377
# 6 -0.001752 -0.003597 0.001669 -0.000684 0.004377 0.023451
#
#
# Mechanical properties :
#
#
# Convention : Reuss Voigt Hill
#
# Bulk Modulus (GPa) = 10.48526 53.64577 32.06551
# Shear Modulus (GPa) = 13.45183 35.80938 24.63060
#
# Velocity S-wave (km/s) = 2.34118 3.81982 3.16798
# Velocity P-wave (km/s) = 3.40302 6.42756 5.14267
#
# Compressibility (1/GPa) = 0.09537199
#
# Stress axis : x y z
#
# Youngs Moduli (GPa) = 19.04240 92.84494 22.86825
#
# Poissons Ratio (x) = 1.06938 -0.44900
# Poissons Ratio (y) = 0.21933 0.31872
# Poissons Ratio (z) = -0.37388 1.29400
#
# Static dielectric constant tensor:
#      x y z
#    x 1.971950 0.004300 0.012290 
#    y 0.004300 2.003680 -0.026840 
#    z 0.012290 -0.026840 2.076750 
# 
# From -- ./inp_files/218655.got.cif
#   From: 2010.05.17/outbox.cif.g08.bks.cpg/sg2_110_cif.got.tgz:218655.got - 2010.06.03 11:33:40.
