data_PCOD9095272
_publ_section_title
;
Structure prediction by ZEFSAII (Michael W. Deem and Ramdas Pophale) SiO2 
 PCOD9095272
Probable space group: P -1
;
_chemical_formula_sum "Si O2"
_cell_formula_units_Z 16
_cell_length_a 14.854666
_cell_length_b 13.524711
_cell_length_c 8.761351
_cell_angle_alpha 53.366983
_cell_angle_beta 28.213386
_cell_angle_gamma 60.576137
_cell_volume 665.003643
_symmetry_space_group_name_H-M "P -1"
_symmetry_group_IT_number 2
_symmetry_cell_setting 'triclinic'
loop_
_space_group_symop_operation_xyz
x,y,z
-x,-y,-z
loop_
_atom_site_type_symbol
_atom_site_label
_atom_site_fract_x
_atom_site_fract_y
_atom_site_fract_z
Si Si1 0.384305 0.445171 0.578104
Si Si2 0.808425 0.879271 0.051752
Si Si3 0.554330 0.215133 0.515842
Si Si4 0.332486 0.182940 0.183588
Si Si5 0.716692 0.405029 0.700031
Si Si6 0.719604 0.654953 0.610008
Si Si7 0.795313 0.027361 0.220225
Si Si8 0.962807 0.770695 0.649000
O O1 0.500000 0.500000 0.500000
O O2 0.540557 0.357143 0.363616
O O3 0.308464 0.540361 0.484199
O O4 0.200333 0.346347 0.973934
O O5 0.616654 0.858092 0.257079
O O6 0.820612 0.766666 0.257789
O O7 0.788016 0.996958 0.080155
O O8 0.972766 0.857595 0.703557
O O9 0.744494 0.160187 0.229016
O O10 0.500773 0.199453 0.790767
O O11 0.296128 0.301982 0.231619
O O12 0.350287 0.072005 0.377818
O O13 0.138891 0.158451 0.397276
O O14 0.793231 0.523388 0.579288
O O15 0.848180 0.293555 0.608644
O O16 0.499710 0.359226 0.104988
O O17 0.000000 0.000000 0.000000
#
# Coordination Sequence:
#
# PCOD9095272 Si02
#       8
#     2   2   2   2   2   2   2   2
#     4  10  20  36  58  87 118 151 197 228 281 349
#     4   9  20  40  59  82 114 153 191 235 292 344
#     4  10  20  40  60  80 110 160 192 225 288 353
#     4   9  21  41  56  81 116 154 191 233 294 344
#     4  11  20  34  58  88 120 154 197 230 284 340
#     4  10  20  35  56  83 121 153 191 235 282 348
#     4  11  23  38  60  88 113 140 194 253 291 329
#     4  10  21  38  60  86 117 155 193 235 285 346
#
# _framework density 24.060016999999998
#
# number of rings (size 3 to 8) (size 9 to 14) (size 15 to 20)
#    0.000    2.250    2.500    2.625    0.000    3.500 
#    2.250    2.500    0.000    0.000    0.000    0.000 
#    0.000    0.000    0.000    0.000    0.000    0.000 
#
# Total GULP energy -89365.107275 kJ/mol
# GULP energy per Si atom -5585.319205 kJ/mol
# Density = 2.400526 g / cm^3
# Si number density = 24.060017 Si / 1000 Ang^3
#
#
#
# Elastic Constant Matrix: (Units=GPa)
#
#
# Indices 1 2 3 4 5 6 
#
# 1 105.0126 31.9562 20.5769 15.0565 38.2460 32.5099
# 2 31.9562 101.3886 28.0764 39.2364 11.0942 6.0911
# 3 20.5769 28.0764 41.1864 13.9539 20.4141 2.4445
# 4 15.0565 39.2364 13.9539 50.9227 -1.7855 1.9579
# 5 38.2460 11.0942 20.4141 -1.7855 34.2852 9.8539
# 6 32.5099 6.0911 2.4445 1.9579 9.8539 38.3867
#
#
#
# Elastic Compliance Matrix: (Units=1/GPa)
#
#
# Indices 1 2 3 4 5 6 
#
# 1 0.023439 -0.002854 0.005837 -0.006722 -0.025334 -0.012923
# 2 -0.002854 0.016326 -0.007220 -0.009716 0.001586 0.000375
# 3 0.005837 -0.007220 0.045585 -0.009874 -0.032444 0.002132
# 4 -0.006722 -0.009716 -0.009874 0.032374 0.017730 0.001661
# 5 -0.025334 0.001586 -0.032444 0.017730 0.076361 0.002764
# 6 -0.012923 0.000375 0.002132 0.001661 0.002764 0.036006
#
#
# Mechanical properties :
#
#
# Convention : Reuss Voigt Hill
#
# Bulk Modulus (GPa) = 13.00812 45.42295 29.21553
# Shear Modulus (GPa) = 18.92569 35.85079 27.38824
#
# Velocity S-wave (km/s) = 2.80769 3.86431 3.37757
# Velocity P-wave (km/s) = 3.99112 6.23142 5.23257
#
# Compressibility (1/GPa) = 0.07687508
#
# Stress axis : x y z
#
# Youngs Moduli (GPa) = 42.66425 61.25308 21.93701
#
# Poissons Ratio (x) = 0.17482 -0.12804
# Poissons Ratio (y) = 0.12176 0.15839
# Poissons Ratio (z) = -0.24902 0.44225
#
# Static dielectric constant tensor:
#      x y z
#    x 1.923810 0.036640 0.055930 
#    y 0.036640 1.994730 -0.047790 
#    z 0.055930 -0.047790 1.990220 
# 
# From -- ./inp_files/217656.got.cif
#   From: 2010.05.17/outbox.cif.g08.bks.cpg/sg2_109_cif.got.tgz:217656.got - 2010.06.03 11:33:40.
