data_PCOD9095051
_publ_section_title
;
Structure prediction by ZEFSAII (Michael W. Deem and Ramdas Pophale) SiO2 
 PCOD9095051
Probable space group: P -1
;
_chemical_formula_sum "Si O2"
_cell_formula_units_Z 16
_cell_length_a 5.229597
_cell_length_b 12.287516
_cell_length_c 15.656663
_cell_angle_alpha 96.168081
_cell_angle_beta 82.641289
_cell_angle_gamma 65.222195
_cell_volume 891.313589
_symmetry_space_group_name_H-M "P -1"
_symmetry_group_IT_number 2
_symmetry_cell_setting 'triclinic'
loop_
_space_group_symop_operation_xyz
x,y,z
-x,-y,-z
loop_
_atom_site_type_symbol
_atom_site_label
_atom_site_fract_x
_atom_site_fract_y
_atom_site_fract_z
Si Si1 0.338929 0.414169 0.490026
Si Si2 0.721332 0.312230 0.939668
Si Si3 0.201544 0.420866 0.675966
Si Si4 0.466779 0.413637 0.304985
Si Si5 0.004600 0.972574 0.099880
Si Si6 0.377992 0.336446 0.121220
Si Si7 0.597660 0.923345 0.900622
Si Si8 0.838830 0.593877 0.137193
O O1 0.500000 0.500000 0.500000
O O2 0.356632 0.353042 0.576533
O O3 0.460279 0.348196 0.389118
O O4 0.000000 0.500000 0.500000
O O5 0.815948 0.170045 0.905697
O O6 0.442370 0.390331 0.900652
O O7 0.987175 0.342195 0.912253
O O8 0.609669 0.335109 0.042954
O O9 0.309208 0.527344 0.693557
O O10 0.256920 0.354381 0.758810
O O11 0.858791 0.478130 0.680502
O O12 0.494178 0.339989 0.211174
O O13 0.142805 0.053178 0.142024
O O14 0.677617 0.017075 0.142614
O O15 0.000000 0.000000 0.000000
O O16 0.335095 0.215416 0.099264
O O17 0.079444 0.455144 0.127537
O O18 0.500000 0.000000 0.000000
#
# Coordination Sequence:
#
# PCOD9095051 Si02
#       8
#     2   2   2   2   2   2   2   2
#     4   8  14  27  48  66  90 127 161 196 238 287
#     4  12  23  36  51  69 105 137 173 202 238 301
#     4   9  17  33  46  65 102 131 161 200 231 296
#     4   9  18  29  47  73  94 128 166 195 249 293
#     4  10  20  37  54  67  86 128 178 217 246 272
#     4  11  22  35  52  72 109 135 162 212 246 297
#     4  10  20  35  54  68  89 130 173 208 256 274
#     4  11  24  34  47  77 103 138 170 190 249 305
#
# _framework density 17.951032000000001
#
# number of rings (size 3 to 8) (size 9 to 14) (size 15 to 20)
#    0.000    2.000    2.500    3.000    1.750    5.000 
#    0.000    0.000    0.000    0.000    0.000    0.000 
#    0.000    6.000    0.000    0.000    0.000    0.000 
#
# Total GULP energy -89156.621177 kJ/mol
# GULP energy per Si atom -5572.288824 kJ/mol
# Density = 1.791017 g / cm^3
# Si number density = 17.951032 Si / 1000 Ang^3
#
#
#
# Elastic Constant Matrix: (Units=GPa)
#
#
# Indices 1 2 3 4 5 6 
#
# 1 103.8405 6.1233 0.4241 -3.2427 3.2726 8.3034
# 2 6.1233 67.7191 8.2975 2.2863 4.5038 2.6684
# 3 0.4241 8.2975 110.5378 -13.5818 -8.9610 4.1229
# 4 -3.2427 2.2863 -13.5818 1.7557 7.3552 0.8703
# 5 3.2726 4.5038 -8.9610 7.3552 20.3263 -0.9403
# 6 8.3034 2.6684 4.1229 0.8703 -0.9403 15.1242
#
#
#
# Elastic Compliance Matrix: (Units=1/GPa)
#
#
# Indices 1 2 3 4 5 6 
#
# 1 0.008989 -0.000050 -0.002218 -0.022258 0.005515 -0.002698
# 2 -0.000050 0.015098 -0.000337 0.010241 -0.007358 -0.003591
# 3 -0.002218 -0.000337 0.005132 -0.043283 0.018519 0.003520
# 4 -0.022258 0.010241 -0.043283 -0.420340 0.136875 0.054910
# 5 0.005515 -0.007358 0.018519 0.136875 0.007920 -0.014162
# 6 -0.002698 -0.003591 0.003520 0.054910 -0.014162 0.063234
#
#
# Mechanical properties :
#
#
# Convention : Reuss Voigt Hill
#
# Bulk Modulus (GPa) = 41.65160 34.64300 38.14730
# Shear Modulus (GPa) = -16.29975 25.25806 4.47916
#
# Velocity S-wave (km/s) = -3.01659 3.75514 1.58134
# Velocity P-wave (km/s) = 3.33469 6.17592 4.96297
#
# Compressibility (1/GPa) = 0.02400868
#
# Stress axis : x y z
#
# Youngs Moduli (GPa) = 111.24681 66.23454 194.84079
#
# Poissons Ratio (x) = 0.00332 0.43212
# Poissons Ratio (y) = 0.00557 0.06574
# Poissons Ratio (z) = 0.24672 0.02235
#
# Static dielectric constant tensor:
#      x y z
#    x 1.700350 0.000480 0.012110 
#    y 0.000480 1.601060 -0.011610 
#    z 0.012110 -0.011610 1.671530 
# 
# From -- ./inp_files/482213.got.cif
#   From: 2010.05.17/outbox.cif.g08.bks.cpg/sg2_242_cif.got.tgz:482213.got - 2010.06.03 11:33:40.
