data_PCOD9095851
_publ_section_title
;
Structure prediction by ZEFSAII (Michael W. Deem and Ramdas Pophale) SiO2 
 PCOD9095851
Probable space group: P -1
;
_chemical_formula_sum "Si O2"
_cell_formula_units_Z 14
_cell_length_a 10.771612
_cell_length_b 10.934291
_cell_length_c 11.619074
_cell_angle_alpha 141.668941
_cell_angle_beta 58.522400
_cell_angle_gamma 115.940205
_cell_volume 722.845817
_symmetry_space_group_name_H-M "P -1"
_symmetry_group_IT_number 2
_symmetry_cell_setting 'triclinic'
loop_
_space_group_symop_operation_xyz
x,y,z
-x,-y,-z
loop_
_atom_site_type_symbol
_atom_site_label
_atom_site_fract_x
_atom_site_fract_y
_atom_site_fract_z
Si Si1 0.205033 0.441431 0.425409
Si Si2 0.211023 0.648052 0.047788
Si Si3 0.473342 0.633466 0.761957
Si Si4 0.674966 0.745918 0.567094
Si Si5 0.010649 0.237633 0.171136
Si Si6 0.066071 0.245783 0.885267
Si Si7 0.849290 0.037156 0.534842
O O1 0.378753 0.459954 0.334266
O O2 0.196242 0.302198 0.441367
O O3 0.125655 0.328511 0.275371
O O4 0.133979 0.646805 0.641143
O O5 0.092603 0.732547 0.079606
O O6 0.186190 0.741760 0.254160
O O7 0.370120 0.704725 0.963788
O O8 0.171344 0.416429 0.903807
O O9 0.538503 0.787122 0.747693
O O10 0.375218 0.462482 0.619901
O O11 0.727845 0.902220 0.562900
O O12 0.054687 0.283975 0.052992
O O13 0.000000 0.000000 0.000000
O O14 0.127828 0.039309 0.661290
O O15 0.000000 0.000000 0.500000
#
# Coordination Sequence:
#
# PCOD9095851 Si02
#       7
#     2   2   2   2   2   2   2
#     4   9  22  40  58  83 118 149 194 244 282 341
#     4  10  20  35  60  90 113 155 181 247 301 336
#     4   9  18  36  62  85 121 151 186 244 302 336
#     4   9  18  36  60  89 121 147 185 246 299 334
#     4  11  24  39  61  83 113 162 199 233 281 351
#     4  10  22  36  56  87 123 145 197 236 292 341
#     4  10  21  32  56  90 120 147 188 237 288 349
#
# _framework density 19.367892999999999
#
# number of rings (size 3 to 8) (size 9 to 14) (size 15 to 20)
#    0.857    1.429    1.429    0.857    8.000    1.714 
#    2.571    0.714    0.000    1.714    0.000    0.000 
#    0.000    0.000    0.000    0.000    0.000    0.000 
#
# Total GULP energy -77936.176910 kJ/mol
# GULP energy per Si atom -5566.869779 kJ/mol
# Density = 1.932381 g / cm^3
# Si number density = 19.367893 Si / 1000 Ang^3
#
#
#
# Elastic Constant Matrix: (Units=GPa)
#
#
# Indices 1 2 3 4 5 6 
#
# 1 60.9655 25.3077 41.5162 -12.6100 13.0336 5.7311
# 2 25.3077 51.4878 20.5964 -9.1404 -9.4716 12.7656
# 3 41.5162 20.5964 145.2250 -13.9211 5.2715 5.5578
# 4 -12.6100 -9.1404 -13.9211 21.8718 3.5036 -3.8805
# 5 13.0336 -9.4716 5.2715 3.5036 21.8010 -9.6237
# 6 5.7311 12.7656 5.5578 -3.8805 -9.6237 22.0442
#
#
#
# Elastic Compliance Matrix: (Units=1/GPa)
#
#
# Indices 1 2 3 4 5 6 
#
# 1 0.041442 -0.019457 -0.005573 0.016384 -0.040139 -0.012741
# 2 -0.019457 0.034419 -0.000237 -0.001743 0.025082 -0.004170
# 3 -0.005573 -0.000237 0.008677 0.002099 0.000855 0.000141
# 4 0.016384 -0.001743 0.002099 0.058743 -0.021807 -0.002959
# 5 -0.040139 0.025082 0.000855 -0.021807 0.099675 0.035370
# 6 -0.012741 -0.004170 0.000141 -0.002959 0.035370 0.065975
#
#
# Mechanical properties :
#
#
# Convention : Reuss Voigt Hill
#
# Bulk Modulus (GPa) = 29.40723 48.05764 38.73244
# Shear Modulus (GPa) = 13.48430 24.49394 18.98912
#
# Velocity S-wave (km/s) = 2.64146 3.56007 3.13460
# Velocity P-wave (km/s) = 4.95172 6.46264 5.75696
#
# Compressibility (1/GPa) = 0.03400524
#
# Stress axis : x y z
#
# Youngs Moduli (GPa) = 24.12993 29.05342 115.24279
#
# Poissons Ratio (x) = 0.56530 0.64221
# Poissons Ratio (y) = 0.46950 0.02732
# Poissons Ratio (z) = 0.13447 0.00689
#
# Static dielectric constant tensor:
#      x y z
#    x 1.663260 -0.003660 -0.013060 
#    y -0.003660 1.700770 -0.009600 
#    z -0.013060 -0.009600 1.745650 
# 
# From -- ./inp_files/422387.got.cif
#   From: 2010.05.17/outbox.cif.g08.bks.cpg/sg2_212_cif.got.tgz:422387.got - 2010.06.03 11:33:40.
