data_PCOD9095924
_publ_section_title
;
Structure prediction by ZEFSAII (Michael W. Deem and Ramdas Pophale) SiO2 
 PCOD9095924
Probable space group: P -1
;
_chemical_formula_sum "Si O2"
_cell_formula_units_Z 12
_cell_length_a 10.278464
_cell_length_b 7.862342
_cell_length_c 10.339428
_cell_angle_alpha 43.812777
_cell_angle_beta 55.449386
_cell_angle_gamma 64.431466
_cell_volume 476.068767
_symmetry_space_group_name_H-M "P -1"
_symmetry_group_IT_number 2
_symmetry_cell_setting 'triclinic'
loop_
_space_group_symop_operation_xyz
x,y,z
-x,-y,-z
loop_
_atom_site_type_symbol
_atom_site_label
_atom_site_fract_x
_atom_site_fract_y
_atom_site_fract_z
Si Si1 0.572579 0.454337 0.723059
Si Si2 0.279371 0.694093 0.657918
Si Si3 0.214436 0.161796 0.749607
Si Si4 0.993564 0.831082 0.895473
Si Si5 0.529972 0.842382 0.751065
Si Si6 0.742072 0.029797 0.737163
O O1 0.412488 0.479985 0.714266
O O2 0.697694 0.624395 0.488174
O O3 0.545912 0.592473 0.798335
O O4 0.646369 0.182689 0.816544
O O5 0.220681 0.777888 0.504039
O O6 0.379571 0.940742 0.497969
O O7 0.139635 0.660810 0.855817
O O8 0.080483 0.057492 0.789357
O O9 0.351130 0.948140 0.814443
O O10 0.126568 0.250024 0.882028
O O11 0.895533 0.914595 0.779828
O O12 0.630140 0.843960 0.827115
#
# Coordination Sequence:
#
# PCOD9095924 Si02
#       6
#     2   2   2   2   2   2
#     4  11  18  40  63  84 106 159 197 225 271 359
#     4   9  18  36  59  79 112 153 187 222 283 338
#     4  10  20  35  61  80 119 156 184 220 306 342
#     4  11  20  37  56  89 118 149 179 248 289 327
#     4   9  19  38  62  80 109 160 190 223 277 352
#     4  10  23  33  65  87 112 139 207 238 269 326
#
# _framework density 25.206444999999999
#
# number of rings (size 3 to 8) (size 9 to 14) (size 15 to 20)
#    1.000    1.000    3.333    2.000    0.000    1.333 
#    0.000    1.667    0.000    2.000    0.000    0.000 
#    0.000    0.000    0.000    0.000    0.000    0.000 
#
# Total GULP energy -67150.102363 kJ/mol
# GULP energy per Si atom -5595.841864 kJ/mol
# Density = 2.514907 g / cm^3
# Si number density = 25.206445 Si / 1000 Ang^3
#
#
#
# Elastic Constant Matrix: (Units=GPa)
#
#
# Indices 1 2 3 4 5 6 
#
# 1 154.4942 30.5456 39.1522 -5.4045 0.5443 8.5657
# 2 30.5456 108.5076 26.3646 19.1604 -6.8465 9.7002
# 3 39.1522 26.3646 139.3501 28.6095 -14.8987 3.0980
# 4 -5.4045 19.1604 28.6095 34.9343 -0.3831 -1.4517
# 5 0.5443 -6.8465 -14.8987 -0.3831 43.8559 8.4125
# 6 8.5657 9.7002 3.0980 -1.4517 8.4125 31.5879
#
#
#
# Elastic Compliance Matrix: (Units=1/GPa)
#
#
# Indices 1 2 3 4 5 6 
#
# 1 0.007887 -0.002413 -0.002887 0.004871 -0.001309 -0.000542
# 2 -0.002413 0.011599 0.000319 -0.007133 0.002649 -0.003972
# 3 -0.002887 0.000319 0.010228 -0.009029 0.003817 -0.001750
# 4 0.004871 -0.007133 -0.009029 0.040836 -0.004828 0.004917
# 5 -0.001309 0.002649 0.003817 -0.004828 0.026018 -0.007984
# 6 -0.000542 -0.003972 -0.001750 0.004917 -0.007984 0.035548
#
#
# Mechanical properties :
#
#
# Convention : Reuss Voigt Hill
#
# Bulk Modulus (GPa) = 50.62855 66.05298 58.34077
# Shear Modulus (GPa) = 33.63346 42.49491 38.06418
#
# Velocity S-wave (km/s) = 3.65680 4.11039 3.89021
# Velocity P-wave (km/s) = 6.16106 6.98490 6.58588
#
# Compressibility (1/GPa) = 0.01975170
#
# Stress axis : x y z
#
# Youngs Moduli (GPa) = 126.79790 86.21180 97.77457
#
# Poissons Ratio (x) = 0.20802 0.28230
# Poissons Ratio (y) = 0.30595 -0.03122
# Poissons Ratio (z) = 0.36610 -0.02752
#
# Static dielectric constant tensor:
#      x y z
#    x 1.951300 0.079550 0.007290 
#    y 0.079550 1.988300 -0.018890 
#    z 0.007290 -0.018890 2.084600 
# 
# From -- ./inp_files/153240.got.cif
#   From: 2010.05.17/outbox.cif.g08.bks.cpg/sg2_77_cif.got.tgz:153240.got - 2010.06.03 11:33:40.
