data_PCOD9095993
_publ_section_title
;
Structure prediction by ZEFSAII (Michael W. Deem and Ramdas Pophale) SiO2 
 PCOD9095993
Probable space group: P -1
;
_chemical_formula_sum "Si O2"
_cell_formula_units_Z 16
_cell_length_a 15.220901
_cell_length_b 24.072229
_cell_length_c 7.726880
_cell_angle_alpha 63.663262
_cell_angle_beta 106.533551
_cell_angle_gamma 160.614042
_cell_volume 752.031204
_symmetry_space_group_name_H-M "P -1"
_symmetry_group_IT_number 2
_symmetry_cell_setting 'triclinic'
loop_
_space_group_symop_operation_xyz
x,y,z
-x,-y,-z
loop_
_atom_site_type_symbol
_atom_site_label
_atom_site_fract_x
_atom_site_fract_y
_atom_site_fract_z
Si Si1 0.289388 0.376542 0.888428
Si Si2 0.158120 0.847267 0.487935
Si Si3 0.555860 0.316984 0.762008
Si Si4 0.727586 0.995943 0.956084
Si Si5 0.456682 0.583436 0.113470
Si Si6 0.773900 0.248054 0.462870
Si Si7 0.710240 0.194243 0.880974
Si Si8 0.642380 0.439677 0.283809
O O1 0.374378 0.372403 0.824813
O O2 0.336893 0.478949 0.729044
O O3 0.936087 0.141988 0.037657
O O4 0.500000 0.500000 0.000000
O O5 0.087572 0.856568 0.303106
O O6 0.201039 0.810996 0.454731
O O7 0.891844 0.659960 0.727815
O O8 0.470704 0.066419 0.445641
O O9 0.474569 0.321796 0.833537
O O10 0.543843 0.331152 0.534389
O O11 0.897145 0.519170 0.726246
O O12 0.358193 0.129805 0.936331
O O13 0.438734 0.853890 0.005366
O O14 0.522441 0.654438 0.861450
O O15 0.734929 0.244056 0.642431
O O16 0.035663 0.378137 0.847801
O O17 0.500000 0.000000 0.000000
#
# Coordination Sequence:
#
# PCOD9095993 Si02
#       8
#     2   2   2   2   2   2   2   2
#     4  10  22  41  67  92 114 157 221 260 294 357
#     4  10  20  35  61  91 116 157 211 251 295 359
#     4  10  24  41  58  93 136 162 196 246 312 385
#     4  12  24  38  60  96 126 160 201 252 311 370
#     4  10  22  42  65  88 123 164 207 261 302 351
#     4   9  19  35  57  87 121 162 200 245 305 359
#     4  11  18  34  63  87 121 157 200 260 297 355
#     4  10  21  41  65  92 120 163 207 251 306 359
#
# _framework density 21.275715000000002
#
# number of rings (size 3 to 8) (size 9 to 14) (size 15 to 20)
#    0.000    1.750    2.500    2.250    5.250    5.000 
#    2.250    2.500    0.000    0.000    0.000    0.000 
#    0.000    0.000    0.000    0.000    0.000    0.000 
#
# Total GULP energy -89193.273261 kJ/mol
# GULP energy per Si atom -5574.579579 kJ/mol
# Density = 2.122729 g / cm^3
# Si number density = 21.275715 Si / 1000 Ang^3
#
#
#
# Elastic Constant Matrix: (Units=GPa)
#
#
# Indices 1 2 3 4 5 6 
#
# 1 77.9674 6.0099 29.0975 5.6966 6.4892 4.9108
# 2 6.0099 61.6269 22.0325 10.7892 20.1651 5.1556
# 3 29.0975 22.0325 65.3355 9.9496 11.7256 -8.6998
# 4 5.6966 10.7892 9.9496 18.2464 -5.1908 7.5205
# 5 6.4892 20.1651 11.7256 -5.1908 22.6427 0.1106
# 6 4.9108 5.1556 -8.6998 7.5205 0.1106 26.6256
#
#
#
# Elastic Compliance Matrix: (Units=1/GPa)
#
#
# Indices 1 2 3 4 5 6 
#
# 1 0.016486 0.003150 -0.008547 -0.000700 -0.003234 -0.006232
# 2 0.003150 0.034399 -0.000880 -0.032566 -0.038556 0.001829
# 3 -0.008547 -0.000880 0.028803 -0.025044 -0.017513 0.018305
# 4 -0.000700 -0.032566 -0.025044 0.123205 0.070597 -0.036841
# 5 -0.003234 -0.038556 -0.017513 0.070597 0.104770 -0.018036
# 6 -0.006232 0.001829 0.018305 -0.036841 -0.018036 0.054815
#
#
# Mechanical properties :
#
#
# Convention : Reuss Voigt Hill
#
# Bulk Modulus (GPa) = 14.89576 35.46773 25.18175
# Shear Modulus (GPa) = 12.58149 23.35562 17.96855
#
# Velocity S-wave (km/s) = 2.43442 3.31684 2.90928
# Velocity P-wave (km/s) = 3.86243 5.60136 4.81111
#
# Compressibility (1/GPa) = 0.06713318
#
# Stress axis : x y z
#
# Youngs Moduli (GPa) = 60.65871 29.07080 34.71841
#
# Poissons Ratio (x) = -0.09158 0.29674
# Poissons Ratio (y) = -0.19109 0.03057
# Poissons Ratio (z) = 0.51845 0.02559
#
# Static dielectric constant tensor:
#      x y z
#    x 1.768770 0.036240 -0.040520 
#    y 0.036240 1.838620 0.010460 
#    z -0.040520 0.010460 1.809720 
# 
# From -- ./inp_files/312541.got.cif
#   From: 2010.05.17/outbox.cif.g08.bks.cpg/sg2_157_cif.got.tgz:312541.got - 2010.06.03 11:33:40.
