data_PCOD9095753
_publ_section_title
;
Structure prediction by ZEFSAII (Michael W. Deem and Ramdas Pophale) SiO2 
 PCOD9095753
Probable space group: P -1
;
_chemical_formula_sum "Si O2"
_cell_formula_units_Z 16
_cell_length_a 10.848998
_cell_length_b 6.726938
_cell_length_c 22.834679
_cell_angle_alpha 115.799288
_cell_angle_beta 31.340806
_cell_angle_gamma 105.489157
_cell_volume 760.647856
_symmetry_space_group_name_H-M "P -1"
_symmetry_group_IT_number 2
_symmetry_cell_setting 'triclinic'
loop_
_space_group_symop_operation_xyz
x,y,z
-x,-y,-z
loop_
_atom_site_type_symbol
_atom_site_label
_atom_site_fract_x
_atom_site_fract_y
_atom_site_fract_z
Si Si1 0.414218 0.379288 0.163607
Si Si2 0.948827 0.403324 0.945220
Si Si3 0.788789 0.673073 0.501232
Si Si4 0.008669 0.825736 0.694870
Si Si5 0.924528 0.200640 0.103294
Si Si6 0.375807 0.297771 0.302922
Si Si7 0.168877 0.874652 0.306082
Si Si8 0.753000 0.045172 0.269880
O O1 0.260138 0.203670 0.181000
O O2 0.337920 0.403810 0.267128
O O3 0.324986 0.621412 0.199732
O O4 0.704305 0.310363 0.034356
O O5 0.910625 0.620863 0.947427
O O6 0.182730 0.221218 0.804620
O O7 0.000000 0.500000 0.000000
O O8 0.786992 0.614648 0.563367
O O9 0.522674 0.820906 0.611075
O O10 0.853206 0.431034 0.411188
O O11 0.974162 0.827110 0.426415
O O12 0.151702 0.912618 0.699768
O O13 0.970513 0.995740 0.676904
O O14 0.647180 0.307951 0.211559
O O15 0.910703 0.129959 0.166311
O O16 0.000000 0.000000 0.000000
O O17 0.340321 0.039725 0.278492
#
# Coordination Sequence:
#
# PCOD9095753 Si02
#       8
#     2   2   2   2   2   2   2   2
#     4  10  22  40  64  91 131 161 205 261 307 376
#     4  12  23  40  66  97 124 156 208 259 314 375
#     4  10  23  39  64  94 125 164 213 260 305 368
#     4  10  24  45  60  90 128 171 213 249 306 371
#     4  11  21  38  63  92 125 157 200 259 316 363
#     4  10  20  35  59  92 124 159 201 257 315 361
#     4  10  22  38  63  89 130 167 207 254 311 365
#     4  11  25  42  66  91 127 168 206 259 312 369
#
# _framework density 21.034701999999999
#
# number of rings (size 3 to 8) (size 9 to 14) (size 15 to 20)
#    0.000    1.500    2.500    1.500    1.750   11.500 
#    0.000    1.250    0.000    0.000    0.000    0.000 
#    0.000    0.000    0.000    0.000    0.000    0.000 
#
# Total GULP energy -89292.348132 kJ/mol
# GULP energy per Si atom -5580.771758 kJ/mol
# Density = 2.098683 g / cm^3
# Si number density = 21.034702 Si / 1000 Ang^3
#
#
#
# Elastic Constant Matrix: (Units=GPa)
#
#
# Indices 1 2 3 4 5 6 
#
# 1 71.6799 19.3693 18.5282 6.2475 -12.0526 -0.6465
# 2 19.3693 103.2471 33.5346 -3.6750 -2.1189 -12.9355
# 3 18.5282 33.5346 74.9153 0.1624 -22.0010 -5.0076
# 4 6.2475 -3.6750 0.1624 34.2329 2.8752 -0.0280
# 5 -12.0526 -2.1189 -22.0010 2.8752 28.7643 -0.9236
# 6 -0.6465 -12.9355 -5.0076 -0.0280 -0.9236 21.2161
#
#
#
# Elastic Compliance Matrix: (Units=1/GPa)
#
#
# Indices 1 2 3 4 5 6 
#
# 1 0.016362 -0.002912 -0.000990 -0.003818 0.006226 -0.001245
# 2 -0.002912 0.012986 -0.006159 0.002381 -0.005014 0.006160
# 3 -0.000990 -0.006159 0.021015 -0.001877 0.015453 0.001845
# 4 -0.003818 0.002381 -0.001877 0.030669 -0.005904 0.000676
# 5 0.006226 -0.005014 0.015453 -0.005904 0.049508 0.002927
# 6 -0.001245 0.006160 0.001845 0.000676 0.002927 0.051416
#
#
# Mechanical properties :
#
#
# Convention : Reuss Voigt Hill
#
# Bulk Modulus (GPa) = 33.06595 43.63403 38.34999
# Shear Modulus (GPa) = 23.56735 28.73669 26.15202
#
# Velocity S-wave (km/s) = 3.35087 3.70017 3.52984
# Velocity P-wave (km/s) = 5.54301 6.24851 5.90630
#
# Compressibility (1/GPa) = 0.03024259
#
# Stress axis : x y z
#
# Youngs Moduli (GPa) = 61.11699 77.00747 47.58399
#
# Poissons Ratio (x) = 0.22426 0.04709
# Poissons Ratio (y) = 0.17798 0.29305
# Poissons Ratio (z) = 0.06048 0.47426
#
# Static dielectric constant tensor:
#      x y z
#    x 1.665380 -0.115750 -0.030320 
#    y -0.115750 1.678650 -0.024660 
#    z -0.030320 -0.024660 1.778880 
# 
# From -- ./inp_files/437392.got.cif
#   From: 2010.05.17/outbox.cif.g08.bks.cpg/sg2_219_cif.got.tgz:437392.got - 2010.06.03 11:33:40.
