data_PCOD9095600
_publ_section_title
;
Structure prediction by ZEFSAII (Michael W. Deem and Ramdas Pophale) SiO2 
 PCOD9095600
Probable space group: P -1
;
_chemical_formula_sum "Si O2"
_cell_formula_units_Z 12
_cell_length_a 11.543377
_cell_length_b 5.279089
_cell_length_c 14.015290
_cell_angle_alpha 114.478214
_cell_angle_beta 139.717776
_cell_angle_gamma 55.900423
_cell_volume 457.117055
_symmetry_space_group_name_H-M "P -1"
_symmetry_group_IT_number 2
_symmetry_cell_setting 'triclinic'
loop_
_space_group_symop_operation_xyz
x,y,z
-x,-y,-z
loop_
_atom_site_type_symbol
_atom_site_label
_atom_site_fract_x
_atom_site_fract_y
_atom_site_fract_z
Si Si1 0.988384 0.775790 0.877077
Si Si2 0.628192 0.322177 0.144009
Si Si3 0.357370 0.299009 0.106790
Si Si4 0.216286 0.347665 0.561273
Si Si5 0.405061 0.617261 0.563139
Si Si6 0.972046 0.841103 0.174132
O O1 0.909816 0.986056 0.770340
O O2 0.905045 0.519641 0.792963
O O3 0.219294 0.547904 0.981729
O O4 0.000000 0.000000 0.000000
O O5 0.545381 0.135874 0.134122
O O6 0.840547 0.061512 0.207482
O O7 0.649396 0.575918 0.264980
O O8 0.500000 0.500000 0.000000
O O9 0.420123 0.426387 0.258045
O O10 0.203351 0.153645 0.007800
O O11 0.267269 0.481447 0.514477
O O12 0.000000 0.500000 0.500000
O O13 0.284325 0.985076 0.539612
O O14 0.500000 0.500000 0.500000
#
# Coordination Sequence:
#
# PCOD9095600 Si02
#       6
#     2   2   2   2   2   2
#     4  10  21  36  54  85 138 164 202 259 338 383
#     4  11  19  40  69  99 127 166 222 270 339 402
#     4   9  22  35  66  90 129 163 218 276 328 388
#     4  11  26  47  71 102 143 176 228 294 344 396
#     4  11  24  46  72  97 130 187 241 275 335 416
#     4  10  20  35  58  91 123 161 206 256 335 381
#
# _framework density 26.251480000000001
#
# number of rings (size 3 to 8) (size 9 to 14) (size 15 to 20)
#    1.000    0.667    1.667    3.000    2.333    4.000 
#    3.000    0.000    0.000    0.000    0.000    0.000 
#    0.000    0.000    0.000    0.000    0.000    0.000 
#
# Total GULP energy -66851.990315 kJ/mol
# GULP energy per Si atom -5570.999193 kJ/mol
# Density = 2.619173 g / cm^3
# Si number density = 26.251480 Si / 1000 Ang^3
#
#
#
# Elastic Constant Matrix: (Units=GPa)
#
#
# Indices 1 2 3 4 5 6 
#
# 1 202.1271 83.5597 42.7064 21.2835 -9.5804 19.1679
# 2 83.5597 186.4194 17.0964 47.7341 3.2321 23.4002
# 3 42.7064 17.0964 120.0515 -12.8776 -17.1455 12.5120
# 4 21.2835 47.7341 -12.8776 27.7040 -5.9476 4.3645
# 5 -9.5804 3.2321 -17.1455 -5.9476 38.0759 13.9568
# 6 19.1679 23.4002 12.5120 4.3645 13.9568 51.8651
#
#
#
# Elastic Compliance Matrix: (Units=1/GPa)
#
#
# Indices 1 2 3 4 5 6 
#
# 1 0.006621 -0.002216 -0.001952 -0.001758 0.001114 -0.001128
# 2 -0.002216 0.013525 -0.005095 -0.025763 -0.008135 0.000303
# 3 -0.001952 -0.005095 0.014031 0.020013 0.011246 -0.005076
# 4 -0.001758 -0.025763 0.020013 0.098838 0.029417 -0.008788
# 5 0.001114 -0.008135 0.011246 0.029417 0.041716 -0.013156
# 6 -0.001128 0.000303 -0.005076 -0.008788 -0.013156 0.025065
#
#
# Mechanical properties :
#
#
# Convention : Reuss Voigt Hill
#
# Bulk Modulus (GPa) = 63.88878 88.36923 76.12900
# Shear Modulus (GPa) = 22.36761 47.87803 35.12282
#
# Velocity S-wave (km/s) = 2.92216 4.27526 3.66175
# Velocity P-wave (km/s) = 5.98125 7.62273 6.85133
#
# Compressibility (1/GPa) = 0.01565220
#
# Stress axis : x y z
#
# Youngs Moduli (GPa) = 151.03882 73.93962 71.26839
#
# Poissons Ratio (x) = 0.16387 0.13908
# Poissons Ratio (y) = 0.33475 0.36308
# Poissons Ratio (z) = 0.29476 0.37669
#
# Static dielectric constant tensor:
#      x y z
#    x 2.154810 0.107830 -0.018670 
#    y 0.107830 2.167590 -0.038200 
#    z -0.018670 -0.038200 2.139970 
# 
# From -- ./inp_files/412760.got.cif
#   From: 2010.05.17/outbox.cif.g08.bks.cpg/sg2_207_cif.got.tgz:412760.got - 2010.06.03 11:33:40.
