data_PCOD9095927
_publ_section_title
;
Structure prediction by ZEFSAII (Michael W. Deem and Ramdas Pophale) SiO2 
 PCOD9095927
Probable space group: P -1
;
_chemical_formula_sum "Si O2"
_cell_formula_units_Z 14
_cell_length_a 26.025342
_cell_length_b 10.192620
_cell_length_c 8.936347
_cell_angle_alpha 132.430766
_cell_angle_beta 127.248676
_cell_angle_gamma 26.147375
_cell_volume 771.042045
_symmetry_space_group_name_H-M "P -1"
_symmetry_group_IT_number 2
_symmetry_cell_setting 'triclinic'
loop_
_space_group_symop_operation_xyz
x,y,z
-x,-y,-z
loop_
_atom_site_type_symbol
_atom_site_label
_atom_site_fract_x
_atom_site_fract_y
_atom_site_fract_z
Si Si1 0.226463 0.422695 0.892380
Si Si2 0.800039 0.537380 0.777931
Si Si3 0.215016 0.728358 0.878817
Si Si4 0.175809 0.217620 0.219393
Si Si5 0.602384 0.831380 0.444508
Si Si6 0.048170 0.788682 0.630496
Si Si7 0.606831 0.149599 0.488819
O O1 0.240771 0.591677 0.985495
O O2 0.099412 0.652389 0.783871
O O3 0.317868 0.102482 0.708990
O O4 0.237570 0.371139 0.046226
O O5 0.821179 0.681703 0.853163
O O6 0.700857 0.677798 0.611009
O O7 0.916905 0.152188 0.677972
O O8 0.330334 0.459492 0.771964
O O9 0.128553 0.770004 0.698951
O O10 0.157640 0.051510 0.034508
O O11 0.081762 0.539141 0.402283
O O12 0.299830 0.958314 0.326130
O O13 0.500000 0.000000 0.500000
O O14 0.564925 0.080438 0.463392
O O15 0.500000 0.500000 0.500000
#
# Coordination Sequence:
#
# PCOD9095927 Si02
#       7
#     2   2   2   2   2   2   2
#     4   8  19  36  56  84 113 144 185 227 283 330
#     4  11  19  36  61  82 113 153 178 236 284 318
#     4   9  20  39  56  83 114 147 185 225 279 338
#     4  10  20  35  61  84 109 148 192 224 283 328
#     4  10  22  38  54  83 117 142 190 238 269 327
#     4   9  19  39  60  79 121 144 184 227 282 338
#     4   9  19  38  58  75 115 154 184 231 276 333
#
# _framework density 18.157245
#
# number of rings (size 3 to 8) (size 9 to 14) (size 15 to 20)
#    0.857    1.714    2.857    0.857    0.000    4.000 
#    0.000    7.857    0.000    0.000    0.000    0.000 
#    0.000    0.000    0.000    0.000    0.000    0.000 
#
# Total GULP energy -77961.138326 kJ/mol
# GULP energy per Si atom -5568.652738 kJ/mol
# Density = 1.811592 g / cm^3
# Si number density = 18.157245 Si / 1000 Ang^3
#
#
#
# Elastic Constant Matrix: (Units=GPa)
#
#
# Indices 1 2 3 4 5 6 
#
# 1 45.8156 36.5665 43.7265 3.9063 -16.5613 9.5164
# 2 36.5665 124.0723 33.2599 10.1858 -10.0031 19.5476
# 3 43.7265 33.2599 83.8871 4.2233 -9.2485 27.2859
# 4 3.9063 10.1858 4.2233 23.6316 15.4414 -7.1987
# 5 -16.5613 -10.0031 -9.2485 15.4414 32.6222 -3.0004
# 6 9.5164 19.5476 27.2859 -7.1987 -3.0004 27.8611
#
#
#
# Elastic Compliance Matrix: (Units=1/GPa)
#
#
# Indices 1 2 3 4 5 6 
#
# 1 0.075239 -0.010338 -0.034371 -0.021781 0.036839 0.013555
# 2 -0.010338 0.013271 0.006121 -0.013075 0.005405 -0.014570
# 3 -0.034371 0.006121 0.039283 -0.013854 -0.001071 -0.034721
# 4 -0.021781 -0.013075 -0.013854 0.114761 -0.068491 0.052457
# 5 0.036839 0.005405 -0.001071 -0.068491 0.080893 -0.024311
# 6 0.013555 -0.014570 -0.034721 0.052457 -0.024311 0.086425
#
#
# Mechanical properties :
#
#
# Convention : Reuss Voigt Hill
#
# Bulk Modulus (GPa) = 19.75655 53.43117 36.59386
# Shear Modulus (GPa) = 9.92219 26.17112 18.04665
#
# Velocity S-wave (km/s) = 2.34018 3.80064 3.15605
# Velocity P-wave (km/s) = 4.26689 6.98217 5.78606
#
# Compressibility (1/GPa) = 0.05061613
#
# Stress axis : x y z
#
# Youngs Moduli (GPa) = 13.29090 75.35465 25.45615
#
# Poissons Ratio (x) = 0.77903 0.87495
# Poissons Ratio (y) = 0.13740 -0.15580
# Poissons Ratio (z) = 0.45682 -0.46121
#
# Static dielectric constant tensor:
#      x y z
#    x 1.638980 -0.006100 0.003360 
#    y -0.006100 1.648070 -0.017610 
#    z 0.003360 -0.017610 1.619560 
# 
# From -- ./inp_files/351504.got.cif
#   From: 2010.05.17/outbox.cif.g08.bks.cpg/sg2_176_cif.got.tgz:351504.got - 2010.06.03 11:33:40.
