data_PCOD9095509
_publ_section_title
;
Structure prediction by ZEFSAII (Michael W. Deem and Ramdas Pophale) SiO2 
 PCOD9095509
Probable space group: P -1
;
_chemical_formula_sum "Si O2"
_cell_formula_units_Z 16
_cell_length_a 13.833994
_cell_length_b 8.993031
_cell_length_c 12.165727
_cell_angle_alpha 76.504588
_cell_angle_beta 56.125183
_cell_angle_gamma 33.604397
_cell_volume 601.335987
_symmetry_space_group_name_H-M "P -1"
_symmetry_group_IT_number 2
_symmetry_cell_setting 'triclinic'
loop_
_space_group_symop_operation_xyz
x,y,z
-x,-y,-z
loop_
_atom_site_type_symbol
_atom_site_label
_atom_site_fract_x
_atom_site_fract_y
_atom_site_fract_z
Si Si1 0.046816 0.161144 0.642955
Si Si2 0.746094 0.539441 0.440929
Si Si3 0.772059 0.167848 0.768933
Si Si4 0.664942 0.789624 0.663658
Si Si5 0.520772 0.485112 0.648097
Si Si6 0.289243 0.456072 0.787092
Si Si7 0.600379 0.083657 0.010118
Si Si8 0.138642 0.509491 0.091016
O O1 0.914872 0.451380 0.614037
O O2 0.870261 0.217359 0.738280
O O3 0.061315 0.206051 0.749500
O O4 0.282289 0.830154 0.495515
O O5 0.684218 0.742901 0.529622
O O6 0.562611 0.611168 0.565727
O O7 0.757196 0.555227 0.301939
O O8 0.002475 0.174955 0.370450
O O9 0.679580 0.165100 0.924996
O O10 0.585133 0.400898 0.750210
O O11 0.545186 0.087245 0.718995
O O12 0.483477 0.877743 0.823638
O O13 0.297259 0.630142 0.747120
O O14 0.116373 0.597555 0.967309
O O15 0.381206 0.298134 0.029528
O O16 0.811208 0.727886 0.903296
#
# Coordination Sequence:
#
# PCOD9095509 Si02
#       8
#     2   2   2   2   2   2   2   2
#     4  10  20  35  58  84 113 137 187 237 266 313
#     4  11  22  40  55  82 116 147 179 229 273 329
#     4  11  20  37  59  84 108 145 189 226 273 317
#     4  10  20  37  57  84 113 140 184 232 271 322
#     4  11  21  38  57  84 109 145 191 225 268 325
#     4  11  23  37  58  81 115 150 178 220 285 330
#     4   9  19  34  57  83 109 143 186 227 269 321
#     4   9  19  36  53  83 116 139 180 231 273 321
#
# _framework density 26.607422
#
# number of rings (size 3 to 8) (size 9 to 14) (size 15 to 20)
#    0.000    1.750    3.750    2.250    0.000    4.500 
#    0.000    6.250    0.000    0.000    0.000    0.000 
#    0.000    0.000    0.000    0.000    0.000    0.000 
#
# Total GULP energy -89639.492492 kJ/mol
# GULP energy per Si atom -5602.468281 kJ/mol
# Density = 2.654686 g / cm^3
# Si number density = 26.607422 Si / 1000 Ang^3
#
#
#
# Elastic Constant Matrix: (Units=GPa)
#
#
# Indices 1 2 3 4 5 6 
#
# 1 62.6436 15.9712 48.3041 -13.4704 -2.0056 7.2856
# 2 15.9712 54.7897 11.6670 -0.0530 -4.9852 16.1771
# 3 48.3041 11.6670 119.6815 -30.6969 32.4128 10.6638
# 4 -13.4704 -0.0530 -30.6969 46.4801 6.7411 2.9710
# 5 -2.0056 -4.9852 32.4128 6.7411 55.2036 -7.5522
# 6 7.2856 16.1771 10.6638 2.9710 -7.5522 39.1589
#
#
#
# Elastic Compliance Matrix: (Units=1/GPa)
#
#
# Indices 1 2 3 4 5 6 
#
# 1 0.027608 -0.004975 -0.014358 -0.003091 0.009764 0.002946
# 2 -0.004975 0.022114 0.000122 -0.000933 0.000761 -0.008025
# 3 -0.014358 0.000122 0.022969 0.013950 -0.016785 -0.007929
# 4 -0.003091 -0.000933 0.013950 0.032278 -0.013406 -0.007872
# 5 0.009764 0.000761 -0.016785 -0.013406 0.031330 0.009499
# 6 0.002946 -0.008025 -0.007929 -0.007872 0.009499 0.032893
#
#
# Mechanical properties :
#
#
# Convention : Reuss Voigt Hill
#
# Bulk Modulus (GPa) = 29.18088 43.22216 36.20152
# Shear Modulus (GPa) = 22.82739 38.91338 30.87038
#
# Velocity S-wave (km/s) = 2.93223 3.82841 3.40989
# Velocity P-wave (km/s) = 4.73867 5.98515 5.39801
#
# Compressibility (1/GPa) = 0.03426902
#
# Stress axis : x y z
#
# Youngs Moduli (GPa) = 36.22153 45.22073 43.53774
#
# Poissons Ratio (x) = 0.22497 0.62509
# Poissons Ratio (y) = 0.18020 -0.00530
# Poissons Ratio (z) = 0.52005 -0.00551
#
# Static dielectric constant tensor:
#      x y z
#    x 2.038500 -0.083780 -0.031540 
#    y -0.083780 2.148250 0.008030 
#    z -0.031540 0.008030 2.066550 
# 
# From -- ./inp_files/177781.got.cif
#   From: 2010.05.17/outbox.cif.g08.bks.cpg/sg2_89_cif.got.tgz:177781.got - 2010.06.03 11:33:40.
