data_PCOD9095458
_publ_section_title
;
Structure prediction by ZEFSAII (Michael W. Deem and Ramdas Pophale) SiO2 
 PCOD9095458
Probable space group: P -1
;
_chemical_formula_sum "Si O2"
_cell_formula_units_Z 14
_cell_length_a 5.328689
_cell_length_b 12.043764
_cell_length_c 11.385688
_cell_angle_alpha 95.728945
_cell_angle_beta 100.744310
_cell_angle_gamma 114.624997
_cell_volume 639.586696
_symmetry_space_group_name_H-M "P -1"
_symmetry_group_IT_number 2
_symmetry_cell_setting 'triclinic'
loop_
_space_group_symop_operation_xyz
x,y,z
-x,-y,-z
loop_
_atom_site_type_symbol
_atom_site_label
_atom_site_fract_x
_atom_site_fract_y
_atom_site_fract_z
Si Si1 0.764386 0.580473 0.616588
Si Si2 0.010719 0.077921 0.687860
Si Si3 0.137759 0.640473 0.369297
Si Si4 0.420719 0.480616 0.798776
Si Si5 0.340401 0.804759 0.186699
Si Si6 0.292198 0.613264 0.999004
Si Si7 0.754617 0.811335 0.535629
O O1 0.500000 0.500000 0.500000
O O2 0.939066 0.500662 0.617104
O O3 0.672307 0.562170 0.742102
O O4 0.866426 0.719357 0.595297
O O5 0.323349 0.107270 0.766422
O O6 0.080912 0.138017 0.568625
O O7 0.843157 0.131123 0.764413
O O8 0.823248 0.931678 0.633333
O O9 0.266049 0.686329 0.255116
O O10 0.409303 0.734937 0.478018
O O11 0.818053 0.621476 0.317160
O O12 0.472576 0.402653 0.899929
O O13 0.340999 0.579835 0.868684
O O14 0.278551 0.740464 0.046668
O O15 0.000000 0.500000 0.000000
#
# Coordination Sequence:
#
# PCOD9095458 Si02
#       7
#     2   2   2   2   2   2   2
#     4  10  21  37  56  91 128 166 197 258 320 378
#     4  10  23  42  60  92 125 171 217 254 304 366
#     4  10  20  35  57  92 124 157 198 257 314 372
#     4  11  21  37  57  94 129 159 205 249 333 375
#     4  11  21  38  64  88 127 155 211 268 303 370
#     4  11  22  35  63  91 122 163 203 267 318 368
#     4   9  22  40  60  87 127 172 209 249 307 382
#
# _framework density 21.889136000000001
#
# number of rings (size 3 to 8) (size 9 to 14) (size 15 to 20)
#    0.000    1.714    2.857    0.857    6.000    7.429 
#    5.143    0.000    0.000    1.714    0.000    0.000 
#    0.000    0.000    0.000    0.000    0.000    0.000 
#
# Total GULP energy -78016.542529 kJ/mol
# GULP energy per Si atom -5572.610181 kJ/mol
# Density = 2.183932 g / cm^3
# Si number density = 21.889136 Si / 1000 Ang^3
#
#
#
# Elastic Constant Matrix: (Units=GPa)
#
#
# Indices 1 2 3 4 5 6 
#
# 1 102.3915 28.0502 37.4236 22.1904 -12.2096 1.1187
# 2 28.0502 111.2127 33.3991 29.8164 -0.5512 -9.3234
# 3 37.4236 33.3991 77.0296 25.9959 -23.1873 0.5647
# 4 22.1904 29.8164 25.9959 37.8534 -6.5878 -6.2495
# 5 -12.2096 -0.5512 -23.1873 -6.5878 51.3632 2.9513
# 6 1.1187 -9.3234 0.5647 -6.2495 2.9513 26.2840
#
#
#
# Elastic Compliance Matrix: (Units=1/GPa)
#
#
# Indices 1 2 3 4 5 6 
#
# 1 0.012487 -0.001033 -0.004079 -0.003879 0.000723 -0.001814
# 2 -0.001033 0.012331 -0.003420 -0.006700 -0.002700 0.003202
# 3 -0.004079 -0.003420 0.022086 -0.009457 0.008019 -0.004663
# 4 -0.003879 -0.006700 -0.009457 0.041712 -0.000370 0.007951
# 5 0.000723 -0.002700 0.008019 -0.000370 0.023407 -0.003877
# 6 -0.001814 0.003202 -0.004663 0.007951 -0.003877 0.041685
#
#
# Mechanical properties :
#
#
# Convention : Reuss Voigt Hill
#
# Bulk Modulus (GPa) = 33.51162 54.26441 43.88801
# Shear Modulus (GPa) = 27.66748 35.88420 31.77584
#
# Velocity S-wave (km/s) = 3.55911 4.05330 3.81421
# Velocity P-wave (km/s) = 5.67738 6.83740 6.28421
#
# Compressibility (1/GPa) = 0.02984040
#
# Stress axis : x y z
#
# Youngs Moduli (GPa) = 80.08450 81.09903 45.27739
#
# Poissons Ratio (x) = 0.08378 0.18467
# Poissons Ratio (y) = 0.08273 0.15484
# Poissons Ratio (z) = 0.32664 0.27734
#
# Static dielectric constant tensor:
#      x y z
#    x 1.953100 -0.048390 0.012230 
#    y -0.048390 1.824650 0.015350 
#    z 0.012230 0.015350 1.856700 
# 
# From -- ./inp_files/363228.got.cif
#   From: 2010.05.17/outbox.cif.g08.bks.cpg/sg2_182_cif.got.tgz:363228.got - 2010.06.03 11:33:40.
