data_PCOD9095112
_publ_section_title
;
Structure prediction by ZEFSAII (Michael W. Deem and Ramdas Pophale) SiO2 
 PCOD9095112
Probable space group: P -1
;
_chemical_formula_sum "Si O2"
_cell_formula_units_Z 16
_cell_length_a 7.997548
_cell_length_b 7.803186
_cell_length_c 19.537683
_cell_angle_alpha 129.508221
_cell_angle_beta 129.334625
_cell_angle_gamma 55.946956
_cell_volume 702.062800
_symmetry_space_group_name_H-M "P -1"
_symmetry_group_IT_number 2
_symmetry_cell_setting 'triclinic'
loop_
_space_group_symop_operation_xyz
x,y,z
-x,-y,-z
loop_
_atom_site_type_symbol
_atom_site_label
_atom_site_fract_x
_atom_site_fract_y
_atom_site_fract_z
Si Si1 0.866221 0.007944 0.249446
Si Si2 0.109929 0.799406 0.384440
Si Si3 0.999887 0.887737 0.101535
Si Si4 0.348445 0.002501 0.600387
Si Si5 0.427535 0.983410 0.200932
Si Si6 0.108075 0.570014 0.812398
Si Si7 0.165122 0.365907 0.122794
Si Si8 0.601785 0.519890 0.264878
O O1 0.759434 0.283311 0.278608
O O2 0.943857 0.891738 0.167656
O O3 0.670038 0.914201 0.210308
O O4 0.070732 0.940625 0.338982
O O5 0.887752 0.921902 0.401222
O O6 0.083448 0.543883 0.297843
O O7 0.319592 0.824934 0.489654
O O8 0.260261 0.825227 0.131886
O O9 0.916365 0.158634 0.130730
O O10 0.875827 0.738964 0.986643
O O11 0.528891 0.925635 0.688676
O O12 0.377062 0.241266 0.637047
O O13 0.291413 0.164705 0.156469
O O14 0.314504 0.471277 0.789717
O O15 0.069496 0.533544 0.873370
O O16 0.347715 0.508211 0.199753
#
# Coordination Sequence:
#
# PCOD9095112 Si02
#       8
#     2   2   2   2   2   2   2   2
#     4   9  19  34  54  79 107 137 176 217 255 311
#     4   9  18  35  57  79 107 140 172 215 266 311
#     4  10  20  35  55  77 106 141 176 216 260 307
#     4   9  18  35  57  79 107 140 172 215 266 311
#     4   9  18  34  54  77 106 137 173 216 258 308
#     4   9  18  34  54  77 106 137 173 216 258 308
#     4  10  20  35  55  77 106 141 176 216 260 307
#     4   9  19  34  54  79 107 137 176 217 255 311
#
# _framework density 22.789981999999998
#
# number of rings (size 3 to 8) (size 9 to 14) (size 15 to 20)
#    0.000    2.750    0.000    1.500    0.000    7.000 
#    0.000   12.500    0.000   18.750    0.000    0.000 
#    0.000    0.000    0.000    0.000    0.000    0.000 
#
# Total GULP energy -89129.687441 kJ/mol
# GULP energy per Si atom -5570.605465 kJ/mol
# Density = 2.273811 g / cm^3
# Si number density = 22.789982 Si / 1000 Ang^3
#
#
#
# Elastic Constant Matrix: (Units=GPa)
#
#
# Indices 1 2 3 4 5 6 
#
# 1 98.4225 5.9320 -51.0743 59.4723 11.9955 26.8361
# 2 5.9320 88.0337 31.4745 -39.4434 -7.3547 7.5848
# 3 -51.0743 31.4745 365.8148 -284.2742 -71.8017 -7.6181
# 4 59.4723 -39.4434 -284.2742 302.0894 71.2653 6.2860
# 5 11.9955 -7.3547 -71.8017 71.2653 40.0190 1.3871
# 6 26.8361 7.5848 -7.6181 6.2860 1.3871 39.1008
#
#
#
# Elastic Compliance Matrix: (Units=1/GPa)
#
#
# Indices 1 2 3 4 5 6 
#
# 1 0.014601 -0.001561 -0.000920 -0.004030 0.001185 -0.009292
# 2 -0.001561 0.012565 0.000719 0.002908 -0.001053 -0.001656
# 3 -0.000920 0.000719 0.010371 0.009548 0.001980 0.000907
# 4 -0.004030 0.002908 0.009548 0.015506 -0.008805 0.001882
# 5 0.001185 -0.001053 0.001980 -0.008805 0.043686 -0.000357
# 6 -0.009292 -0.001656 0.000907 0.001882 -0.000357 0.032160
#
#
# Mechanical properties :
#
#
# Convention : Reuss Voigt Hill
#
# Bulk Modulus (GPa) = 29.39989 58.32614 43.86301
# Shear Modulus (GPa) = 34.78250 113.97110 74.37680
#
# Velocity S-wave (km/s) = 3.91092 7.07940 5.71897
# Velocity P-wave (km/s) = 5.77253 9.61625 7.93078
#
# Compressibility (1/GPa) = 0.03401374
#
# Stress axis : x y z
#
# Youngs Moduli (GPa) = 68.48633 79.58757 96.42596
#
# Poissons Ratio (x) = 0.12425 0.08870
# Poissons Ratio (y) = 0.10692 -0.06938
# Poissons Ratio (z) = 0.06300 -0.05726
#
# Static dielectric constant tensor:
#      x y z
#    x 1.908480 -0.056640 -0.007010 
#    y -0.056640 1.980400 -0.009640 
#    z -0.007010 -0.009640 1.820330 
# 
# From -- ./inp_files/495407.got.cif
#   From: 2010.05.17/outbox.cif.g08.bks.cpg/sg2_248_cif.got.tgz:495407.got - 2010.06.03 11:33:40.
