data_PCOD9095735
_publ_section_title
;
Structure prediction by ZEFSAII (Michael W. Deem and Ramdas Pophale) SiO2 
 PCOD9095735
Probable space group: P -1
;
_chemical_formula_sum "Si O2"
_cell_formula_units_Z 16
_cell_length_a 17.505775
_cell_length_b 12.804214
_cell_length_c 8.124868
_cell_angle_alpha 70.667385
_cell_angle_beta 76.271335
_cell_angle_gamma 138.653690
_cell_volume 711.239435
_symmetry_space_group_name_H-M "P -1"
_symmetry_group_IT_number 2
_symmetry_cell_setting 'triclinic'
loop_
_space_group_symop_operation_xyz
x,y,z
-x,-y,-z
loop_
_atom_site_type_symbol
_atom_site_label
_atom_site_fract_x
_atom_site_fract_y
_atom_site_fract_z
Si Si1 0.744488 0.605884 0.973131
Si Si2 0.042518 0.830362 0.294532
Si Si3 0.311394 0.718636 0.832456
Si Si4 0.547532 0.967674 0.126858
Si Si5 0.327317 0.355759 0.700398
Si Si6 0.159458 0.211782 0.508917
Si Si7 0.821037 0.426341 0.347066
Si Si8 0.172648 0.780281 0.355895
O O1 0.724989 0.653674 0.790171
O O2 0.681014 0.400994 0.074367
O O3 0.641575 0.513597 0.240584
O O4 0.965151 0.898122 0.749667
O O5 0.119287 0.839278 0.380798
O O6 0.890032 0.719948 0.498655
O O7 0.973274 0.668531 0.262129
O O8 0.186600 0.096433 0.002114
O O9 0.302217 0.783740 0.961672
O O10 0.148119 0.528564 0.885246
O O11 0.500000 0.000000 0.500000
O O12 0.353639 0.714628 0.451296
O O13 0.646991 0.993330 0.973706
O O14 0.500000 0.000000 0.000000
O O15 0.500000 0.500000 0.500000
O O16 0.246192 0.294475 0.599032
O O17 0.781606 0.248564 0.508059
O O18 0.000000 0.500000 0.500000
#
# Coordination Sequence:
#
# PCOD9095735 Si02
#       8
#     2   2   2   2   2   2   2   2
#     4  10  22  41  67  96 124 165 222 258 309 389
#     4  10  20  38  65  89 121 169 211 257 314 378
#     4  10  20  35  59  90 123 156 204 258 306 365
#     4   9  19  34  56  85 120 164 205 243 310 369
#     4  11  24  43  66  96 128 163 207 268 328 379
#     4  10  22  41  70  92 121 171 216 260 319 374
#     4   9  18  35  58  85 123 159 207 251 303 371
#     4   9  19  33  54  86 123 155 204 244 300 375
#
# _framework density 22.495940999999998
#
# number of rings (size 3 to 8) (size 9 to 14) (size 15 to 20)
#    0.000    2.250    0.000    3.000    5.250    3.500 
#    4.500    2.500   11.000    0.000    0.000    0.000 
#    0.000    0.000    0.000    0.000    0.000    0.000 
#
# Total GULP energy -89201.380107 kJ/mol
# GULP energy per Si atom -5575.086257 kJ/mol
# Density = 2.244474 g / cm^3
# Si number density = 22.495941 Si / 1000 Ang^3
#
#
#
# Elastic Constant Matrix: (Units=GPa)
#
#
# Indices 1 2 3 4 5 6 
#
# 1 90.9879 -5.5252 32.1255 -0.2783 0.5770 -16.9726
# 2 -5.5252 39.3174 6.6585 6.6422 8.2565 -7.7418
# 3 32.1255 6.6585 61.0991 16.9681 10.1178 1.2439
# 4 -0.2783 6.6422 16.9681 26.1935 -5.8121 9.3265
# 5 0.5770 8.2565 10.1178 -5.8121 21.0260 -6.8760
# 6 -16.9726 -7.7418 1.2439 9.3265 -6.8760 20.9849
#
#
#
# Elastic Compliance Matrix: (Units=1/GPa)
#
#
# Indices 1 2 3 4 5 6 
#
# 1 0.021025 0.007112 -0.015035 0.002541 0.012218 0.023394
# 2 0.007112 0.037437 -0.000598 -0.020544 -0.012199 0.024732
# 3 -0.015035 -0.000598 0.036190 -0.025191 -0.027798 -0.012439
# 4 0.002541 -0.020544 -0.025191 0.076707 0.032319 -0.027533
# 5 0.012218 -0.012199 -0.027798 0.032319 0.080559 0.019061
# 6 0.023394 0.024732 -0.012439 -0.027533 0.019061 0.094919
#
#
# Mechanical properties :
#
#
# Convention : Reuss Voigt Hill
#
# Bulk Modulus (GPa) = 12.88470 28.65800 20.77135
# Shear Modulus (GPa) = 12.82881 24.18393 18.50637
#
# Velocity S-wave (km/s) = 2.39063 3.28233 2.87131
# Velocity P-wave (km/s) = 3.65515 5.20882 4.49955
#
# Compressibility (1/GPa) = 0.07761143
#
# Stress axis : x y z
#
# Youngs Moduli (GPa) = 47.56223 26.71153 27.63215
#
# Poissons Ratio (x) = -0.18998 0.41545
# Poissons Ratio (y) = -0.33828 0.01651
# Poissons Ratio (z) = 0.71510 0.01596
#
# Static dielectric constant tensor:
#      x y z
#    x 1.880410 0.012310 -0.035370 
#    y 0.012310 1.942010 0.045790 
#    z -0.035370 0.045790 1.959880 
# 
# From -- ./inp_files/333122.got.cif
#   From: 2010.05.17/outbox.cif.g08.bks.cpg/sg2_167_cif.got.tgz:333122.got - 2010.06.03 11:33:40.
