data_PCOD9095400
_publ_section_title
;
Structure prediction by ZEFSAII (Michael W. Deem and Ramdas Pophale) SiO2 
 PCOD9095400
Probable space group: P -1
;
_chemical_formula_sum "Si O2"
_cell_formula_units_Z 16
_cell_length_a 12.958968
_cell_length_b 15.933774
_cell_length_c 9.431092
_cell_angle_alpha 108.776337
_cell_angle_beta 61.463070
_cell_angle_gamma 153.494190
_cell_volume 735.272141
_symmetry_space_group_name_H-M "P -1"
_symmetry_group_IT_number 2
_symmetry_cell_setting 'triclinic'
loop_
_space_group_symop_operation_xyz
x,y,z
-x,-y,-z
loop_
_atom_site_type_symbol
_atom_site_label
_atom_site_fract_x
_atom_site_fract_y
_atom_site_fract_z
Si Si1 0.231716 0.339717 0.011479
Si Si2 0.047720 0.903123 0.672521
Si Si3 0.506820 0.560843 0.673134
Si Si4 0.084617 0.624347 0.226082
Si Si5 0.034153 0.403282 0.216346
Si Si6 0.247435 0.838021 0.483084
Si Si7 0.496868 0.744223 0.633089
Si Si8 0.364898 0.841032 0.894753
O O1 0.022638 0.142440 0.135865
O O2 0.172491 0.403495 0.107207
O O3 0.500000 0.500000 0.000000
O O4 0.290091 0.375612 0.823854
O O5 0.781814 0.737634 0.670175
O O6 0.146812 0.869690 0.568487
O O7 0.274956 0.110613 0.555646
O O8 0.500000 0.500000 0.500000
O O9 0.480388 0.646262 0.690236
O O10 0.179458 0.589577 0.179742
O O11 0.251595 0.805516 0.304693
O O12 0.782690 0.433715 0.355063
O O13 0.114135 0.655532 0.057541
O O14 0.957208 0.359691 0.406398
O O15 0.773286 0.222937 0.194375
O O16 0.500000 0.000000 0.500000
O O17 0.515947 0.850385 0.766637
O O18 0.500000 0.000000 0.000000
#
# Coordination Sequence:
#
# PCOD9095400 Si02
#       8
#     2   2   2   2   2   2   2   2
#     4   9  20  39  60  83 117 160 201 247 303 362
#     4  10  22  39  60  87 121 160 202 251 304 359
#     4  11  22  40  65  90 118 161 207 254 306 362
#     4  11  21  36  59  89 121 159 202 250 306 364
#     4  10  20  35  57  85 117 156 198 243 300 363
#     4  11  21  37  58  85 121 159 198 246 303 363
#     4  11  22  39  63  93 126 160 204 258 304 363
#     4  11  22  37  60  90 123 159 202 251 304 362
#
# _framework density 21.760650999999999
#
# number of rings (size 3 to 8) (size 9 to 14) (size 15 to 20)
#    0.000    1.500    0.000    7.500    0.000    1.000 
#    0.000    0.625    0.000    9.000    0.000    0.000 
#    0.000    0.000    0.000    0.000    0.000    0.000 
#
# Total GULP energy -89128.033691 kJ/mol
# GULP energy per Si atom -5570.502106 kJ/mol
# Density = 2.171112 g / cm^3
# Si number density = 21.760651 Si / 1000 Ang^3
#
#
#
# Elastic Constant Matrix: (Units=GPa)
#
#
# Indices 1 2 3 4 5 6 
#
# 1 134.6557 14.3351 25.3228 11.3454 0.3535 -0.0540
# 2 14.3351 55.9659 26.0872 5.8638 -3.7705 1.9826
# 3 25.3228 26.0872 176.8817 -12.7501 32.0706 -1.3817
# 4 11.3454 5.8638 -12.7501 36.9327 -6.6498 -2.9639
# 5 0.3535 -3.7705 32.0706 -6.6498 35.0009 -5.1766
# 6 -0.0540 1.9826 -1.3817 -2.9639 -5.1766 15.8114
#
#
#
# Elastic Compliance Matrix: (Units=1/GPa)
#
#
# Indices 1 2 3 4 5 6 
#
# 1 0.008005 -0.001158 -0.001238 -0.002660 0.000377 -0.000311
# 2 -0.001158 0.020867 -0.004101 -0.003629 0.005030 -0.002012
# 3 -0.001238 -0.004101 0.007936 0.002385 -0.007360 -0.000759
# 4 -0.002660 -0.003629 0.002385 0.030726 0.004453 0.007872
# 5 0.000377 0.005030 -0.007360 0.004453 0.038498 0.012166
# 6 -0.000311 -0.002012 -0.000759 0.007872 0.012166 0.068889
#
#
# Mechanical properties :
#
#
# Convention : Reuss Voigt Hill
#
# Bulk Modulus (GPa) = 41.99272 55.44374 48.71823
# Shear Modulus (GPa) = 25.52926 37.66620 31.59773
#
# Velocity S-wave (km/s) = 3.42889 4.16496 3.81472
# Velocity P-wave (km/s) = 5.91742 6.97592 6.46836
#
# Compressibility (1/GPa) = 0.02381365
#
# Stress axis : x y z
#
# Youngs Moduli (GPa) = 124.91548 47.92324 126.00875
#
# Poissons Ratio (x) = 0.05552 0.15597
# Poissons Ratio (y) = 0.14471 0.51676
# Poissons Ratio (z) = 0.15461 0.19653
#
# Static dielectric constant tensor:
#      x y z
#    x 1.775440 -0.043940 0.022760 
#    y -0.043940 1.846470 -0.098270 
#    z 0.022760 -0.098270 1.841900 
# 
# From -- ./inp_files/273364.got.cif
#   From: 2010.05.17/outbox.cif.g08.bks.cpg/sg2_137_cif.got.tgz:273364.got - 2010.06.03 11:33:40.
