data_PCOD9095239
_publ_section_title
;
Structure prediction by ZEFSAII (Michael W. Deem and Ramdas Pophale) SiO2 
 PCOD9095239
Probable space group: P -1
;
_chemical_formula_sum "Si O2"
_cell_formula_units_Z 16
_cell_length_a 20.338869
_cell_length_b 8.831097
_cell_length_c 9.058011
_cell_angle_alpha 116.015724
_cell_angle_beta 145.137825
_cell_angle_gamma 64.212613
_cell_volume 826.753240
_symmetry_space_group_name_H-M "P -1"
_symmetry_group_IT_number 2
_symmetry_cell_setting 'triclinic'
loop_
_space_group_symop_operation_xyz
x,y,z
-x,-y,-z
loop_
_atom_site_type_symbol
_atom_site_label
_atom_site_fract_x
_atom_site_fract_y
_atom_site_fract_z
Si Si1 0.872125 0.076442 0.454150
Si Si2 0.724277 0.232370 0.997906
Si Si3 0.694660 0.230950 0.405262
Si Si4 0.719501 0.602100 0.659294
Si Si5 0.132462 0.108658 0.924601
Si Si6 0.485515 0.799171 0.195841
Si Si7 0.375771 0.438312 0.211404
Si Si8 0.516861 0.116308 0.220675
O O1 0.788755 0.084689 0.444992
O O2 0.003241 0.099279 0.738631
O O3 0.872352 0.916022 0.274859
O O4 0.810547 0.227172 0.296423
O O5 0.600114 0.205458 0.825509
O O6 0.705183 0.408170 0.951788
O O7 0.781468 0.062701 0.944922
O O8 0.749789 0.403342 0.593549
O O9 0.636043 0.187995 0.432758
O O10 0.587840 0.256685 0.102173
O O11 0.605094 0.677671 0.388977
O O12 0.680142 0.612085 0.761802
O O13 0.816623 0.722678 0.867588
O O14 0.511956 0.989622 0.294085
O O15 0.500000 0.500000 0.500000
O O16 0.413170 0.271581 0.110382
O O17 0.500000 0.000000 0.000000
#
# Coordination Sequence:
#
# PCOD9095239 Si02
#       8
#     2   2   2   2   2   2   2   2
#     4   8  19  40  63  76 107 147 198 226 282 318
#     4   9  18  37  60  78 114 146 183 226 279 326
#     4  10  20  37  54  82 116 150 174 241 277 333
#     4  12  23  32  58  86 117 143 189 228 283 329
#     4   9  20  38  61  84  99 153 192 237 265 332
#     4  10  20  35  56  81 115 151 184 215 284 349
#     4  12  22  34  53  88 123 142 175 231 283 335
#     4  10  22  35  52  80 117 151 180 218 277 343
#
# _framework density 19.352812
#
# number of rings (size 3 to 8) (size 9 to 14) (size 15 to 20)
#    0.750    1.250    2.500    1.125    3.500    4.500 
#    0.000    0.625    0.000    3.000    0.000    0.000 
#    0.000    0.000    0.000    0.000    0.000    0.000 
#
# Total GULP energy -89177.046451 kJ/mol
# GULP energy per Si atom -5573.565403 kJ/mol
# Density = 1.930876 g / cm^3
# Si number density = 19.352812 Si / 1000 Ang^3
#
#
#
# Elastic Constant Matrix: (Units=GPa)
#
#
# Indices 1 2 3 4 5 6 
#
# 1 47.8264 5.8882 5.2627 4.0323 1.1665 -1.0911
# 2 5.8882 69.5523 3.5918 16.6788 -3.7772 7.5723
# 3 5.2627 3.5918 50.6338 14.5594 7.2672 -4.3403
# 4 4.0323 16.6788 14.5594 21.5236 -0.6394 -5.3371
# 5 1.1665 -3.7772 7.2672 -0.6394 18.0386 1.9096
# 6 -1.0911 7.5723 -4.3403 -5.3371 1.9096 20.3701
#
#
#
# Elastic Compliance Matrix: (Units=1/GPa)
#
#
# Indices 1 2 3 4 5 6 
#
# 1 0.021446 -0.001540 -0.001350 -0.001674 -0.001344 0.001121
# 2 -0.001540 0.021118 0.003101 -0.021338 0.003916 -0.013230
# 3 -0.001350 0.003101 0.027267 -0.020887 -0.011004 0.000144
# 4 -0.001674 -0.021338 -0.020887 0.083748 0.004385 0.024924
# 5 -0.001344 0.003916 -0.011004 0.004385 0.061834 -0.008520
# 6 0.001121 -0.013230 0.000144 0.024924 -0.008520 0.061429
#
#
# Mechanical properties :
#
#
# Convention : Reuss Voigt Hill
#
# Bulk Modulus (GPa) = 14.23360 21.94421 18.08891
# Shear Modulus (GPa) = 16.67574 22.20446 19.44010
#
# Velocity S-wave (km/s) = 2.93861 3.39093 3.17284
# Velocity P-wave (km/s) = 4.34565 5.16671 4.77386
#
# Compressibility (1/GPa) = 0.07025629
#
# Stress axis : x y z
#
# Youngs Moduli (GPa) = 46.62774 47.35357 36.67389
#
# Poissons Ratio (x) = 0.07290 0.04950
# Poissons Ratio (y) = 0.07178 -0.11374
# Poissons Ratio (z) = 0.06293 -0.14687
#
# Static dielectric constant tensor:
#      x y z
#    x 1.700070 0.000790 -0.029190 
#    y 0.000790 1.688050 0.021290 
#    z -0.029190 0.021290 1.690460 
# 
# From -- ./inp_files/329347.got.cif
#   From: 2010.05.17/outbox.cif.g08.bks.cpg/sg2_165_cif.got.tgz:329347.got - 2010.06.03 11:33:40.
