data_PCOD9095489
_publ_section_title
;
Structure prediction by ZEFSAII (Michael W. Deem and Ramdas Pophale) SiO2 
 PCOD9095489
Probable space group: P -1
;
_chemical_formula_sum "Si O2"
_cell_formula_units_Z 16
_cell_length_a 19.688875
_cell_length_b 8.636429
_cell_length_c 10.639534
_cell_angle_alpha 40.269176
_cell_angle_beta 41.723289
_cell_angle_gamma 62.457774
_cell_volume 753.779048
_symmetry_space_group_name_H-M "P -1"
_symmetry_group_IT_number 2
_symmetry_cell_setting 'triclinic'
loop_
_space_group_symop_operation_xyz
x,y,z
-x,-y,-z
loop_
_atom_site_type_symbol
_atom_site_label
_atom_site_fract_x
_atom_site_fract_y
_atom_site_fract_z
Si Si1 0.817500 0.656071 0.998224
Si Si2 0.859355 0.257020 0.871829
Si Si3 0.154300 0.885265 0.741170
Si Si4 0.063291 0.205034 0.493620
Si Si5 0.265550 0.246096 0.702631
Si Si6 0.467545 0.852535 0.763965
Si Si7 0.405564 0.297310 0.694972
Si Si8 0.666389 0.670104 0.704921
O O1 0.823855 0.727210 0.092162
O O2 0.705213 0.708038 0.080135
O O3 0.815490 0.368312 0.175031
O O4 0.905418 0.797168 0.693415
O O5 0.857747 0.540001 0.719354
O O6 0.949616 0.250750 0.650696
O O7 0.888895 0.160980 0.027306
O O8 0.755389 0.049318 0.106205
O O9 0.077702 0.970837 0.696702
O O10 0.257742 0.112227 0.458258
O O11 0.373005 0.361655 0.558290
O O12 0.269023 0.363973 0.489406
O O13 0.568529 0.774416 0.729093
O O14 0.500000 0.000000 0.500000
O O15 0.430488 0.032404 0.804049
O O16 0.381700 0.599374 0.008354
O O17 0.500000 0.500000 0.500000
#
# Coordination Sequence:
#
# PCOD9095489 Si02
#       8
#     2   2   2   2   2   2   2   2
#     4   9  21  37  53  86 116 146 190 228 274 341
#     4   9  20  38  59  84 114 141 194 233 273 342
#     4  10  20  35  58  82 118 142 186 234 279 331
#     4  10  20  36  61  86 109 152 182 232 293 325
#     4   9  20  40  54  81 118 145 184 237 270 331
#     4  11  21  38  58  82 111 144 195 233 277 327
#     4  10  21  37  57  77 114 155 180 228 283 326
#     4  10  22  36  57  87 107 148 191 234 278 329
#
# _framework density 21.226379999999999
#
# number of rings (size 3 to 8) (size 9 to 14) (size 15 to 20)
#    0.750    1.500    1.250    1.125    1.750    3.500 
#    0.000    1.250    0.000    0.000    0.000    0.000 
#    0.000    0.000    0.000    0.000    0.000    0.000 
#
# Total GULP energy -89156.093856 kJ/mol
# GULP energy per Si atom -5572.255866 kJ/mol
# Density = 2.117807 g / cm^3
# Si number density = 21.226380 Si / 1000 Ang^3
#
#
#
# Elastic Constant Matrix: (Units=GPa)
#
#
# Indices 1 2 3 4 5 6 
#
# 1 39.2996 11.6605 20.3455 -11.9474 -4.7466 3.7035
# 2 11.6605 110.0935 45.6468 1.8075 14.5299 -1.6271
# 3 20.3455 45.6468 107.4105 -8.4737 7.5635 -1.6889
# 4 -11.9474 1.8075 -8.4737 26.8680 1.9735 -2.3632
# 5 -4.7466 14.5299 7.5635 1.9735 31.9610 -9.0964
# 6 3.7035 -1.6271 -1.6889 -2.3632 -9.0964 21.7047
#
#
#
# Elastic Compliance Matrix: (Units=1/GPa)
#
#
# Indices 1 2 3 4 5 6 
#
# 1 0.033505 -0.002632 -0.004650 0.012970 0.005777 -0.002443
# 2 -0.002632 0.011905 -0.004483 -0.003147 -0.004954 -0.001426
# 3 -0.004650 -0.004483 0.012398 0.002344 -0.001424 0.001080
# 4 0.012970 -0.003147 0.002344 0.044127 0.000908 0.002918
# 5 0.005777 -0.004954 -0.001424 0.000908 0.038933 0.014948
# 6 -0.002443 -0.001426 0.001080 0.002918 0.014948 0.053049
#
#
# Mechanical properties :
#
#
# Convention : Reuss Voigt Hill
#
# Bulk Modulus (GPa) = 29.17276 45.78990 37.48133
# Shear Modulus (GPa) = 21.84621 28.05013 24.94817
#
# Velocity S-wave (km/s) = 3.21160 3.63915 3.43204
# Velocity P-wave (km/s) = 5.24652 6.26713 5.77940
#
# Compressibility (1/GPa) = 0.03427855
#
# Stress axis : x y z
#
# Youngs Moduli (GPa) = 29.84659 83.99912 80.65861
#
# Poissons Ratio (x) = 0.22110 0.37504
# Poissons Ratio (y) = 0.07856 0.36155
# Poissons Ratio (z) = 0.13878 0.37653
#
# Static dielectric constant tensor:
#      x y z
#    x 1.802100 0.008930 -0.014020 
#    y 0.008930 1.793780 0.021820 
#    z -0.014020 0.021820 1.761640 
# 
# From -- ./inp_files/474068.got.cif
#   From: 2010.05.17/outbox.cif.g08.bks.cpg/sg2_238_cif.got.tgz:474068.got - 2010.06.03 11:33:40.
