data_PCOD9095841
_publ_section_title
;
Structure prediction by ZEFSAII (Michael W. Deem and Ramdas Pophale) SiO2 
 PCOD9095841
Probable space group: P -1
;
_chemical_formula_sum "Si O2"
_cell_formula_units_Z 12
_cell_length_a 5.754416
_cell_length_b 9.648001
_cell_length_c 17.904422
_cell_angle_alpha 146.185097
_cell_angle_beta 116.811270
_cell_angle_gamma 82.578210
_cell_volume 429.147065
_symmetry_space_group_name_H-M "P -1"
_symmetry_group_IT_number 2
_symmetry_cell_setting 'triclinic'
loop_
_space_group_symop_operation_xyz
x,y,z
-x,-y,-z
loop_
_atom_site_type_symbol
_atom_site_label
_atom_site_fract_x
_atom_site_fract_y
_atom_site_fract_z
Si Si1 0.334093 0.650195 0.645520
Si Si2 0.146694 0.449362 0.844748
Si Si3 0.189981 0.970301 0.581203
Si Si4 0.847017 0.569506 0.728236
Si Si5 0.256808 0.862878 0.183918
Si Si6 0.274507 0.094594 0.933158
O O1 0.505904 0.493771 0.632161
O O2 0.372122 0.882922 0.815747
O O3 0.000000 0.500000 0.500000
O O4 0.526662 0.830621 0.683893
O O5 0.107877 0.134169 0.706414
O O6 0.893169 0.485529 0.780482
O O7 0.417635 0.607365 0.893154
O O8 0.223121 0.622830 0.010942
O O9 0.555078 0.130485 0.713401
O O10 0.095973 0.637746 0.411497
O O11 0.000000 0.000000 0.500000
O O12 0.073090 0.903713 0.888461
O O13 0.945301 0.858227 0.131894
#
# Coordination Sequence:
#
# PCOD9095841 Si02
#       6
#     2   2   2   2   2   2
#     4  10  20  35  60  89 117 151 192 239 287 338
#     4  10  22  38  59  87 118 153 190 234 287 343
#     4  10  21  39  60  82 116 156 191 235 287 340
#     4  10  21  38  60  88 118 149 192 238 284 339
#     4  10  21  38  60  86 116 151 193 238 286 340
#     4  10  21  36  61  87 115 151 191 237 287 339
#
# _framework density 27.962439
#
# number of rings (size 3 to 8) (size 9 to 14) (size 15 to 20)
#    0.000    2.000    0.000    3.000    0.000   10.667 
#    0.000    3.333    0.000   24.000    0.000    0.000 
#    0.000    0.000    0.000    0.000    0.000    0.000 
#
# Total GULP energy -67085.017891 kJ/mol
# GULP energy per Si atom -5590.418158 kJ/mol
# Density = 2.789880 g / cm^3
# Si number density = 27.962439 Si / 1000 Ang^3
#
#
#
# Elastic Constant Matrix: (Units=GPa)
#
#
# Indices 1 2 3 4 5 6 
#
# 1 79.8801 78.8449 32.0924 -7.4250 8.3246 -22.5179
# 2 78.8449 170.4863 71.9649 -18.7240 17.2565 -34.7032
# 3 32.0924 71.9649 133.5847 -12.5006 7.5819 -15.1594
# 4 -7.4250 -18.7240 -12.5006 57.3324 -8.7780 0.7520
# 5 8.3246 17.2565 7.5819 -8.7780 43.6878 -4.5568
# 6 -22.5179 -34.7032 -15.1594 0.7520 -4.5568 59.2547
#
#
#
# Elastic Compliance Matrix: (Units=1/GPa)
#
#
# Indices 1 2 3 4 5 6 
#
# 1 0.023482 -0.010407 0.000269 -0.000365 -0.000182 0.002888
# 2 -0.010407 0.013343 -0.004112 0.001782 -0.001941 0.002636
# 3 0.000269 -0.004112 0.009730 0.000821 0.000068 0.000178
# 4 -0.000365 0.001782 0.000821 0.018613 0.003079 0.001115
# 5 -0.000182 -0.001941 0.000068 0.003079 0.024365 0.000646
# 6 0.002888 0.002636 0.000178 0.001115 0.000646 0.019598
#
#
# Mechanical properties :
#
#
# Convention : Reuss Voigt Hill
#
# Bulk Modulus (GPa) = 55.38683 83.30617 69.34650
# Shear Modulus (GPa) = 34.80701 45.45825 40.13263
#
# Velocity S-wave (km/s) = 3.53197 4.03636 3.79256
# Velocity P-wave (km/s) = 6.04017 7.18191 6.63564
#
# Compressibility (1/GPa) = 0.01805483
#
# Stress axis : x y z
#
# Youngs Moduli (GPa) = 42.58561 74.94638 102.77889
#
# Poissons Ratio (x) = 0.77998 -0.02766
# Poissons Ratio (y) = 0.44319 0.42262
# Poissons Ratio (z) = -0.01146 0.30817
#
# Static dielectric constant tensor:
#      x y z
#    x 2.261480 0.090540 0.040030 
#    y 0.090540 2.218850 0.029880 
#    z 0.040030 0.029880 2.181390 
# 
# From -- ./inp_files/244592.got.cif
#   From: 2010.05.17/outbox.cif.g08.bks.cpg/sg2_123_cif.got.tgz:244592.got - 2010.06.03 11:33:40.
