data_PCOD9095812
_publ_section_title
;
Structure prediction by ZEFSAII (Michael W. Deem and Ramdas Pophale) SiO2 
 PCOD9095812
Probable space group: P -1
;
_chemical_formula_sum "Si O2"
_cell_formula_units_Z 14
_cell_length_a 5.195983
_cell_length_b 18.260125
_cell_length_c 9.045921
_cell_angle_alpha 48.395100
_cell_angle_beta 55.055696
_cell_angle_gamma 76.857673
_cell_volume 509.418294
_symmetry_space_group_name_H-M "P -1"
_symmetry_group_IT_number 2
_symmetry_cell_setting 'triclinic'
loop_
_space_group_symop_operation_xyz
x,y,z
-x,-y,-z
loop_
_atom_site_type_symbol
_atom_site_label
_atom_site_fract_x
_atom_site_fract_y
_atom_site_fract_z
Si Si1 0.326016 0.692108 0.959043
Si Si2 0.547005 0.683238 0.585298
Si Si3 0.059669 0.861717 0.309945
Si Si4 0.382254 0.508922 0.358066
Si Si5 0.363301 0.978912 0.803183
Si Si6 0.172767 0.205756 0.915066
Si Si7 0.822653 0.882338 0.647974
O O1 0.301306 0.668890 0.823424
O O2 0.544903 0.805409 0.747974
O O3 0.496439 0.617140 0.091598
O O4 0.001424 0.701707 0.135157
O O5 0.886735 0.749023 0.459172
O O6 0.541059 0.574856 0.664346
O O7 0.532226 0.752236 0.352031
O O8 0.114540 0.882635 0.439183
O O9 0.791635 0.926655 0.273526
O O10 0.368560 0.922879 0.033547
O O11 0.500000 0.500000 0.500000
O O12 0.000000 0.500000 0.500000
O O13 0.685854 0.980195 0.599236
O O14 0.076374 0.890664 0.942304
O O15 0.205004 0.176344 0.111637
#
# Coordination Sequence:
#
# PCOD9095812 Si02
#       7
#     2   2   2   2   2   2   2
#     4  10  22  40  62  92 125 165 210 260 321 387
#     4  10  21  42  63  88 126 166 210 264 327 384
#     4   9  19  37  58  85 121 162 211 258 316 381
#     4  12  25  46  73  98 132 172 217 271 332 393
#     4   9  19  36  57  81 124 163 204 264 310 378
#     4  10  20  37  59  89 124 163 210 260 317 380
#     4  10  20  35  60  86 121 164 207 258 318 378
#
# _framework density 27.482330000000001
#
# number of rings (size 3 to 8) (size 9 to 14) (size 15 to 20)
#    0.000    2.000    1.429    1.714    0.000    1.714 
#    5.143    7.857    0.000    0.000    0.000    0.000 
#    0.000    0.000    0.000    0.000    0.000    0.000 
#
# Total GULP energy -78287.575180 kJ/mol
# GULP energy per Si atom -5591.969656 kJ/mol
# Density = 2.741978 g / cm^3
# Si number density = 27.482330 Si / 1000 Ang^3
#
#
#
# Elastic Constant Matrix: (Units=GPa)
#
#
# Indices 1 2 3 4 5 6 
#
# 1 77.1966 29.5696 12.5435 15.3468 18.3936 4.7351
# 2 29.5696 193.3833 46.0983 22.8738 21.2052 29.0949
# 3 12.5435 46.0983 145.5015 25.1541 34.6819 -1.4994
# 4 15.3468 22.8738 25.1541 56.6749 -0.9164 4.9855
# 5 18.3936 21.2052 34.6819 -0.9164 48.3852 10.5637
# 6 4.7351 29.0949 -1.4994 4.9855 10.5637 36.9471
#
#
#
# Elastic Compliance Matrix: (Units=1/GPa)
#
#
# Indices 1 2 3 4 5 6 
#
# 1 0.015826 -0.001831 0.001694 -0.004596 -0.006973 0.002096
# 2 -0.001831 0.006765 -0.001928 -0.000926 0.000210 -0.005106
# 3 0.001694 -0.001928 0.010158 -0.004734 -0.008195 0.004695
# 4 -0.004596 -0.000926 -0.004734 0.021804 0.006779 -0.003754
# 5 -0.006973 0.000210 -0.008195 0.006779 0.031295 -0.009467
# 6 0.002096 -0.005106 0.004695 -0.003754 -0.009467 0.034222
#
#
# Mechanical properties :
#
#
# Convention : Reuss Voigt Hill
#
# Bulk Modulus (GPa) = 34.94194 65.83380 50.38787
# Shear Modulus (GPa) = 37.38568 50.25944 43.82256
#
# Velocity S-wave (km/s) = 3.69230 4.28108 3.99754
# Velocity P-wave (km/s) = 5.56052 6.96016 6.29933
#
# Compressibility (1/GPa) = 0.02861890
#
# Stress axis : x y z
#
# Youngs Moduli (GPa) = 63.18533 147.80989 98.44662
#
# Poissons Ratio (x) = 0.27063 -0.16675
# Poissons Ratio (y) = 0.11569 0.18983
# Poissons Ratio (z) = -0.10702 0.28502
#
# Static dielectric constant tensor:
#      x y z
#    x 2.236530 -0.023670 -0.059080 
#    y -0.023670 2.173100 0.065790 
#    z -0.059080 0.065790 2.386460 
# 
# From -- ./inp_files/46407.got.cif
#   From: 2010.05.17/outbox.cif.g08.bks.cpg/sg2_24_cif.got.tgz:46407.got - 2010.06.03 11:33:40.
