data_PCOD9095694
_publ_section_title
;
Structure prediction by ZEFSAII (Michael W. Deem and Ramdas Pophale) SiO2 
 PCOD9095694
Probable space group: P -1
;
_chemical_formula_sum "Si O2"
_cell_formula_units_Z 16
_cell_length_a 16.837700
_cell_length_b 18.593335
_cell_length_c 10.792972
_cell_angle_alpha 25.119806
_cell_angle_beta 131.981858
_cell_angle_gamma 146.214212
_cell_volume 745.936422
_symmetry_space_group_name_H-M "P -1"
_symmetry_group_IT_number 2
_symmetry_cell_setting 'triclinic'
loop_
_space_group_symop_operation_xyz
x,y,z
-x,-y,-z
loop_
_atom_site_type_symbol
_atom_site_label
_atom_site_fract_x
_atom_site_fract_y
_atom_site_fract_z
Si Si1 0.587821 0.896057 0.366611
Si Si2 0.888368 0.794951 0.807697
Si Si3 0.301108 0.217176 0.901640
Si Si4 0.277652 0.707534 0.323537
Si Si5 0.825272 0.012437 0.607155
Si Si6 0.371024 0.374270 0.343154
Si Si7 0.101133 0.275968 0.630753
Si Si8 0.848729 0.113923 0.959166
O O1 0.718144 0.022349 0.408522
O O2 0.421041 0.768054 0.435305
O O3 0.574483 0.701209 0.585457
O O4 0.651541 0.100295 0.014145
O O5 0.728683 0.597715 0.875903
O O6 0.860141 0.899533 0.723880
O O7 0.000000 0.000000 0.500000
O O8 0.981529 0.745454 0.040257
O O9 0.479788 0.392824 0.794274
O O10 0.247057 0.347855 0.610137
O O11 0.194176 0.972860 0.091476
O O12 0.269689 0.153737 0.113042
O O13 0.160687 0.449725 0.536651
O O14 0.197633 0.751540 0.259678
O O15 0.991282 0.252349 0.459863
O O16 0.262037 0.142783 0.681176
O O17 0.000000 0.000000 0.000000
#
# Coordination Sequence:
#
# PCOD9095694 Si02
#       8
#     2   2   2   2   2   2   2   2
#     4   9  19  36  59  88 114 156 200 248 296 348
#     4   9  18  34  55  86 119 149 196 250 291 346
#     4  11  20  36  58  90 119 156 201 243 291 356
#     4  10  20  39  61  85 118 155 200 246 299 354
#     4  10  21  37  59  87 120 156 203 242 295 355
#     4   9  18  34  58  89 116 154 208 242 287 345
#     4  10  21  38  59  87 117 154 201 238 291 361
#     4  10  20  35  59  87 122 154 194 249 300 347
#
# _framework density 21.449549999999999
#
# number of rings (size 3 to 8) (size 9 to 14) (size 15 to 20)
#    0.000    2.250    2.500    1.125    0.000    2.500 
#    0.000    4.375    0.000    0.000    0.000    0.000 
#    0.000    0.000    0.000    0.000    0.000    0.000 
#
# Total GULP energy -89311.261308 kJ/mol
# GULP energy per Si atom -5581.953832 kJ/mol
# Density = 2.140073 g / cm^3
# Si number density = 21.449550 Si / 1000 Ang^3
#
#
#
# Elastic Constant Matrix: (Units=GPa)
#
#
# Indices 1 2 3 4 5 6 
#
# 1 104.0856 59.8880 26.6181 2.3785 14.9683 7.1989
# 2 59.8880 172.3589 31.9036 1.1932 2.2239 35.1372
# 3 26.6181 31.9036 42.8232 -8.0174 1.3763 1.3935
# 4 2.3785 1.1932 -8.0174 26.9393 -2.9466 0.6013
# 5 14.9683 2.2239 1.3763 -2.9466 18.5170 -0.7861
# 6 7.1989 35.1372 1.3935 0.6013 -0.7861 45.2411
#
#
#
# Elastic Compliance Matrix: (Units=1/GPa)
#
#
# Indices 1 2 3 4 5 6 
#
# 1 0.015602 -0.004048 -0.007191 -0.004701 -0.012309 0.000731
# 2 -0.004048 0.009325 -0.004480 -0.001021 0.002050 -0.006411
# 3 -0.007191 -0.004480 0.032952 0.011199 0.005835 0.003561
# 4 -0.004701 -0.001021 0.011199 0.041968 0.009803 0.000809
# 5 -0.012309 0.002050 0.005835 0.009803 0.064885 0.001183
# 6 0.000731 -0.006411 0.003561 0.000809 0.001183 0.026867
#
#
# Mechanical properties :
#
#
# Convention : Reuss Voigt Hill
#
# Bulk Modulus (GPa) = 37.81731 61.78746 49.80239
# Shear Modulus (GPa) = 21.56566 31.53001 26.54783
#
# Velocity S-wave (km/s) = 3.17427 3.83817 3.52189
# Velocity P-wave (km/s) = 5.57707 6.96495 6.30929
#
# Compressibility (1/GPa) = 0.02644291
#
# Stress axis : x y z
#
# Youngs Moduli (GPa) = 64.09270 107.23694 30.34706
#
# Poissons Ratio (x) = 0.43409 0.21822
# Poissons Ratio (y) = 0.25944 0.13595
# Poissons Ratio (z) = 0.46087 0.48039
#
# Static dielectric constant tensor:
#      x y z
#    x 1.824880 0.037510 -0.041950 
#    y 0.037510 1.835330 0.012790 
#    z -0.041950 0.012790 1.777730 
# 
# From -- ./inp_files/466544.got.cif
#   From: 2010.05.17/outbox.cif.g08.bks.cpg/sg2_234_cif.got.tgz:466544.got - 2010.06.03 11:33:40.
