data_PCOD9095452
_publ_section_title
;
Structure prediction by ZEFSAII (Michael W. Deem and Ramdas Pophale) SiO2 
 PCOD9095452
Probable space group: P -1
;
_chemical_formula_sum "Si O2"
_cell_formula_units_Z 15
_cell_length_a 22.990760
_cell_length_b 10.526094
_cell_length_c 11.486142
_cell_angle_alpha 153.952137
_cell_angle_beta 138.923802
_cell_angle_gamma 38.637336
_cell_volume 748.274473
_symmetry_space_group_name_H-M "P -1"
_symmetry_group_IT_number 2
_symmetry_cell_setting 'triclinic'
loop_
_space_group_symop_operation_xyz
x,y,z
-x,-y,-z
loop_
_atom_site_type_symbol
_atom_site_label
_atom_site_fract_x
_atom_site_fract_y
_atom_site_fract_z
Si Si1 0.500000 0.500000 0.500000
Si Si2 0.952771 0.468902 0.228461
Si Si3 0.235243 0.458397 0.115861
Si Si4 0.722205 0.591134 0.296853
Si Si5 0.676214 0.295160 0.759712
Si Si6 0.564942 0.642924 0.288092
Si Si7 0.344668 0.744806 0.668372
Si Si8 0.926983 0.192937 0.209828
O O1 0.572502 0.370931 0.613140
O O2 0.413898 0.693890 0.620304
O O3 0.919112 0.374019 0.223793
O O4 0.990602 0.741962 0.540039
O O5 0.869139 0.537276 0.065099
O O6 0.039697 0.166726 0.068195
O O7 0.264185 0.602510 0.162723
O O8 0.257685 0.645411 0.410498
O O9 0.306484 0.104025 0.941459
O O10 0.659144 0.605510 0.326013
O O11 0.828060 0.338627 0.246981
O O12 0.724107 0.932087 0.559113
O O13 0.671740 0.495172 0.032456
O O14 0.599620 0.468015 0.317566
O O15 0.500000 0.000000 0.500000
O O16 0.500000 0.500000 0.000000
#
# Coordination Sequence:
#
# PCOD9095452 Si02
#       8
#     1   2   2   2   2   2   2   2
#     4  10  22  36  56  84 118 146 194 250 290 376
#     4  10  20  35  57  91 126 154 196 245 313 364
#     4  11  22  38  61  88 129 156 195 251 309 377
#     4  12  23  40  62  88 125 158 206 253 301 362
#     4  11  23  36  59  91 120 162 196 246 319 352
#     4  12  26  45  66  88 121 167 213 257 293 357
#     4  11  24  39  61  89 118 165 204 248 313 355
#     4  10  21  33  59  89 124 157 196 249 303 369
#
# _framework density 20.046120999999999
#
# number of rings (size 3 to 8) (size 9 to 14) (size 15 to 20)
#    0.000    1.067    1.333    6.400    3.733    5.867 
#    0.000    0.000    0.000    4.800    0.000    0.000 
#    0.000    0.000    0.000    0.000    0.000    0.000 
#
# Total GULP energy -83601.058376 kJ/mol
# GULP energy per Si atom -5573.403892 kJ/mol
# Density = 2.000049 g / cm^3
# Si number density = 20.046121 Si / 1000 Ang^3
#
#
#
# Elastic Constant Matrix: (Units=GPa)
#
#
# Indices 1 2 3 4 5 6 
#
# 1 72.0558 27.7563 7.8481 23.8257 -19.3107 -5.8850
# 2 27.7563 40.7312 4.4054 -12.7211 15.7582 -5.5278
# 3 7.8481 4.4054 81.4609 25.9182 -16.7482 11.9648
# 4 23.8257 -12.7211 25.9182 4.0269 25.2649 -2.3741
# 5 -19.3107 15.7582 -16.7482 25.2649 -4.0031 -0.1071
# 6 -5.8850 -5.5278 11.9648 -2.3741 -0.1071 34.9087
#
#
#
# Elastic Compliance Matrix: (Units=1/GPa)
#
#
# Indices 1 2 3 4 5 6 
#
# 1 0.011614 -0.002157 -0.004931 0.005772 -0.007554 0.003676
# 2 -0.002157 0.019164 0.003982 -0.009505 0.009178 0.000688
# 3 -0.004931 0.003982 0.011755 0.000588 -0.005893 -0.004208
# 4 0.005772 -0.009505 0.000588 0.014915 0.026405 0.000362
# 5 -0.007554 0.009178 -0.005893 0.026405 0.013961 0.004038
# 6 0.003676 0.000688 -0.004208 0.000362 0.004038 0.030854
#
#
# Mechanical properties :
#
#
# Convention : Reuss Voigt Hill
#
# Bulk Modulus (GPa) = 27.53366 30.47417 29.00392
# Shear Modulus (GPa) = 41.46537 17.26904 29.36721
#
# Velocity S-wave (km/s) = 4.55301 2.93826 3.83166
# Velocity P-wave (km/s) = 6.43466 5.17167 5.83742
#
# Compressibility (1/GPa) = 0.03631918
#
# Stress axis : x y z
#
# Youngs Moduli (GPa) = 86.10597 52.18070 85.07046
#
# Poissons Ratio (x) = 0.11255 0.41952
# Poissons Ratio (y) = 0.18572 -0.33872
# Poissons Ratio (z) = 0.42463 -0.20776
#
# Static dielectric constant tensor:
#      x y z
#    x 1.701700 -0.020910 0.027890 
#    y -0.020910 1.694000 -0.024050 
#    z 0.027890 -0.024050 1.733720 
# 
# From -- ./inp_files/75121.got.cif
#   From: 2010.05.17/outbox.cif.g08.bks.cpg/sg2_38_cif.got.tgz:75121.got - 2010.06.03 11:33:40.
