data_PCOD9095802
_publ_section_title
;
Structure prediction by ZEFSAII (Michael W. Deem and Ramdas Pophale) SiO2 
 PCOD9095802
Probable space group: P -1
;
_chemical_formula_sum "Si O2"
_cell_formula_units_Z 12
_cell_length_a 14.862434
_cell_length_b 5.311430
_cell_length_c 14.156486
_cell_angle_alpha 69.127571
_cell_angle_beta 39.023037
_cell_angle_gamma 86.093014
_cell_volume 614.713101
_symmetry_space_group_name_H-M "P -1"
_symmetry_group_IT_number 2
_symmetry_cell_setting 'triclinic'
loop_
_space_group_symop_operation_xyz
x,y,z
-x,-y,-z
loop_
_atom_site_type_symbol
_atom_site_label
_atom_site_fract_x
_atom_site_fract_y
_atom_site_fract_z
Si Si1 0.465649 0.443973 0.202311
Si Si2 0.652003 0.062886 0.772845
Si Si3 0.047451 0.917089 0.073196
Si Si4 0.924625 0.002636 0.661770
Si Si5 0.173301 0.398747 0.545539
Si Si6 0.196256 0.445161 0.024075
O O1 0.450965 0.747832 0.143921
O O2 0.624320 0.482762 0.116913
O O3 0.321201 0.318644 0.407970
O O4 0.437880 0.237294 0.162747
O O5 0.762791 0.261018 0.572988
O O6 0.766283 0.049291 0.763445
O O7 0.154588 0.726265 0.002175
O O8 0.129596 0.202890 0.030372
O O9 0.899316 0.716930 0.279684
O O10 0.000000 0.000000 0.000000
O O11 0.041229 0.251195 0.596492
O O12 0.000000 0.000000 0.500000
O O13 0.884173 0.707826 0.792736
#
# Coordination Sequence:
#
# PCOD9095802 Si02
#       6
#     2   2   2   2   2   2
#     4  10  22  38  58  87 129 157 190 243 298 345
#     4  10  20  35  60  85 127 159 201 225 293 348
#     4  11  24  44  67  87 112 155 203 252 303 355
#     4  11  19  37  60  92 120 167 201 237 281 352
#     4   9  22  37  63  86 122 156 202 248 284 346
#     4  11  25  41  62  90 125 150 198 252 298 350
#
# _framework density 19.521301999999999
#
# number of rings (size 3 to 8) (size 9 to 14) (size 15 to 20)
#    1.000    0.667    1.667    3.000    2.333    5.333 
#    0.000    1.667    0.000    0.000    0.000    0.000 
#    0.000    0.000    0.000    0.000    0.000    0.000 
#
# Total GULP energy -67017.947902 kJ/mol
# GULP energy per Si atom -5584.828992 kJ/mol
# Density = 1.947687 g / cm^3
# Si number density = 19.521302 Si / 1000 Ang^3
#
#
#
# Elastic Constant Matrix: (Units=GPa)
#
#
# Indices 1 2 3 4 5 6 
#
# 1 153.0114 59.8130 70.4345 8.1506 -0.1916 -9.0947
# 2 59.8130 116.5946 39.8428 14.3242 -4.8625 -9.4746
# 3 70.4345 39.8428 96.8113 4.9325 -18.6494 4.5472
# 4 8.1506 14.3242 4.9325 23.9730 -5.6784 -9.5447
# 5 -0.1916 -4.8625 -18.6494 -5.6784 31.4101 3.2514
# 6 -9.0947 -9.4746 4.5472 -9.5447 3.2514 26.9800
#
#
#
# Elastic Compliance Matrix: (Units=1/GPa)
#
#
# Indices 1 2 3 4 5 6 
#
# 1 0.012221 -0.002987 -0.009150 0.000173 -0.006353 0.005440
# 2 -0.002987 0.011743 -0.002670 -0.004884 -0.000870 0.001944
# 3 -0.009150 -0.002670 0.021018 -0.000220 0.012923 -0.009200
# 4 0.000173 -0.004884 -0.000220 0.052714 0.006968 0.016190
# 5 -0.006353 -0.000870 0.012923 0.006968 0.041335 -0.007141
# 6 0.005440 0.001944 -0.009200 0.016190 -0.007141 0.047719
#
#
# Mechanical properties :
#
#
# Convention : Reuss Voigt Hill
#
# Bulk Modulus (GPa) = 65.06846 78.51088 71.78967
# Shear Modulus (GPa) = 22.57456 29.56108 26.06782
#
# Velocity S-wave (km/s) = 3.40429 3.89562 3.65821
# Velocity P-wave (km/s) = 6.98975 7.78074 7.39583
#
# Compressibility (1/GPa) = 0.01536843
#
# Stress axis : x y z
#
# Youngs Moduli (GPa) = 81.82438 85.15717 47.57797
#
# Poissons Ratio (x) = 0.25435 0.43536
# Poissons Ratio (y) = 0.24440 0.12702
# Poissons Ratio (z) = 0.74872 0.22735
#
# Static dielectric constant tensor:
#      x y z
#    x 1.635410 -0.024780 0.012010 
#    y -0.024780 1.691740 0.008480 
#    z 0.012010 0.008480 1.751820 
# 
# From -- ./inp_files/479743.got.cif
#   From: 2010.05.17/outbox.cif.g08.bks.cpg/sg2_240_cif.got.tgz:479743.got - 2010.06.03 11:33:40.
