data_PCOD9095023
_publ_section_title
;
Structure prediction by ZEFSAII (Michael W. Deem and Ramdas Pophale) SiO2 
 PCOD9095023
Probable space group: P -1
;
_chemical_formula_sum "Si O2"
_cell_formula_units_Z 14
_cell_length_a 8.515793
_cell_length_b 11.134736
_cell_length_c 13.008593
_cell_angle_alpha 146.402603
_cell_angle_beta 103.670662
_cell_angle_gamma 86.984905
_cell_volume 638.902118
_symmetry_space_group_name_H-M "P -1"
_symmetry_group_IT_number 2
_symmetry_cell_setting 'triclinic'
loop_
_space_group_symop_operation_xyz
x,y,z
-x,-y,-z
loop_
_atom_site_type_symbol
_atom_site_label
_atom_site_fract_x
_atom_site_fract_y
_atom_site_fract_z
Si Si1 0.916968 0.742586 0.774827
Si Si2 0.699895 0.482334 0.735457
Si Si3 0.640795 0.770755 0.424511
Si Si4 0.561762 0.201453 0.795890
Si Si5 0.227126 0.962899 0.645874
Si Si6 0.844702 0.604203 0.065472
Si Si7 0.068840 0.336403 0.506826
O O1 0.773926 0.629859 0.754031
O O2 0.858867 0.713254 0.626610
O O3 0.046915 0.586602 0.688985
O O4 0.000000 0.000000 0.000000
O O5 0.500224 0.408294 0.660317
O O6 0.755495 0.246870 0.571090
O O7 0.773886 0.602169 0.937146
O O8 0.552954 0.781583 0.309172
O O9 0.814211 0.709427 0.417324
O O10 0.657218 0.013962 0.651198
O O11 0.421219 0.108013 0.793835
O O12 0.701804 0.435735 0.991517
O O13 0.115893 0.836027 0.632260
O O14 0.131282 0.139650 0.713655
O O15 0.000000 0.500000 0.000000
#
# Coordination Sequence:
#
# PCOD9095023 Si02
#       7
#     2   2   2   2   2   2   2
#     4  10  21  39  57  79 107 140 185 234 275 315
#     4   9  21  38  55  76 110 143 174 229 278 315
#     4   9  18  36  56  81 112 144 181 220 268 325
#     4   9  19  34  54  81 117 146 173 221 269 319
#     4  10  20  35  53  77 109 145 178 217 271 320
#     4  11  21  33  54  83 110 143 185 220 262 326
#     4  10  21  36  59  81 105 145 187 224 269 325
#
# _framework density 21.912592
#
# number of rings (size 3 to 8) (size 9 to 14) (size 15 to 20)
#    0.000    2.286    0.000    3.000    0.000    4.000 
#    0.000    6.429    0.000    0.000    0.000    0.000 
#    0.000    0.000    0.000    0.000    0.000    0.000 
#
# Total GULP energy -78147.045190 kJ/mol
# GULP energy per Si atom -5581.931799 kJ/mol
# Density = 2.186272 g / cm^3
# Si number density = 21.912592 Si / 1000 Ang^3
#
#
#
# Elastic Constant Matrix: (Units=GPa)
#
#
# Indices 1 2 3 4 5 6 
#
# 1 68.2823 25.1133 29.2262 13.8854 1.9727 10.9908
# 2 25.1133 67.8522 32.2376 13.1914 15.9290 16.6114
# 3 29.2262 32.2376 104.8036 31.3862 -2.0754 6.2669
# 4 13.8854 13.1914 31.3862 34.6204 2.0053 0.4961
# 5 1.9727 15.9290 -2.0754 2.0053 23.4975 13.1423
# 6 10.9908 16.6114 6.2669 0.4961 13.1423 45.3110
#
#
#
# Elastic Compliance Matrix: (Units=1/GPa)
#
#
# Indices 1 2 3 4 5 6 
#
# 1 0.018713 -0.005268 -0.002211 -0.003678 0.004039 -0.003433
# 2 -0.005268 0.023556 -0.005681 -0.000830 -0.014666 -0.002310
# 3 -0.002211 -0.005681 0.015572 -0.011463 0.007233 -0.001507
# 4 -0.003678 -0.000830 -0.011463 0.041354 -0.005936 0.004051
# 5 0.004039 -0.014666 0.007233 -0.005936 0.061317 -0.014323
# 6 -0.003433 -0.002310 -0.001507 0.004051 -0.014323 0.028068
#
#
# Mechanical properties :
#
#
# Convention : Reuss Voigt Hill
#
# Bulk Modulus (GPa) = 31.72399 46.01026 38.86712
# Shear Modulus (GPa) = 22.18206 30.97652 26.57929
#
# Velocity S-wave (km/s) = 3.18511 3.76392 3.48655
# Velocity P-wave (km/s) = 5.29486 6.31919 5.82957
#
# Compressibility (1/GPa) = 0.03152189
#
# Stress axis : x y z
#
# Youngs Moduli (GPa) = 53.43908 42.45121 64.21796
#
# Poissons Ratio (x) = 0.22363 0.14200
# Poissons Ratio (y) = 0.28152 0.36479
# Poissons Ratio (z) = 0.11816 0.24115
#
# Static dielectric constant tensor:
#      x y z
#    x 1.825010 0.042520 -0.021920 
#    y 0.042520 1.818040 0.007020 
#    z -0.021920 0.007020 1.812420 
# 
# From -- ./inp_files/204566.got.cif
#   From: 2010.05.17/outbox.cif.g08.bks.cpg/sg2_103_cif.got.tgz:204566.got - 2010.06.03 11:33:40.
