data_PCOD9095504
_publ_section_title
;
Structure prediction by ZEFSAII (Michael W. Deem and Ramdas Pophale) SiO2 
 PCOD9095504
Probable space group: P -1
;
_chemical_formula_sum "Si O2"
_cell_formula_units_Z 16
_cell_length_a 6.140817
_cell_length_b 13.507273
_cell_length_c 13.724048
_cell_angle_alpha 138.859697
_cell_angle_beta 110.748763
_cell_angle_gamma 76.208297
_cell_volume 699.606475
_symmetry_space_group_name_H-M "P -1"
_symmetry_group_IT_number 2
_symmetry_cell_setting 'triclinic'
loop_
_space_group_symop_operation_xyz
x,y,z
-x,-y,-z
loop_
_atom_site_type_symbol
_atom_site_label
_atom_site_fract_x
_atom_site_fract_y
_atom_site_fract_z
Si Si1 0.857012 0.131130 0.688072
Si Si2 0.173764 0.389763 0.999077
Si Si3 0.165023 0.154068 0.216896
Si Si4 0.986179 0.814591 0.461164
Si Si5 0.675333 0.117934 0.062099
Si Si6 0.686764 0.652032 0.800979
Si Si7 0.565759 0.326501 0.525154
Si Si8 0.477607 0.357441 0.765578
O O1 0.878854 0.129266 0.573134
O O2 0.635387 0.232036 0.749353
O O3 0.858283 0.957396 0.591195
O O4 0.089354 0.222536 0.830381
O O5 0.154740 0.389413 0.113025
O O6 0.422822 0.472178 0.071685
O O7 0.000000 0.500000 0.000000
O O8 0.196153 0.240646 0.182049
O O9 0.349231 0.235210 0.376715
O O10 0.225755 0.979682 0.082754
O O11 0.891938 0.159853 0.197903
O O12 0.188497 0.749421 0.509880
O O13 0.793368 0.688677 0.301962
O O14 0.528571 0.261206 0.122786
O O15 0.500000 0.000000 0.000000
O O16 0.594087 0.498402 0.623043
O O17 0.524358 0.339494 0.644030
#
# Coordination Sequence:
#
# PCOD9095504 Si02
#       8
#     2   2   2   2   2   2   2   2
#     4   9  19  36  55  81 116 154 200 247 289 352
#     4   9  19  37  58  83 118 153 195 241 289 347
#     4  10  21  40  61  87 118 153 197 242 294 347
#     4  10  20  35  58  83 119 151 198 247 293 350
#     4   9  21  40  60  83 118 154 193 245 289 348
#     4  10  21  38  60  85 121 153 195 242 291 351
#     4  10  22  36  57  89 117 149 196 242 288 354
#     4   9  19  36  55  84 118 155 195 244 297 345
#
# _framework density 22.869999
#
# number of rings (size 3 to 8) (size 9 to 14) (size 15 to 20)
#    0.000    2.500    0.000    1.500    1.750    5.000 
#    4.500    2.500    0.000    0.000    0.000    0.000 
#    0.000    0.000    0.000    0.000    0.000    0.000 
#
# Total GULP energy -89271.004002 kJ/mol
# GULP energy per Si atom -5579.437750 kJ/mol
# Density = 2.281795 g / cm^3
# Si number density = 22.869999 Si / 1000 Ang^3
#
#
#
# Elastic Constant Matrix: (Units=GPa)
#
#
# Indices 1 2 3 4 5 6 
#
# 1 62.4135 31.6800 14.9401 0.8483 24.9581 -13.6251
# 2 31.6800 83.8632 43.8263 9.9463 9.3934 -18.4020
# 3 14.9401 43.8263 125.6174 8.5507 34.3494 -15.7149
# 4 0.8483 9.9463 8.5507 33.5689 4.0533 -0.5723
# 5 24.9581 9.3934 34.3494 4.0533 39.4243 -6.6697
# 6 -13.6251 -18.4020 -15.7149 -0.5723 -6.6697 21.9927
#
#
#
# Elastic Compliance Matrix: (Units=1/GPa)
#
#
# Indices 1 2 3 4 5 6 
#
# 1 0.030552 -0.011505 0.007081 0.003601 -0.021814 0.007839
# 2 -0.011505 0.021591 -0.007693 -0.005310 0.010841 0.008591
# 3 0.007081 -0.007693 0.014190 0.000290 -0.014412 0.003726
# 4 0.003601 -0.005310 0.000290 0.031754 -0.004987 -0.002691
# 5 -0.021814 0.010841 -0.014412 -0.004987 0.049695 0.000200
# 6 0.007839 0.008591 0.003726 -0.002691 0.000200 0.060167
#
#
# Mechanical properties :
#
#
# Convention : Reuss Voigt Hill
#
# Bulk Modulus (GPa) = 23.75378 50.30966 37.03172
# Shear Modulus (GPa) = 20.30724 31.09369 25.70046
#
# Velocity S-wave (km/s) = 2.98307 3.69125 3.35589
# Velocity P-wave (km/s) = 4.71953 6.34137 5.58958
#
# Compressibility (1/GPa) = 0.04209857
#
# Stress axis : x y z
#
# Youngs Moduli (GPa) = 32.73061 46.31536 70.47289
#
# Poissons Ratio (x) = 0.53288 -0.49900
# Poissons Ratio (y) = 0.37658 0.54213
# Poissons Ratio (z) = -0.23176 0.35629
#
# Static dielectric constant tensor:
#      x y z
#    x 1.924020 -0.005490 -0.010040 
#    y -0.005490 1.872340 0.002610 
#    z -0.010040 0.002610 1.882650 
# 
# From -- ./inp_files/100666.got.cif
#   From: 2010.05.17/outbox.cif.g08.bks.cpg/sg2_51_cif.got.tgz:100666.got - 2010.06.03 11:33:40.
