data_PCOD9095712
_publ_section_title
;
Structure prediction by ZEFSAII (Michael W. Deem and Ramdas Pophale) SiO2 
 PCOD9095712
Probable space group: P -1
;
_chemical_formula_sum "Si O2"
_cell_formula_units_Z 16
_cell_length_a 18.211774
_cell_length_b 8.355222
_cell_length_c 11.736586
_cell_angle_alpha 56.322773
_cell_angle_beta 61.378574
_cell_angle_gamma 107.817334
_cell_volume 812.282201
_symmetry_space_group_name_H-M "P -1"
_symmetry_group_IT_number 2
_symmetry_cell_setting 'triclinic'
loop_
_space_group_symop_operation_xyz
x,y,z
-x,-y,-z
loop_
_atom_site_type_symbol
_atom_site_label
_atom_site_fract_x
_atom_site_fract_y
_atom_site_fract_z
Si Si1 0.561411 0.732383 0.967493
Si Si2 0.880461 0.936893 0.605588
Si Si3 0.211029 0.865429 0.724890
Si Si4 0.298821 0.424769 0.344689
Si Si5 0.630746 0.480245 0.131690
Si Si6 0.372242 0.795673 0.553044
Si Si7 0.213795 0.574543 0.533695
Si Si8 0.983397 0.511642 0.203253
O O1 0.456357 0.710160 0.085425
O O2 0.586280 0.620099 0.091047
O O3 0.500000 0.500000 0.000000
O O4 0.699986 0.076607 0.690286
O O5 0.787832 0.737004 0.642060
O O6 0.945742 0.264088 0.408415
O O7 0.778298 0.733977 0.866969
O O8 0.000000 0.000000 0.500000
O O9 0.304083 0.845370 0.658172
O O10 0.109431 0.657553 0.775150
O O11 0.284629 0.194755 0.509602
O O12 0.130616 0.748757 0.947884
O O13 0.239039 0.480285 0.447450
O O14 0.626029 0.390343 0.297980
O O15 0.521611 0.146893 0.279708
O O16 0.283234 0.611592 0.579672
O O17 0.061888 0.371923 0.748750
#
# Coordination Sequence:
#
# PCOD9095712 Si02
#       8
#     2   2   2   2   2   2   2   2
#     4  12  18  38  63  87 112 151 198 239 273 340
#     4  11  21  37  59  85 112 150 200 241 278 335
#     4   9  17  34  55  80 110 145 196 234 268 332
#     4  11  22  35  59  89 114 152 191 237 290 343
#     4  11  20  34  63  87 113 144 199 241 278 325
#     4  10  20  35  59  89 113 147 190 241 286 337
#     4  11  21  36  58  87 122 150 187 232 295 348
#     4   9  18  33  56  78 107 153 194 228 273 339
#
# _framework density 19.697590000000002
#
# number of rings (size 3 to 8) (size 9 to 14) (size 15 to 20)
#    0.000    1.500    5.000    1.875    0.000    1.500 
#    0.000    1.250    5.500    0.000    0.000    0.000 
#    0.000    0.000    0.000    0.000    0.000    0.000 
#
# Total GULP energy -89284.291446 kJ/mol
# GULP energy per Si atom -5580.268215 kJ/mol
# Density = 1.965276 g / cm^3
# Si number density = 19.697590 Si / 1000 Ang^3
#
#
#
# Elastic Constant Matrix: (Units=GPa)
#
#
# Indices 1 2 3 4 5 6 
#
# 1 97.8651 -8.3550 22.8908 1.2524 9.9192 -13.2126
# 2 -8.3550 29.6006 -10.3456 12.8292 4.1160 -12.6757
# 3 22.8908 -10.3456 80.2619 15.7406 -4.6599 -1.5667
# 4 1.2524 12.8292 15.7406 17.7258 -7.8370 -8.6119
# 5 9.9192 4.1160 -4.6599 -7.8370 40.4284 8.6308
# 6 -13.2126 -12.6757 -1.5667 -8.6119 8.6308 16.3054
#
#
#
# Elastic Compliance Matrix: (Units=1/GPa)
#
#
# Indices 1 2 3 4 5 6 
#
# 1 0.024443 0.045146 0.002299 -0.019641 -0.026707 0.058886
# 2 0.045146 0.223317 0.045106 -0.159899 -0.098509 0.182211
# 3 0.002299 0.045106 0.027961 -0.055828 -0.016818 0.019030
# 4 -0.019641 -0.159899 -0.055828 0.222872 0.071947 -0.065955
# 5 -0.026707 -0.098509 -0.016818 0.071947 0.075002 -0.101538
# 6 0.058886 0.182211 0.019030 -0.065955 -0.101538 0.271435
#
#
# Mechanical properties :
#
#
# Convention : Reuss Voigt Hill
#
# Bulk Modulus (GPa) = 2.17004 24.01202 13.09103
# Shear Modulus (GPa) = 6.14600 28.46109 17.30354
#
# Velocity S-wave (km/s) = 1.76832 3.80531 2.96710
# Velocity P-wave (km/s) = 2.29637 5.61462 4.28937
#
# Compressibility (1/GPa) = 0.46082162
#
# Stress axis : x y z
#
# Youngs Moduli (GPa) = 40.91147 4.47794 35.76359
#
# Poissons Ratio (x) = -0.20216 -0.08222
# Poissons Ratio (y) = -1.84697 -1.61314
# Poissons Ratio (z) = -0.09405 -0.20198
#
# Static dielectric constant tensor:
#      x y z
#    x 1.687370 -0.011350 -0.019030 
#    y -0.011350 1.681110 0.003910 
#    z -0.019030 0.003910 1.731810 
# 
# From -- ./inp_files/205577.got.cif
#   From: 2010.05.17/outbox.cif.g08.bks.cpg/sg2_103_cif.got.tgz:205577.got - 2010.06.03 11:33:40.
