data_PCOD9095865
_publ_section_title
;
Structure prediction by ZEFSAII (Michael W. Deem and Ramdas Pophale) SiO2 
 PCOD9095865
Probable space group: P -1
;
_chemical_formula_sum "Si O2"
_cell_formula_units_Z 16
_cell_length_a 13.363111
_cell_length_b 9.120785
_cell_length_c 10.752564
_cell_angle_alpha 57.636452
_cell_angle_beta 44.728228
_cell_angle_gamma 54.383696
_cell_volume 732.642127
_symmetry_space_group_name_H-M "P -1"
_symmetry_group_IT_number 2
_symmetry_cell_setting 'triclinic'
loop_
_space_group_symop_operation_xyz
x,y,z
-x,-y,-z
loop_
_atom_site_type_symbol
_atom_site_label
_atom_site_fract_x
_atom_site_fract_y
_atom_site_fract_z
Si Si1 0.696001 0.417391 0.348550
Si Si2 0.484965 0.772032 0.259141
Si Si3 0.103814 0.286975 0.525450
Si Si4 0.069730 0.161500 0.363364
Si Si5 0.828274 0.552428 0.378384
Si Si6 0.147784 0.855047 0.071505
Si Si7 0.046201 0.731623 0.985574
Si Si8 0.336074 0.958914 0.050486
O O1 0.607872 0.564784 0.254986
O O2 0.632911 0.258516 0.522407
O O3 0.695122 0.545748 0.410313
O O4 0.865500 0.322643 0.195075
O O5 0.411530 0.832640 0.160405
O O6 0.561914 0.927232 0.145427
O O7 0.989107 0.187882 0.719966
O O8 0.000000 0.500000 0.500000
O O9 0.166256 0.187424 0.386330
O O10 0.210684 0.310181 0.531864
O O11 0.184009 0.115444 0.167611
O O12 0.920411 0.340947 0.425581
O O13 0.000000 0.000000 0.500000
O O14 0.956247 0.601614 0.166125
O O15 0.285457 0.838387 0.048464
O O16 0.167087 0.738321 0.981441
O O17 0.080203 0.068516 0.997689
#
# Coordination Sequence:
#
# PCOD9095865 Si02
#       8
#     2   2   2   2   2   2   2   2
#     4  11  21  40  60  81 119 162 206 236 286 358
#     4  10  25  38  58  80 114 168 212 241 269 341
#     4   9  20  33  52  96 122 141 177 234 319 360
#     4  11  19  32  62  93 115 150 188 244 314 357
#     4  10  20  35  60  90 122 147 183 250 310 355
#     4  10  20  36  61  91 123 145 185 252 316 351
#     4  10  21  36  61  94 119 151 187 246 314 368
#     4  11  21  39  60  83 120 154 204 250 286 341
#
# _framework density 21.838766
#
# number of rings (size 3 to 8) (size 9 to 14) (size 15 to 20)
#    0.000    1.750    1.250    3.375    3.500    0.000 
#    0.000    1.250   11.000    0.000    0.000    0.000 
#    0.000    0.000    0.000    0.000    0.000    0.000 
#
# Total GULP energy -89220.055726 kJ/mol
# GULP energy per Si atom -5576.253483 kJ/mol
# Density = 2.178906 g / cm^3
# Si number density = 21.838766 Si / 1000 Ang^3
#
#
#
# Elastic Constant Matrix: (Units=GPa)
#
#
# Indices 1 2 3 4 5 6 
#
# 1 96.1129 17.1112 9.3435 -7.7651 2.8530 16.9980
# 2 17.1112 53.5835 24.9562 -18.0226 -0.4276 12.6307
# 3 9.3435 24.9562 53.2765 -20.7041 8.4181 12.9988
# 4 -7.7651 -18.0226 -20.7041 34.3874 0.4770 5.9263
# 5 2.8530 -0.4276 8.4181 0.4770 19.2941 -5.8474
# 6 16.9980 12.6307 12.9988 5.9263 -5.8474 38.3431
#
#
#
# Elastic Compliance Matrix: (Units=1/GPa)
#
#
# Indices 1 2 3 4 5 6 
#
# 1 0.012417 -0.002102 0.003785 0.005419 -0.006049 -0.007856
# 2 -0.002102 0.028144 -0.006613 0.011606 0.001197 -0.007709
# 3 0.003785 -0.006613 0.040244 0.025580 -0.025246 -0.020947
# 4 0.005419 0.011606 0.025580 0.056720 -0.021261 -0.026906
# 5 -0.006049 0.001197 -0.025246 -0.021261 0.071897 0.025097
# 6 -0.007856 -0.007709 -0.020947 -0.026906 0.025097 0.047189
#
#
# Mechanical properties :
#
#
# Convention : Reuss Voigt Hill
#
# Bulk Modulus (GPa) = 14.09511 33.97719 24.03615
# Shear Modulus (GPa) = 17.23433 28.50905 22.87169
#
# Velocity S-wave (km/s) = 2.81225 3.61700 3.23971
# Velocity P-wave (km/s) = 4.12470 5.74765 5.00244
#
# Compressibility (1/GPa) = 0.07094658
#
# Stress axis : x y z
#
# Youngs Moduli (GPa) = 80.53215 35.53174 24.84843
#
# Poissons Ratio (x) = 0.07470 -0.09406
# Poissons Ratio (y) = 0.16930 0.16431
# Poissons Ratio (z) = -0.30485 0.23496
#
# Static dielectric constant tensor:
#      x y z
#    x 1.970570 -0.015900 0.067330 
#    y -0.015900 1.719790 0.045650 
#    z 0.067330 0.045650 1.756780 
# 
# From -- ./inp_files/444167.got.cif
#   From: 2010.05.17/outbox.cif.g08.bks.cpg/sg2_223_cif.got.tgz:444167.got - 2010.06.03 11:33:40.
