data_PCOD9095247
_publ_section_title
;
Structure prediction by ZEFSAII (Michael W. Deem and Ramdas Pophale) SiO2 
 PCOD9095247
Probable space group: P -1
;
_chemical_formula_sum "Si O2"
_cell_formula_units_Z 16
_cell_length_a 19.253076
_cell_length_b 5.708738
_cell_length_c 7.353657
_cell_angle_alpha 92.651167
_cell_angle_beta 120.477063
_cell_angle_gamma 67.694168
_cell_volume 633.515210
_symmetry_space_group_name_H-M "P -1"
_symmetry_group_IT_number 2
_symmetry_cell_setting 'triclinic'
loop_
_space_group_symop_operation_xyz
x,y,z
-x,-y,-z
loop_
_atom_site_type_symbol
_atom_site_label
_atom_site_fract_x
_atom_site_fract_y
_atom_site_fract_z
Si Si1 0.250379 0.666827 0.545087
Si Si2 0.457183 0.860684 0.569958
Si Si3 0.590152 0.259179 0.156627
Si Si4 0.088446 0.631565 0.205728
Si Si5 0.966318 0.178687 0.237072
Si Si6 0.631391 0.333842 0.823185
Si Si7 0.871446 0.779656 0.432961
Si Si8 0.781829 0.490082 0.126663
O O1 0.348007 0.641003 0.638787
O O2 0.185539 0.635858 0.309603
O O3 0.255179 0.486876 0.716353
O O4 0.195152 0.951225 0.562755
O O5 0.426430 0.942783 0.740608
O O6 0.537337 0.580618 0.696320
O O7 0.375157 0.851526 0.348645
O O8 0.500000 0.000000 0.500000
O O9 0.500000 0.500000 0.000000
O O10 0.635299 0.189761 0.016016
O O11 0.107565 0.415812 0.374793
O O12 0.053876 0.628016 0.957231
O O13 0.020057 0.897876 0.213388
O O14 0.871751 0.236520 0.200048
O O15 0.032394 0.219717 0.469131
O O16 0.705218 0.447995 0.913840
O O17 0.824766 0.699449 0.201326
#
# Coordination Sequence:
#
# PCOD9095247 Si02
#       8
#     2   2   2   2   2   2   2   2
#     4   9  20  37  56  83 113 150 196 238 287 356
#     4  10  21  39  61  88 119 149 196 249 297 357
#     4   9  19  39  64  85 119 164 190 243 308 356
#     4   9  20  36  55  79 115 152 195 237 288 346
#     4  10  20  35  56  82 112 157 192 236 291 341
#     4   9  21  40  58  87 120 152 200 241 297 362
#     4  10  20  36  54  82 119 146 194 243 283 346
#     4  10  21  36  57  82 112 155 192 238 288 349
#
# _framework density 25.255907000000001
#
# number of rings (size 3 to 8) (size 9 to 14) (size 15 to 20)
#    0.000    2.500    0.000    0.750    1.750    8.000 
#    2.250    5.000    0.000    0.000    0.000    0.000 
#    0.000    0.000    0.000    0.000    0.000    0.000 
#
# Total GULP energy -89231.410127 kJ/mol
# GULP energy per Si atom -5576.963133 kJ/mol
# Density = 2.519842 g / cm^3
# Si number density = 25.255907 Si / 1000 Ang^3
#
#
#
# Elastic Constant Matrix: (Units=GPa)
#
#
# Indices 1 2 3 4 5 6 
#
# 1 115.0280 3.4313 57.2345 5.1212 3.6599 12.4929
# 2 3.4313 25.4179 18.3343 5.7657 -3.9599 4.9618
# 3 57.2345 18.3343 139.2412 23.3068 30.9155 13.4561
# 4 5.1212 5.7657 23.3068 34.2664 17.4196 3.7300
# 5 3.6599 -3.9599 30.9155 17.4196 67.8091 -10.1218
# 6 12.4929 4.9618 13.4561 3.7300 -10.1218 23.1004
#
#
#
# Elastic Compliance Matrix: (Units=1/GPa)
#
#
# Indices 1 2 3 4 5 6 
#
# 1 0.011484 0.002775 -0.005184 0.001174 0.001081 -0.003503
# 2 0.002775 0.047746 -0.007668 -0.006675 0.007406 -0.002966
# 3 -0.005184 -0.007668 0.012613 -0.002969 -0.005903 -0.005004
# 4 0.001174 -0.006675 -0.002969 0.038166 -0.010108 -0.008064
# 5 0.001081 0.007406 -0.005903 -0.010108 0.022300 0.012666
# 6 -0.003503 -0.002966 -0.005004 -0.008064 0.012666 0.055588
#
#
# Mechanical properties :
#
#
# Convention : Reuss Voigt Hill
#
# Bulk Modulus (GPa) = 19.34641 48.63192 33.98917
# Shear Modulus (GPa) = 22.19457 38.41434 30.30445
#
# Velocity S-wave (km/s) = 2.96765 3.90424 3.46771
# Velocity P-wave (km/s) = 4.40674 6.29456 5.43327
#
# Compressibility (1/GPa) = 0.05168917
#
# Stress axis : x y z
#
# Youngs Moduli (GPa) = 87.07879 20.94428 79.28117
#
# Poissons Ratio (x) = -0.05811 0.41098
# Poissons Ratio (y) = -0.24162 0.60791
# Poissons Ratio (z) = 0.45140 0.16060
#
# Static dielectric constant tensor:
#      x y z
#    x 2.073470 0.097850 -0.004180 
#    y 0.097850 2.080240 0.057430 
#    z -0.004180 0.057430 2.022160 
# 
# From -- ./inp_files/339804.got.cif
#   From: 2010.05.17/outbox.cif.g08.bks.cpg/sg2_170_cif.got.tgz:339804.got - 2010.06.03 11:33:40.
