data_PCOD9095809
_publ_section_title
;
Structure prediction by ZEFSAII (Michael W. Deem and Ramdas Pophale) SiO2 
 PCOD9095809
Probable space group: P -1
;
_chemical_formula_sum "Si O2"
_cell_formula_units_Z 14
_cell_length_a 5.422817
_cell_length_b 24.979355
_cell_length_c 11.645135
_cell_angle_alpha 29.403760
_cell_angle_beta 51.953138
_cell_angle_gamma 57.940715
_cell_volume 609.814354
_symmetry_space_group_name_H-M "P -1"
_symmetry_group_IT_number 2
_symmetry_cell_setting 'triclinic'
loop_
_space_group_symop_operation_xyz
x,y,z
-x,-y,-z
loop_
_atom_site_type_symbol
_atom_site_label
_atom_site_fract_x
_atom_site_fract_y
_atom_site_fract_z
Si Si1 0.804699 0.835760 0.914945
Si Si2 0.950132 0.611369 0.375477
Si Si3 0.068582 0.839300 0.583439
Si Si4 0.916444 0.530842 0.779292
Si Si5 0.756374 0.047747 0.247232
Si Si6 0.485564 0.332144 0.234347
Si Si7 0.586875 0.639395 0.060823
O O1 0.020749 0.863978 0.687427
O O2 0.995084 0.878937 0.890250
O O3 0.534241 0.110480 0.105218
O O4 0.776452 0.705595 0.181522
O O5 0.308937 0.653533 0.202940
O O6 0.000000 0.500000 0.500000
O O7 0.816350 0.584715 0.587711
O O8 0.404365 0.790093 0.546053
O O9 0.950288 0.941418 0.354213
O O10 0.831953 0.737323 0.824355
O O11 0.855263 0.622521 0.720791
O O12 0.254084 0.478471 0.761264
O O13 0.708957 0.421314 0.066917
O O14 0.500000 0.000000 0.500000
O O15 0.545534 0.347726 0.053275
#
# Coordination Sequence:
#
# PCOD9095809 Si02
#       7
#     2   2   2   2   2   2   2
#     4  11  22  36  56  90 122 151 195 249 297 353
#     4  12  21  37  58  85 119 156 192 242 297 352
#     4  10  20  35  60  86 115 152 197 246 298 342
#     4  10  22  36  54  84 119 158 190 241 295 350
#     4  10  21  35  59  87 122 150 194 254 302 338
#     4  10  20  37  56  83 119 149 200 239 288 362
#     4  11  20  35  59  86 117 151 201 242 293 353
#
# _framework density 22.957808
#
# number of rings (size 3 to 8) (size 9 to 14) (size 15 to 20)
#    0.000    1.429    2.857    5.143    2.000    1.143 
#    0.000    0.000    0.000    1.714    0.000    0.000 
#    0.000    0.000    0.000    0.000    0.000    0.000 
#
# Total GULP energy -78146.387603 kJ/mol
# GULP energy per Si atom -5581.884829 kJ/mol
# Density = 2.290556 g / cm^3
# Si number density = 22.957808 Si / 1000 Ang^3
#
#
#
# Elastic Constant Matrix: (Units=GPa)
#
#
# Indices 1 2 3 4 5 6 
#
# 1 119.3896 34.0462 36.3300 -27.1255 26.7361 -16.3184
# 2 34.0462 83.0387 25.2480 -18.5582 12.6577 -22.6789
# 3 36.3300 25.2480 64.3856 -23.5801 26.8160 -10.7734
# 4 -27.1255 -18.5582 -23.5801 32.1679 -8.6983 11.0658
# 5 26.7361 12.6577 26.8160 -8.6983 37.0161 -21.9430
# 6 -16.3184 -22.6789 -10.7734 11.0658 -21.9430 29.0687
#
#
#
# Elastic Compliance Matrix: (Units=1/GPa)
#
#
# Indices 1 2 3 4 5 6 
#
# 1 0.012508 -0.003619 0.000469 0.008276 -0.009896 -0.006249
# 2 -0.003619 0.019483 -0.008724 -0.001688 0.014743 0.021707
# 3 0.000469 -0.008724 0.037148 0.022695 -0.035786 -0.028429
# 4 0.008276 -0.001688 0.022695 0.056857 -0.025976 -0.029512
# 5 -0.009896 0.014743 -0.035786 -0.025976 0.091341 0.071524
# 6 -0.006249 0.021707 -0.028429 -0.029512 0.071524 0.102518
#
#
# Mechanical properties :
#
#
# Convention : Reuss Voigt Hill
#
# Bulk Modulus (GPa) = 22.03201 50.89579 36.46390
# Shear Modulus (GPa) = 13.93793 31.06320 22.50056
#
# Velocity S-wave (km/s) = 2.46663 3.68238 3.13402
# Velocity P-wave (km/s) = 4.21069 6.34802 5.38643
#
# Compressibility (1/GPa) = 0.04538851
#
# Stress axis : x y z
#
# Youngs Moduli (GPa) = 79.95028 51.32667 26.91967
#
# Poissons Ratio (x) = 0.18577 -0.01261
# Poissons Ratio (y) = 0.28936 0.23485
# Poissons Ratio (z) = -0.03746 0.44778
#
# Static dielectric constant tensor:
#      x y z
#    x 1.973710 -0.049850 -0.027780 
#    y -0.049850 1.896360 -0.036480 
#    z -0.027780 -0.036480 1.897430 
# 
# From -- ./inp_files/370794.got.cif
#   From: 2010.05.17/outbox.cif.g08.bks.cpg/sg2_186_cif.got.tgz:370794.got - 2010.06.03 11:33:40.
