data_PCOD9095462
_publ_section_title
;
Structure prediction by ZEFSAII (Michael W. Deem and Ramdas Pophale) SiO2 
 PCOD9095462
Probable space group: P -1
;
_chemical_formula_sum "Si O2"
_cell_formula_units_Z 16
_cell_length_a 8.386468
_cell_length_b 21.551025
_cell_length_c 8.741153
_cell_angle_alpha 61.510138
_cell_angle_beta 75.180054
_cell_angle_gamma 127.273061
_cell_volume 693.145046
_symmetry_space_group_name_H-M "P -1"
_symmetry_group_IT_number 2
_symmetry_cell_setting 'triclinic'
loop_
_space_group_symop_operation_xyz
x,y,z
-x,-y,-z
loop_
_atom_site_type_symbol
_atom_site_label
_atom_site_fract_x
_atom_site_fract_y
_atom_site_fract_z
Si Si1 0.614552 0.824554 0.423071
Si Si2 0.188080 0.274103 0.249376
Si Si3 0.976091 0.182993 0.081829
Si Si4 0.681536 0.427844 0.178117
Si Si5 0.363893 0.408519 0.497416
Si Si6 0.420705 0.092985 0.385671
Si Si7 0.819360 0.240779 0.604040
Si Si8 0.779656 0.989674 0.791695
O O1 0.566648 0.723908 0.535739
O O2 0.488041 0.812557 0.628728
O O3 0.387425 0.774019 0.408417
O O4 0.995210 0.970409 0.192565
O O5 0.539509 0.402994 0.082631
O O6 0.197466 0.279938 0.059394
O O7 0.979111 0.256320 0.407960
O O8 0.989620 0.130838 0.508865
O O9 0.697850 0.139351 0.219355
O O10 0.828605 0.050973 0.295999
O O11 0.161836 0.269048 0.781753
O O12 0.647232 0.479637 0.242038
O O13 0.000000 0.500000 0.000000
O O14 0.500000 0.500000 0.500000
O O15 0.110783 0.358004 0.513466
O O16 0.312157 0.083513 0.258087
O O17 0.537120 0.100624 0.937524
#
# Coordination Sequence:
#
# PCOD9095462 Si02
#       8
#     2   2   2   2   2   2   2   2
#     4  11  23  38  60  96 130 167 204 258 331 373
#     4   9  20  38  62  90 121 170 213 257 313 377
#     4  10  20  39  63  94 123 163 218 256 300 375
#     4  10  25  45  64  90 128 166 214 268 324 372
#     4  11  26  45  67  92 122 172 224 263 308 382
#     4  10  20  36  64  93 129 168 203 256 316 370
#     4  11  21  36  60  91 127 166 212 259 315 381
#     4  10  20  35  57  95 130 166 204 258 316 378
#
# _framework density 23.083189999999998
#
# number of rings (size 3 to 8) (size 9 to 14) (size 15 to 20)
#    0.000    1.750    2.500    1.125    1.750    5.000 
#    0.000    5.000    0.000    0.000    0.000    0.000 
#    0.000    0.000    0.000    0.000    0.000    0.000 
#
# Total GULP energy -89249.636966 kJ/mol
# GULP energy per Si atom -5578.102310 kJ/mol
# Density = 2.303065 g / cm^3
# Si number density = 23.083190 Si / 1000 Ang^3
#
#
#
# Elastic Constant Matrix: (Units=GPa)
#
#
# Indices 1 2 3 4 5 6 
#
# 1 104.2316 58.1406 26.7004 3.8447 -19.0305 29.7613
# 2 58.1406 126.8266 18.5405 9.6723 -2.6266 14.8633
# 3 26.7004 18.5405 67.4214 6.6865 -10.0710 9.4936
# 4 3.8447 9.6723 6.6865 11.1106 11.2506 3.2037
# 5 -19.0305 -2.6266 -10.0710 11.2506 42.5094 1.3662
# 6 29.7613 14.8633 9.4936 3.2037 1.3662 43.0663
#
#
#
# Elastic Compliance Matrix: (Units=1/GPa)
#
#
# Indices 1 2 3 4 5 6 
#
# 1 0.018417 -0.006305 -0.002172 -0.006113 0.009277 -0.009912
# 2 -0.006305 0.011245 0.000022 -0.007843 -0.000081 0.001058
# 3 -0.002172 0.000022 0.019089 -0.019056 0.008645 -0.001571
# 4 -0.006113 -0.007843 -0.019056 0.161285 -0.050445 0.000734
# 5 0.009277 -0.000081 0.008645 -0.050445 0.043261 -0.005908
# 6 -0.009912 0.001058 -0.001571 0.000734 -0.005908 0.030184
#
#
# Mechanical properties :
#
#
# Convention : Reuss Voigt Hill
#
# Bulk Modulus (GPa) = 31.40811 56.13807 43.77309
# Shear Modulus (GPa) = 16.07692 32.34380 24.21036
#
# Velocity S-wave (km/s) = 2.64195 3.74730 3.24208
# Velocity P-wave (km/s) = 4.78984 6.56473 5.74623
#
# Compressibility (1/GPa) = 0.03183891
#
# Stress axis : x y z
#
# Youngs Moduli (GPa) = 54.29785 88.93106 52.38677
#
# Poissons Ratio (x) = 0.56075 0.11378
# Poissons Ratio (y) = 0.34237 -0.00113
# Poissons Ratio (z) = 0.11793 -0.00192
#
# Static dielectric constant tensor:
#      x y z
#    x 1.880440 0.049770 0.027510 
#    y 0.049770 1.877370 -0.017920 
#    z 0.027510 -0.017920 1.933100 
# 
# From -- ./inp_files/226259.got.cif
#   From: 2010.05.17/outbox.cif.g08.bks.cpg/sg2_114_cif.got.tgz:226259.got - 2010.06.03 11:33:40.
