data_PCOD9095705
_publ_section_title
;
Structure prediction by ZEFSAII (Michael W. Deem and Ramdas Pophale) SiO2 
 PCOD9095705
Probable space group: P -1
;
_chemical_formula_sum "Si O2"
_cell_formula_units_Z 14
_cell_length_a 9.139234
_cell_length_b 11.852019
_cell_length_c 9.249920
_cell_angle_alpha 71.767935
_cell_angle_beta 68.998486
_cell_angle_gamma 43.679410
_cell_volume 643.751443
_symmetry_space_group_name_H-M "P -1"
_symmetry_group_IT_number 2
_symmetry_cell_setting 'triclinic'
loop_
_space_group_symop_operation_xyz
x,y,z
-x,-y,-z
loop_
_atom_site_type_symbol
_atom_site_label
_atom_site_fract_x
_atom_site_fract_y
_atom_site_fract_z
Si Si1 0.673457 0.313110 0.194501
Si Si2 0.214154 0.843592 0.071659
Si Si3 0.888697 0.722382 0.503982
Si Si4 0.079548 0.602678 0.782765
Si Si5 0.926005 0.971695 0.390234
Si Si6 0.228817 0.465680 0.281328
Si Si7 0.680143 0.690884 0.987809
O O1 0.809256 0.342755 0.209864
O O2 0.423135 0.447169 0.268292
O O3 0.702012 0.296762 0.017504
O O4 0.762024 0.143131 0.295547
O O5 0.130853 0.851595 0.256322
O O6 0.419855 0.826065 0.022215
O O7 0.000000 0.000000 0.000000
O O8 0.067645 0.614981 0.610414
O O9 0.822710 0.894057 0.474504
O O10 0.004029 0.635575 0.346617
O O11 0.741321 0.684353 0.604686
O O12 0.830915 0.723823 0.880387
O O13 0.220140 0.417280 0.859965
O O14 0.000000 0.000000 0.500000
O O15 0.247298 0.436257 0.115952
#
# Coordination Sequence:
#
# PCOD9095705 Si02
#       7
#     2   2   2   2   2   2   2
#     4  10  21  38  60  86 115 152 201 244 290 351
#     4   9  21  39  59  82 115 154 202 238 284 354
#     4  10  21  38  58  85 123 152 193 243 294 353
#     4  10  20  35  59  88 121 149 192 246 293 345
#     4  11  22  38  58  84 119 158 191 240 297 351
#     4   9  21  38  60  87 112 154 198 245 291 345
#     4   9  20  38  60  86 118 154 197 243 297 340
#
# _framework density 21.747525
#
# number of rings (size 3 to 8) (size 9 to 14) (size 15 to 20)
#    0.000    2.286    1.429    0.000    4.000    3.429 
#    0.000    2.857    3.143    0.000    0.000    0.000 
#    0.000    0.000    0.000    0.000    0.000    0.000 
#
# Total GULP energy -78003.701089 kJ/mol
# GULP energy per Si atom -5571.692935 kJ/mol
# Density = 2.169803 g / cm^3
# Si number density = 21.747525 Si / 1000 Ang^3
#
#
#
# Elastic Constant Matrix: (Units=GPa)
#
#
# Indices 1 2 3 4 5 6 
#
# 1 143.7367 18.5567 5.1699 3.4784 -12.6688 -3.8929
# 2 18.5567 48.7979 17.3796 -9.3909 -6.3569 4.4035
# 3 5.1699 17.3796 74.1540 3.7048 16.8549 -0.6871
# 4 3.4784 -9.3909 3.7048 26.4119 6.8822 -3.2573
# 5 -12.6688 -6.3569 16.8549 6.8822 17.1356 -0.2435
# 6 -3.8929 4.4035 -0.6871 -3.2573 -0.2435 36.8227
#
#
#
# Elastic Compliance Matrix: (Units=1/GPa)
#
#
# Indices 1 2 3 4 5 6 
#
# 1 0.008161 -0.002132 -0.001815 -0.003699 0.008525 0.000813
# 2 -0.002132 0.029105 -0.010927 0.007351 0.016971 -0.003147
# 3 -0.001815 -0.010927 0.022452 0.000595 -0.027698 0.001403
# 4 -0.003699 0.007351 0.000595 0.046191 -0.019106 0.002701
# 5 0.008525 0.016971 -0.027698 -0.019106 0.105837 -0.002635
# 6 0.000813 -0.003147 0.001403 0.002701 -0.002635 0.027867
#
#
# Mechanical properties :
#
#
# Convention : Reuss Voigt Hill
#
# Bulk Modulus (GPa) = 33.36565 38.76678 36.06621
# Shear Modulus (GPa) = 17.89881 31.11288 24.50584
#
# Velocity S-wave (km/s) = 2.87196 3.78648 3.36048
# Velocity P-wave (km/s) = 5.13547 6.08121 5.62824
#
# Compressibility (1/GPa) = 0.02997094
#
# Stress axis : x y z
#
# Youngs Moduli (GPa) = 122.54111 34.35892 44.53978
#
# Poissons Ratio (x) = 0.07324 0.08082
# Poissons Ratio (y) = 0.26123 0.48667
# Poissons Ratio (z) = 0.22236 0.37543
#
# Static dielectric constant tensor:
#      x y z
#    x 1.841810 0.006890 -0.051100 
#    y 0.006890 1.830860 -0.018380 
#    z -0.051100 -0.018380 1.816380 
# 
# From -- ./inp_files/174575.got.cif
#   From: 2010.05.17/outbox.cif.g08.bks.cpg/sg2_88_cif.got.tgz:174575.got - 2010.06.03 11:33:40.
