data_PCOD9095914
_publ_section_title
;
Structure prediction by ZEFSAII (Michael W. Deem and Ramdas Pophale) SiO2 
 PCOD9095914
Probable space group: P -1
;
_chemical_formula_sum "Si O2"
_cell_formula_units_Z 14
_cell_length_a 11.401191
_cell_length_b 6.550154
_cell_length_c 7.874078
_cell_angle_alpha 114.741265
_cell_angle_beta 88.283539
_cell_angle_gamma 86.628284
_cell_volume 532.164388
_symmetry_space_group_name_H-M "P -1"
_symmetry_group_IT_number 2
_symmetry_cell_setting 'triclinic'
loop_
_space_group_symop_operation_xyz
x,y,z
-x,-y,-z
loop_
_atom_site_type_symbol
_atom_site_label
_atom_site_fract_x
_atom_site_fract_y
_atom_site_fract_z
Si Si1 0.417612 0.312714 0.277324
Si Si2 0.160847 0.784057 0.912545
Si Si3 0.253569 0.605427 0.174044
Si Si4 0.921610 0.726182 0.783298
Si Si5 0.612005 0.812917 0.389387
Si Si6 0.640850 0.996609 0.113403
Si Si7 0.133222 0.073798 0.478822
O O1 0.371590 0.530564 0.247260
O O2 0.397474 0.333742 0.487055
O O3 0.547998 0.211314 0.199172
O O4 0.351921 0.111055 0.113789
O O5 0.054720 0.654799 0.803656
O O6 0.238001 0.898752 0.810165
O O7 0.248136 0.642168 0.985706
O O8 0.100845 0.005820 0.086371
O O9 0.162669 0.420171 0.157315
O O10 0.198124 0.839000 0.330262
O O11 0.892972 0.726488 0.587622
O O12 0.599429 0.811247 0.182680
O O13 0.500000 0.000000 0.500000
O O14 0.753433 0.843844 0.397041
O O15 0.000000 0.000000 0.500000
#
# Coordination Sequence:
#
# PCOD9095914 Si02
#       7
#     2   2   2   2   2   2   2
#     4  10  20  40  65  93 126 172 206 262 326 377
#     4  10  20  35  60  95 125 161 215 263 313 382
#     4  11  21  39  65  90 129 168 213 261 327 380
#     4  10  20  38  60  87 130 170 204 263 328 371
#     4  10  21  42  67  92 130 173 208 264 330 373
#     4  10  20  38  66  92 126 166 219 258 313 385
#     4  11  23  40  64  90 126 174 215 263 322 381
#
# _framework density 26.307663000000002
#
# number of rings (size 3 to 8) (size 9 to 14) (size 15 to 20)
#    0.000    1.714    2.857    2.143    0.000    1.143 
#    2.571    4.286    0.000    0.000    0.000    0.000 
#    0.000    0.000    0.000    0.000    0.000    0.000 
#
# Total GULP energy -77970.274298 kJ/mol
# GULP energy per Si atom -5569.305307 kJ/mol
# Density = 2.624779 g / cm^3
# Si number density = 26.307663 Si / 1000 Ang^3
#
#
#
# Elastic Constant Matrix: (Units=GPa)
#
#
# Indices 1 2 3 4 5 6 
#
# 1 80.5539 3.3331 22.4899 -7.5633 -2.6324 -15.5721
# 2 3.3331 103.4780 54.9160 -29.7181 -3.6280 -20.6131
# 3 22.4899 54.9160 70.1276 -20.5083 6.4739 -14.3876
# 4 -7.5633 -29.7181 -20.5083 51.1497 -1.0166 3.0654
# 5 -2.6324 -3.6280 6.4739 -1.0166 22.0270 -4.5572
# 6 -15.5721 -20.6131 -14.3876 3.0654 -4.5572 48.6711
#
#
#
# Elastic Compliance Matrix: (Units=1/GPa)
#
#
# Indices 1 2 3 4 5 6 
#
# 1 0.016152 0.006175 -0.008829 0.002232 0.006818 0.005671
# 2 0.006175 0.022215 -0.016981 0.006815 0.011146 0.006979
# 3 -0.008829 -0.016981 0.031618 0.001358 -0.013500 -0.002019
# 4 0.002232 0.006815 0.001358 0.024274 0.002674 0.002723
# 5 0.006818 0.011146 -0.013500 0.002674 0.053749 0.007776
# 6 0.005671 0.006979 -0.002019 0.002723 0.007776 0.025276
#
#
# Mechanical properties :
#
#
# Convention : Reuss Voigt Hill
#
# Bulk Modulus (GPa) = 32.55688 46.18195 39.36941
# Shear Modulus (GPa) = 22.44253 35.93093 29.18673
#
# Velocity S-wave (km/s) = 2.92392 3.69968 3.33444
# Velocity P-wave (km/s) = 4.87867 5.98689 5.46096
#
# Compressibility (1/GPa) = 0.03071547
#
# Stress axis : x y z
#
# Youngs Moduli (GPa) = 61.91153 45.01505 31.62799
#
# Poissons Ratio (x) = -0.27796 0.27923
# Poissons Ratio (y) = -0.38229 0.53706
# Poissons Ratio (z) = 0.54660 0.76438
#
# Static dielectric constant tensor:
#      x y z
#    x 2.091450 0.033180 0.066200 
#    y 0.033180 2.118870 0.077650 
#    z 0.066200 0.077650 2.137190 
# 
# From -- ./inp_files/229879.got.cif
#   From: 2010.05.17/outbox.cif.g08.bks.cpg/sg2_115_cif.got.tgz:229879.got - 2010.06.03 11:33:40.
