data_PCOD9095938
_publ_section_title
;
Structure prediction by ZEFSAII (Michael W. Deem and Ramdas Pophale) SiO2 
 PCOD9095938
Probable space group: P -1
;
_chemical_formula_sum "Si O2"
_cell_formula_units_Z 16
_cell_length_a 13.121997
_cell_length_b 16.568171
_cell_length_c 7.376666
_cell_angle_alpha 137.962022
_cell_angle_beta 39.535121
_cell_angle_gamma 144.139856
_cell_volume 567.483994
_symmetry_space_group_name_H-M "P -1"
_symmetry_group_IT_number 2
_symmetry_cell_setting 'triclinic'
loop_
_space_group_symop_operation_xyz
x,y,z
-x,-y,-z
loop_
_atom_site_type_symbol
_atom_site_label
_atom_site_fract_x
_atom_site_fract_y
_atom_site_fract_z
Si Si1 0.037859 0.865766 0.273691
Si Si2 0.693364 0.667991 0.141782
Si Si3 0.413608 0.170644 0.199158
Si Si4 0.971260 0.786586 0.627639
Si Si5 0.599001 0.007583 0.565724
Si Si6 0.411409 0.570672 0.853627
Si Si7 0.054874 0.573031 0.292671
Si Si8 0.253507 0.722520 0.649541
O O1 0.947120 0.834238 0.544445
O O2 0.881811 0.764203 0.170801
O O3 0.191754 0.033350 0.289648
O O4 0.176077 0.808093 0.995229
O O5 0.560513 0.717613 0.492898
O O6 0.613285 0.501830 0.035099
O O7 0.788198 0.720669 0.901593
O O8 0.464294 0.260553 0.092028
O O9 0.547722 0.107895 0.918231
O O10 0.025052 0.666847 0.349405
O O11 0.175827 0.925435 0.649293
O O12 0.478884 0.842661 0.523748
O O13 0.500000 0.000000 0.500000
O O14 0.500000 0.500000 0.500000
O O15 0.202912 0.524892 0.986815
O O16 0.152227 0.674047 0.507255
O O17 0.845258 0.431963 0.380401
#
# Coordination Sequence:
#
# PCOD9095938 Si02
#       8
#     2   2   2   2   2   2   2   2
#     4  11  23  40  62 100 126 169 213 260 321 383
#     4  11  22  44  65  92 131 170 216 263 316 383
#     4  10  22  39  65  91 129 173 212 265 320 373
#     4  12  24  38  68  96 132 165 211 270 313 385
#     4  11  20  38  61  95 125 165 212 261 316 374
#     4  10  20  37  67  92 119 172 218 256 314 379
#     4  11  18  38  61  90 124 163 211 263 317 370
#     4  10  20  35  61  85 125 163 208 258 310 375
#
# _framework density 28.194628999999999
#
# number of rings (size 3 to 8) (size 9 to 14) (size 15 to 20)
#    0.000    1.250    5.000    1.875    0.000    3.000 
#    0.000    0.000    0.000    9.750    0.000    0.000 
#    0.000    0.000    0.000    0.000    0.000    0.000 
#
# Total GULP energy -89592.735955 kJ/mol
# GULP energy per Si atom -5599.545997 kJ/mol
# Density = 2.813046 g / cm^3
# Si number density = 28.194629 Si / 1000 Ang^3
#
#
#
# Elastic Constant Matrix: (Units=GPa)
#
#
# Indices 1 2 3 4 5 6 
#
# 1 97.4622 61.6762 24.6728 -5.8806 -2.4322 -5.9172
# 2 61.6762 279.7665 48.8249 -0.4782 3.2737 -6.2653
# 3 24.6728 48.8249 150.8555 -22.1523 -1.6576 -3.9478
# 4 -5.8806 -0.4782 -22.1523 47.9008 -5.0837 -4.4602
# 5 -2.4322 3.2737 -1.6576 -5.0837 15.6164 -11.7889
# 6 -5.9172 -6.2653 -3.9478 -4.4602 -11.7889 57.7515
#
#
#
# Elastic Compliance Matrix: (Units=1/GPa)
#
#
# Indices 1 2 3 4 5 6 
#
# 1 0.012460 -0.002607 -0.000832 0.001780 0.004480 0.001989
# 2 -0.002607 0.004369 -0.001179 -0.001079 -0.002087 -0.000383
# 3 -0.000832 -0.001179 0.007795 0.003949 0.003194 0.001277
# 4 0.001780 -0.001079 0.003949 0.024695 0.012596 0.004814
# 5 0.004480 -0.002087 0.003194 0.012596 0.083562 0.018481
# 6 0.001989 -0.000383 0.001277 0.004814 0.018481 0.021709
#
#
# Mechanical properties :
#
#
# Convention : Reuss Voigt Hill
#
# Bulk Modulus (GPa) = 64.97996 88.71464 76.84730
# Shear Modulus (GPa) = 29.59362 50.44774 40.02068
#
# Velocity S-wave (km/s) = 3.24330 4.23456 3.77164
# Velocity P-wave (km/s) = 6.09280 7.44594 6.80310
#
# Compressibility (1/GPa) = 0.01538936
#
# Stress axis : x y z
#
# Youngs Moduli (GPa) = 80.25416 228.89394 128.28955
#
# Poissons Ratio (x) = 0.59665 0.10669
# Poissons Ratio (y) = 0.20920 0.15126
# Poissons Ratio (z) = 0.06674 0.26988
#
# Static dielectric constant tensor:
#      x y z
#    x 2.218450 -0.037750 0.005040 
#    y -0.037750 2.185050 -0.002790 
#    z 0.005040 -0.002790 2.242930 
# 
# From -- ./inp_files/316045.got.cif
#   From: 2010.05.17/outbox.cif.g08.bks.cpg/sg2_159_cif.got.tgz:316045.got - 2010.06.03 11:33:40.
