data_PCOD9095363
_publ_section_title
;
Structure prediction by ZEFSAII (Michael W. Deem and Ramdas Pophale) SiO2 
 PCOD9095363
Probable space group: P -1
;
_chemical_formula_sum "Si O2"
_cell_formula_units_Z 12
_cell_length_a 21.356507
_cell_length_b 15.401571
_cell_length_c 11.072475
_cell_angle_alpha 29.788529
_cell_angle_beta 21.768378
_cell_angle_gamma 20.472717
_cell_volume 472.340915
_symmetry_space_group_name_H-M "P -1"
_symmetry_group_IT_number 2
_symmetry_cell_setting 'triclinic'
loop_
_space_group_symop_operation_xyz
x,y,z
-x,-y,-z
loop_
_atom_site_type_symbol
_atom_site_label
_atom_site_fract_x
_atom_site_fract_y
_atom_site_fract_z
Si Si1 0.551208 0.742917 0.355379
Si Si2 0.042633 0.471497 0.268866
Si Si3 0.755788 0.042754 0.118153
Si Si4 0.673689 0.594962 0.945746
Si Si5 0.151140 0.907571 0.718646
Si Si6 0.715365 0.221813 0.731071
O O1 0.416727 0.882306 0.552620
O O2 0.360825 0.883911 0.414133
O O3 0.631797 0.480825 0.544716
O O4 0.790548 0.669529 0.976444
O O5 0.222453 0.349785 0.208905
O O6 0.841300 0.485700 0.657655
O O7 0.903099 0.759502 0.162458
O O8 0.622053 0.215407 0.033199
O O9 0.945291 0.052518 0.811130
O O10 0.719676 0.373708 0.189304
O O11 0.402912 0.803585 0.134235
O O12 0.000000 0.000000 0.000000
O O13 0.000000 0.000000 0.500000
#
# Coordination Sequence:
#
# PCOD9095363 Si02
#       6
#     2   2   2   2   2   2
#     4  10  20  36  59  81 109 147 188 226 268 324
#     4  10  20  39  59  79 111 149 183 224 274 326
#     4  10  20  35  57  83 114 140 186 228 274 323
#     4   9  21  36  57  81 115 144 181 230 272 324
#     4   8  17  34  57  82 106 142 184 230 263 314
#     4  11  21  35  58  85 110 148 181 227 279 323
#
# _framework density 25.405380999999998
#
# number of rings (size 3 to 8) (size 9 to 14) (size 15 to 20)
#    0.000    2.333    1.667    0.500    2.333    2.667 
#    0.000   14.167    3.667    0.000    0.000    0.000 
#    0.000    0.000    0.000    0.000    0.000    0.000 
#
# Total GULP energy -67065.432704 kJ/mol
# GULP energy per Si atom -5588.786059 kJ/mol
# Density = 2.534756 g / cm^3
# Si number density = 25.405381 Si / 1000 Ang^3
#
#
#
# Elastic Constant Matrix: (Units=GPa)
#
#
# Indices 1 2 3 4 5 6 
#
# 1 77.9841 35.1884 2.2808 4.9359 3.9292 -22.3865
# 2 35.1884 90.6258 33.2951 -1.8421 -0.3437 -9.0193
# 3 2.2808 33.2951 115.0144 31.4000 31.3898 12.1765
# 4 4.9359 -1.8421 31.4000 51.4747 -1.0283 0.8746
# 5 3.9292 -0.3437 31.3898 -1.0283 40.0299 7.3236
# 6 -22.3865 -9.0193 12.1765 0.8746 7.3236 36.7241
#
#
#
# Elastic Compliance Matrix: (Units=1/GPa)
#
#
# Indices 1 2 3 4 5 6 
#
# 1 0.020317 -0.008674 0.004578 -0.005382 -0.007699 0.010401
# 2 -0.008674 0.018108 -0.009475 0.007423 0.008551 0.000419
# 3 0.004578 -0.009475 0.019388 -0.012873 -0.015599 -0.002548
# 4 -0.005382 0.007423 -0.012873 0.028292 0.011440 -0.000144
# 5 -0.007699 0.008551 -0.015599 0.011440 0.039350 -0.005541
# 6 0.010401 0.000419 -0.002548 -0.000144 -0.005541 0.035626
#
#
# Mechanical properties :
#
#
# Convention : Reuss Voigt Hill
#
# Bulk Modulus (GPa) = 32.60390 47.23922 39.92156
# Shear Modulus (GPa) = 25.19539 39.83641 32.51590
#
# Velocity S-wave (km/s) = 3.15260 3.96413 3.58143
# Velocity P-wave (km/s) = 5.11010 6.29182 5.73150
#
# Compressibility (1/GPa) = 0.03067117
#
# Stress axis : x y z
#
# Youngs Moduli (GPa) = 49.21873 55.22304 51.57826
#
# Poissons Ratio (x) = 0.47901 -0.23610
# Poissons Ratio (y) = 0.42693 0.48869
# Poissons Ratio (z) = -0.22530 0.52322
#
# Static dielectric constant tensor:
#      x y z
#    x 2.017240 0.049670 0.005510 
#    y 0.049670 2.022490 0.019580 
#    z 0.005510 0.019580 2.063370 
# 
# From -- ./inp_files/149163.got.cif
#   From: 2010.05.17/outbox.cif.g08.bks.cpg/sg2_75_cif.got.tgz:149163.got - 2010.06.03 11:33:40.
