data_PCOD9095756
_publ_section_title
;
Structure prediction by ZEFSAII (Michael W. Deem and Ramdas Pophale) SiO2 
 PCOD9095756
Probable space group: P -1
;
_chemical_formula_sum "Si O2"
_cell_formula_units_Z 16
_cell_length_a 12.797717
_cell_length_b 11.773697
_cell_length_c 12.298475
_cell_angle_alpha 60.174434
_cell_angle_beta 59.223991
_cell_angle_gamma 25.985767
_cell_volume 694.134565
_symmetry_space_group_name_H-M "P -1"
_symmetry_group_IT_number 2
_symmetry_cell_setting 'triclinic'
loop_
_space_group_symop_operation_xyz
x,y,z
-x,-y,-z
loop_
_atom_site_type_symbol
_atom_site_label
_atom_site_fract_x
_atom_site_fract_y
_atom_site_fract_z
Si Si1 0.115142 0.061243 0.510873
Si Si2 0.830207 0.781140 0.922335
Si Si3 0.770115 0.808653 0.470610
Si Si4 0.356426 0.910388 0.790261
Si Si5 0.033307 0.770098 0.975105
Si Si6 0.370000 0.212033 0.125501
Si Si7 0.636929 0.327757 0.237158
Si Si8 0.327997 0.694035 0.398131
O O1 0.203357 0.121056 0.472488
O O2 0.832741 0.284618 0.553967
O O3 0.230302 0.862919 0.639738
O O4 0.187014 0.945687 0.406865
O O5 0.757441 0.805798 0.828694
O O6 0.000000 0.500000 0.000000
O O7 0.965048 0.787757 0.880420
O O8 0.596488 0.002588 0.020642
O O9 0.808697 0.865890 0.317535
O O10 0.000000 0.500000 0.500000
O O11 0.500000 0.000000 0.500000
O O12 0.195076 0.008897 0.928929
O O13 0.531741 0.855153 0.775081
O O14 0.482242 0.674478 0.771426
O O15 0.199095 0.495806 0.059297
O O16 0.176776 0.769883 0.890854
O O17 0.463157 0.594148 0.260974
O O18 0.500000 0.500000 0.500000
#
# Coordination Sequence:
#
# PCOD9095756 Si02
#       8
#     2   2   2   2   2   2   2   2
#     4   9  21  42  67  92 133 168 222 289 339 402
#     4   8  16  34  55  77 115 167 211 259 314 379
#     4  11  27  46  74 101 134 179 234 286 348 411
#     4  10  23  39  61  91 131 168 218 276 335 399
#     4  10  20  35  59  92 130 169 212 265 332 411
#     4   9  18  34  59  80 119 168 211 261 325 388
#     4  10  21  36  61  93 129 168 217 265 346 401
#     4   9  19  38  67  90 125 170 220 279 345 390
#
# _framework density 23.050286
#
# number of rings (size 3 to 8) (size 9 to 14) (size 15 to 20)
#    0.000    2.500    0.000    0.375    7.000    3.500 
#    0.000   11.250    0.000    0.000    0.000    0.000 
#    0.000    0.000    0.000    0.000    0.000    0.000 
#
# Total GULP energy -89166.957747 kJ/mol
# GULP energy per Si atom -5572.934859 kJ/mol
# Density = 2.299782 g / cm^3
# Si number density = 23.050286 Si / 1000 Ang^3
#
#
#
# Elastic Constant Matrix: (Units=GPa)
#
#
# Indices 1 2 3 4 5 6 
#
# 1 185.7604 26.3555 37.6029 7.1255 28.3155 -2.0457
# 2 26.3555 62.9538 8.1416 12.3175 9.3022 5.6983
# 3 37.6029 8.1416 63.5042 10.1727 18.8771 10.7793
# 4 7.1255 12.3175 10.1727 21.8117 -0.2808 1.2128
# 5 28.3155 9.3022 18.8771 -0.2808 36.5916 1.3714
# 6 -2.0457 5.6983 10.7793 1.2128 1.3714 29.2089
#
#
#
# Elastic Compliance Matrix: (Units=1/GPa)
#
#
# Indices 1 2 3 4 5 6 
#
# 1 0.006856 -0.002271 -0.003295 0.000413 -0.003110 0.002268
# 2 -0.002271 0.019818 0.002772 -0.011560 -0.004637 -0.004351
# 3 -0.003295 0.002772 0.023572 -0.011138 -0.010081 -0.008535
# 4 0.000413 -0.011560 -0.011138 0.057346 0.008670 0.003606
# 5 -0.003110 -0.004637 -0.010081 0.008670 0.036093 0.002352
# 6 0.002268 -0.004351 -0.008535 0.003606 0.002352 0.038133
#
#
# Mechanical properties :
#
#
# Convention : Reuss Voigt Hill
#
# Bulk Modulus (GPa) = 22.39190 50.71315 36.55252
# Shear Modulus (GPa) = 24.71689 33.53033 29.12361
#
# Velocity S-wave (km/s) = 3.27816 3.81814 3.55840
# Velocity P-wave (km/s) = 4.90549 6.44100 5.72496
#
# Compressibility (1/GPa) = 0.04465900
#
# Stress axis : x y z
#
# Youngs Moduli (GPa) = 145.86658 50.46030 42.42265
#
# Poissons Ratio (x) = 0.11457 0.13979
# Poissons Ratio (y) = 0.33120 -0.11761
# Poissons Ratio (z) = 0.48064 -0.13990
#
# Static dielectric constant tensor:
#      x y z
#    x 1.902140 -0.028520 0.024920 
#    y -0.028520 1.934930 0.014880 
#    z 0.024920 0.014880 1.861670 
# 
# From -- ./inp_files/123621.got.cif
#   From: 2010.05.17/outbox.cif.g08.bks.cpg/sg2_62_cif.got.tgz:123621.got - 2010.06.03 11:33:40.
