data_PCOD9095699
_publ_section_title
;
Structure prediction by ZEFSAII (Michael W. Deem and Ramdas Pophale) SiO2 
 PCOD9095699
Probable space group: P -1
;
_chemical_formula_sum "Si O2"
_cell_formula_units_Z 12
_cell_length_a 9.025381
_cell_length_b 8.450276
_cell_length_c 12.123813
_cell_angle_alpha 95.598706
_cell_angle_beta 143.956012
_cell_angle_gamma 81.119310
_cell_volume 536.953885
_symmetry_space_group_name_H-M "P -1"
_symmetry_group_IT_number 2
_symmetry_cell_setting 'triclinic'
loop_
_space_group_symop_operation_xyz
x,y,z
-x,-y,-z
loop_
_atom_site_type_symbol
_atom_site_label
_atom_site_fract_x
_atom_site_fract_y
_atom_site_fract_z
Si Si1 0.202548 0.400438 0.470946
Si Si2 0.735053 0.588966 0.110156
Si Si3 0.975854 0.265103 0.523101
Si Si4 0.311257 0.830073 0.282942
Si Si5 0.837760 0.670390 0.935996
Si Si6 0.591282 0.111015 0.407033
O O1 0.198353 0.560801 0.553601
O O2 0.482230 0.328832 0.601321
O O3 0.994273 0.461079 0.257842
O O4 0.083921 0.270648 0.466494
O O5 0.802082 0.715249 0.252514
O O6 0.710715 0.663826 0.980033
O O7 0.500000 0.500000 0.000000
O O8 0.805802 0.131870 0.448020
O O9 0.046709 0.792216 0.075736
O O10 0.286075 0.889298 0.398037
O O11 0.439413 0.959601 0.298929
O O12 0.000000 0.500000 0.000000
O O13 0.622272 0.735365 0.724492
#
# Coordination Sequence:
#
# PCOD9095699 Si02
#       6
#     2   2   2   2   2   2
#     4   9  19  36  61  83 115 150 196 239 292 333
#     4  10  20  35  59  88 116 144 193 249 287 337
#     4   9  19  37  60  85 115 149 197 240 291 335
#     4  11  23  41  58  86 124 155 195 237 291 357
#     4  12  24  36  64  90 116 151 200 243 292 342
#     4  11  23  40  60  84 122 162 189 237 296 348
#
# _framework density 22.348288
#
# number of rings (size 3 to 8) (size 9 to 14) (size 15 to 20)
#    1.000    0.667    1.667    3.500    2.333    2.667 
#    0.000    0.000    0.000    2.000    0.000    0.000 
#    0.000    0.000    0.000    0.000    0.000    0.000 
#
# Total GULP energy -66995.945299 kJ/mol
# GULP energy per Si atom -5582.995442 kJ/mol
# Density = 2.229742 g / cm^3
# Si number density = 22.348288 Si / 1000 Ang^3
#
#
#
# Elastic Constant Matrix: (Units=GPa)
#
#
# Indices 1 2 3 4 5 6 
#
# 1 50.6997 14.2129 2.4228 7.3680 10.9472 19.5860
# 2 14.2129 71.5767 14.9274 9.3641 8.0092 29.2812
# 3 2.4228 14.9274 68.7070 9.1413 10.2271 16.1137
# 4 7.3680 9.3641 9.1413 33.4606 6.5151 15.0583
# 5 10.9472 8.0092 10.2271 6.5151 31.8469 -2.2689
# 6 19.5860 29.2812 16.1137 15.0583 -2.2689 41.4850
#
#
#
# Elastic Compliance Matrix: (Units=1/GPa)
#
#
# Indices 1 2 3 4 5 6 
#
# 1 0.028646 0.002134 0.004552 0.002905 -0.013765 -0.018607
# 2 0.002134 0.021197 0.000237 0.003009 -0.008009 -0.017591
# 3 0.004552 0.000237 0.017807 -0.000021 -0.008027 -0.009664
# 4 0.002905 0.003009 -0.000021 0.038705 -0.010959 -0.018136
# 5 -0.013765 -0.008009 -0.008027 -0.010959 0.044511 0.021682
# 6 -0.018607 -0.017591 -0.009664 -0.018136 0.021682 0.056829
#
#
# Mechanical properties :
#
#
# Convention : Reuss Voigt Hill
#
# Bulk Modulus (GPa) = 12.27036 28.23438 20.25237
# Shear Modulus (GPa) = 22.62313 31.98652 27.30483
#
# Velocity S-wave (km/s) = 3.18512 3.78732 3.49920
# Velocity P-wave (km/s) = 4.36223 5.63793 5.04060
#
# Compressibility (1/GPa) = 0.08149721
#
# Stress axis : x y z
#
# Youngs Moduli (GPa) = 34.90867 47.17705 56.15843
#
# Poissons Ratio (x) = -0.10069 -0.25566
# Poissons Ratio (y) = -0.07451 -0.01331
# Poissons Ratio (z) = -0.15892 -0.01118
#
# Static dielectric constant tensor:
#      x y z
#    x 1.824040 -0.009660 0.000170 
#    y -0.009660 1.877670 -0.012670 
#    z 0.000170 -0.012670 1.805560 
# 
# From -- ./inp_files/190860.got.cif
#   From: 2010.05.17/outbox.cif.g08.bks.cpg/sg2_96_cif.got.tgz:190860.got - 2010.06.03 11:33:40.
