data_PCOD9095861
_publ_section_title
;
Structure prediction by ZEFSAII (Michael W. Deem and Ramdas Pophale) SiO2 
 PCOD9095861
Probable space group: P -1
;
_chemical_formula_sum "Si O2"
_cell_formula_units_Z 14
_cell_length_a 14.688213
_cell_length_b 10.203095
_cell_length_c 12.482904
_cell_angle_alpha 131.479336
_cell_angle_beta 150.107037
_cell_angle_gamma 56.878539
_cell_volume 696.569749
_symmetry_space_group_name_H-M "P -1"
_symmetry_group_IT_number 2
_symmetry_cell_setting 'triclinic'
loop_
_space_group_symop_operation_xyz
x,y,z
-x,-y,-z
loop_
_atom_site_type_symbol
_atom_site_label
_atom_site_fract_x
_atom_site_fract_y
_atom_site_fract_z
Si Si1 0.534074 0.506265 0.410574
Si Si2 0.031328 0.472227 0.141708
Si Si3 0.463642 0.107040 0.413416
Si Si4 0.101601 0.823428 0.485380
Si Si5 0.969558 0.924412 0.045889
Si Si6 0.485840 0.806573 0.931055
Si Si7 0.731295 0.981294 0.439300
O O1 0.500000 0.500000 0.500000
O O2 0.750570 0.518216 0.617000
O O3 0.472938 0.687533 0.399384
O O4 0.461821 0.335247 0.179268
O O5 0.975572 0.643587 0.241812
O O6 0.000000 0.500000 0.000000
O O7 0.963597 0.273470 0.992511
O O8 0.500000 0.000000 0.500000
O O9 0.577509 0.041061 0.394754
O O10 0.246566 0.087632 0.156134
O O11 0.265311 0.785974 0.714969
O O12 0.200872 0.869778 0.497321
O O13 0.000000 0.000000 0.500000
O O14 0.090716 0.039366 0.317467
O O15 0.000000 0.000000 0.000000
O O16 0.630056 0.820991 0.183068
O O17 0.500000 0.000000 0.000000
#
# Coordination Sequence:
#
# PCOD9095861 Si02
#       7
#     2   2   2   2   2   2   2
#     4  10  21  37  64  91 120 159 208 256 310 371
#     4  10  20  35  60  90 118 155 206 257 307 364
#     4  11  23  41  67  90 122 169 211 256 311 367
#     4  10  21  37  61  93 127 162 202 259 318 371
#     4  11  23  40  64  93 125 162 214 259 306 371
#     4   9  20  37  56  89 128 158 198 252 315 366
#     4  11  22  40  62  90 128 163 206 257 313 368
#
# _framework density 20.098489000000001
#
# number of rings (size 3 to 8) (size 9 to 14) (size 15 to 20)
#    0.000    1.714    2.857    2.571    2.000    2.286 
#    0.000    0.714    0.000    1.714    0.000    0.000 
#    0.000    0.000    0.000    0.000    0.000    0.000 
#
# Total GULP energy -78053.068244 kJ/mol
# GULP energy per Si atom -5575.219160 kJ/mol
# Density = 2.005274 g / cm^3
# Si number density = 20.098489 Si / 1000 Ang^3
#
#
#
# Elastic Constant Matrix: (Units=GPa)
#
#
# Indices 1 2 3 4 5 6 
#
# 1 91.7464 47.0898 36.6699 9.2440 -4.4086 -9.4635
# 2 47.0898 124.0078 52.1045 17.4638 -22.2333 2.7907
# 3 36.6699 52.1045 148.5081 -2.8765 -27.3277 -17.6863
# 4 9.2440 17.4638 -2.8765 36.0992 -12.4120 -3.7352
# 5 -4.4086 -22.2333 -27.3277 -12.4120 37.0178 -2.3559
# 6 -9.4635 2.7907 -17.6863 -3.7352 -2.3559 37.1531
#
#
#
# Elastic Compliance Matrix: (Units=1/GPa)
#
#
# Indices 1 2 3 4 5 6 
#
# 1 0.014713 -0.004970 -0.002301 -0.002527 -0.003617 0.002542
# 2 -0.004970 0.012529 -0.003220 -0.004501 0.002791 -0.004016
# 3 -0.002301 -0.003220 0.010800 0.006487 0.008320 0.005977
# 4 -0.002527 -0.004501 0.006487 0.036832 0.014606 0.007411
# 5 -0.003617 0.002791 0.008320 0.014606 0.039733 0.006818
# 6 0.002542 -0.004016 0.005977 0.007411 0.006818 0.031887
#
#
# Mechanical properties :
#
#
# Convention : Reuss Voigt Hill
#
# Bulk Modulus (GPa) = 58.61882 70.66563 64.64223
# Shear Modulus (GPa) = 28.87423 37.28056 33.07739
#
# Velocity S-wave (km/s) = 3.79441 4.31152 4.06120
# Velocity P-wave (km/s) = 6.95887 7.74736 7.36368
#
# Compressibility (1/GPa) = 0.01705937
#
# Stress axis : x y z
#
# Youngs Moduli (GPa) = 67.96562 79.81414 92.59049
#
# Poissons Ratio (x) = 0.39668 0.21306
# Poissons Ratio (y) = 0.33780 0.29819
# Poissons Ratio (z) = 0.15639 0.25704
#
# Static dielectric constant tensor:
#      x y z
#    x 1.719810 -0.055190 0.056870 
#    y -0.055190 1.756410 -0.045490 
#    z 0.056870 -0.045490 1.929060 
# 
# From -- ./inp_files/155301.got.cif
#   From: 2010.05.17/outbox.cif.g08.bks.cpg/sg2_78_cif.got.tgz:155301.got - 2010.06.03 11:33:40.
