data_PCOD9095454
_publ_section_title
;
Structure prediction by ZEFSAII (Michael W. Deem and Ramdas Pophale) SiO2 
 PCOD9095454
Probable space group: P -1
;
_chemical_formula_sum "Si O2"
_cell_formula_units_Z 14
_cell_length_a 9.243760
_cell_length_b 12.455764
_cell_length_c 8.683089
_cell_angle_alpha 138.541979
_cell_angle_beta 112.451108
_cell_angle_gamma 78.634179
_cell_volume 605.214157
_symmetry_space_group_name_H-M "P -1"
_symmetry_group_IT_number 2
_symmetry_cell_setting 'triclinic'
loop_
_space_group_symop_operation_xyz
x,y,z
-x,-y,-z
loop_
_atom_site_type_symbol
_atom_site_label
_atom_site_fract_x
_atom_site_fract_y
_atom_site_fract_z
Si Si1 0.605943 0.898189 0.324596
Si Si2 0.133006 0.048312 0.258665
Si Si3 0.103494 0.687804 0.902315
Si Si4 0.479228 0.469815 0.143835
Si Si5 0.205226 0.372202 0.435330
Si Si6 0.164329 0.614611 0.187417
Si Si7 0.869658 0.047700 0.373150
O O1 0.749818 0.879783 0.479019
O O2 0.500000 0.000000 0.500000
O O3 0.698287 0.973289 0.290237
O O4 0.515422 0.723009 0.048795
O O5 0.954521 0.011023 0.211027
O O6 0.158812 0.199055 0.315544
O O7 0.163923 0.862965 0.034985
O O8 0.910467 0.648196 0.781634
O O9 0.154700 0.527589 0.673647
O O10 0.175095 0.699713 0.114648
O O11 0.606382 0.579503 0.422109
O O12 0.308824 0.517150 0.165638
O O13 0.500000 0.500000 0.000000
O O14 0.146835 0.762572 0.450589
O O15 0.000000 0.500000 0.000000
O O16 0.000000 0.000000 0.500000
#
# Coordination Sequence:
#
# PCOD9095454 Si02
#       7
#     2   2   2   2   2   2   2
#     4  11  20  34  59  90 124 157 206 262 314 362
#     4  11  21  39  64  90 121 164 212 260 307 377
#     4  11  22  40  65  91 128 169 207 258 319 378
#     4  12  22  37  61  94 124 156 208 268 306 365
#     4  11  24  40  60  99 129 162 210 261 319 377
#     4  12  22  38  65  92 123 165 210 261 312 373
#     4  10  20  35  57  92 116 152 212 259 304 367
#
# _framework density 23.132307999999998
#
# number of rings (size 3 to 8) (size 9 to 14) (size 15 to 20)
#    0.000    0.857    5.714    4.714    0.000    0.000 
#    0.000    0.714    0.000    0.857    0.000    0.000 
#    0.000    0.000    0.000    0.000    0.000    0.000 
#
# Total GULP energy -78070.142624 kJ/mol
# GULP energy per Si atom -5576.438759 kJ/mol
# Density = 2.307966 g / cm^3
# Si number density = 23.132308 Si / 1000 Ang^3
#
#
#
# Elastic Constant Matrix: (Units=GPa)
#
#
# Indices 1 2 3 4 5 6 
#
# 1 119.6983 34.5007 34.8417 25.1101 21.9480 -32.3907
# 2 34.5007 63.7980 36.8490 24.4042 6.0342 -15.1086
# 3 34.8417 36.8490 116.2922 26.0334 11.0539 -7.1996
# 4 25.1101 24.4042 26.0334 52.7470 -5.9084 4.6228
# 5 21.9480 6.0342 11.0539 -5.9084 36.5256 9.1910
# 6 -32.3907 -15.1086 -7.1996 4.6228 9.1910 29.4365
#
#
#
# Elastic Compliance Matrix: (Units=1/GPa)
#
#
# Indices 1 2 3 4 5 6 
#
# 1 0.048636 0.018214 0.001928 -0.047560 -0.063302 0.090572
# 2 0.018214 0.035953 -0.002956 -0.032447 -0.034756 0.053720
# 3 0.001928 -0.002956 0.011489 -0.006567 -0.006868 0.006590
# 4 -0.047560 -0.032447 -0.006567 0.077592 0.075218 -0.106264
# 5 -0.063302 -0.034756 -0.006868 0.075218 0.120264 -0.138536
# 6 0.090572 0.053720 0.006590 -0.106264 -0.138536 0.222760
#
#
# Mechanical properties :
#
#
# Convention : Reuss Voigt Hill
#
# Bulk Modulus (GPa) = 7.66573 56.90791 32.28682
# Shear Modulus (GPa) = 9.50922 36.64830 23.07876
#
# Velocity S-wave (km/s) = 2.02971 3.98463 3.16204
# Velocity P-wave (km/s) = 2.96884 6.76936 5.22677
#
# Compressibility (1/GPa) = 0.13045073
#
# Stress axis : x y z
#
# Youngs Moduli (GPa) = 20.56070 27.81395 87.03921
#
# Poissons Ratio (x) = -0.50660 -0.16783
# Poissons Ratio (y) = -0.37449 0.25731
# Poissons Ratio (z) = -0.03964 0.08222
#
# Static dielectric constant tensor:
#      x y z
#    x 1.912190 0.008560 0.007670 
#    y 0.008560 1.938890 -0.003200 
#    z 0.007670 -0.003200 1.875530 
# 
# From -- ./inp_files/199020.got.cif
#   From: 2010.05.17/outbox.cif.g08.bks.cpg/sg2_100_cif.got.tgz:199020.got - 2010.06.03 11:33:40.
