data_PCOD9095910
_publ_section_title
;
Structure prediction by ZEFSAII (Michael W. Deem and Ramdas Pophale) SiO2 
 PCOD9095910
Probable space group: P -1
;
_chemical_formula_sum "Si O2"
_cell_formula_units_Z 14
_cell_length_a 5.952670
_cell_length_b 7.434558
_cell_length_c 16.639534
_cell_angle_alpha 72.690131
_cell_angle_beta 122.501151
_cell_angle_gamma 111.714962
_cell_volume 572.385046
_symmetry_space_group_name_H-M "P -1"
_symmetry_group_IT_number 2
_symmetry_cell_setting 'triclinic'
loop_
_space_group_symop_operation_xyz
x,y,z
-x,-y,-z
loop_
_atom_site_type_symbol
_atom_site_label
_atom_site_fract_x
_atom_site_fract_y
_atom_site_fract_z
Si Si1 0.752924 0.911575 0.027723
Si Si2 0.687249 0.593481 0.780934
Si Si3 0.324645 0.818818 0.386257
Si Si4 0.345669 0.907013 0.707471
Si Si5 0.272495 0.694328 0.873262
Si Si6 0.802277 0.670973 0.210255
Si Si7 0.264834 0.223715 0.401413
O O1 0.879564 0.853988 0.141459
O O2 0.557144 0.725162 0.969359
O O3 0.500000 0.000000 0.000000
O O4 0.000000 0.000000 0.000000
O O5 0.533132 0.758564 0.750547
O O6 0.502660 0.386248 0.802419
O O7 0.706551 0.617905 0.684884
O O8 0.986930 0.654831 0.871637
O O9 0.498745 0.725732 0.493518
O O10 0.027358 0.691437 0.319911
O O11 0.505269 0.891213 0.331531
O O12 0.286535 0.018303 0.393294
O O13 0.293058 0.886271 0.795523
O O14 0.047524 0.823281 0.620120
O O15 0.209269 0.509164 0.827315
#
# Coordination Sequence:
#
# PCOD9095910 Si02
#       7
#     2   2   2   2   2   2   2
#     4  12  30  47  75 105 132 175 229 281 336 407
#     4   9  21  39  63  90 128 176 212 270 332 403
#     4  10  20  35  60  94 128 170 224 268 331 392
#     4   9  18  36  63  87 127 172 220 269 330 387
#     4  10  23  44  66  91 134 173 215 274 337 401
#     4  11  25  41  65  94 133 174 217 277 340 404
#     4   9  19  36  61  91 128 173 219 277 321 393
#
# _framework density 24.459059
#
# number of rings (size 3 to 8) (size 9 to 14) (size 15 to 20)
#    0.000    2.000    0.000    1.714   12.000    2.286 
#    0.000    6.429    0.000    0.000    0.000    0.000 
#    0.000    0.000    0.000    0.000    0.000    0.000 
#
# Total GULP energy -78171.382998 kJ/mol
# GULP energy per Si atom -5583.670214 kJ/mol
# Density = 2.440339 g / cm^3
# Si number density = 24.459059 Si / 1000 Ang^3
#
#
#
# Elastic Constant Matrix: (Units=GPa)
#
#
# Indices 1 2 3 4 5 6 
#
# 1 112.7527 40.3355 25.1293 8.2143 14.4662 29.0276
# 2 40.3355 71.3791 20.0563 9.5121 -4.9900 16.9524
# 3 25.1293 20.0563 114.2631 22.3887 20.3468 11.9653
# 4 8.2143 9.5121 22.3887 37.4619 11.2901 0.7275
# 5 14.4662 -4.9900 20.3468 11.2901 30.7054 10.6427
# 6 29.0276 16.9524 11.9653 0.7275 10.6427 46.7641
#
#
#
# Elastic Compliance Matrix: (Units=1/GPa)
#
#
# Indices 1 2 3 4 5 6 
#
# 1 0.013212 -0.006894 -0.000374 0.000960 -0.005973 -0.004262
# 2 -0.006894 0.021767 -0.002800 -0.006111 0.012874 -0.005730
# 3 -0.000374 -0.002800 0.011237 -0.004058 -0.006178 -0.000159
# 4 0.000960 -0.006111 -0.004058 0.034324 -0.013150 0.005117
# 5 -0.005973 0.012874 -0.006178 -0.013150 0.050066 -0.010568
# 6 -0.004262 -0.005730 -0.000159 0.005117 -0.010568 0.028473
#
#
# Mechanical properties :
#
#
# Convention : Reuss Voigt Hill
#
# Bulk Modulus (GPa) = 38.34131 52.15969 45.25050
# Shear Modulus (GPa) = 26.60873 37.17787 31.89330
#
# Velocity S-wave (km/s) = 3.30189 3.90295 3.61494
# Velocity P-wave (km/s) = 5.49967 6.45618 5.99703
#
# Compressibility (1/GPa) = 0.02608153
#
# Stress axis : x y z
#
# Youngs Moduli (GPa) = 75.68752 45.94035 88.98997
#
# Poissons Ratio (x) = 0.31673 0.03325
# Poissons Ratio (y) = 0.52182 0.24913
# Poissons Ratio (z) = 0.02828 0.12861
#
# Static dielectric constant tensor:
#      x y z
#    x 2.111470 -0.019770 -0.023440 
#    y -0.019770 1.993690 -0.004430 
#    z -0.023440 -0.004430 1.957290 
# 
# From -- ./inp_files/37765.got.cif
#   From: 2010.05.17/outbox.cif.g08.bks.cpg/sg2_19_cif.got.tgz:37765.got - 2010.06.03 11:33:40.
