data_PCOD9095572
_publ_section_title
;
Structure prediction by ZEFSAII (Michael W. Deem and Ramdas Pophale) SiO2 
 PCOD9095572
Probable space group: P -1
;
_chemical_formula_sum "Si O2"
_cell_formula_units_Z 16
_cell_length_a 7.859184
_cell_length_b 19.180796
_cell_length_c 12.401331
_cell_angle_alpha 153.707571
_cell_angle_beta 77.210854
_cell_angle_gamma 111.937895
_cell_volume 738.179356
_symmetry_space_group_name_H-M "P -1"
_symmetry_group_IT_number 2
_symmetry_cell_setting 'triclinic'
loop_
_space_group_symop_operation_xyz
x,y,z
-x,-y,-z
loop_
_atom_site_type_symbol
_atom_site_label
_atom_site_fract_x
_atom_site_fract_y
_atom_site_fract_z
Si Si1 0.709104 0.427785 0.640439
Si Si2 0.045318 0.382104 0.443436
Si Si3 0.543694 0.066472 0.209246
Si Si4 0.978421 0.125728 0.267708
Si Si5 0.053780 0.760264 0.141861
Si Si6 0.327694 0.312439 0.150891
Si Si7 0.956834 0.013400 0.349353
Si Si8 0.322905 0.746040 0.931366
O O1 0.556922 0.260464 0.487285
O O2 0.623412 0.530154 0.719056
O O3 0.822595 0.341015 0.430179
O O4 0.873929 0.576474 0.893101
O O5 0.148850 0.306181 0.239008
O O6 0.083565 0.314592 0.461520
O O7 0.135873 0.586382 0.696385
O O8 0.751802 0.081017 0.239554
O O9 0.388390 0.923922 0.107029
O O10 0.500000 0.000000 0.000000
O O11 0.041354 0.091573 0.329299
O O12 0.000000 0.000000 0.000000
O O13 0.256193 0.755748 0.076664
O O14 0.040341 0.896854 0.244233
O O15 0.044693 0.837659 0.365971
O O16 0.253472 0.131413 0.847887
O O17 0.511581 0.322260 0.201891
#
# Coordination Sequence:
#
# PCOD9095572 Si02
#       8
#     2   2   2   2   2   2   2   2
#     4   9  21  38  60  86 121 164 201 245 294 360
#     4  10  20  35  58  88 122 157 197 238 306 363
#     4  11  23  37  57  92 128 157 191 247 313 353
#     4  11  21  37  60  93 122 155 199 252 299 357
#     4   9  22  41  65  83 117 165 212 241 295 359
#     4  11  19  35  60  88 123 152 199 250 299 354
#     4  10  20  40  65  88 115 162 209 249 289 362
#     4  11  22  38  57  91 120 161 196 247 305 354
#
# _framework density 21.674949000000002
#
# number of rings (size 3 to 8) (size 9 to 14) (size 15 to 20)
#    0.000    1.750    2.500    1.500    1.750    3.500 
#    0.000    5.625    0.000    2.250    0.000    0.000 
#    0.000    0.000    0.000    0.000    0.000    0.000 
#
# Total GULP energy -89200.818497 kJ/mol
# GULP energy per Si atom -5575.051156 kJ/mol
# Density = 2.162562 g / cm^3
# Si number density = 21.674949 Si / 1000 Ang^3
#
#
#
# Elastic Constant Matrix: (Units=GPa)
#
#
# Indices 1 2 3 4 5 6 
#
# 1 40.6682 11.4842 10.7404 3.3655 2.4271 0.7322
# 2 11.4842 130.7649 70.6792 20.3427 -0.4437 -13.3069
# 3 10.7404 70.6792 128.4301 14.3107 2.7124 6.1382
# 4 3.3655 20.3427 14.3107 48.8233 -0.4486 -0.8984
# 5 2.4271 -0.4437 2.7124 -0.4486 21.5142 7.1350
# 6 0.7322 -13.3069 6.1382 -0.8984 7.1350 26.1408
#
#
#
# Elastic Compliance Matrix: (Units=1/GPa)
#
#
# Indices 1 2 3 4 5 6 
#
# 1 0.025561 -0.001604 -0.001081 -0.000812 -0.002599 -0.000597
# 2 -0.001604 0.012929 -0.007016 -0.003076 -0.001584 0.008600
# 3 -0.001081 -0.007016 0.012113 -0.000668 0.000617 -0.006577
# 4 -0.000812 -0.003076 -0.000668 0.022008 0.000858 -0.000864
# 5 -0.002599 -0.001584 0.000617 0.000858 0.051637 -0.014943
# 6 -0.000597 0.008600 -0.006577 -0.000864 -0.014943 0.048242
#
#
# Mechanical properties :
#
#
# Convention : Reuss Voigt Hill
#
# Bulk Modulus (GPa) = 32.04966 53.96344 43.00655
# Shear Modulus (GPa) = 24.71682 33.09296 28.90489
#
# Velocity S-wave (km/s) = 3.38056 3.91165 3.65576
# Velocity P-wave (km/s) = 5.48235 6.73439 6.14037
#
# Compressibility (1/GPa) = 0.03120158
#
# Stress axis : x y z
#
# Youngs Moduli (GPa) = 39.12256 77.34841 82.55280
#
# Poissons Ratio (x) = 0.12405 0.08925
# Poissons Ratio (y) = 0.06274 0.57916
# Poissons Ratio (z) = 0.04230 0.54265
#
# Static dielectric constant tensor:
#      x y z
#    x 1.828950 -0.036660 -0.014480 
#    y -0.036660 1.843520 0.009420 
#    z -0.014480 0.009420 1.833820 
# 
# From -- ./inp_files/186562.got.cif
#   From: 2010.05.17/outbox.cif.g08.bks.cpg/sg2_94_cif.got.tgz:186562.got - 2010.06.03 11:33:40.
