data_PCOD9095412
_publ_section_title
;
Structure prediction by ZEFSAII (Michael W. Deem and Ramdas Pophale) SiO2 
 PCOD9095412
Probable space group: P -1
;
_chemical_formula_sum "Si O2"
_cell_formula_units_Z 16
_cell_length_a 8.061968
_cell_length_b 10.775174
_cell_length_c 19.723034
_cell_angle_alpha 47.495822
_cell_angle_beta 74.751806
_cell_angle_gamma 41.713888
_cell_volume 731.727697
_symmetry_space_group_name_H-M "P -1"
_symmetry_group_IT_number 2
_symmetry_cell_setting 'triclinic'
loop_
_space_group_symop_operation_xyz
x,y,z
-x,-y,-z
loop_
_atom_site_type_symbol
_atom_site_label
_atom_site_fract_x
_atom_site_fract_y
_atom_site_fract_z
Si Si1 0.151493 0.159981 0.742100
Si Si2 0.610934 0.536867 0.576469
Si Si3 0.176910 0.398585 0.755058
Si Si4 0.200022 0.313361 0.180045
Si Si5 0.707144 0.136451 0.636319
Si Si6 0.300377 0.683010 0.684366
Si Si7 0.287045 0.117600 0.041287
Si Si8 0.869903 0.131683 0.890661
O O1 0.094103 0.391700 0.693711
O O2 0.935489 0.305310 0.649708
O O3 0.062218 0.099763 0.833849
O O4 0.477778 0.875192 0.790922
O O5 0.573297 0.375481 0.612816
O O6 0.496178 0.736765 0.453132
O O7 0.425846 0.697087 0.605386
O O8 0.225723 0.556930 0.706940
O O9 0.948736 0.523968 0.791572
O O10 0.484508 0.065929 0.855545
O O11 0.212403 0.102636 0.251837
O O12 0.982747 0.550880 0.059158
O O13 0.003899 0.982270 0.634300
O O14 0.547438 0.460211 0.796451
O O15 0.165112 0.025883 0.079297
O O16 0.500000 0.000000 0.000000
O O17 0.000000 0.000000 0.000000
#
# Coordination Sequence:
#
# PCOD9095412 Si02
#       8
#     2   2   2   2   2   2   2   2
#     4  11  23  36  56  85 118 148 185 236 285 336
#     4  10  22  38  57  87 114 143 190 244 289 327
#     4   9  19  38  58  81 114 151 188 231 275 333
#     4  10  21  37  58  83 111 153 193 225 279 340
#     4  10  21  39  62  81 110 151 194 237 280 336
#     4   9  19  38  63  83 111 154 193 228 279 340
#     4   9  18  35  56  78 109 147 188 224 268 330
#     4  10  20  35  57  86 119 149 181 232 283 328
#
# _framework density 21.866059
#
# number of rings (size 3 to 8) (size 9 to 14) (size 15 to 20)
#    0.000    2.250    0.000    3.375    0.000    4.500 
#    0.000    5.000    0.000    0.000    0.000    0.000 
#    0.000    0.000    0.000    0.000    0.000    0.000 
#
# Total GULP energy -89329.604568 kJ/mol
# GULP energy per Si atom -5583.100286 kJ/mol
# Density = 2.181629 g / cm^3
# Si number density = 21.866059 Si / 1000 Ang^3
#
#
#
# Elastic Constant Matrix: (Units=GPa)
#
#
# Indices 1 2 3 4 5 6 
#
# 1 62.1134 14.2555 0.7177 -2.4375 18.1325 -10.6483
# 2 14.2555 94.9657 26.1143 -6.7348 21.0302 -24.9063
# 3 0.7177 26.1143 9.6904 -12.9538 28.2184 15.5056
# 4 -2.4375 -6.7348 -12.9538 19.3771 9.6649 14.9101
# 5 18.1325 21.0302 28.2184 9.6649 33.1518 -7.4787
# 6 -10.6483 -24.9063 15.5056 14.9101 -7.4787 29.1091
#
#
#
# Elastic Compliance Matrix: (Units=1/GPa)
#
#
# Indices 1 2 3 4 5 6 
#
# 1 0.019219 0.001448 -0.002370 -0.002063 -0.006818 0.008837
# 2 0.001448 0.014617 0.001201 0.008710 -0.012564 0.004707
# 3 -0.002370 0.001201 -0.003798 -0.023776 0.014796 0.018163
# 4 -0.002063 0.008710 -0.023776 0.028341 0.009205 0.007211
# 5 -0.006818 -0.012564 0.014796 0.009205 0.022033 -0.020180
# 6 0.008837 0.004707 0.018163 0.007211 -0.020180 0.023061
#
#
# Mechanical properties :
#
#
# Convention : Reuss Voigt Hill
#
# Bulk Modulus (GPa) = 32.68470 27.66048 30.17259
# Shear Modulus (GPa) = 44.20273 24.70641 34.45457
#
# Velocity S-wave (km/s) = 4.50101 3.36504 3.97383
# Velocity P-wave (km/s) = 6.48015 5.27024 5.90626
#
# Compressibility (1/GPa) = 0.03059535
#
# Stress axis : x y z
#
# Youngs Moduli (GPa) = 52.03197 68.41313 -263.30735
#
# Poissons Ratio (x) = -0.09906 -0.62415
# Poissons Ratio (y) = -0.07534 0.31623
# Poissons Ratio (z) = 0.12334 -0.08216
#
# Static dielectric constant tensor:
#      x y z
#    x 1.829780 -0.038570 -0.077360 
#    y -0.038570 1.844870 0.091760 
#    z -0.077360 0.091760 2.006690 
# 
# From -- ./inp_files/589012.got.cif
#   From: 2010.05.17/outbox.cif.g08.bks.cpg/sg2_295_cif.got.tgz:589012.got - 2010.06.03 11:33:40.
