data_PCOD9095331
_publ_section_title
;
Structure prediction by ZEFSAII (Michael W. Deem and Ramdas Pophale) SiO2 
 PCOD9095331
Probable space group: P -1
;
_chemical_formula_sum "Si O2"
_cell_formula_units_Z 16
_cell_length_a 17.552101
_cell_length_b 5.330179
_cell_length_c 10.960676
_cell_angle_alpha 89.309082
_cell_angle_beta 50.920309
_cell_angle_gamma 108.396467
_cell_volume 723.679916
_symmetry_space_group_name_H-M "P -1"
_symmetry_group_IT_number 2
_symmetry_cell_setting 'triclinic'
loop_
_space_group_symop_operation_xyz
x,y,z
-x,-y,-z
loop_
_atom_site_type_symbol
_atom_site_label
_atom_site_fract_x
_atom_site_fract_y
_atom_site_fract_z
Si Si1 0.524440 0.543220 0.821354
Si Si2 0.347450 0.439933 0.519833
Si Si3 0.616385 0.196930 0.318041
Si Si4 0.907599 0.092111 0.635923
Si Si5 0.736532 0.570908 0.741554
Si Si6 0.237367 0.822133 0.632799
Si Si7 0.087386 0.508049 0.588769
Si Si8 0.399056 0.904613 0.953023
O O1 0.548670 0.553329 0.652955
O O2 0.634759 0.584300 0.776677
O O3 0.488850 0.784128 0.889313
O O4 0.439981 0.229370 0.930029
O O5 0.363116 0.504763 0.646895
O O6 0.318893 0.690849 0.498446
O O7 0.260044 0.135145 0.580357
O O8 0.720619 0.163184 0.271308
O O9 0.619447 0.158394 0.172057
O O10 0.500000 0.000000 0.500000
O O11 0.894623 0.255190 0.530647
O O12 0.964307 0.291759 0.691334
O O13 0.797980 0.825636 0.769010
O O14 0.000000 0.000000 0.500000
O O15 0.826338 0.600191 0.549764
O O16 0.697182 0.289370 0.860860
O O17 0.124762 0.626082 0.685589
#
# Coordination Sequence:
#
# PCOD9095331 Si02
#       8
#     2   2   2   2   2   2   2   2
#     4  12  23  39  55  86 120 167 198 237 281 350
#     4  10  20  35  57  80 111 156 195 243 281 324
#     4  10  21  38  54  84 116 160 203 243 279 331
#     4   9  21  37  62  90 114 145 190 248 301 357
#     4  11  23  39  57  85 122 159 192 239 294 356
#     4  10  21  34  60  85 111 153 191 250 285 343
#     4  10  20  39  63  90 115 148 194 243 306 350
#     4  12  27  36  58  84 126 164 202 233 284 346
#
# _framework density 22.109224000000001
#
# number of rings (size 3 to 8) (size 9 to 14) (size 15 to 20)
#    0.750    0.750    2.500    3.000    7.000    1.000 
#    0.000    0.000    0.000    0.750    0.000    8.750 
#    0.000    0.000    0.000    0.000    0.000    0.000 
#
# Total GULP energy -89103.596389 kJ/mol
# GULP energy per Si atom -5568.974774 kJ/mol
# Density = 2.205890 g / cm^3
# Si number density = 22.109224 Si / 1000 Ang^3
#
#
#
# Elastic Constant Matrix: (Units=GPa)
#
#
# Indices 1 2 3 4 5 6 
#
# 1 126.2277 24.1462 17.6632 -6.6779 11.4350 29.3664
# 2 24.1462 83.4980 1.8874 -13.2000 -13.1490 11.7530
# 3 17.6632 1.8874 32.0990 -2.1368 5.1083 12.8679
# 4 -6.6779 -13.2000 -2.1368 32.5992 9.2404 -9.8381
# 5 11.4350 -13.1490 5.1083 9.2404 25.6132 4.0521
# 6 29.3664 11.7530 12.8679 -9.8381 4.0521 46.0535
#
#
#
# Elastic Compliance Matrix: (Units=1/GPa)
#
#
# Indices 1 2 3 4 5 6 
#
# 1 0.010463 -0.003025 -0.002905 0.000880 -0.005260 -0.004437
# 2 -0.003025 0.014847 0.000513 0.002382 0.008364 -0.002231
# 3 -0.002905 0.000513 0.036732 0.001023 -0.004886 -0.007893
# 4 0.000880 0.002382 0.001023 0.038422 -0.014506 0.008029
# 5 -0.005260 0.008364 -0.004886 -0.014506 0.052707 -0.005152
# 6 -0.004437 -0.002231 -0.007893 0.008029 -0.005152 0.029487
#
#
# Mechanical properties :
#
#
# Convention : Reuss Voigt Hill
#
# Bulk Modulus (GPa) = 19.52788 36.57982 28.05385
# Shear Modulus (GPa) = 23.74623 34.06171 28.90397
#
# Velocity S-wave (km/s) = 3.28081 3.92932 3.61962
# Velocity P-wave (km/s) = 4.81698 6.09648 5.49410
#
# Compressibility (1/GPa) = 0.05120885
#
# Stress axis : x y z
#
# Youngs Moduli (GPa) = 95.57851 67.35356 27.22424
#
# Poissons Ratio (x) = 0.20371 0.07909
# Poissons Ratio (y) = 0.28908 -0.01397
# Poissons Ratio (z) = 0.27765 -0.03456
#
# Static dielectric constant tensor:
#      x y z
#    x 1.905490 0.004040 0.016630 
#    y 0.004040 1.902420 0.013530 
#    z 0.016630 0.013530 1.831750 
# 
# From -- ./inp_files/459129.got.cif
#   From: 2010.05.17/outbox.cif.g08.bks.cpg/sg2_230_cif.got.tgz:459129.got - 2010.06.03 11:33:40.
