data_PCOD9095455
_publ_section_title
;
Structure prediction by ZEFSAII (Michael W. Deem and Ramdas Pophale) SiO2 
 PCOD9095455
Probable space group: P -1
;
_chemical_formula_sum "Si O2"
_cell_formula_units_Z 16
_cell_length_a 15.488915
_cell_length_b 11.609308
_cell_length_c 8.418950
_cell_angle_alpha 138.537397
_cell_angle_beta 122.069751
_cell_angle_gamma 47.754912
_cell_volume 740.894276
_symmetry_space_group_name_H-M "P -1"
_symmetry_group_IT_number 2
_symmetry_cell_setting 'triclinic'
loop_
_space_group_symop_operation_xyz
x,y,z
-x,-y,-z
loop_
_atom_site_type_symbol
_atom_site_label
_atom_site_fract_x
_atom_site_fract_y
_atom_site_fract_z
Si Si1 0.739370 0.348016 0.636251
Si Si2 0.939686 0.815714 0.818391
Si Si3 0.251673 0.986370 0.915033
Si Si4 0.782175 0.733179 0.399886
Si Si5 0.150633 0.831338 0.131157
Si Si6 0.415182 0.908896 0.286106
Si Si7 0.140904 0.384241 0.002947
Si Si8 0.627636 0.521363 0.025074
O O1 0.831796 0.183378 0.678983
O O2 0.798699 0.476322 0.762803
O O3 0.710640 0.220907 0.352918
O O4 0.635544 0.483085 0.800930
O O5 0.879448 0.685257 0.579773
O O6 0.918771 0.949708 0.780073
O O7 0.859771 0.963749 0.031361
O O8 0.071638 0.728762 0.908449
O O9 0.205342 0.181980 0.960732
O O10 0.353573 0.965969 0.112154
O O11 0.702271 0.633344 0.243611
O O12 0.690789 0.970188 0.570481
O O13 0.834490 0.678163 0.220896
O O14 0.279892 0.696991 0.044804
O O15 0.500771 0.671384 0.122442
O O16 0.500000 0.000000 0.500000
O O17 0.000000 0.500000 0.000000
#
# Coordination Sequence:
#
# PCOD9095455 Si02
#       8
#     2   2   2   2   2   2   2   2
#     4   9  21  41  59  91 124 160 208 245 303 372
#     4  10  20  35  57  92 116 161 202 245 317 360
#     4  11  23  39  64  89 130 159 202 255 312 361
#     4   9  19  37  59  84 119 152 203 246 303 358
#     4   9  19  36  57  83 122 154 199 258 296 357
#     4   9  19  42  65  84 119 160 205 263 306 354
#     4  11  23  40  62  95 127 168 201 243 309 377
#     4   8  18  38  61  81 116 154 205 255 295 355
#
# _framework density 21.595524000000001
#
# number of rings (size 3 to 8) (size 9 to 14) (size 15 to 20)
#    0.750    1.750    0.000    1.500    0.000    5.000 
#   11.250    8.125    2.750    0.000    0.000    0.000 
#    0.000    0.000    0.000    0.000    0.000    0.000 
#
# Total GULP energy -89099.881755 kJ/mol
# GULP energy per Si atom -5568.742610 kJ/mol
# Density = 2.154637 g / cm^3
# Si number density = 21.595524 Si / 1000 Ang^3
#
#
#
# Elastic Constant Matrix: (Units=GPa)
#
#
# Indices 1 2 3 4 5 6 
#
# 1 51.4075 4.7382 25.9258 -0.4691 0.4253 -29.0727
# 2 4.7382 58.9030 20.7074 5.2500 5.2898 -16.9689
# 3 25.9258 20.7074 136.9993 2.8960 12.5206 -13.5598
# 4 -0.4691 5.2500 2.8960 31.8268 -3.0937 6.2953
# 5 0.4253 5.2898 12.5206 -3.0937 16.6902 6.5874
# 6 -29.0727 -16.9689 -13.5598 6.2953 6.5874 40.8800
#
#
#
# Elastic Compliance Matrix: (Units=1/GPa)
#
#
# Indices 1 2 3 4 5 6 
#
# 1 0.041792 0.011468 -0.004011 -0.010159 -0.018449 0.037689
# 2 0.011468 0.025761 -0.001990 -0.010097 -0.017757 0.022605
# 3 -0.004011 -0.001990 0.009038 -0.001299 -0.006512 0.000569
# 4 -0.010159 -0.010097 -0.001299 0.039175 0.020025 -0.021106
# 5 -0.018449 -0.017757 -0.006512 0.020025 0.090525 -0.040322
# 6 0.037689 0.022605 0.000569 -0.021106 -0.040322 0.070584
#
#
# Mechanical properties :
#
#
# Convention : Reuss Voigt Hill
#
# Bulk Modulus (GPa) = 11.42536 38.89472 25.16004
# Shear Modulus (GPa) = 16.94241 30.94197 23.94219
#
# Velocity S-wave (km/s) = 2.80399 3.78934 3.33327
# Velocity P-wave (km/s) = 3.97307 6.09878 5.14686
#
# Compressibility (1/GPa) = 0.08752456
#
# Stress axis : x y z
#
# Youngs Moduli (GPa) = 23.92782 38.81849 110.64280
#
# Poissons Ratio (x) = -0.44517 0.44380
# Poissons Ratio (y) = -0.27440 0.22021
# Poissons Ratio (z) = 0.09598 0.07726
#
# Static dielectric constant tensor:
#      x y z
#    x 1.811230 0.008410 0.032030 
#    y 0.008410 1.817190 0.059750 
#    z 0.032030 0.059750 1.842550 
# 
# From -- ./inp_files/332561.got.cif
#   From: 2010.05.17/outbox.cif.g08.bks.cpg/sg2_167_cif.got.tgz:332561.got - 2010.06.03 11:33:40.
