data_PCOD9095403
_publ_section_title
;
Structure prediction by ZEFSAII (Michael W. Deem and Ramdas Pophale) SiO2 
 PCOD9095403
Probable space group: P -1
;
_chemical_formula_sum "Si O2"
_cell_formula_units_Z 16
_cell_length_a 11.000675
_cell_length_b 21.326493
_cell_length_c 8.641240
_cell_angle_alpha 37.415199
_cell_angle_beta 141.231385
_cell_angle_gamma 137.470166
_cell_volume 733.482633
_symmetry_space_group_name_H-M "P -1"
_symmetry_group_IT_number 2
_symmetry_cell_setting 'triclinic'
loop_
_space_group_symop_operation_xyz
x,y,z
-x,-y,-z
loop_
_atom_site_type_symbol
_atom_site_label
_atom_site_fract_x
_atom_site_fract_y
_atom_site_fract_z
Si Si1 0.939239 0.160959 0.685268
Si Si2 0.859108 0.923165 0.198745
Si Si3 0.687466 0.892655 0.430292
Si Si4 0.264996 0.304962 0.932454
Si Si5 0.984651 0.357202 0.803874
Si Si6 0.272081 0.873318 0.911620
Si Si7 0.455522 0.876751 0.751608
Si Si8 0.658929 0.457485 0.139987
O O1 0.727026 0.189545 0.409649
O O2 0.966593 0.117086 0.626686
O O3 0.126942 0.258789 0.737699
O O4 0.907904 0.053198 0.971526
O O5 0.779780 0.889871 0.356759
O O6 0.677676 0.865830 0.008018
O O7 0.720533 0.799799 0.751790
O O8 0.780336 0.014590 0.348045
O O9 0.446067 0.877880 0.204390
O O10 0.499059 0.383204 0.003755
O O11 0.121673 0.358329 0.785900
O O12 0.783901 0.391878 0.493193
O O13 0.147520 0.439728 0.917411
O O14 0.908958 0.235411 0.027478
O O15 0.382642 0.865584 0.877263
O O16 0.500000 0.000000 0.500000
O O17 0.500000 0.500000 0.000000
#
# Coordination Sequence:
#
# PCOD9095403 Si02
#       8
#     2   2   2   2   2   2   2   2
#     4  10  21  33  52  77 114 160 196 218 284 344
#     4   9  20  36  49  74 115 165 193 226 270 342
#     4  10  21  34  54  88 126 150 189 239 289 336
#     4  11  22  34  58  91 119 149 192 244 286 344
#     4  10  20  36  61  88 111 152 195 241 298 336
#     4  10  20  35  57  85 120 159 194 235 284 345
#     4   9  20  36  50  72 118 162 195 226 270 341
#     4   9  20  40  59  85 117 144 191 252 296 344
#
# _framework density 21.813741
#
# number of rings (size 3 to 8) (size 9 to 14) (size 15 to 20)
#    0.000    2.250    1.250    0.750    7.000    3.000 
#    0.000    0.000    0.000    0.750    0.000    6.125 
#    0.000    0.000    0.000    0.000    0.000    0.000 
#
# Total GULP energy -89198.579788 kJ/mol
# GULP energy per Si atom -5574.911237 kJ/mol
# Density = 2.176409 g / cm^3
# Si number density = 21.813741 Si / 1000 Ang^3
#
#
#
# Elastic Constant Matrix: (Units=GPa)
#
#
# Indices 1 2 3 4 5 6 
#
# 1 38.3407 13.8087 -0.3359 -0.5653 8.3984 6.2511
# 2 13.8087 166.6002 28.1695 22.8331 4.2676 26.6824
# 3 -0.3359 28.1695 51.0466 9.8066 32.6257 5.5373
# 4 -0.5653 22.8331 9.8066 35.6297 6.5547 8.9860
# 5 8.3984 4.2676 32.6257 6.5547 33.6586 4.1694
# 6 6.2511 26.6824 5.5373 8.9860 4.1694 26.0113
#
#
#
# Elastic Compliance Matrix: (Units=1/GPa)
#
#
# Indices 1 2 3 4 5 6 
#
# 1 0.035854 -0.006023 0.022550 0.004846 -0.030485 -0.004026
# 2 -0.006023 0.010123 -0.013936 -0.003773 0.015345 -0.007127
# 3 0.022550 -0.013936 0.077961 0.001426 -0.080282 0.004656
# 4 0.004846 -0.003773 0.001426 0.033590 -0.007667 -0.007973
# 5 -0.030485 0.015345 -0.080282 -0.007667 0.115574 -0.007201
# 6 -0.004026 -0.007127 0.004656 -0.007973 -0.007201 0.049641
#
#
# Mechanical properties :
#
#
# Convention : Reuss Voigt Hill
#
# Bulk Modulus (GPa) = 7.74472 37.69690 22.72081
# Shear Modulus (GPa) = 13.86574 33.34960 23.60767
#
# Velocity S-wave (km/s) = 2.52393 3.91427 3.29331
# Velocity P-wave (km/s) = 3.47156 6.14390 4.98995
#
# Compressibility (1/GPa) = 0.12912026
#
# Stress axis : x y z
#
# Youngs Moduli (GPa) = 27.89067 98.78185 12.82699
#
# Poissons Ratio (x) = 0.59496 -0.28924
# Poissons Ratio (y) = 0.16799 0.17875
# Poissons Ratio (z) = -0.62892 1.37657
#
# Static dielectric constant tensor:
#      x y z
#    x 1.782150 0.001530 0.036390 
#    y 0.001530 1.877590 0.059450 
#    z 0.036390 0.059450 1.837990 
# 
# From -- ./inp_files/282816.got.cif
#   From: 2010.05.17/outbox.cif.g08.bks.cpg/sg2_142_cif.got.tgz:282816.got - 2010.06.03 11:33:40.
