data_PCOD9095820
_publ_section_title
;
Structure prediction by ZEFSAII (Michael W. Deem and Ramdas Pophale) SiO2 
 PCOD9095820
Probable space group: P -1
;
_chemical_formula_sum "Si O2"
_cell_formula_units_Z 13
_cell_length_a 10.413509
_cell_length_b 8.042406
_cell_length_c 9.362788
_cell_angle_alpha 81.827000
_cell_angle_beta 62.402049
_cell_angle_gamma 124.352651
_cell_volume 478.533001
_symmetry_space_group_name_H-M "P -1"
_symmetry_group_IT_number 2
_symmetry_cell_setting 'triclinic'
loop_
_space_group_symop_operation_xyz
x,y,z
-x,-y,-z
loop_
_atom_site_type_symbol
_atom_site_label
_atom_site_fract_x
_atom_site_fract_y
_atom_site_fract_z
Si Si1 0.129464 0.274842 0.913662
Si Si2 0.283102 0.988262 0.168715
Si Si3 0.696667 0.355161 0.719713
Si Si4 0.214099 0.632645 0.651783
Si Si5 0.500000 0.500000 0.500000
Si Si6 0.752062 0.682594 0.852119
Si Si7 0.361264 0.091079 0.446785
O O1 0.057459 0.374197 0.842283
O O2 0.350521 0.400653 0.723274
O O3 0.176690 0.359625 0.041295
O O4 0.000000 0.000000 0.000000
O O5 0.154777 0.053067 0.210498
O O6 0.368736 0.095334 0.272018
O O7 0.193291 0.724698 0.269045
O O8 0.463709 0.139668 0.934768
O O9 0.702919 0.373367 0.542447
O O10 0.793775 0.605007 0.702125
O O11 0.412914 0.788123 0.635215
O O12 0.191770 0.809138 0.612169
O O13 0.328528 0.230034 0.538226
O O14 0.500000 0.500000 0.000000
#
# Coordination Sequence:
#
# PCOD9095820 Si02
#       7
#     2   2   2   2   1   2   2
#     4  11  25  42  61  93 130 164 211 264 314 377
#     4   9  18  30  50  87 122 151 209 255 309 373
#     4   9  17  30  54  84 117 160 200 260 311 365
#     4   9  18  33  56  83 124 158 207 254 310 368
#     4  10  20  36  66  86 118 166 208 246 316 372
#     4  10  20  35  60  87 121 164 208 257 314 377
#     4   9  18  31  56  92 115 160 207 256 302 379
#
# _framework density 27.166360000000001
#
# number of rings (size 3 to 8) (size 9 to 14) (size 15 to 20)
#    0.000    2.462    0.000    3.692   12.923    1.231 
#    0.000    1.538    0.000    1.846    0.000    0.000 
#    0.000    0.000    0.000    0.000    0.000    0.000 
#
# Total GULP energy -72408.569350 kJ/mol
# GULP energy per Si atom -5569.889950 kJ/mol
# Density = 2.710453 g / cm^3
# Si number density = 27.166360 Si / 1000 Ang^3
#
#
#
# Elastic Constant Matrix: (Units=GPa)
#
#
# Indices 1 2 3 4 5 6 
#
# 1 49.2194 8.6665 37.3395 0.3978 9.6627 3.4551
# 2 8.6665 163.9651 44.3693 -2.8737 13.5388 -34.4082
# 3 37.3395 44.3693 135.3443 4.9241 28.5405 1.1528
# 4 0.3978 -2.8737 4.9241 68.0005 -2.2755 14.1645
# 5 9.6627 13.5388 28.5405 -2.2755 49.8570 -1.0823
# 6 3.4551 -34.4082 1.1528 14.1645 -1.0823 32.1117
#
#
#
# Elastic Compliance Matrix: (Units=1/GPa)
#
#
# Indices 1 2 3 4 5 6 
#
# 1 0.026010 -0.000024 -0.006949 0.000945 -0.001079 -0.003028
# 2 -0.000024 0.009125 -0.002874 -0.001633 -0.000673 0.010581
# 3 -0.006949 -0.002874 0.011209 -0.000483 -0.004370 -0.002668
# 4 0.000945 -0.001633 -0.000483 0.016603 0.001097 -0.009120
# 5 -0.001079 -0.000673 -0.004370 0.001097 0.022997 -0.000157
# 6 -0.003028 0.010581 -0.002668 -0.009120 -0.000157 0.046918
#
#
# Mechanical properties :
#
#
# Convention : Reuss Voigt Hill
#
# Bulk Modulus (GPa) = 37.52168 58.80884 48.16526
# Shear Modulus (GPa) = 30.97134 47.20407 39.08770
#
# Velocity S-wave (km/s) = 3.38014 4.17297 3.79730
# Velocity P-wave (km/s) = 5.39218 6.70171 6.08229
#
# Compressibility (1/GPa) = 0.02665126
#
# Stress axis : x y z
#
# Youngs Moduli (GPa) = 38.44697 109.58756 89.21067
#
# Poissons Ratio (x) = 0.00265 0.61991
# Poissons Ratio (y) = 0.00093 0.25635
# Poissons Ratio (z) = 0.26716 0.31491
#
# Static dielectric constant tensor:
#      x y z
#    x 6.491290 -0.015130 -2.731840 
#    y -0.015130 2.431260 -0.426060 
#    z -2.731840 -0.426060 4.203730 
# 
# From -- ./inp_files/295198.got.cif
#   From: 2010.05.17/outbox.cif.g08.bks.cpg/sg2_148_cif.got.tgz:295198.got - 2010.06.03 11:33:40.
