data_PCOD9095908
_publ_section_title
;
Structure prediction by ZEFSAII (Michael W. Deem and Ramdas Pophale) SiO2 
 PCOD9095908
Probable space group: P -1
;
_chemical_formula_sum "Si O2"
_cell_formula_units_Z 16
_cell_length_a 20.106526
_cell_length_b 25.866454
_cell_length_c 14.866540
_cell_angle_alpha 21.030485
_cell_angle_beta 31.676819
_cell_angle_gamma 17.750752
_cell_volume 793.479610
_symmetry_space_group_name_H-M "P -1"
_symmetry_group_IT_number 2
_symmetry_cell_setting 'triclinic'
loop_
_space_group_symop_operation_xyz
x,y,z
-x,-y,-z
loop_
_atom_site_type_symbol
_atom_site_label
_atom_site_fract_x
_atom_site_fract_y
_atom_site_fract_z
Si Si1 0.563404 0.799350 0.485387
Si Si2 0.281829 0.807669 0.777066
Si Si3 0.768054 0.660833 0.091623
Si Si4 0.784646 0.665721 0.621160
Si Si5 0.789512 0.588865 0.378763
Si Si6 0.078914 0.638879 0.760238
Si Si7 0.055533 0.043311 0.950893
Si Si8 0.497056 0.231106 0.072402
O O1 0.399322 0.827801 0.664185
O O2 0.767872 0.629739 0.596081
O O3 0.641070 0.686416 0.478127
O O4 0.413207 0.086118 0.176231
O O5 0.094168 0.885901 0.913194
O O6 0.500000 0.500000 0.000000
O O7 0.124616 0.050733 0.493760
O O8 0.666552 0.735728 0.186490
O O9 0.858964 0.437191 0.294142
O O10 0.976008 0.578406 0.999936
O O11 0.643138 0.690802 0.805997
O O12 0.040839 0.447237 0.721020
O O13 0.647204 0.949371 0.324097
O O14 0.955882 0.297364 0.636054
O O15 0.306514 0.452486 0.857914
O O16 0.324264 0.811714 0.041548
O O17 0.000000 0.000000 0.000000
#
# Coordination Sequence:
#
# PCOD9095908 Si02
#       8
#     2   2   2   2   2   2   2   2
#     4  11  21  37  62  86 128 163 199 258 308 377
#     4  11  23  41  59  84 123 170 210 244 302 367
#     4  10  20  35  60  97 119 153 206 251 328 360
#     4  10  20  35  60  94 124 153 202 254 329 365
#     4  11  21  36  59  90 128 158 198 260 311 376
#     4  10  20  37  65  88 124 159 202 265 308 365
#     4  11  23  39  62  87 120 170 219 245 297 373
#     4  10  20  37  63  92 123 156 205 270 305 358
#
# _framework density 20.164349000000001
#
# number of rings (size 3 to 8) (size 9 to 14) (size 15 to 20)
#    0.000    1.500    3.750    2.250    0.000    0.500 
#    0.000    0.000    0.000    4.500    0.000    0.000 
#    0.000    0.000    0.000    0.000    0.000    0.000 
#
# Total GULP energy -89210.801295 kJ/mol
# GULP energy per Si atom -5575.675081 kJ/mol
# Density = 2.011845 g / cm^3
# Si number density = 20.164349 Si / 1000 Ang^3
#
#
#
# Elastic Constant Matrix: (Units=GPa)
#
#
# Indices 1 2 3 4 5 6 
#
# 1 114.2279 40.8192 32.6641 8.0217 5.5643 -14.4391
# 2 40.8192 86.5492 24.1926 8.0803 -3.4091 -20.7695
# 3 32.6641 24.1926 61.1290 -6.3240 -0.5195 -10.1917
# 4 8.0217 8.0803 -6.3240 35.9757 -1.2734 -4.6333
# 5 5.5643 -3.4091 -0.5195 -1.2734 14.8525 0.5834
# 6 -14.4391 -20.7695 -10.1917 -4.6333 0.5834 35.5162
#
#
#
# Elastic Compliance Matrix: (Units=1/GPa)
#
#
# Indices 1 2 3 4 5 6 
#
# 1 0.012299 -0.004137 -0.005138 -0.002821 -0.006012 0.000837
# 2 -0.004137 0.016440 -0.003404 -0.002354 0.004744 0.006570
# 3 -0.005138 -0.003404 0.021588 0.006158 0.002314 0.002881
# 4 -0.002821 -0.002354 0.006158 0.030560 0.003227 0.003177
# 5 -0.006012 0.004744 0.002314 0.003227 0.071018 0.000249
# 6 0.000837 0.006570 0.002881 0.003177 0.000249 0.033576
#
#
# Mechanical properties :
#
#
# Convention : Reuss Voigt Hill
#
# Bulk Modulus (GPa) = 40.04758 50.80640 45.42699
# Shear Modulus (GPa) = 22.81428 28.21758 25.51593
#
# Velocity S-wave (km/s) = 3.36730 3.74489 3.56110
# Velocity P-wave (km/s) = 5.91794 6.62946 6.28378
#
# Compressibility (1/GPa) = 0.02497030
#
# Stress axis : x y z
#
# Youngs Moduli (GPa) = 81.30932 60.82767 46.32108
#
# Poissons Ratio (x) = 0.25163 0.23800
# Poissons Ratio (y) = 0.33635 0.15766
# Poissons Ratio (z) = 0.41777 0.20704
#
# Static dielectric constant tensor:
#      x y z
#    x 1.764460 0.061840 0.030610 
#    y 0.061840 1.787730 0.009890 
#    z 0.030610 0.009890 1.748260 
# 
# From -- ./inp_files/256828.got.cif
#   From: 2010.05.17/outbox.cif.g08.bks.cpg/sg2_129_cif.got.tgz:256828.got - 2010.06.03 11:33:40.
