data_PCOD9095929
_publ_section_title
;
Structure prediction by ZEFSAII (Michael W. Deem and Ramdas Pophale) SiO2 
 PCOD9095929
Probable space group: P -1
;
_chemical_formula_sum "Si O2"
_cell_formula_units_Z 14
_cell_length_a 12.208002
_cell_length_b 19.198394
_cell_length_c 8.870534
_cell_angle_alpha 37.281932
_cell_angle_beta 104.890770
_cell_angle_gamma 131.809494
_cell_volume 746.915008
_symmetry_space_group_name_H-M "P -1"
_symmetry_group_IT_number 2
_symmetry_cell_setting 'triclinic'
loop_
_space_group_symop_operation_xyz
x,y,z
-x,-y,-z
loop_
_atom_site_type_symbol
_atom_site_label
_atom_site_fract_x
_atom_site_fract_y
_atom_site_fract_z
Si Si1 0.050745 0.659638 0.663315
Si Si2 0.343810 0.283154 0.372406
Si Si3 0.761546 0.020526 0.336690
Si Si4 0.341336 0.587761 0.614208
Si Si5 0.050352 0.417110 0.587041
Si Si6 0.951713 0.775771 0.659410
Si Si7 0.571957 0.120490 0.668185
O O1 0.272301 0.833884 0.427762
O O2 0.971120 0.596133 0.575959
O O3 0.976167 0.704587 0.657486
O O4 0.000000 0.500000 0.000000
O O5 0.455086 0.303424 0.506382
O O6 0.151169 0.192816 0.492082
O O7 0.298979 0.148965 0.465331
O O8 0.500000 0.500000 0.000000
O O9 0.857085 0.069506 0.445872
O O10 0.584306 0.962745 0.360207
O O11 0.911135 0.208955 0.962285
O O12 0.254867 0.553391 0.484359
O O13 0.342673 0.695780 0.544425
O O14 0.195116 0.385741 0.989238
O O15 0.000000 0.500000 0.500000
O O16 0.500000 0.000000 0.000000
#
# Coordination Sequence:
#
# PCOD9095929 Si02
#       7
#     2   2   2   2   2   2   2
#     4  12  22  35  58  87 123 146 185 251 298 330
#     4   9  19  36  62  83 111 151 201 240 276 338
#     4  10  20  35  61  84 113 155 199 230 276 358
#     4   9  18  35  59  81 109 157 196 225 274 355
#     4  11  19  36  59  87 114 159 194 224 289 362
#     4  10  20  36  55  88 115 148 189 244 293 325
#     4  11  19  34  57  83 114 150 195 230 283 352
#
# _framework density 18.743766000000001
#
# number of rings (size 3 to 8) (size 9 to 14) (size 15 to 20)
#    0.000    1.714    4.286    1.286    0.000    0.571 
#    0.000    1.429    0.000    0.000    0.000    0.000 
#    0.000    0.000    0.000    0.000    0.000    0.000 
#
# Total GULP energy -77987.423186 kJ/mol
# GULP energy per Si atom -5570.530228 kJ/mol
# Density = 1.870110 g / cm^3
# Si number density = 18.743766 Si / 1000 Ang^3
#
#
#
# Elastic Constant Matrix: (Units=GPa)
#
#
# Indices 1 2 3 4 5 6 
#
# 1 141.1468 84.6513 2.6888 11.4278 -1.8028 23.8921
# 2 84.6513 172.4265 13.1803 -0.2249 -2.3318 29.5570
# 3 2.6888 13.1803 35.3358 -2.8624 6.2008 -6.6774
# 4 11.4278 -0.2249 -2.8624 21.0361 -5.0102 -0.0488
# 5 -1.8028 -2.3318 6.2008 -5.0102 23.1408 -7.7170
# 6 23.8921 29.5570 -6.6774 -0.0488 -7.7170 37.4266
#
#
#
# Elastic Compliance Matrix: (Units=1/GPa)
#
#
# Indices 1 2 3 4 5 6 
#
# 1 0.011154 -0.004888 0.000143 -0.006660 -0.002347 -0.003727
# 2 -0.004888 0.009341 -0.003928 0.002329 0.000499 -0.004851
# 3 0.000143 -0.003928 0.032463 0.002904 -0.005925 0.007585
# 4 -0.006660 0.002329 0.002904 0.054596 0.012627 0.005605
# 5 -0.002347 0.000499 -0.005925 0.012627 0.050925 0.010563
# 6 -0.003727 -0.004851 0.007585 0.005605 0.010563 0.036468
#
#
# Mechanical properties :
#
#
# Convention : Reuss Voigt Hill
#
# Bulk Modulus (GPa) = 28.08189 61.10555 44.59372
# Shear Modulus (GPa) = 22.30507 32.87994 27.59251
#
# Velocity S-wave (km/s) = 3.45338 4.19284 3.84094
# Velocity P-wave (km/s) = 5.56018 7.49073 6.59646
#
# Compressibility (1/GPa) = 0.03561014
#
# Stress axis : x y z
#
# Youngs Moduli (GPa) = 89.65422 107.05352 30.80475
#
# Poissons Ratio (x) = 0.52332 -0.00439
# Poissons Ratio (y) = 0.43827 0.12100
# Poissons Ratio (z) = -0.01279 0.42050
#
# Static dielectric constant tensor:
#      x y z
#    x 1.615900 0.254720 0.541840 
#    y 0.254720 0.805670 -2.436690 
#    z 0.541840 -2.436690 -5.257230 
# 
# From -- ./inp_files/168509.got.cif
#   From: 2010.05.17/outbox.cif.g08.bks.cpg/sg2_85_cif.got.tgz:168509.got - 2010.06.03 11:33:40.
