data_PCOD9095832
_publ_section_title
;
Structure prediction by ZEFSAII (Michael W. Deem and Ramdas Pophale) SiO2 
 PCOD9095832
Probable space group: P -1
;
_chemical_formula_sum "Si O2"
_cell_formula_units_Z 16
_cell_length_a 19.924006
_cell_length_b 13.336797
_cell_length_c 15.816830
_cell_angle_alpha 139.137352
_cell_angle_beta 152.863000
_cell_angle_gamma 24.862313
_cell_volume 776.777809
_symmetry_space_group_name_H-M "P -1"
_symmetry_group_IT_number 2
_symmetry_cell_setting 'triclinic'
loop_
_space_group_symop_operation_xyz
x,y,z
-x,-y,-z
loop_
_atom_site_type_symbol
_atom_site_label
_atom_site_fract_x
_atom_site_fract_y
_atom_site_fract_z
Si Si1 0.938758 0.273427 0.256620
Si Si2 0.229474 0.653238 0.068891
Si Si3 0.810998 0.520408 0.816380
Si Si4 0.971372 0.992003 0.239325
Si Si5 0.293406 0.922587 0.224847
Si Si6 0.456113 0.676945 0.632355
Si Si7 0.546871 0.050016 0.424008
Si Si8 0.499710 0.738908 0.158801
O O1 0.765234 0.486137 0.267292
O O2 0.193876 0.141561 0.448882
O O3 0.990422 0.059339 0.212150
O O4 0.800794 0.392335 0.088414
O O5 0.258699 0.808656 0.177778
O O6 0.436457 0.443180 0.231960
O O7 0.978479 0.811720 0.931673
O O8 0.612867 0.687274 0.775678
O O9 0.946065 0.250920 0.812095
O O10 0.638869 0.671746 0.638956
O O11 0.000000 0.500000 0.000000
O O12 0.169965 0.924091 0.470964
O O13 0.687557 0.209941 0.072281
O O14 0.442727 0.756533 0.204566
O O15 0.412173 0.956520 0.435523
O O16 0.500000 0.500000 0.500000
O O17 0.456401 0.955709 0.239280
#
# Coordination Sequence:
#
# PCOD9095832 Si02
#       8
#     2   2   2   2   2   2   2   2
#     4  11  24  42  65  90 128 170 204 252 312 382
#     4  10  21  36  62  95 122 157 211 261 306 359
#     4  11  21  36  61  89 124 158 207 260 308 361
#     4  11  21  37  63  89 120 167 204 252 304 367
#     4  10  20  35  62  94 122 155 208 267 306 353
#     4  10  20  35  60  88 121 158 203 254 311 358
#     4  11  23  40  63  94 125 163 205 265 314 360
#     4  12  23  40  63  94 128 164 210 250 314 375
#
# _framework density 20.597912000000001
#
# number of rings (size 3 to 8) (size 9 to 14) (size 15 to 20)
#    0.000    1.250    3.750    4.125    5.250    0.000 
#    0.000    0.625    2.750    0.750    0.000    0.000 
#    0.000    0.000    0.000    0.000    0.000    0.000 
#
# Total GULP energy -89117.205044 kJ/mol
# GULP energy per Si atom -5569.825315 kJ/mol
# Density = 2.055103 g / cm^3
# Si number density = 20.597912 Si / 1000 Ang^3
#
#
#
# Elastic Constant Matrix: (Units=GPa)
#
#
# Indices 1 2 3 4 5 6 
#
# 1 105.8186 34.7019 60.4716 -9.4886 6.4906 4.2623
# 2 34.7019 45.5509 20.4389 -8.3063 -4.4601 -1.5956
# 3 60.4716 20.4389 135.6395 -25.6685 5.5669 2.3800
# 4 -9.4886 -8.3063 -25.6685 28.0165 10.3421 5.9080
# 5 6.4906 -4.4601 5.5669 10.3421 36.6664 -0.7742
# 6 4.2623 -1.5956 2.3800 5.9080 -0.7742 33.8598
#
#
#
# Elastic Compliance Matrix: (Units=1/GPa)
#
#
# Indices 1 2 3 4 5 6 
#
# 1 0.016332 -0.010442 -0.005819 -0.001403 -0.002923 -0.001961
# 2 -0.010442 0.030910 0.000543 0.004040 0.004431 0.002129
# 3 -0.005819 0.000543 0.012232 0.011332 -0.004003 -0.002171
# 4 -0.001403 0.004040 0.011332 0.055191 -0.016768 -0.010443
# 5 -0.002923 0.004431 -0.004003 -0.016768 0.033763 0.004556
# 6 -0.001961 0.002129 -0.002171 -0.010443 0.004556 0.031960
#
#
# Mechanical properties :
#
#
# Convention : Reuss Voigt Hill
#
# Bulk Modulus (GPa) = 35.66577 57.58154 46.62365
# Shear Modulus (GPa) = 22.60703 31.13498 26.87100
#
# Velocity S-wave (km/s) = 3.31651 3.89210 3.61577
# Velocity P-wave (km/s) = 5.65849 6.94360 6.33372
#
# Compressibility (1/GPa) = 0.02803809
#
# Stress axis : x y z
#
# Youngs Moduli (GPa) = 61.22810 32.35183 81.75371
#
# Poissons Ratio (x) = 0.33782 0.47573
# Poissons Ratio (y) = 0.63936 -0.04440
# Poissons Ratio (z) = 0.35629 -0.01757
#
# Static dielectric constant tensor:
#      x y z
#    x 1.750980 0.017700 0.016930 
#    y 0.017700 1.785190 0.008850 
#    z 0.016930 0.008850 1.803150 
# 
# From -- ./inp_files/538473.got.cif
#   From: 2010.05.17/outbox.cif.g08.bks.cpg/sg2_270_cif.got.tgz:538473.got - 2010.06.03 11:33:40.
