data_PCOD9095283
_publ_section_title
;
Structure prediction by ZEFSAII (Michael W. Deem and Ramdas Pophale) SiO2 
 PCOD9095283
Probable space group: P -1
;
_chemical_formula_sum "Si O2"
_cell_formula_units_Z 14
_cell_length_a 9.269902
_cell_length_b 12.458584
_cell_length_c 8.252346
_cell_angle_alpha 99.996473
_cell_angle_beta 134.080119
_cell_angle_gamma 105.164153
_cell_volume 567.304489
_symmetry_space_group_name_H-M "P -1"
_symmetry_group_IT_number 2
_symmetry_cell_setting 'triclinic'
loop_
_space_group_symop_operation_xyz
x,y,z
-x,-y,-z
loop_
_atom_site_type_symbol
_atom_site_label
_atom_site_fract_x
_atom_site_fract_y
_atom_site_fract_z
Si Si1 0.141861 0.694234 0.225828
Si Si2 0.706347 0.181250 0.963107
Si Si3 0.237096 0.086925 0.394038
Si Si4 0.383634 0.533720 0.271591
Si Si5 0.852971 0.715341 0.494442
Si Si6 0.114662 0.127953 0.735324
Si Si7 0.546623 0.892980 0.785881
O O1 0.168276 0.771994 0.102607
O O2 0.289134 0.624423 0.285245
O O3 0.275499 0.789124 0.504044
O O4 0.864564 0.591531 0.011856
O O5 0.455668 0.163795 0.712657
O O6 0.608352 0.035740 0.908214
O O7 0.909938 0.283258 0.271990
O O8 0.107177 0.164129 0.330061
O O9 0.327044 0.093431 0.285554
O O10 0.072007 0.938229 0.279812
O O11 0.500000 0.500000 0.500000
O O12 0.594834 0.598660 0.320646
O O13 0.853712 0.759789 0.324668
O O14 0.357353 0.157187 0.013350
O O15 0.000000 0.000000 0.500000
#
# Coordination Sequence:
#
# PCOD9095283 Si02
#       7
#     2   2   2   2   2   2   2
#     4  10  22  36  59  95 108 153 200 246 283 338
#     4  11  20  34  61  92 120 143 194 240 295 350
#     4  10  20  35  56  85 118 154 187 238 287 343
#     4  11  21  39  63  83 116 152 203 245 284 338
#     4  11  21  38  56  88 117 154 194 241 291 343
#     4  10  21  36  55  84 127 159 186 231 298 355
#     4  11  20  38  60  91 122 150 194 240 288 357
#
# _framework density 24.678107000000001
#
# number of rings (size 3 to 8) (size 9 to 14) (size 15 to 20)
#    0.000    1.429    7.143    2.143    0.000    0.571 
#    2.571    0.714    0.000    0.857    0.000    0.000 
#    0.000    0.000    0.000    0.000    0.000    0.000 
#
# Total GULP energy -78220.861576 kJ/mol
# GULP energy per Si atom -5587.204398 kJ/mol
# Density = 2.462194 g / cm^3
# Si number density = 24.678107 Si / 1000 Ang^3
#
#
#
# Elastic Constant Matrix: (Units=GPa)
#
#
# Indices 1 2 3 4 5 6 
#
# 1 73.8287 35.5467 24.8142 -3.9260 5.0918 16.7397
# 2 35.5467 110.5392 79.5405 -5.1125 11.8657 42.8121
# 3 24.8142 79.5405 199.3537 -9.2812 39.0377 29.8859
# 4 -3.9260 -5.1125 -9.2812 54.5608 14.0061 6.0579
# 5 5.0918 11.8657 39.0377 14.0061 32.9668 0.9657
# 6 16.7397 42.8121 29.8859 6.0579 0.9657 38.7540
#
#
#
# Elastic Compliance Matrix: (Units=1/GPa)
#
#
# Indices 1 2 3 4 5 6 
#
# 1 0.016315 -0.004109 0.000701 0.001940 -0.002599 -0.003287
# 2 -0.004109 0.021385 -0.004447 0.003786 -0.002850 -0.018940
# 3 0.000701 -0.004447 0.009785 0.004758 -0.012017 -0.003380
# 4 0.001940 0.003786 0.004758 0.025560 -0.017798 -0.012242
# 5 -0.002599 -0.002850 -0.012017 -0.017798 0.053112 0.014997
# 6 -0.003287 -0.018940 -0.003380 -0.012242 0.014997 0.052294
#
#
# Mechanical properties :
#
#
# Convention : Reuss Voigt Hill
#
# Bulk Modulus (GPa) = 31.47250 73.72492 52.59871
# Shear Modulus (GPa) = 24.41965 41.51101 32.96533
#
# Velocity S-wave (km/s) = 3.14909 4.10579 3.65884
# Velocity P-wave (km/s) = 5.09934 7.23990 6.26176
#
# Compressibility (1/GPa) = 0.03177377
#
# Stress axis : x y z
#
# Youngs Moduli (GPa) = 61.29153 46.76267 102.20077
#
# Poissons Ratio (x) = 0.19215 -0.07160
# Poissons Ratio (y) = 0.25185 0.45448
# Poissons Ratio (z) = -0.04294 0.20795
#
# Static dielectric constant tensor:
#      x y z
#    x 2.052810 -0.000340 0.046220 
#    y -0.000340 1.972880 0.020520 
#    z 0.046220 0.020520 1.953820 
# 
# From -- ./inp_files/267732.got.cif
#   From: 2010.05.17/outbox.cif.g08.bks.cpg/sg2_134_cif.got.tgz:267732.got - 2010.06.03 11:33:40.
