data_PCOD9095978
_publ_section_title
;
Structure prediction by ZEFSAII (Michael W. Deem and Ramdas Pophale) SiO2 
 PCOD9095978
Probable space group: P -1
;
_chemical_formula_sum "Si O2"
_cell_formula_units_Z 16
_cell_length_a 12.071008
_cell_length_b 9.734865
_cell_length_c 16.197554
_cell_angle_alpha 59.791616
_cell_angle_beta 146.213372
_cell_angle_gamma 138.003005
_cell_volume 673.831925
_symmetry_space_group_name_H-M "P -1"
_symmetry_group_IT_number 2
_symmetry_cell_setting 'triclinic'
loop_
_space_group_symop_operation_xyz
x,y,z
-x,-y,-z
loop_
_atom_site_type_symbol
_atom_site_label
_atom_site_fract_x
_atom_site_fract_y
_atom_site_fract_z
Si Si1 0.258815 0.137626 0.737390
Si Si2 0.640595 0.992384 0.787978
Si Si3 0.389320 0.423763 0.589857
Si Si4 0.765956 0.750711 0.860131
Si Si5 0.681796 0.380075 0.651814
Si Si6 0.159549 0.680724 0.974003
Si Si7 0.483326 0.593840 0.044424
Si Si8 0.359939 0.857274 0.819599
O O1 0.209334 0.240998 0.604304
O O2 0.192955 0.922870 0.729254
O O3 0.586087 0.293640 0.895731
O O4 0.235926 0.196073 0.798103
O O5 0.670937 0.185485 0.712703
O O6 0.394183 0.863416 0.740125
O O7 0.641308 0.859729 0.758135
O O8 0.913233 0.090673 0.977469
O O9 0.659337 0.616721 0.750134
O O10 0.445582 0.327458 0.580113
O O11 0.315015 0.544594 0.459708
O O12 0.653101 0.600977 0.916740
O O13 0.946914 0.585046 0.800255
O O14 0.000000 0.500000 0.000000
O O15 0.319464 0.662676 0.891960
O O16 0.500000 0.500000 0.000000
O O17 0.666275 0.070546 0.973702
#
# Coordination Sequence:
#
# PCOD9095978 Si02
#       8
#     2   2   2   2   2   2   2   2
#     4   9  19  32  51  73 104 139 171 209 257 307
#     4  11  19  35  56  81 101 140 174 217 260 313
#     4  10  19  30  49  79 109 138 166 212 264 316
#     4  10  23  35  53  78 111 135 175 217 264 307
#     4  11  18  30  53  78 108 136 171 210 268 307
#     4  10  16  30  53  76 102 134 167 218 253 299
#     4  11  20  32  48  81 107 134 170 219 261 305
#     4  10  19  31  53  79 104 133 171 213 263 304
#
# _framework density 23.744793000000001
#
# number of rings (size 3 to 8) (size 9 to 14) (size 15 to 20)
#    0.750    1.000    5.000    2.625    0.000    0.500 
#    0.000    0.000    0.000    3.000    0.000   14.000 
#    0.000    0.000    0.000    0.000    0.000    0.000 
#
# Total GULP energy -89133.427181 kJ/mol
# GULP energy per Si atom -5570.839199 kJ/mol
# Density = 2.369075 g / cm^3
# Si number density = 23.744793 Si / 1000 Ang^3
#
#
#
# Elastic Constant Matrix: (Units=GPa)
#
#
# Indices 1 2 3 4 5 6 
#
# 1 69.6950 34.1937 26.7715 -16.6667 -19.7914 -18.5069
# 2 34.1937 98.8432 24.2783 -36.1221 -7.4188 -33.0605
# 3 26.7715 24.2783 103.9381 -19.6329 -28.5331 -9.8279
# 4 -16.6667 -36.1221 -19.6329 34.2613 -0.9530 6.3714
# 5 -19.7914 -7.4188 -28.5331 -0.9530 33.3174 0.4325
# 6 -18.5069 -33.0605 -9.8279 6.3714 0.4325 36.5557
#
#
#
# Elastic Compliance Matrix: (Units=1/GPa)
#
#
# Indices 1 2 3 4 5 6 
#
# 1 0.023394 -0.000010 0.001011 0.010486 0.014929 0.010103
# 2 -0.000010 0.026125 0.003132 0.025893 0.008977 0.019845
# 3 0.001011 0.003132 0.015483 0.012107 0.014836 0.005221
# 4 0.010486 0.025893 0.012107 0.065418 0.023971 0.020295
# 5 0.014929 0.008977 0.014836 0.023971 0.054080 0.014847
# 6 0.010103 0.019845 0.005221 0.020295 0.014847 0.048108
#
#
# Mechanical properties :
#
#
# Convention : Reuss Voigt Hill
#
# Bulk Modulus (GPa) = 13.64856 49.21814 31.43335
# Shear Modulus (GPa) = 20.09929 33.30906 26.70417
#
# Velocity S-wave (km/s) = 2.91257 3.74945 3.35719
# Velocity P-wave (km/s) = 4.13174 6.28629 5.31925
#
# Compressibility (1/GPa) = 0.07326779
#
# Stress axis : x y z
#
# Youngs Moduli (GPa) = 42.74535 38.27728 64.58903
#
# Poissons Ratio (x) = 0.00037 -0.06529
# Poissons Ratio (y) = 0.00041 -0.20228
# Poissons Ratio (z) = -0.04321 -0.11987
#
# Static dielectric constant tensor:
#      x y z
#    x 2.107240 -0.058020 0.043870 
#    y -0.058020 2.025770 0.060810 
#    z 0.043870 0.060810 1.981120 
# 
# From -- ./inp_files/572308.got.cif
#   From: 2010.05.17/outbox.cif.g08.bks.cpg/sg2_287_cif.got.tgz:572308.got - 2010.06.03 11:33:40.
