data_PCOD9095989
_publ_section_title
;
Structure prediction by ZEFSAII (Michael W. Deem and Ramdas Pophale) SiO2 
 PCOD9095989
Probable space group: P -1
;
_chemical_formula_sum "Si O2"
_cell_formula_units_Z 16
_cell_length_a 13.667425
_cell_length_b 9.447709
_cell_length_c 12.010508
_cell_angle_alpha 60.594518
_cell_angle_beta 39.302854
_cell_angle_gamma 43.745547
_cell_volume 671.009328
_symmetry_space_group_name_H-M "P -1"
_symmetry_group_IT_number 2
_symmetry_cell_setting 'triclinic'
loop_
_space_group_symop_operation_xyz
x,y,z
-x,-y,-z
loop_
_atom_site_type_symbol
_atom_site_label
_atom_site_fract_x
_atom_site_fract_y
_atom_site_fract_z
Si Si1 0.633409 0.814525 0.041682
Si Si2 0.085201 0.774599 0.152345
Si Si3 0.993600 0.831173 0.953124
Si Si4 0.840490 0.620116 0.427689
Si Si5 0.089190 0.590565 0.759282
Si Si6 0.854874 0.246604 0.545618
Si Si7 0.526394 0.624654 0.043138
Si Si8 0.540444 0.074277 0.211890
O O1 0.628726 0.644747 0.052561
O O2 0.544279 0.899351 0.210208
O O3 0.853822 0.743606 0.880691
O O4 0.500000 0.000000 0.000000
O O5 0.313922 0.611285 0.044673
O O6 0.984460 0.007502 0.189816
O O7 0.979973 0.676458 0.317495
O O8 0.069861 0.793321 0.024806
O O9 0.094055 0.622287 0.873146
O O10 0.757489 0.964437 0.109708
O O11 0.832905 0.613268 0.301305
O O12 0.371312 0.210148 0.398402
O O13 0.919058 0.386253 0.478980
O O14 0.194800 0.667788 0.570227
O O15 0.674522 0.311685 0.754898
O O16 0.000000 0.000000 0.500000
O O17 0.500103 0.773097 0.911998
#
# Coordination Sequence:
#
# PCOD9095989 Si02
#       8
#     2   2   2   2   2   2   2   2
#     4   9  17  35  58  87 123 157 200 254 306 359
#     4  11  24  42  65  93 130 157 216 262 313 368
#     4  10  23  44  68  89 123 174 203 259 319 376
#     4  10  23  40  60  98 123 164 212 265 300 376
#     4   9  20  40  59  91 120 164 208 251 312 370
#     4  10  20  35  61  90 128 162 204 255 306 368
#     4  11  21  38  64  93 128 164 210 259 311 375
#     4  10  22  40  65  94 124 170 210 252 318 372
#
# _framework density 23.844677000000001
#
# number of rings (size 3 to 8) (size 9 to 14) (size 15 to 20)
#    0.750    1.250    1.250    3.000    0.000    5.500 
#    0.000    0.625    0.000    0.000    0.000    0.000 
#    0.000    0.000    0.000    0.000    0.000    0.000 
#
# Total GULP energy -89287.659655 kJ/mol
# GULP energy per Si atom -5580.478728 kJ/mol
# Density = 2.379041 g / cm^3
# Si number density = 23.844677 Si / 1000 Ang^3
#
#
#
# Elastic Constant Matrix: (Units=GPa)
#
#
# Indices 1 2 3 4 5 6 
#
# 1 76.7156 20.2452 27.9387 14.5110 22.0003 10.2866
# 2 20.2452 101.8007 34.4856 1.2034 -3.8182 15.0242
# 3 27.9387 34.4856 126.3564 19.1307 16.0094 9.2360
# 4 14.5110 1.2034 19.1307 27.4420 17.8029 4.4074
# 5 22.0003 -3.8182 16.0094 17.8029 33.6363 -1.3912
# 6 10.2866 15.0242 9.2360 4.4074 -1.3912 42.5182
#
#
#
# Elastic Compliance Matrix: (Units=1/GPa)
#
#
# Indices 1 2 3 4 5 6 
#
# 1 0.018182 -0.003070 -0.001409 -0.000562 -0.011411 -0.003323
# 2 -0.003070 0.012038 -0.003081 0.000957 0.004218 -0.002803
# 3 -0.001409 -0.003081 0.010051 -0.005090 -0.001529 -0.000276
# 4 -0.000562 0.000957 -0.005090 0.060222 -0.029236 -0.006296
# 5 -0.011411 0.004218 -0.001529 -0.029236 0.054139 0.006404
# 6 -0.003323 -0.002803 -0.000276 -0.006296 0.006404 0.026236
#
#
# Mechanical properties :
#
#
# Convention : Reuss Voigt Hill
#
# Bulk Modulus (GPa) = 39.75771 52.24576 46.00174
# Shear Modulus (GPa) = 24.46529 35.53284 29.99906
#
# Velocity S-wave (km/s) = 3.20664 3.86447 3.55082
# Velocity P-wave (km/s) = 5.51542 6.47075 6.01209
#
# Compressibility (1/GPa) = 0.02515235
#
# Stress axis : x y z
#
# Youngs Moduli (GPa) = 54.99807 83.07101 99.49041
#
# Poissons Ratio (x) = 0.25499 0.14017
# Poissons Ratio (y) = 0.16882 0.30655
# Poissons Ratio (z) = 0.07749 0.25595
#
# Static dielectric constant tensor:
#      x y z
#    x 1.970120 0.065780 0.011800 
#    y 0.065780 2.039190 -0.043800 
#    z 0.011800 -0.043800 1.876870 
# 
# From -- ./inp_files/531056.got.cif
#   From: 2010.05.17/outbox.cif.g08.bks.cpg/sg2_266_cif.got.tgz:531056.got - 2010.06.03 11:33:40.
