data_PCOD9095044
_publ_section_title
;
Structure prediction by ZEFSAII (Michael W. Deem and Ramdas Pophale) SiO2 
 PCOD9095044
Probable space group: P -1
;
_chemical_formula_sum "Si O2"
_cell_formula_units_Z 16
_cell_length_a 17.166033
_cell_length_b 25.336463
_cell_length_c 5.055317
_cell_angle_alpha 119.735065
_cell_angle_beta 117.866802
_cell_angle_gamma 22.934922
_cell_volume 743.614070
_symmetry_space_group_name_H-M "P -1"
_symmetry_group_IT_number 2
_symmetry_cell_setting 'triclinic'
loop_
_space_group_symop_operation_xyz
x,y,z
-x,-y,-z
loop_
_atom_site_type_symbol
_atom_site_label
_atom_site_fract_x
_atom_site_fract_y
_atom_site_fract_z
Si Si1 0.751666 0.415905 0.732413
Si Si2 0.078251 0.620420 0.607192
Si Si3 0.108756 0.036013 0.013574
Si Si4 0.369376 0.061074 0.194983
Si Si5 0.326592 0.948805 0.646015
Si Si6 0.720486 0.298609 0.294253
Si Si7 0.364453 0.765385 0.756471
Si Si8 0.598526 0.666416 0.384019
O O1 0.839108 0.405003 0.608003
O O2 0.801845 0.315277 0.508724
O O3 0.515107 0.556679 0.768353
O O4 0.841406 0.381370 0.060540
O O5 0.183489 0.491670 0.554839
O O6 0.840872 0.774311 0.663924
O O7 0.227492 0.006325 0.339448
O O8 0.178338 0.007603 0.759854
O O9 0.190760 0.919511 0.929069
O O10 0.873100 0.181170 0.027801
O O11 0.500000 0.000000 0.500000
O O12 0.500000 0.000000 0.000000
O O13 0.343897 0.005084 0.943047
O O14 0.529674 0.780388 0.548140
O O15 0.721030 0.248781 0.401252
O O16 0.456134 0.723665 0.516706
O O17 0.535804 0.675686 0.026296
#
# Coordination Sequence:
#
# PCOD9095044 Si02
#       8
#     2   2   2   2   2   2   2   2
#     4  11  25  34  60  82 125 164 198 246 283 342
#     4  12  22  45  61  87 118 159 194 237 308 354
#     4  10  21  35  60  83 121 167 196 245 281 336
#     4  12  26  44  69  95 117 143 187 247 302 369
#     4  10  22  42  61  88 121 155 197 234 301 352
#     4  11  21  36  51  90 121 161 214 243 278 323
#     4  10  20  35  53  83 120 160 209 242 281 319
#     4  10  20  38  62  83 115 163 194 237 287 353
#
# _framework density 21.516539000000002
#
# number of rings (size 3 to 8) (size 9 to 14) (size 15 to 20)
#    0.000    1.250    2.500    3.375    0.000    5.000 
#    0.000    5.000    0.000    0.000    0.000    0.000 
#    0.000    0.000    0.000    0.000    0.000    0.000 
#
# Total GULP energy -89125.227832 kJ/mol
# GULP energy per Si atom -5570.326740 kJ/mol
# Density = 2.146757 g / cm^3
# Si number density = 21.516539 Si / 1000 Ang^3
#
#
#
# Elastic Constant Matrix: (Units=GPa)
#
#
# Indices 1 2 3 4 5 6 
#
# 1 50.9890 28.8281 7.3918 6.4926 -9.4258 -0.1301
# 2 28.8281 209.2092 8.5492 -6.9817 -14.9236 -20.8858
# 3 7.3918 8.5492 91.5716 13.8955 -11.5416 3.0872
# 4 6.4926 -6.9817 13.8955 51.3029 20.1935 6.6458
# 5 -9.4258 -14.9236 -11.5416 20.1935 37.0997 18.0119
# 6 -0.1301 -20.8858 3.0872 6.6458 18.0119 17.8714
#
#
#
# Elastic Compliance Matrix: (Units=1/GPa)
#
#
# Indices 1 2 3 4 5 6 
#
# 1 0.029237 -0.005791 0.005015 -0.013305 0.029571 -0.032277
# 2 -0.005791 0.006796 -0.002620 0.004113 -0.009994 0.016896
# 3 0.005015 -0.002620 0.016481 -0.011665 0.024363 -0.026089
# 4 -0.013305 0.004113 -0.011665 0.037234 -0.043401 0.036620
# 5 0.029571 -0.009994 0.024363 -0.043401 0.120277 -0.120756
# 6 -0.032277 0.016896 -0.026089 0.036620 -0.120756 0.188062
#
#
# Mechanical properties :
#
#
# Convention : Reuss Voigt Hill
#
# Bulk Modulus (GPa) = 21.87160 49.03426 35.45293
# Shear Modulus (GPa) = 11.90138 41.72151 26.81145
#
# Velocity S-wave (km/s) = 2.35442 4.40823 3.53382
# Velocity P-wave (km/s) = 4.19263 6.98202 5.75876
#
# Compressibility (1/GPa) = 0.04572139
#
# Stress axis : x y z
#
# Youngs Moduli (GPa) = 34.20290 147.14501 60.67771
#
# Poissons Ratio (x) = 0.85205 -0.30428
# Poissons Ratio (y) = 0.19805 0.15900
# Poissons Ratio (z) = -0.17152 0.38558
#
# Static dielectric constant tensor:
#      x y z
#    x 1.844330 -0.011570 0.038990 
#    y -0.011570 2.052730 0.001470 
#    z 0.038990 0.001470 1.771660 
# 
# From -- ./inp_files/101771.got.cif
#   From: 2010.05.17/outbox.cif.g08.bks.cpg/sg2_51_cif.got.tgz:101771.got - 2010.06.03 11:33:40.
