data_PCOD9095688
_publ_section_title
;
Structure prediction by ZEFSAII (Michael W. Deem and Ramdas Pophale) SiO2 
 PCOD9095688
Probable space group: P -1
;
_chemical_formula_sum "Si O2"
_cell_formula_units_Z 16
_cell_length_a 5.442145
_cell_length_b 17.163166
_cell_length_c 22.471935
_cell_angle_alpha 161.080128
_cell_angle_beta 104.263997
_cell_angle_gamma 81.837482
_cell_volume 631.279634
_symmetry_space_group_name_H-M "P -1"
_symmetry_group_IT_number 2
_symmetry_cell_setting 'triclinic'
loop_
_space_group_symop_operation_xyz
x,y,z
-x,-y,-z
loop_
_atom_site_type_symbol
_atom_site_label
_atom_site_fract_x
_atom_site_fract_y
_atom_site_fract_z
Si Si1 0.889513 0.095604 0.270722
Si Si2 0.742754 0.785952 0.515251
Si Si3 0.155389 0.288518 0.723773
Si Si4 0.693373 0.564032 0.904599
Si Si5 0.637851 0.232988 0.248317
Si Si6 0.817785 0.239848 0.129338
Si Si7 0.124531 0.269889 0.838633
Si Si8 0.650266 0.427467 0.582141
O O1 0.868806 0.235719 0.310155
O O2 0.752010 0.236713 0.411374
O O3 0.150854 0.115612 0.340024
O O4 0.751387 0.803130 0.038443
O O5 0.779073 0.512140 0.307309
O O6 0.435611 0.711743 0.459909
O O7 0.891703 0.006721 0.640430
O O8 0.395761 0.381167 0.758323
O O9 0.270381 0.297533 0.804567
O O10 0.930175 0.436462 0.817280
O O11 0.000000 0.000000 0.500000
O O12 0.715461 0.699650 0.068853
O O13 0.747186 0.199436 0.165510
O O14 0.536672 0.473269 0.402455
O O15 0.381425 0.003828 0.087635
O O16 0.133479 0.311647 0.197220
O O17 0.000000 0.500000 0.000000
#
# Coordination Sequence:
#
# PCOD9095688 Si02
#       8
#     2   2   2   2   2   2   2   2
#     4  10  22  35  60  86 123 158 213 259 322 365
#     4   9  20  38  57  86 123 154 207 265 314 376
#     4  11  23  43  68  96 132 168 213 268 328 388
#     4  10  23  42  66  95 131 169 214 267 322 390
#     4  10  20  37  58  82 122 163 209 256 314 382
#     4   9  20  37  56  82 119 162 205 256 314 382
#     4   9  20  39  67  93 123 169 214 258 323 386
#     4  10  20  35  59  87 118 160 209 265 313 376
#
# _framework density 25.345344000000001
#
# number of rings (size 3 to 8) (size 9 to 14) (size 15 to 20)
#    0.000    2.250    0.000    1.500    5.250    6.500 
#    6.750    0.000   19.250    0.000    0.000    0.000 
#    0.000    0.000    0.000    0.000    0.000    0.000 
#
# Total GULP energy -89230.466674 kJ/mol
# GULP energy per Si atom -5576.904167 kJ/mol
# Density = 2.528766 g / cm^3
# Si number density = 25.345344 Si / 1000 Ang^3
#
#
#
# Elastic Constant Matrix: (Units=GPa)
#
#
# Indices 1 2 3 4 5 6 
#
# 1 50.1331 3.4917 18.8869 15.2929 11.0513 2.8455
# 2 3.4917 59.2319 14.3837 29.4977 0.7185 -16.8719
# 3 18.8869 14.3837 131.6176 49.3858 8.0285 -7.4394
# 4 15.2929 29.4977 49.3858 45.7513 9.5466 13.7864
# 5 11.0513 0.7185 8.0285 9.5466 33.5724 0.6425
# 6 2.8455 -16.8719 -7.4394 13.7864 0.6425 9.0814
#
#
#
# Elastic Compliance Matrix: (Units=1/GPa)
#
#
# Indices 1 2 3 4 5 6 
#
# 1 0.023244 -0.000086 -0.001852 -0.003426 -0.006169 -0.003324
# 2 -0.000086 0.001637 -0.008287 0.017500 -0.002425 -0.030115
# 3 -0.001852 -0.008287 0.006264 0.004482 -0.001672 -0.016371
# 4 -0.003426 0.017500 0.004482 -0.008394 0.001113 0.049920
# 5 -0.006169 -0.002425 -0.001672 0.001113 0.032104 -0.007902
# 6 -0.003324 -0.030115 -0.016371 0.049920 -0.007902 -0.033428
#
#
# Mechanical properties :
#
#
# Convention : Reuss Voigt Hill
#
# Bulk Modulus (GPa) = 93.51075 34.94526 64.22800
# Shear Modulus (GPa) = 110.02851 31.29571 70.66211
#
# Velocity S-wave (km/s) = 6.59591 3.51774 5.28585
# Velocity P-wave (km/s) = 9.74591 5.50608 7.91516
#
# Compressibility (1/GPa) = 0.01069396
#
# Stress axis : x y z
#
# Youngs Moduli (GPa) = 43.02133 610.98313 159.64261
#
# Poissons Ratio (x) = 0.05275 0.29569
# Poissons Ratio (y) = 0.00371 1.32295
# Poissons Ratio (z) = 0.07968 5.06319
#
# Static dielectric constant tensor:
#      x y z
#    x 2.247620 -0.032270 0.161580 
#    y -0.032270 2.039520 -0.040380 
#    z 0.161580 -0.040380 2.087390 
# 
# From -- ./inp_files/80290.got.cif
#   From: 2010.05.17/outbox.cif.g08.bks.cpg/sg2_41_cif.got.tgz:80290.got - 2010.06.03 11:33:40.
