data_PCOD9095424
_publ_section_title
;
Structure prediction by ZEFSAII (Michael W. Deem and Ramdas Pophale) SiO2 
 PCOD9095424
Probable space group: P -1
;
_chemical_formula_sum "Si O2"
_cell_formula_units_Z 16
_cell_length_a 16.160483
_cell_length_b 15.657924
_cell_length_c 13.113361
_cell_angle_alpha 127.051793
_cell_angle_beta 156.721089
_cell_angle_gamma 37.384993
_cell_volume 674.834589
_symmetry_space_group_name_H-M "P -1"
_symmetry_group_IT_number 2
_symmetry_cell_setting 'triclinic'
loop_
_space_group_symop_operation_xyz
x,y,z
-x,-y,-z
loop_
_atom_site_type_symbol
_atom_site_label
_atom_site_fract_x
_atom_site_fract_y
_atom_site_fract_z
Si Si1 0.733384 0.486111 0.188409
Si Si2 0.186498 0.260580 0.858629
Si Si3 0.351100 0.800079 0.087258
Si Si4 0.047057 0.180210 0.217820
Si Si5 0.782997 0.344391 0.638811
Si Si6 0.917912 0.929756 0.500361
Si Si7 0.754695 0.905259 0.838937
Si Si8 0.488534 0.308274 0.113011
O O1 0.017773 0.293389 0.341743
O O2 0.500000 0.500000 0.000000
O O3 0.685142 0.616639 0.289928
O O4 0.604832 0.570926 0.992626
O O5 0.113949 0.176446 0.660323
O O6 0.945417 0.362304 0.754271
O O7 0.195968 0.347440 0.845574
O O8 0.556614 0.115287 0.215096
O O9 0.245030 0.786144 0.062368
O O10 0.065426 0.872547 0.738561
O O11 0.317909 0.940187 0.149146
O O12 0.049719 0.209636 0.122423
O O13 0.399993 0.990817 0.499359
O O14 0.500000 0.500000 0.500000
O O15 0.624603 0.315048 0.369530
O O16 0.056936 0.190905 0.913513
O O17 0.209457 0.873474 0.726945
#
# Coordination Sequence:
#
# PCOD9095424 Si02
#       8
#     2   2   2   2   2   2   2   2
#     4   9  20  39  63  90 125 158 194 251 307 359
#     4  10  20  35  57  87 120 159 197 246 308 365
#     4  10  20  37  63  90 116 155 202 249 301 360
#     4  10  22  41  59  85 123 159 203 249 300 362
#     4  11  24  40  59  87 125 163 206 257 306 361
#     4   9  19  34  57  89 123 149 192 252 308 363
#     4  11  23  39  62  86 117 163 205 249 301 359
#     4  10  20  37  61  89 120 157 199 247 305 368
#
# _framework density 23.709513000000001
#
# number of rings (size 3 to 8) (size 9 to 14) (size 15 to 20)
#    0.000    2.000    0.000    3.000    0.000    8.000 
#    0.000   11.250    0.000    0.000    0.000    0.000 
#    0.000    0.000    0.000    0.000    0.000    0.000 
#
# Total GULP energy -89343.791569 kJ/mol
# GULP energy per Si atom -5583.986973 kJ/mol
# Density = 2.365555 g / cm^3
# Si number density = 23.709513 Si / 1000 Ang^3
#
#
#
# Elastic Constant Matrix: (Units=GPa)
#
#
# Indices 1 2 3 4 5 6 
#
# 1 166.1953 44.9440 27.5463 0.1972 19.3193 -7.9348
# 2 44.9440 70.1097 9.8227 -0.4667 13.3101 -6.1579
# 3 27.5463 9.8227 68.0416 -5.0024 -5.5037 -3.5647
# 4 0.1972 -0.4667 -5.0024 24.7043 0.7485 2.2607
# 5 19.3193 13.3101 -5.5037 0.7485 36.9408 -4.5750
# 6 -7.9348 -6.1579 -3.5647 2.2607 -4.5750 39.8137
#
#
#
# Elastic Compliance Matrix: (Units=1/GPa)
#
#
# Indices 1 2 3 4 5 6 
#
# 1 0.007985 -0.004097 -0.002920 -0.000674 -0.003074 0.000381
# 2 -0.004097 0.018008 -0.001213 0.000136 -0.004362 0.001351
# 3 -0.002920 -0.001213 0.016707 0.003149 0.004521 0.001067
# 4 -0.000674 0.000136 0.003149 0.041337 -0.000340 -0.002218
# 5 -0.003074 -0.004362 0.004521 -0.000340 0.031268 0.002730
# 6 0.000381 0.001351 0.001067 -0.002218 0.002730 0.025937
#
#
# Mechanical properties :
#
#
# Convention : Reuss Voigt Hill
#
# Bulk Modulus (GPa) = 38.10917 52.10806 45.10862
# Shear Modulus (GPa) = 30.03926 35.09400 32.56663
#
# Velocity S-wave (km/s) = 3.56331 3.85147 3.71019
# Velocity P-wave (km/s) = 5.74786 6.46559 6.11726
#
# Compressibility (1/GPa) = 0.02624041
#
# Stress axis : x y z
#
# Youngs Moduli (GPa) = 125.23015 55.53236 59.85494
#
# Poissons Ratio (x) = 0.22754 0.17475
# Poissons Ratio (y) = 0.51312 0.07259
# Poissons Ratio (z) = 0.36561 0.06735
#
# Static dielectric constant tensor:
#      x y z
#    x 1.997310 0.008290 0.025050 
#    y 0.008290 1.966980 0.005080 
#    z 0.025050 0.005080 1.910740 
# 
# From -- ./inp_files/455858.got.cif
#   From: 2010.05.17/outbox.cif.g08.bks.cpg/sg2_228_cif.got.tgz:455858.got - 2010.06.03 11:33:40.
