data_PCOD9095936
_publ_section_title
;
Structure prediction by ZEFSAII (Michael W. Deem and Ramdas Pophale) SiO2 
 PCOD9095936
Probable space group: P -1
;
_chemical_formula_sum "Si O2"
_cell_formula_units_Z 16
_cell_length_a 28.262924
_cell_length_b 5.843751
_cell_length_c 4.925681
_cell_angle_alpha 84.242103
_cell_angle_beta 62.424160
_cell_angle_gamma 115.171765
_cell_volume 606.189509
_symmetry_space_group_name_H-M "P -1"
_symmetry_group_IT_number 2
_symmetry_cell_setting 'triclinic'
loop_
_space_group_symop_operation_xyz
x,y,z
-x,-y,-z
loop_
_atom_site_type_symbol
_atom_site_label
_atom_site_fract_x
_atom_site_fract_y
_atom_site_fract_z
Si Si1 0.246669 0.941415 0.629233
Si Si2 0.871701 0.225273 0.751328
Si Si3 0.985412 0.256166 0.274501
Si Si4 0.099045 0.296720 0.784819
Si Si5 0.214398 0.287285 0.292098
Si Si6 0.328648 0.773440 0.103051
Si Si7 0.365918 0.438756 0.423778
Si Si8 0.426772 0.375908 0.749504
O O1 0.282097 0.821266 0.400817
O O2 0.237604 0.123751 0.418172
O O3 0.297777 0.159577 0.679376
O O4 0.175676 0.736221 0.942453
O O5 0.938873 0.255879 0.629428
O O6 0.885529 0.431762 0.446419
O O7 0.826499 0.909768 0.819545
O O8 0.943472 0.974571 0.252982
O O9 0.000000 0.500000 0.000000
O O10 0.051341 0.273369 0.154072
O O11 0.165063 0.313874 0.608775
O O12 0.279195 0.571019 0.030126
O O13 0.354597 0.641825 0.256530
O O14 0.385657 0.059035 0.811434
O O15 0.401914 0.523763 0.602860
O O16 0.407619 0.383352 0.109172
O O17 0.500000 0.500000 0.500000
#
# Coordination Sequence:
#
# PCOD9095936 Si02
#       8
#     2   2   2   2   2   2   2   2
#     4  10  23  39  57  92 129 164 216 276 333 401
#     4  10  20  35  61  85 121 164 216 273 330 409
#     4   8  16  32  52  86 118 160 213 269 332 405
#     4   9  17  31  59  83 117 164 213 270 340 398
#     4  10  21  38  58  90 122 166 218 271 341 406
#     4  10  24  44  65  99 138 179 221 284 343 407
#     4  10  25  43  71 103 142 183 232 281 345 414
#     4  11  25  48  73 106 143 182 232 286 339 413
#
# _framework density 26.394386000000001
#
# number of rings (size 3 to 8) (size 9 to 14) (size 15 to 20)
#    0.000    2.250    0.000    1.125    7.000    7.000 
#    2.250    0.625    0.000   30.750    0.000    0.000 
#    0.000    0.000    0.000    0.000    0.000    0.000 
#
# Total GULP energy -89537.198560 kJ/mol
# GULP energy per Si atom -5596.074910 kJ/mol
# Density = 2.633431 g / cm^3
# Si number density = 26.394386 Si / 1000 Ang^3
#
#
#
# Elastic Constant Matrix: (Units=GPa)
#
#
# Indices 1 2 3 4 5 6 
#
# 1 128.8568 34.0405 52.9611 -16.2540 -28.0901 2.6397
# 2 34.0405 104.1935 37.2470 -16.7409 -21.6898 0.0755
# 3 52.9611 37.2470 143.7844 -14.4475 -35.6374 13.8194
# 4 -16.2540 -16.7409 -14.4475 40.2775 8.5193 -9.0323
# 5 -28.0901 -21.6898 -35.6374 8.5193 55.6642 -4.4829
# 6 2.6397 0.0755 13.8194 -9.0323 -4.4829 32.7869
#
#
#
# Elastic Compliance Matrix: (Units=1/GPa)
#
#
# Indices 1 2 3 4 5 6 
#
# 1 0.010025 -0.001455 -0.002564 0.002251 0.002607 0.001253
# 2 -0.001455 0.011781 -0.001778 0.003665 0.002332 0.002168
# 3 -0.002564 -0.001778 0.009658 0.000125 0.003913 -0.003291
# 4 0.002251 0.003665 0.000125 0.029279 -0.001221 0.007657
# 5 0.002607 0.002332 0.003913 -0.001221 0.022956 0.000938
# 6 0.001253 0.002168 -0.003291 0.007657 0.000938 0.034019
#
#
# Mechanical properties :
#
#
# Convention : Reuss Voigt Hill
#
# Bulk Modulus (GPa) = 50.32582 69.48131 59.90356
# Shear Modulus (GPa) = 36.78160 42.58479 39.68320
#
# Velocity S-wave (km/s) = 3.73706 4.02108 3.88167
# Velocity P-wave (km/s) = 6.14240 6.92388 6.54482
#
# Compressibility (1/GPa) = 0.01987052
#
# Stress axis : x y z
#
# Youngs Moduli (GPa) = 99.74723 84.88088 103.53597
#
# Poissons Ratio (x) = 0.12353 0.26545
# Poissons Ratio (y) = 0.14517 0.18410
# Poissons Ratio (z) = 0.25573 0.15093
#
# Static dielectric constant tensor:
#      x y z
#    x 2.031830 0.034680 -0.004130 
#    y 0.034680 2.173070 0.067780 
#    z -0.004130 0.067780 2.087440 
# 
# From -- ./inp_files/13281.got.cif
#   From: 2010.05.17/outbox.cif.g08.bks.cpg/sg2_7_cif.got.tgz:13281.got - 2010.06.03 11:33:40.
