data_PCOD9095516
_publ_section_title
;
Structure prediction by ZEFSAII (Michael W. Deem and Ramdas Pophale) SiO2 
 PCOD9095516
Probable space group: P -1
;
_chemical_formula_sum "Si O2"
_cell_formula_units_Z 14
_cell_length_a 15.121507
_cell_length_b 11.864141
_cell_length_c 9.656942
_cell_angle_alpha 100.780471
_cell_angle_beta 133.783929
_cell_angle_gamma 119.341980
_cell_volume 598.321088
_symmetry_space_group_name_H-M "P -1"
_symmetry_group_IT_number 2
_symmetry_cell_setting 'triclinic'
loop_
_space_group_symop_operation_xyz
x,y,z
-x,-y,-z
loop_
_atom_site_type_symbol
_atom_site_label
_atom_site_fract_x
_atom_site_fract_y
_atom_site_fract_z
Si Si1 0.855117 0.518547 0.609275
Si Si2 0.991057 0.175602 0.918341
Si Si3 0.764082 0.656067 0.361699
Si Si4 0.699785 0.235162 0.586647
Si Si5 0.686323 0.723994 0.553008
Si Si6 0.330266 0.745438 0.134238
Si Si7 0.136304 0.332181 0.809610
O O1 0.742487 0.511725 0.371810
O O2 0.658167 0.269637 0.407887
O O3 0.942330 0.667812 0.868964
O O4 0.097040 0.645390 0.847469
O O5 0.976274 0.193864 0.744600
O O6 0.215380 0.267441 0.210172
O O7 0.752603 0.911687 0.657311
O O8 0.840368 0.796528 0.605951
O O9 0.938841 0.785542 0.445618
O O10 0.500000 0.500000 0.000000
O O11 0.597423 0.202658 0.612007
O O12 0.568869 0.003549 0.381942
O O13 0.000000 0.500000 0.000000
O O14 0.392389 0.474577 0.157152
O O15 0.218885 0.532045 0.919658
#
# Coordination Sequence:
#
# PCOD9095516 Si02
#       7
#     2   2   2   2   2   2   2
#     4  10  20  37  59  83 123 151 185 241 290 341
#     4  10  20  35  58  85 108 152 194 241 288 329
#     4   9  21  42  57  80 118 160 192 239 285 337
#     4   9  19  35  56  85 121 147 183 235 291 343
#     4   9  21  37  56  81 113 147 199 243 282 335
#     4  10  21  33  57  93 114 148 191 236 292 345
#     4  11  21  35  59  81 116 152 193 236 282 346
#
# _framework density 23.398809
#
# number of rings (size 3 to 8) (size 9 to 14) (size 15 to 20)
#    0.000    2.286    1.429    0.429    6.000    1.143 
#    0.000    3.571    0.000    0.000    0.000    0.000 
#    0.000    0.000    0.000    0.000    0.000    0.000 
#
# Total GULP energy -78000.549240 kJ/mol
# GULP energy per Si atom -5571.467803 kJ/mol
# Density = 2.334555 g / cm^3
# Si number density = 23.398809 Si / 1000 Ang^3
#
#
#
# Elastic Constant Matrix: (Units=GPa)
#
#
# Indices 1 2 3 4 5 6 
#
# 1 121.1920 48.5103 18.2194 -8.0234 -1.6973 8.7637
# 2 48.5103 127.8083 31.6179 -19.8986 2.1457 0.9012
# 3 18.2194 31.6179 21.1420 -14.7169 10.9348 2.7245
# 4 -8.0234 -19.8986 -14.7169 31.3105 -2.2996 -1.5325
# 5 -1.6973 2.1457 10.9348 -2.2996 29.1523 -3.6912
# 6 8.7637 0.9012 2.7245 -1.5325 -3.6912 31.6972
#
#
#
# Elastic Compliance Matrix: (Units=1/GPa)
#
#
# Indices 1 2 3 4 5 6 
#
# 1 0.010565 -0.002048 -0.010139 -0.003139 0.004110 -0.001665
# 2 -0.002048 0.014883 -0.028356 -0.003517 0.009591 0.003527
# 3 -0.010139 -0.028356 0.168207 0.053345 -0.059310 -0.015177
# 4 -0.003139 -0.003517 0.053345 0.052641 -0.016155 -0.002953
# 5 0.004110 0.009591 -0.059310 -0.016155 0.056003 0.009429
# 6 -0.001665 0.003527 -0.015177 -0.002953 0.009429 0.034168
#
#
# Mechanical properties :
#
#
# Convention : Reuss Voigt Hill
#
# Bulk Modulus (GPa) = 8.88331 51.87082 30.37706
# Shear Modulus (GPa) = 10.98716 29.88496 20.43606
#
# Velocity S-wave (km/s) = 2.16929 3.57767 2.95851
# Velocity P-wave (km/s) = 3.17476 6.26758 4.96798
#
# Compressibility (1/GPa) = 0.11257064
#
# Stress axis : x y z
#
# Youngs Moduli (GPa) = 94.64803 67.19145 5.94504
#
# Poissons Ratio (x) = 0.13761 0.06028
# Poissons Ratio (y) = 0.19384 0.16858
# Poissons Ratio (z) = 0.95961 1.90527
#
# Static dielectric constant tensor:
#      x y z
#    x 1.936470 -0.003410 0.014460 
#    y -0.003410 1.982570 -0.040960 
#    z 0.014460 -0.040960 1.922880 
# 
# From -- ./inp_files/305447.got.cif
#   From: 2010.05.17/outbox.cif.g08.bks.cpg/sg2_153_cif.got.tgz:305447.got - 2010.06.03 11:33:40.
