data_PCOD9095901
_publ_section_title
;
Structure prediction by ZEFSAII (Michael W. Deem and Ramdas Pophale) SiO2 
 PCOD9095901
Probable space group: P -1
;
_chemical_formula_sum "Si O2"
_cell_formula_units_Z 12
_cell_length_a 10.317427
_cell_length_b 14.094233
_cell_length_c 10.872897
_cell_angle_alpha 123.427086
_cell_angle_beta 26.588311
_cell_angle_gamma 110.096268
_cell_volume 541.572664
_symmetry_space_group_name_H-M "P -1"
_symmetry_group_IT_number 2
_symmetry_cell_setting 'triclinic'
loop_
_space_group_symop_operation_xyz
x,y,z
-x,-y,-z
loop_
_atom_site_type_symbol
_atom_site_label
_atom_site_fract_x
_atom_site_fract_y
_atom_site_fract_z
Si Si1 0.545178 0.373147 0.938075
Si Si2 0.149015 0.386339 0.514513
Si Si3 0.260437 0.870446 0.553430
Si Si4 0.545202 0.029375 0.304270
Si Si5 0.834227 0.398202 0.194501
Si Si6 0.561094 0.742125 0.585664
O O1 0.608039 0.265278 0.710032
O O2 0.852590 0.349303 0.743352
O O3 0.500000 0.500000 0.000000
O O4 0.272030 0.379218 0.267048
O O5 0.068995 0.525922 0.730395
O O6 0.403286 0.294557 0.327752
O O7 0.447259 0.884730 0.525132
O O8 0.302126 0.967010 0.490198
O O9 0.891256 0.919389 0.930618
O O10 0.484396 0.118776 0.304014
O O11 0.500000 0.500000 0.500000
O O12 0.729122 0.287730 0.242959
O O13 0.113222 0.347323 0.821809
#
# Coordination Sequence:
#
# PCOD9095901 Si02
#       6
#     2   2   2   2   2   2
#     4  12  26  43  63  90 130 174 202 253 319 389
#     4  11  23  40  60  94 129 163 208 256 313 381
#     4  10  23  43  63  90 127 160 220 255 304 368
#     4  10  22  42  68  91 118 167 211 272 300 359
#     4  10  20  35  60  93 131 161 199 261 307 367
#     4  11  21  39  66  95 125 163 213 261 319 360
#
# _framework density 22.157689999999999
#
# number of rings (size 3 to 8) (size 9 to 14) (size 15 to 20)
#    0.000    1.333    0.000    7.500    4.667    0.000 
#    0.000    5.000    0.000    0.000    0.000    0.000 
#    0.000    0.000    0.000    0.000    0.000    0.000 
#
# Total GULP energy -67110.339530 kJ/mol
# GULP energy per Si atom -5592.528294 kJ/mol
# Density = 2.210726 g / cm^3
# Si number density = 22.157690 Si / 1000 Ang^3
#
#
#
# Elastic Constant Matrix: (Units=GPa)
#
#
# Indices 1 2 3 4 5 6 
#
# 1 42.3509 19.9501 15.9389 17.1534 8.2591 -2.2932
# 2 19.9501 92.7063 9.7391 4.6961 13.9831 -5.3028
# 3 15.9389 9.7391 90.8129 -6.0766 15.1585 11.7267
# 4 17.1534 4.6961 -6.0766 41.9647 8.9604 1.1676
# 5 8.2591 13.9831 15.1585 8.9604 26.5526 -3.4150
# 6 -2.2932 -5.3028 11.7267 1.1676 -3.4150 38.0803
#
#
#
# Elastic Compliance Matrix: (Units=1/GPa)
#
#
# Indices 1 2 3 4 5 6 
#
# 1 0.035390 -0.006143 -0.007523 -0.015476 0.002294 0.004273
# 2 -0.006143 0.012847 0.000810 0.002474 -0.006082 0.000548
# 3 -0.007523 0.000810 0.015233 0.007522 -0.010115 -0.006169
# 4 -0.015476 0.002474 0.007522 0.033856 -0.012863 -0.005095
# 5 0.002294 -0.006082 -0.010115 -0.012863 0.051217 0.007394
# 6 0.004273 0.000548 -0.006169 -0.005095 0.007394 0.029313
#
#
# Mechanical properties :
#
#
# Convention : Reuss Voigt Hill
#
# Bulk Modulus (GPa) = 26.48383 35.23626 30.86004
# Shear Modulus (GPa) = 23.13177 33.33566 28.23372
#
# Velocity S-wave (km/s) = 3.23454 3.88296 3.57349
# Velocity P-wave (km/s) = 5.09196 6.00335 5.56634
#
# Compressibility (1/GPa) = 0.03775889
#
# Stress axis : x y z
#
# Youngs Moduli (GPa) = 28.25690 77.83960 65.64539
#
# Poissons Ratio (x) = 0.47817 0.49383
# Poissons Ratio (y) = 0.17358 -0.05320
# Poissons Ratio (z) = 0.21257 -0.06308
#
# Static dielectric constant tensor:
#      x y z
#    x 1.869950 -0.017050 -0.032050 
#    y -0.017050 1.830200 -0.000100 
#    z -0.032050 -0.000100 1.805360 
# 
# From -- ./inp_files/83445.got.cif
#   From: 2010.05.17/outbox.cif.g08.bks.cpg/sg2_42_cif.got.tgz:83445.got - 2010.06.03 11:33:40.
