data_PCOD9095453
_publ_section_title
;
Structure prediction by ZEFSAII (Michael W. Deem and Ramdas Pophale) SiO2 
 PCOD9095453
Probable space group: P -1
;
_chemical_formula_sum "Si O2"
_cell_formula_units_Z 16
_cell_length_a 9.243188
_cell_length_b 19.583544
_cell_length_c 12.235767
_cell_angle_alpha 23.787724
_cell_angle_beta 107.477105
_cell_angle_gamma 104.831712
_cell_volume 851.096708
_symmetry_space_group_name_H-M "P -1"
_symmetry_group_IT_number 2
_symmetry_cell_setting 'triclinic'
loop_
_space_group_symop_operation_xyz
x,y,z
-x,-y,-z
loop_
_atom_site_type_symbol
_atom_site_label
_atom_site_fract_x
_atom_site_fract_y
_atom_site_fract_z
Si Si1 0.302001 0.572798 0.578859
Si Si2 0.122453 0.175434 0.536648
Si Si3 0.223710 0.208181 0.074078
Si Si4 0.877258 0.204052 0.963382
Si Si5 0.916466 0.250137 0.572605
Si Si6 0.833805 0.958636 0.481214
Si Si7 0.791887 0.887658 0.033180
Si Si8 0.575924 0.812299 0.277410
O O1 0.318403 0.373939 0.855542
O O2 0.209351 0.658106 0.331131
O O3 0.198631 0.608846 0.610101
O O4 0.455034 0.672325 0.473758
O O5 0.138230 0.185919 0.394033
O O6 0.282660 0.209888 0.575930
O O7 0.991228 0.269691 0.440744
O O8 0.095957 0.972494 0.840906
O O9 0.239234 0.115968 0.096855
O O10 0.041260 0.260170 0.957937
O O11 0.255680 0.096599 0.352641
O O12 0.781824 0.127783 0.154044
O O13 0.059114 0.221706 0.729807
O O14 0.824891 0.077525 0.801023
O O15 0.000000 0.000000 0.500000
O O16 0.650840 0.813815 0.172720
O O17 0.500000 0.000000 0.000000
#
# Coordination Sequence:
#
# PCOD9095453 Si02
#       8
#     2   2   2   2   2   2   2   2
#     4  12  21  30  52  84 109 126 168 223 263 286
#     4   9  17  32  57  74  97 133 184 202 244 301
#     4  11  20  32  51  83 105 131 169 219 259 295
#     4   9  16  31  53  74  99 134 169 208 250 302
#     4  10  16  30  51  82  96 131 175 216 246 300
#     4   8  16  32  53  75 100 139 174 200 251 317
#     4  10  18  30  52  73 106 133 172 207 255 308
#     4  11  19  32  50  78 105 135 171 212 253 306
#
# _framework density 18.799274
#
# number of rings (size 3 to 8) (size 9 to 14) (size 15 to 20)
#    0.750    1.250    5.000    1.125    0.000    0.500 
#    0.000    1.250    0.000    3.000    0.000    0.000 
#    0.000    0.000    0.000    0.000    0.000    0.000 
#
# Total GULP energy -89070.925051 kJ/mol
# GULP energy per Si atom -5566.932816 kJ/mol
# Density = 1.875649 g / cm^3
# Si number density = 18.799274 Si / 1000 Ang^3
#
#
#
# Elastic Constant Matrix: (Units=GPa)
#
#
# Indices 1 2 3 4 5 6 
#
# 1 67.7289 25.3278 12.3384 1.8626 -21.1367 1.4363
# 2 25.3278 93.4066 23.9745 25.7680 -18.9899 -15.7458
# 3 12.3384 23.9745 36.6644 1.9676 -19.9168 -3.1960
# 4 1.8626 25.7680 1.9676 23.9582 -0.2144 -16.1041
# 5 -21.1367 -18.9899 -19.9168 -0.2144 18.3783 -1.8398
# 6 1.4363 -15.7458 -3.1960 -16.1041 -1.8398 27.8294
#
#
#
# Elastic Compliance Matrix: (Units=1/GPa)
#
#
# Indices 1 2 3 4 5 6 
#
# 1 0.028479 -0.001758 0.021730 0.001385 0.054950 0.004466
# 2 -0.001758 0.021668 -0.003555 -0.022884 0.016226 -0.000227
# 3 0.021730 -0.003555 0.088280 0.009744 0.119157 0.020522
# 4 0.001385 -0.022884 0.009744 0.093470 -0.006220 0.041777
# 5 0.054950 0.016226 0.119157 -0.006220 0.266846 0.034071
# 6 0.004466 -0.000227 0.020522 0.041777 0.034071 0.064359
#
#
# Mechanical properties :
#
#
# Convention : Reuss Voigt Hill
#
# Bulk Modulus (GPa) = 5.83893 35.67568 20.75731
# Shear Modulus (GPa) = 8.51274 23.11046 15.81160
#
# Velocity S-wave (km/s) = 2.13027 3.50998 2.90328
# Velocity P-wave (km/s) = 3.02711 5.95357 4.72273
#
# Compressibility (1/GPa) = 0.17126418
#
# Stress axis : x y z
#
# Youngs Moduli (GPa) = 35.11321 46.15015 11.32754
#
# Poissons Ratio (x) = 0.08111 -0.24615
# Poissons Ratio (y) = 0.06171 0.04027
# Poissons Ratio (z) = -0.76302 0.16405
#
# Static dielectric constant tensor:
#      x y z
#    x 1.680680 -0.039860 -0.023320 
#    y -0.039860 1.688250 0.023260 
#    z -0.023320 0.023260 1.655780 
# 
# From -- ./inp_files/400913.got.cif
#   From: 2010.05.17/outbox.cif.g08.bks.cpg/sg2_201_cif.got.tgz:400913.got - 2010.06.03 11:33:40.
