data_PCOD9095662
_publ_section_title
;
Structure prediction by ZEFSAII (Michael W. Deem and Ramdas Pophale) SiO2 
 PCOD9095662
Probable space group: P -1
;
_chemical_formula_sum "Si O2"
_cell_formula_units_Z 16
_cell_length_a 10.756806
_cell_length_b 21.892208
_cell_length_c 16.642511
_cell_angle_alpha 158.953605
_cell_angle_beta 33.736300
_cell_angle_gamma 155.305285
_cell_volume 584.517635
_symmetry_space_group_name_H-M "P -1"
_symmetry_group_IT_number 2
_symmetry_cell_setting 'triclinic'
loop_
_space_group_symop_operation_xyz
x,y,z
-x,-y,-z
loop_
_atom_site_type_symbol
_atom_site_label
_atom_site_fract_x
_atom_site_fract_y
_atom_site_fract_z
Si Si1 0.305118 0.699099 0.237610
Si Si2 0.568775 0.626946 0.877372
Si Si3 0.728319 0.175716 0.160522
Si Si4 0.260071 0.977751 0.485662
Si Si5 0.707382 0.283744 0.988434
Si Si6 0.756371 0.830588 0.766555
Si Si7 0.198674 0.433821 0.470731
Si Si8 0.253821 0.131090 0.457449
O O1 0.444256 0.771255 0.339353
O O2 0.218701 0.833928 0.408131
O O3 0.559177 0.759628 0.115011
O O4 0.013569 0.436167 0.060873
O O5 0.798086 0.682296 0.753343
O O6 0.452450 0.395304 0.693129
O O7 0.303090 0.571636 0.895017
O O8 0.893830 0.426755 0.343777
O O9 0.503750 0.121085 0.285990
O O10 0.500000 0.000000 0.000000
O O11 0.898217 0.086396 0.980920
O O12 0.323606 0.898405 0.274240
O O13 0.965634 0.941923 0.589611
O O14 0.456816 0.212401 0.098409
O O15 0.526470 0.643659 0.592393
O O16 0.927627 0.756383 0.625276
O O17 0.000000 0.000000 0.500000
#
# Coordination Sequence:
#
# PCOD9095662 Si02
#       8
#     2   2   2   2   2   2   2   2
#     4  10  18  30  52  76 104 138 175 220 271 320
#     4   9  16  30  48  72 102 136 172 218 263 315
#     4   9  18  30  46  75 107 134 178 221 263 325
#     4  10  19  31  48  79 104 139 178 216 269 326
#     4  10  16  30  52  76 106 134 175 220 269 321
#     4   9  16  28  49  75  99 135 176 218 267 316
#     4   8  16  28  47  76  99 131 181 217 260 325
#     4  11  19  30  50  75 105 139 177 221 268 319
#
# _framework density 27.372999
#
# number of rings (size 3 to 8) (size 9 to 14) (size 15 to 20)
#    0.000    2.500    2.500    1.500    0.000    0.000 
#    0.000    0.625    0.000    0.000   13.000    7.875 
#    0.000    0.000    0.000    0.000    0.000    0.000 
#
# Total GULP energy -89279.200380 kJ/mol
# GULP energy per Si atom -5579.950024 kJ/mol
# Density = 2.731070 g / cm^3
# Si number density = 27.372999 Si / 1000 Ang^3
#
#
#
# Elastic Constant Matrix: (Units=GPa)
#
#
# Indices 1 2 3 4 5 6 
#
# 1 76.1093 35.3262 53.7690 3.7657 -16.8274 -0.6166
# 2 35.3262 99.1469 20.1828 -11.4592 -4.4852 -15.9897
# 3 53.7690 20.1828 141.1295 -3.9119 5.4836 -2.6947
# 4 3.7657 -11.4592 -3.9119 15.5917 -3.2458 -0.8888
# 5 -16.8274 -4.4852 5.4836 -3.2458 70.7574 -1.8428
# 6 -0.6166 -15.9897 -2.6947 -0.8888 -1.8428 40.2152
#
#
#
# Elastic Compliance Matrix: (Units=1/GPa)
#
#
# Indices 1 2 3 4 5 6 
#
# 1 0.025971 -0.009469 -0.009238 -0.014632 0.005515 -0.004056
# 2 -0.009469 0.015797 0.001901 0.014632 -0.000556 0.006561
# 3 -0.009238 0.001901 0.010621 0.005828 -0.002597 0.001336
# 4 -0.014632 0.014632 0.005828 0.080517 0.000893 0.007804
# 5 0.005515 -0.000556 -0.002597 0.000893 0.015663 0.000427
# 6 -0.004056 0.006561 0.001336 0.007804 0.000427 0.027694
#
#
# Mechanical properties :
#
#
# Convention : Reuss Voigt Hill
#
# Bulk Modulus (GPa) = 53.25499 59.43794 56.34647
# Shear Modulus (GPa) = 23.13387 39.12005 31.12696
#
# Velocity S-wave (km/s) = 2.91027 3.78451 3.37581
# Velocity P-wave (km/s) = 5.54892 6.39202 5.98533
#
# Compressibility (1/GPa) = 0.01877758
#
# Stress axis : x y z
#
# Youngs Moduli (GPa) = 38.50520 63.30344 94.15031
#
# Poissons Ratio (x) = 0.59940 0.86973
# Poissons Ratio (y) = 0.36459 -0.17896
# Poissons Ratio (z) = 0.35570 -0.12033
#
# Static dielectric constant tensor:
#      x y z
#    x 2.377310 0.088300 0.015670 
#    y 0.088300 2.234830 0.130360 
#    z 0.015670 0.130360 2.279450 
# 
# From -- ./inp_files/257909.got.cif
#   From: 2010.05.17/outbox.cif.g08.bks.cpg/sg2_129_cif.got.tgz:257909.got - 2010.06.03 11:33:40.
