data_PCOD9095176
_publ_section_title
;
Structure prediction by ZEFSAII (Michael W. Deem and Ramdas Pophale) SiO2 
 PCOD9095176
Probable space group: P -1
;
_chemical_formula_sum "Si O2"
_cell_formula_units_Z 14
_cell_length_a 23.454309
_cell_length_b 5.847898
_cell_length_c 10.480743
_cell_angle_alpha 57.200104
_cell_angle_beta 37.881549
_cell_angle_gamma 51.037700
_cell_volume 683.229143
_symmetry_space_group_name_H-M "P -1"
_symmetry_group_IT_number 2
_symmetry_cell_setting 'triclinic'
loop_
_space_group_symop_operation_xyz
x,y,z
-x,-y,-z
loop_
_atom_site_type_symbol
_atom_site_label
_atom_site_fract_x
_atom_site_fract_y
_atom_site_fract_z
Si Si1 0.536435 0.763892 0.386465
Si Si2 0.752128 0.259643 0.921152
Si Si3 0.734662 0.643879 0.207926
Si Si4 0.554965 0.653237 0.024256
Si Si5 0.904245 0.343283 0.831771
Si Si6 0.074256 0.046848 0.458737
Si Si7 0.410231 0.350272 0.321282
O O1 0.500000 0.500000 0.500000
O O2 0.654644 0.621658 0.251831
O O3 0.500000 0.000000 0.500000
O O4 0.486968 0.006831 0.291235
O O5 0.645169 0.521337 0.005195
O O6 0.826075 0.311677 0.876653
O O7 0.815575 0.191816 0.696328
O O8 0.735067 0.968575 0.085547
O O9 0.688733 0.619022 0.433737
O O10 0.845155 0.401686 0.052337
O O11 0.603216 0.540126 0.832921
O O12 0.469606 0.523773 0.235864
O O13 0.500000 0.000000 0.000000
O O14 0.916372 0.646437 0.684919
O O15 0.014134 0.088890 0.685772
O O16 0.000000 0.000000 0.500000
#
# Coordination Sequence:
#
# PCOD9095176 Si02
#       7
#     2   2   2   2   2   2   2
#     4  10  22  35  58  82 116 155 199 249 298 342
#     4  10  20  35  55  85 111 148 189 238 294 342
#     4  10  21  33  58  82 111 146 193 246 295 336
#     4  11  25  37  53  75 117 165 199 232 282 349
#     4   9  18  29  58  86 107 138 180 238 296 353
#     4   8  16  34  52  82 115 134 175 236 296 348
#     4  10  24  39  50  79 118 156 200 239 282 342
#
# _framework density 20.490929999999999
#
# number of rings (size 3 to 8) (size 9 to 14) (size 15 to 20)
#    0.000    2.286    1.429    0.000   10.000    1.143 
#    0.000    0.000    0.000    0.857    0.000   35.000 
#    0.000    0.000    0.000    0.000    0.000    0.000 
#
# Total GULP energy -77955.965446 kJ/mol
# GULP energy per Si atom -5568.283246 kJ/mol
# Density = 2.044429 g / cm^3
# Si number density = 20.490930 Si / 1000 Ang^3
#
#
#
# Elastic Constant Matrix: (Units=GPa)
#
#
# Indices 1 2 3 4 5 6 
#
# 1 55.0646 6.2984 18.6847 -20.9819 -10.5166 18.0601
# 2 6.2984 89.9208 44.4190 -2.2209 -16.4861 15.3001
# 3 18.6847 44.4190 142.9200 20.3541 -4.2193 10.5541
# 4 -20.9819 -2.2209 20.3541 53.9247 17.9099 -10.1431
# 5 -10.5166 -16.4861 -4.2193 17.9099 37.5664 -8.8059
# 6 18.0601 15.3001 10.5541 -10.1431 -8.8059 22.2048
#
#
#
# Elastic Compliance Matrix: (Units=1/GPa)
#
#
# Indices 1 2 3 4 5 6 
#
# 1 0.029787 0.004119 -0.005088 0.009845 0.000174 -0.020080
# 2 0.004119 0.015706 -0.004622 0.000496 0.005001 -0.009766
# 3 -0.005088 -0.004622 0.009990 -0.006138 0.000597 0.000008
# 4 0.009845 0.000496 -0.006138 0.028925 -0.010674 0.003547
# 5 0.000174 0.005001 0.000597 -0.010674 0.035245 0.005230
# 6 -0.020080 -0.009766 0.000008 0.003547 0.005230 0.071787
#
#
# Mechanical properties :
#
#
# Convention : Reuss Voigt Hill
#
# Bulk Modulus (GPa) = 22.57350 47.41219 34.99284
# Shear Modulus (GPa) = 23.00036 37.30607 30.15322
#
# Velocity S-wave (km/s) = 3.35396 4.27149 3.84023
# Velocity P-wave (km/s) = 5.10284 6.89318 6.06444
#
# Compressibility (1/GPa) = 0.04429973
#
# Stress axis : x y z
#
# Youngs Moduli (GPa) = 33.57224 63.66904 100.10267
#
# Poissons Ratio (x) = -0.26225 0.50937
# Poissons Ratio (y) = -0.13828 0.46265
# Poissons Ratio (z) = 0.17083 0.29426
#
# Static dielectric constant tensor:
#      x y z
#    x 1.749540 0.050520 0.061340 
#    y 0.050520 1.769750 0.080630 
#    z 0.061340 0.080630 1.833430 
# 
# From -- ./inp_files/41618.got.cif
#   From: 2010.05.17/outbox.cif.g08.bks.cpg/sg2_21_cif.got.tgz:41618.got - 2010.06.03 11:33:40.
