data_PCOD9095014
_publ_section_title
;
Structure prediction by ZEFSAII (Michael W. Deem and Ramdas Pophale) SiO2 
 PCOD9095014
Probable space group: P -1
;
_chemical_formula_sum "Si O2"
_cell_formula_units_Z 16
_cell_length_a 15.353282
_cell_length_b 15.824074
_cell_length_c 12.648196
_cell_angle_alpha 99.063718
_cell_angle_beta 82.212147
_cell_angle_gamma 161.742355
_cell_volume 949.701761
_symmetry_space_group_name_H-M "P -1"
_symmetry_group_IT_number 2
_symmetry_cell_setting 'triclinic'
loop_
_space_group_symop_operation_xyz
x,y,z
-x,-y,-z
loop_
_atom_site_type_symbol
_atom_site_label
_atom_site_fract_x
_atom_site_fract_y
_atom_site_fract_z
Si Si1 0.602958 0.142721 0.306785
Si Si2 0.244961 0.158451 0.900794
Si Si3 0.212858 0.315565 0.955046
Si Si4 0.842714 0.547335 0.028536
Si Si5 0.174325 0.832912 0.677092
Si Si6 0.442521 0.034622 0.077679
Si Si7 0.074873 0.652117 0.447116
Si Si8 0.367120 0.621379 0.209253
O O1 0.785527 0.224016 0.287691
O O2 0.454677 0.024887 0.197738
O O3 0.815648 0.413720 0.362015
O O4 0.362418 0.907350 0.387186
O O5 0.167156 0.182061 0.880087
O O6 0.420421 0.262267 0.812405
O O7 0.466612 0.380552 0.002392
O O8 0.982943 0.871069 0.943914
O O9 0.153090 0.349770 0.914817
O O10 0.663547 0.313721 0.075943
O O11 0.714779 0.431222 0.908330
O O12 0.154641 0.802978 0.033508
O O13 0.113329 0.761405 0.549361
O O14 0.922526 0.652519 0.735517
O O15 0.460286 0.145002 0.715735
O O16 0.500000 0.000000 0.000000
O O17 0.000000 0.500000 0.500000
#
# Coordination Sequence:
#
# PCOD9095014 Si02
#       8
#     2   2   2   2   2   2   2   2
#     4  11  21  36  50  68  97 131 168 206 240 281
#     4   9  17  29  47  71  97 130 159 197 247 293
#     4   9  17  31  48  66  96 133 169 197 233 288
#     4  11  21  34  48  70 101 139 171 196 231 285
#     4  11  20  32  50  72  96 126 160 201 253 296
#     4  12  24  35  49  71 101 136 173 203 234 275
#     4  10  20  35  53  70  90 124 167 208 253 294
#     4  11  19  30  48  74 104 127 156 196 246 297
#
# _framework density 16.847394000000001
#
# number of rings (size 3 to 8) (size 9 to 14) (size 15 to 20)
#    0.000    1.500    0.000   10.125    0.000    0.000 
#    0.000    0.000    0.000    0.000    0.000    0.000 
#    0.000   20.000    0.000    0.000    0.000    0.000 
#
# Total GULP energy -89186.888697 kJ/mol
# GULP energy per Si atom -5574.180544 kJ/mol
# Density = 1.680905 g / cm^3
# Si number density = 16.847394 Si / 1000 Ang^3
#
#
#
# Elastic Constant Matrix: (Units=GPa)
#
#
# Indices 1 2 3 4 5 6 
#
# 1 102.4334 24.6931 25.3517 -5.7319 -14.3820 -2.9685
# 2 24.6931 99.4313 13.4542 -4.4119 -0.6740 4.5974
# 3 25.3517 13.4542 74.8692 0.6195 -4.6446 1.9537
# 4 -5.7319 -4.4119 0.6195 31.2075 4.7009 -1.8353
# 5 -14.3820 -0.6740 -4.6446 4.7009 15.0263 -1.2805
# 6 -2.9685 4.5974 1.9537 -1.8353 -1.2805 26.3264
#
#
#
# Elastic Compliance Matrix: (Units=1/GPa)
#
#
# Indices 1 2 3 4 5 6 
#
# 1 0.012944 -0.002804 -0.003252 0.000501 0.011337 0.002777
# 2 -0.002804 0.011058 -0.001190 0.001422 -0.003189 -0.002215
# 3 -0.003252 -0.001190 0.014825 -0.001397 0.001745 -0.001272
# 4 0.000501 0.001422 -0.001397 0.034033 -0.010384 0.001779
# 5 0.011337 -0.003189 0.001745 -0.010384 0.081468 0.004944
# 6 0.002777 -0.002215 -0.001272 0.001779 0.004944 0.039143
#
#
# Mechanical properties :
#
#
# Convention : Reuss Voigt Hill
#
# Bulk Modulus (GPa) = 41.09255 44.85910 42.97583
# Shear Modulus (GPa) = 23.14022 28.72770 25.93396
#
# Velocity S-wave (km/s) = 3.71012 4.13385 3.92771
# Velocity P-wave (km/s) = 6.54197 7.03346 6.79216
#
# Compressibility (1/GPa) = 0.02433531
#
# Stress axis : x y z
#
# Youngs Moduli (GPa) = 77.25855 90.42945 67.45509
#
# Poissons Ratio (x) = 0.25353 0.21938
# Poissons Ratio (y) = 0.21661 0.08025
# Poissons Ratio (z) = 0.25127 0.10758
#
# Static dielectric constant tensor:
#      x y z
#    x 1.605170 -0.009110 -0.035530 
#    y -0.009110 1.584900 0.017360 
#    z -0.035530 0.017360 1.581030 
# 
# From -- ./inp_files/454852.got.cif
#   From: 2010.05.17/outbox.cif.g08.bks.cpg/sg2_228_cif.got.tgz:454852.got - 2010.06.03 11:33:40.
