data_PCOD9095857
_publ_section_title
;
Structure prediction by ZEFSAII (Michael W. Deem and Ramdas Pophale) SiO2 
 PCOD9095857
Probable space group: P -1
;
_chemical_formula_sum "Si O2"
_cell_formula_units_Z 14
_cell_length_a 7.351898
_cell_length_b 7.748469
_cell_length_c 12.748867
_cell_angle_alpha 114.841966
_cell_angle_beta 103.623185
_cell_angle_gamma 118.616107
_cell_volume 483.848261
_symmetry_space_group_name_H-M "P -1"
_symmetry_group_IT_number 2
_symmetry_cell_setting 'triclinic'
loop_
_space_group_symop_operation_xyz
x,y,z
-x,-y,-z
loop_
_atom_site_type_symbol
_atom_site_label
_atom_site_fract_x
_atom_site_fract_y
_atom_site_fract_z
Si Si1 0.387877 0.235274 0.076596
Si Si2 0.849795 0.936292 0.624656
Si Si3 0.017829 0.352814 0.056402
Si Si4 0.673190 0.891893 0.186214
Si Si5 0.471472 0.584604 0.642371
Si Si6 0.686519 0.062408 0.450356
Si Si7 0.099998 0.452402 0.318634
O O1 0.427697 0.616308 0.763215
O O2 0.481111 0.255160 0.976556
O O3 0.231061 0.329220 0.065113
O O4 0.212593 0.945633 0.022989
O O5 0.636113 0.838821 0.658044
O O6 0.762472 0.663839 0.509742
O O7 0.117003 0.125601 0.762227
O O8 0.845286 0.029690 0.536137
O O9 0.061414 0.499805 0.207115
O O10 0.000000 0.500000 0.000000
O O11 0.583326 0.901042 0.289792
O O12 0.853415 0.178095 0.243907
O O13 0.670261 0.541469 0.665904
O O14 0.843077 0.356201 0.537211
O O15 0.500000 0.000000 0.500000
#
# Coordination Sequence:
#
# PCOD9095857 Si02
#       7
#     2   2   2   2   2   2   2
#     4   9  19  36  57  87 126 162 196 249 308 363
#     4  10  20  35  60  90 117 154 205 241 295 365
#     4   9  17  30  57  89 121 158 204 245 299 369
#     4  10  22  40  60  87 121 162 200 245 309 362
#     4   9  18  37  60  87 120 160 193 241 310 361
#     4  12  23  37  60  89 121 155 204 260 299 356
#     4   9  19  35  57  87 120 155 196 246 305 357
#
# _framework density 28.934691000000001
#
# number of rings (size 3 to 8) (size 9 to 14) (size 15 to 20)
#    0.000    2.286    1.429    3.429    4.000    0.000 
#    0.000    0.714    0.000    0.857    0.000    0.000 
#    0.000    0.000    0.000    0.000    0.000    0.000 
#
# Total GULP energy -78264.400214 kJ/mol
# GULP energy per Si atom -5590.314301 kJ/mol
# Density = 2.886883 g / cm^3
# Si number density = 28.934691 Si / 1000 Ang^3
#
#
#
# Elastic Constant Matrix: (Units=GPa)
#
#
# Indices 1 2 3 4 5 6 
#
# 1 91.2499 32.9876 35.3468 -20.4144 -3.8337 -17.0128
# 2 32.9876 132.3167 37.4719 -26.2883 -10.8513 -19.2726
# 3 35.3468 37.4719 257.0610 -35.6183 -25.6049 10.6952
# 4 -20.4144 -26.2883 -35.6183 58.3051 1.4119 4.5183
# 5 -3.8337 -10.8513 -25.6049 1.4119 30.7442 -8.2005
# 6 -17.0128 -19.2726 10.6952 4.5183 -8.2005 40.2427
#
#
#
# Elastic Compliance Matrix: (Units=1/GPa)
#
#
# Indices 1 2 3 4 5 6 
#
# 1 0.013747 -0.001593 -0.001359 0.002817 0.001321 0.005363
# 2 -0.001593 0.009697 -0.000588 0.003009 0.003814 0.004566
# 3 -0.001359 -0.000588 0.004862 0.002292 0.003094 -0.001775
# 4 0.002817 0.003009 0.002292 0.020822 0.002413 0.000177
# 5 0.001321 0.003814 0.003094 0.002413 0.038966 0.009232
# 6 0.005363 0.004566 -0.001775 0.000177 0.009232 0.031636
#
#
# Mechanical properties :
#
#
# Convention : Reuss Voigt Hill
#
# Bulk Modulus (GPa) = 47.11159 76.91557 62.01358
# Shear Modulus (GPa) = 37.34523 50.84650 44.09586
#
# Velocity S-wave (km/s) = 3.59649 4.19655 3.90805
# Velocity P-wave (km/s) = 5.79342 7.07965 6.46859
#
# Compressibility (1/GPa) = 0.02122620
#
# Stress axis : x y z
#
# Youngs Moduli (GPa) = 72.74352 103.12548 205.66374
#
# Poissons Ratio (x) = 0.16430 0.27955
# Poissons Ratio (y) = 0.11589 0.12084
# Poissons Ratio (z) = 0.09888 0.06059
#
# Static dielectric constant tensor:
#      x y z
#    x 2.450140 -0.060410 0.035800 
#    y -0.060410 2.455100 0.023470 
#    z 0.035800 0.023470 2.200800 
# 
# From -- ./inp_files/342406.got.cif
#   From: 2010.05.17/outbox.cif.g08.bks.cpg/sg2_172_cif.got.tgz:342406.got - 2010.06.03 11:33:40.
