data_PCOD9095111
_publ_section_title
;
Structure prediction by ZEFSAII (Michael W. Deem and Ramdas Pophale) SiO2 
 PCOD9095111
Probable space group: P -1
;
_chemical_formula_sum "Si O2"
_cell_formula_units_Z 16
_cell_length_a 13.963877
_cell_length_b 15.214072
_cell_length_c 12.159454
_cell_angle_alpha 140.737497
_cell_angle_beta 39.098619
_cell_angle_gamma 151.925341
_cell_volume 731.012934
_symmetry_space_group_name_H-M "P -1"
_symmetry_group_IT_number 2
_symmetry_cell_setting 'triclinic'
loop_
_space_group_symop_operation_xyz
x,y,z
-x,-y,-z
loop_
_atom_site_type_symbol
_atom_site_label
_atom_site_fract_x
_atom_site_fract_y
_atom_site_fract_z
Si Si1 0.186207 0.886211 0.191438
Si Si2 0.735223 0.636497 0.370422
Si Si3 0.378057 0.365747 0.766084
Si Si4 0.361736 0.109371 0.698761
Si Si5 0.595511 0.251532 0.067086
Si Si6 0.822669 0.268426 0.415619
Si Si7 0.336180 0.209884 0.061412
Si Si8 0.042656 0.794246 0.981800
O O1 0.978528 0.819177 0.370840
O O2 0.392283 0.113565 0.198449
O O3 0.279820 0.812442 0.098089
O O4 0.110225 0.797705 0.048179
O O5 0.500000 0.500000 0.500000
O O6 0.709160 0.704024 0.346327
O O7 0.740664 0.473996 0.186696
O O8 0.361597 0.215814 0.702371
O O9 0.604810 0.591694 0.779487
O O10 0.211051 0.369657 0.970281
O O11 0.592702 0.187231 0.561046
O O12 0.181653 0.872528 0.639902
O O13 0.349178 0.185517 0.897919
O O14 0.501221 0.227500 0.007709
O O15 0.844748 0.224748 0.229490
O O16 0.000000 0.500000 0.500000
O O17 0.114826 0.001097 0.098485
#
# Coordination Sequence:
#
# PCOD9095111 Si02
#       8
#     2   2   2   2   2   2   2   2
#     4   9  18  35  58  80 104 139 184 227 268 321
#     4  10  21  35  52  79 112 140 177 229 277 324
#     4  10  20  35  55  77 104 144 183 219 267 323
#     4  10  21  35  53  79 111 142 176 219 267 319
#     4   9  18  34  57  80 104 141 183 223 269 319
#     4  10  21  36  53  78 112 143 175 219 268 317
#     4   9  18  33  54  80 107 137 181 225 262 314
#     4   9  19  34  55  80 107 138 178 223 266 319
#
# _framework density 21.887439000000001
#
# number of rings (size 3 to 8) (size 9 to 14) (size 15 to 20)
#    0.000    2.500    0.000    1.500    0.000    4.500 
#    0.000    2.500    0.000    0.000    0.000    0.000 
#    0.000    0.000    0.000    0.000    0.000    0.000 
#
# Total GULP energy -89159.022113 kJ/mol
# GULP energy per Si atom -5572.438882 kJ/mol
# Density = 2.183762 g / cm^3
# Si number density = 21.887439 Si / 1000 Ang^3
#
#
#
# Elastic Constant Matrix: (Units=GPa)
#
#
# Indices 1 2 3 4 5 6 
#
# 1 76.3317 51.6163 2.1477 7.6723 -14.4874 -35.3593
# 2 51.6163 151.1285 20.7372 9.8415 -9.6152 -9.6589
# 3 2.1477 20.7372 12.1903 -0.8686 -3.3249 -3.0194
# 4 7.6723 9.8415 -0.8686 42.4326 1.2809 -5.0752
# 5 -14.4874 -9.6152 -3.3249 1.2809 10.7945 -0.7065
# 6 -35.3593 -9.6589 -3.0194 -5.0752 -0.7065 40.2302
#
#
#
# Elastic Compliance Matrix: (Units=1/GPa)
#
#
# Indices 1 2 3 4 5 6 
#
# 1 0.109504 -0.035994 0.108371 -0.002167 0.154968 0.098186
# 2 -0.035994 0.020869 -0.049859 -0.001692 -0.046931 -0.031406
# 3 0.108371 -0.049859 0.221531 0.003575 0.175615 0.103441
# 4 -0.002167 -0.001692 0.003575 0.024727 -0.006185 0.000968
# 5 0.154968 -0.046931 0.175615 -0.006185 0.323006 0.143010
# 6 0.098186 -0.031406 0.103441 0.000968 0.143010 0.114012
#
#
# Mechanical properties :
#
#
# Convention : Reuss Voigt Hill
#
# Bulk Modulus (GPa) = 2.51928 43.18367 22.85148
# Shear Modulus (GPa) = 5.54985 29.70142 17.62563
#
# Velocity S-wave (km/s) = 1.59409 3.68775 2.84083
# Velocity P-wave (km/s) = 2.13113 6.15674 4.60690
#
# Compressibility (1/GPa) = 0.39693856
#
# Stress axis : x y z
#
# Youngs Moduli (GPa) = 9.13210 47.91823 4.51404
#
# Poissons Ratio (x) = 1.72478 -0.48919
# Poissons Ratio (y) = 0.32870 0.22507
# Poissons Ratio (z) = -0.98965 2.38916
#
# Static dielectric constant tensor:
#      x y z
#    x 1.784210 0.021930 -0.027840 
#    y 0.021930 1.866180 -0.032060 
#    z -0.027840 -0.032060 1.834530 
# 
# From -- ./inp_files/455059.got.cif
#   From: 2010.05.17/outbox.cif.g08.bks.cpg/sg2_228_cif.got.tgz:455059.got - 2010.06.03 11:33:40.
