data_PCOD9095647
_publ_section_title
;
Structure prediction by ZEFSAII (Michael W. Deem and Ramdas Pophale) SiO2 
 PCOD9095647
Probable space group: P -1
;
_chemical_formula_sum "Si O2"
_cell_formula_units_Z 16
_cell_length_a 15.254126
_cell_length_b 15.101466
_cell_length_c 9.583469
_cell_angle_alpha 69.260481
_cell_angle_beta 90.845812
_cell_angle_gamma 151.956678
_cell_volume 714.128473
_symmetry_space_group_name_H-M "P -1"
_symmetry_group_IT_number 2
_symmetry_cell_setting 'triclinic'
loop_
_space_group_symop_operation_xyz
x,y,z
-x,-y,-z
loop_
_atom_site_type_symbol
_atom_site_label
_atom_site_fract_x
_atom_site_fract_y
_atom_site_fract_z
Si Si1 0.898270 0.080868 0.767182
Si Si2 0.432771 0.822542 0.073780
Si Si3 0.287591 0.253422 0.848193
Si Si4 0.865114 0.523595 0.259026
Si Si5 0.895037 0.340217 0.299838
Si Si6 0.514949 0.383029 0.509207
Si Si7 0.449606 0.129610 0.258116
Si Si8 0.594422 0.934038 0.304744
O O1 0.957285 0.218224 0.812528
O O2 0.185490 0.333495 0.599487
O O3 0.747360 0.983636 0.697764
O O4 0.707873 0.811042 0.982295
O O5 0.562530 0.898503 0.159656
O O6 0.131613 0.516507 0.249699
O O7 0.498859 0.854256 0.904833
O O8 0.500000 0.000000 0.000000
O O9 0.358814 0.268331 0.699517
O O10 0.461849 0.522217 0.674431
O O11 0.000000 0.000000 0.000000
O O12 0.955602 0.511843 0.221215
O O13 0.707828 0.410738 0.191336
O O14 0.671200 0.302585 0.503745
O O15 0.671430 0.079923 0.541695
O O16 0.802908 0.215100 0.214610
O O17 0.383859 0.151580 0.595125
#
# Coordination Sequence:
#
# PCOD9095647 Si02
#       8
#     2   2   2   2   2   2   2   2
#     4  10  20  35  59  84 114 151 189 239 290 335
#     4  12  24  35  55  85 114 155 205 242 283 337
#     4   9  18  34  59  89 113 142 186 237 290 347
#     4  10  21  38  58  83 119 160 198 236 285 342
#     4  11  23  40  57  80 122 162 194 240 286 334
#     4   9  18  34  58  85 112 147 191 231 286 352
#     4  11  23  37  56  84 116 153 199 242 284 339
#     4  10  21  38  59  84 117 156 195 238 287 342
#
# _framework density 22.40493
#
# number of rings (size 3 to 8) (size 9 to 14) (size 15 to 20)
#    0.000    1.750    0.000    6.000    0.000    5.500 
#    0.000    0.000    0.000   20.250    0.000   68.250 
#    0.000    0.000    0.000    0.000    0.000    0.000 
#
# Total GULP energy -89300.367542 kJ/mol
# GULP energy per Si atom -5581.272971 kJ/mol
# Density = 2.235394 g / cm^3
# Si number density = 22.404930 Si / 1000 Ang^3
#
#
#
# Elastic Constant Matrix: (Units=GPa)
#
#
# Indices 1 2 3 4 5 6 
#
# 1 114.7094 26.4714 5.6109 -9.2936 40.2998 -27.6761
# 2 26.4714 74.6353 6.7551 13.6278 11.8608 4.3045
# 3 5.6109 6.7551 134.1735 22.6776 -56.7109 32.5732
# 4 -9.2936 13.6278 22.6776 31.4620 -15.1209 15.4694
# 5 40.2998 11.8608 -56.7109 -15.1209 118.9760 -51.0660
# 6 -27.6761 4.3045 32.5732 15.4694 -51.0660 66.1639
#
#
#
# Elastic Compliance Matrix: (Units=1/GPa)
#
#
# Indices 1 2 3 4 5 6 
#
# 1 0.012282 -0.004631 -0.003264 0.004750 -0.003145 0.003508
# 2 -0.004631 0.017136 0.000596 -0.008820 -0.002284 -0.003046
# 3 -0.003264 0.000596 0.011021 -0.006015 0.004796 -0.001722
# 4 0.004750 -0.008820 -0.006015 0.043635 -0.000089 -0.004749
# 5 -0.003145 -0.002284 0.004796 -0.000089 0.015653 0.008574
# 6 0.003508 -0.003046 -0.001722 -0.004749 0.008574 0.025355
#
#
# Mechanical properties :
#
#
# Convention : Reuss Voigt Hill
#
# Bulk Modulus (GPa) = 38.69834 44.57700 41.63767
# Shear Modulus (GPa) = 33.71660 62.29909 48.00785
#
# Velocity S-wave (km/s) = 3.88348 5.27886 4.63399
# Velocity P-wave (km/s) = 6.11705 7.55608 6.87432
#
# Compressibility (1/GPa) = 0.02584090
#
# Stress axis : x y z
#
# Youngs Moduli (GPa) = 81.41911 58.35667 90.73248
#
# Poissons Ratio (x) = 0.27022 0.29618
# Poissons Ratio (y) = 0.37702 -0.05404
# Poissons Ratio (z) = 0.26578 -0.03476
#
# Static dielectric constant tensor:
#      x y z
#    x 1.872620 0.038880 -0.029660 
#    y 0.038880 1.817710 -0.034310 
#    z -0.029660 -0.034310 1.885900 
# 
# From -- ./inp_files/314951.got.cif
#   From: 2010.05.17/outbox.cif.g08.bks.cpg/sg2_158_cif.got.tgz:314951.got - 2010.06.03 11:33:40.
