data_PCOD9095241
_publ_section_title
;
Structure prediction by ZEFSAII (Michael W. Deem and Ramdas Pophale) SiO2 
 PCOD9095241
Probable space group: P -1
;
_chemical_formula_sum "Si O2"
_cell_formula_units_Z 16
_cell_length_a 11.666779
_cell_length_b 11.521849
_cell_length_c 22.382032
_cell_angle_alpha 41.280353
_cell_angle_beta 139.338690
_cell_angle_gamma 156.118630
_cell_volume 774.329284
_symmetry_space_group_name_H-M "P -1"
_symmetry_group_IT_number 2
_symmetry_cell_setting 'triclinic'
loop_
_space_group_symop_operation_xyz
x,y,z
-x,-y,-z
loop_
_atom_site_type_symbol
_atom_site_label
_atom_site_fract_x
_atom_site_fract_y
_atom_site_fract_z
Si Si1 0.403338 0.273776 0.958216
Si Si2 0.249641 0.525787 0.227169
Si Si3 0.809470 0.820719 0.574206
Si Si4 0.253849 0.132084 0.151105
Si Si5 0.851952 0.477638 0.257537
Si Si6 0.629572 0.141554 0.175616
Si Si7 0.183842 0.410758 0.449641
Si Si8 0.321617 0.680305 0.062774
O O1 0.581341 0.374192 0.929338
O O2 0.061571 0.024337 0.902138
O O3 0.574554 0.583779 0.931524
O O4 0.436910 0.135460 0.068885
O O5 0.241526 0.325482 0.328894
O O6 0.356575 0.625303 0.163206
O O7 0.921906 0.341473 0.175165
O O8 0.455996 0.819635 0.233896
O O9 0.527706 0.701866 0.485249
O O10 0.864218 0.715157 0.586143
O O11 0.069358 0.168589 0.542849
O O12 0.098383 0.816345 0.202790
O O13 0.558651 0.323949 0.232677
O O14 0.723587 0.286942 0.220689
O O15 0.012333 0.455271 0.367059
O O16 0.000000 0.500000 0.000000
O O17 0.500000 0.000000 0.000000
#
# Coordination Sequence:
#
# PCOD9095241 Si02
#       8
#     2   2   2   2   2   2   2   2
#     4  11  22  40  55  83 112 154 195 246 276 322
#     4  12  22  37  55  92 118 154 185 227 287 356
#     4  10  21  33  55  86 117 150 178 232 284 348
#     4  10  24  38  57  78 114 152 207 236 274 323
#     4  11  22  38  56  85 111 162 191 230 282 341
#     4  12  23  34  59  81 125 151 193 229 278 339
#     4  10  20  35  56  81 118 150 186 225 286 349
#     4  12  22  39  62  86 111 154 193 232 293 344
#
# _framework density 20.663045
#
# number of rings (size 3 to 8) (size 9 to 14) (size 15 to 20)
#    0.000    1.000    3.750    3.750    3.500    3.000 
#    0.000    0.000    0.000    0.000    0.000   17.500 
#    0.000    0.000    0.000    0.000    0.000    0.000 
#
# Total GULP energy -89182.255251 kJ/mol
# GULP energy per Si atom -5573.890953 kJ/mol
# Density = 2.061602 g / cm^3
# Si number density = 20.663045 Si / 1000 Ang^3
#
#
#
# Elastic Constant Matrix: (Units=GPa)
#
#
# Indices 1 2 3 4 5 6 
#
# 1 35.8859 17.8930 33.9805 -0.0651 4.8830 11.4812
# 2 17.8930 122.6178 11.1601 -7.5662 9.7726 20.5431
# 3 33.9805 11.1601 102.2851 -7.5359 3.7168 9.2721
# 4 -0.0651 -7.5662 -7.5359 31.9961 16.5141 9.0504
# 5 4.8830 9.7726 3.7168 16.5141 31.2875 7.5396
# 6 11.4812 20.5431 9.2721 9.0504 7.5396 27.3562
#
#
#
# Elastic Compliance Matrix: (Units=1/GPa)
#
#
# Indices 1 2 3 4 5 6 
#
# 1 0.046953 -0.003390 -0.014046 0.000359 -0.001899 -0.011995
# 2 -0.003390 0.010833 0.001484 0.007975 -0.005212 -0.008417
# 3 -0.014046 0.001484 0.014917 0.005607 -0.002667 -0.001396
# 4 0.000359 0.007975 0.005607 0.053632 -0.027108 -0.018312
# 5 -0.001899 -0.005212 -0.002667 -0.027108 0.048198 0.001299
# 6 -0.011995 -0.008417 -0.001396 -0.018312 0.001299 0.054083
#
#
# Mechanical properties :
#
#
# Convention : Reuss Voigt Hill
#
# Bulk Modulus (GPa) = 24.50991 42.98401 33.74696
# Shear Modulus (GPa) = 18.24025 31.31165 24.77595
#
# Velocity S-wave (km/s) = 2.97433 3.89697 3.46648
# Velocity P-wave (km/s) = 4.86652 6.41062 5.69118
#
# Compressibility (1/GPa) = 0.04079983
#
# Stress axis : x y z
#
# Youngs Moduli (GPa) = 21.29786 92.31300 67.03594
#
# Poissons Ratio (x) = 0.31296 0.94157
# Poissons Ratio (y) = 0.07220 -0.09950
# Poissons Ratio (z) = 0.29915 -0.13702
#
# Static dielectric constant tensor:
#      x y z
#    x 1.895870 -0.046570 0.137100 
#    y -0.046570 1.763730 -0.046400 
#    z 0.137100 -0.046400 1.886480 
# 
# From -- ./inp_files/452071.got.cif
#   From: 2010.05.17/outbox.cif.g08.bks.cpg/sg2_227_cif.got.tgz:452071.got - 2010.06.03 11:33:40.
