data_PCOD9095671
_publ_section_title
;
Structure prediction by ZEFSAII (Michael W. Deem and Ramdas Pophale) SiO2 
 PCOD9095671
Probable space group: P -1
;
_chemical_formula_sum "Si O2"
_cell_formula_units_Z 14
_cell_length_a 10.301568
_cell_length_b 12.439958
_cell_length_c 14.038176
_cell_angle_alpha 40.381122
_cell_angle_beta 115.907192
_cell_angle_gamma 145.309144
_cell_volume 569.131755
_symmetry_space_group_name_H-M "P -1"
_symmetry_group_IT_number 2
_symmetry_cell_setting 'triclinic'
loop_
_space_group_symop_operation_xyz
x,y,z
-x,-y,-z
loop_
_atom_site_type_symbol
_atom_site_label
_atom_site_fract_x
_atom_site_fract_y
_atom_site_fract_z
Si Si1 0.494164 0.305099 0.092983
Si Si2 0.076735 0.790706 0.963173
Si Si3 0.489237 0.762342 0.644947
Si Si4 0.717528 0.697106 0.572066
Si Si5 0.679068 0.772834 0.099928
Si Si6 0.030950 0.563100 0.667886
Si Si7 0.436221 0.685457 0.377240
O O1 0.443404 0.160454 0.271879
O O2 0.500000 0.500000 0.000000
O O3 0.305005 0.113289 0.070241
O O4 0.787001 0.531865 0.999667
O O5 0.098128 0.965446 0.928505
O O6 0.308573 0.018904 0.805236
O O7 0.081758 0.637451 0.138476
O O8 0.386513 0.479114 0.779613
O O9 0.236872 0.636718 0.633837
O O10 0.766107 0.094073 0.466541
O O11 0.576043 0.434420 0.776841
O O12 0.547131 0.700062 0.495786
O O13 0.719978 0.610915 0.529407
O O14 0.000000 0.000000 0.500000
O O15 0.784773 0.385573 0.644472
#
# Coordination Sequence:
#
# PCOD9095671 Si02
#       7
#     2   2   2   2   2   2   2
#     4   9  19  35  58  84 114 148 187 236 285 332
#     4  10  21  37  60  87 115 149 191 239 284 337
#     4   9  20  37  60  84 117 157 190 234 285 341
#     4  10  20  35  59  86 113 147 191 241 284 337
#     4  10  20  37  60  86 111 147 197 238 278 335
#     4  10  20  38  58  83 120 157 187 230 294 345
#     4  10  21  37  59  85 114 151 191 234 289 343
#
# _framework density 24.598872
#
# number of rings (size 3 to 8) (size 9 to 14) (size 15 to 20)
#    0.000    2.286    0.000    2.143    0.000   10.857 
#    0.000    8.571    0.000   12.857    0.000    0.000 
#    0.000    0.000    0.000    0.000    0.000    0.000 
#
# Total GULP energy -78130.830140 kJ/mol
# GULP energy per Si atom -5580.773581 kJ/mol
# Density = 2.454288 g / cm^3
# Si number density = 24.598872 Si / 1000 Ang^3
#
#
#
# Elastic Constant Matrix: (Units=GPa)
#
#
# Indices 1 2 3 4 5 6 
#
# 1 44.2641 20.2268 8.8408 9.4770 11.6350 7.5253
# 2 20.2268 86.9083 36.0784 16.2339 -2.9298 3.4329
# 3 8.8408 36.0784 111.6581 4.5794 2.8739 2.6931
# 4 9.4770 16.2339 4.5794 36.2653 0.1381 4.0154
# 5 11.6350 -2.9298 2.8739 0.1381 26.2314 3.4277
# 6 7.5253 3.4329 2.6931 4.0154 3.4277 32.2371
#
#
#
# Elastic Compliance Matrix: (Units=1/GPa)
#
#
# Indices 1 2 3 4 5 6 
#
# 1 0.031046 -0.006837 0.000406 -0.004552 -0.013966 -0.004501
# 2 -0.006837 0.016088 -0.004601 -0.004889 0.005318 0.000310
# 3 0.000406 -0.004601 0.010437 0.000683 -0.001792 -0.000371
# 4 -0.004552 -0.004889 0.000683 0.031139 0.001563 -0.002519
# 5 -0.013966 0.005318 -0.001792 0.001563 0.045384 -0.002177
# 6 -0.004501 0.000310 -0.000371 -0.002519 -0.002177 0.032614
#
#
# Mechanical properties :
#
#
# Convention : Reuss Voigt Hill
#
# Bulk Modulus (GPa) = 28.16321 41.45805 34.81063
# Shear Modulus (GPa) = 24.92444 30.79240 27.85842
#
# Velocity S-wave (km/s) = 3.18659 3.54189 3.36893
# Velocity P-wave (km/s) = 5.00130 5.79801 5.41433
#
# Compressibility (1/GPa) = 0.03550732
#
# Stress axis : x y z
#
# Youngs Moduli (GPa) = 32.21068 62.15982 95.80919
#
# Poissons Ratio (x) = 0.42496 -0.03886
# Poissons Ratio (y) = 0.22021 0.44079
# Poissons Ratio (z) = -0.01306 0.28598
#
# Static dielectric constant tensor:
#      x y z
#    x 2.041310 -0.026710 0.040420 
#    y -0.026710 1.936060 -0.017070 
#    z 0.040420 -0.017070 1.989270 
# 
# From -- ./inp_files/389923.got.cif
#   From: 2010.05.17/outbox.cif.g08.bks.cpg/sg2_195_cif.got.tgz:389923.got - 2010.06.03 11:33:40.
