data_PCOD9095710
_publ_section_title
;
Structure prediction by ZEFSAII (Michael W. Deem and Ramdas Pophale) SiO2 
 PCOD9095710
Probable space group: P -1
;
_chemical_formula_sum "Si O2"
_cell_formula_units_Z 14
_cell_length_a 14.506098
_cell_length_b 12.395824
_cell_length_c 9.615800
_cell_angle_alpha 36.204325
_cell_angle_beta 132.916459
_cell_angle_gamma 136.841009
_cell_volume 680.114100
_symmetry_space_group_name_H-M "P -1"
_symmetry_group_IT_number 2
_symmetry_cell_setting 'triclinic'
loop_
_space_group_symop_operation_xyz
x,y,z
-x,-y,-z
loop_
_atom_site_type_symbol
_atom_site_label
_atom_site_fract_x
_atom_site_fract_y
_atom_site_fract_z
Si Si1 0.840248 0.417323 0.780655
Si Si2 0.335939 0.768362 0.690736
Si Si3 0.601774 0.594787 0.877377
Si Si4 0.902704 0.822573 0.936984
Si Si5 0.024679 0.724678 0.420859
Si Si6 0.568407 0.180718 0.588311
Si Si7 0.950455 0.766276 0.733284
O O1 0.694251 0.253393 0.748363
O O2 0.843829 0.595550 0.700860
O O3 0.924440 0.544844 0.600529
O O4 0.920958 0.297756 0.059321
O O5 0.181257 0.749079 0.571431
O O6 0.368105 0.784151 0.540696
O O7 0.451109 0.956307 0.691997
O O8 0.358177 0.575876 0.963831
O O9 0.748900 0.766904 0.896124
O O10 0.517176 0.686788 0.605474
O O11 0.500000 0.500000 0.000000
O O12 0.893040 0.749531 0.846635
O O13 0.980847 0.063611 0.762688
O O14 0.974486 0.714535 0.220478
O O15 0.000000 0.000000 0.500000
#
# Coordination Sequence:
#
# PCOD9095710 Si02
#       7
#     2   2   2   2   2   2   2
#     4  11  24  42  68  93 127 169 213 260 319 380
#     4  10  20  35  59  88 130 161 198 259 320 365
#     4  10  20  36  60  90 129 164 201 260 320 374
#     4  11  22  38  66  97 129 162 215 267 315 371
#     4  11  21  38  67  99 124 163 214 266 317 376
#     4  10  21  37  56  92 124 161 206 251 311 381
#     4  11  24  44  64  93 130 169 211 263 316 377
#
# _framework density 20.584781
#
# number of rings (size 3 to 8) (size 9 to 14) (size 15 to 20)
#    0.000    1.429    2.857    3.429    0.000    2.857 
#    0.000    0.714    0.000    8.571    0.000    0.000 
#    0.000    0.000    0.000    0.000    0.000    0.000 
#
# Total GULP energy -78136.807403 kJ/mol
# GULP energy per Si atom -5581.200529 kJ/mol
# Density = 2.053793 g / cm^3
# Si number density = 20.584781 Si / 1000 Ang^3
#
#
#
# Elastic Constant Matrix: (Units=GPa)
#
#
# Indices 1 2 3 4 5 6 
#
# 1 59.3893 37.3179 20.2185 6.9287 -1.5041 -1.1487
# 2 37.3179 121.9101 48.1341 19.6785 -2.4387 2.8966
# 3 20.2185 48.1341 88.6234 -9.3377 13.1764 -2.4546
# 4 6.9287 19.6785 -9.3377 30.1896 3.0382 6.0882
# 5 -1.5041 -2.4387 13.1764 3.0382 26.3118 5.9174
# 6 -1.1487 2.8966 -2.4546 6.0882 5.9174 35.7076
#
#
#
# Elastic Compliance Matrix: (Units=1/GPa)
#
#
# Indices 1 2 3 4 5 6 
#
# 1 0.021309 -0.004896 -0.002834 -0.003013 0.002302 0.001020
# 2 -0.004896 0.016026 -0.010202 -0.013036 0.008107 -0.001280
# 3 -0.002834 -0.010202 0.021148 0.014841 -0.013852 0.001955
# 4 -0.003013 -0.013036 0.014841 0.049103 -0.013550 -0.004146
# 5 0.002302 0.008107 -0.013852 -0.013550 0.049044 -0.007353
# 6 0.001020 -0.001280 0.001955 -0.004146 -0.007353 0.030202
#
#
# Mechanical properties :
#
#
# Convention : Reuss Voigt Hill
#
# Bulk Modulus (GPa) = 44.20738 53.47375 48.84056
# Shear Modulus (GPa) = 21.71700 29.39196 25.55448
#
# Velocity S-wave (km/s) = 3.25160 3.78279 3.52721
# Velocity P-wave (km/s) = 5.96822 6.71662 6.35345
#
# Compressibility (1/GPa) = 0.02262066
#
# Stress axis : x y z
#
# Youngs Moduli (GPa) = 46.92932 62.39752 47.28485
#
# Poissons Ratio (x) = 0.30548 0.13399
# Poissons Ratio (y) = 0.22975 0.48239
# Poissons Ratio (z) = 0.13299 0.63657
#
# Static dielectric constant tensor:
#      x y z
#    x 1.751590 -0.015050 -0.001760 
#    y -0.015050 1.791470 -0.023080 
#    z -0.001760 -0.023080 1.749090 
# 
# From -- ./inp_files/241984.got.cif
#   From: 2010.05.17/outbox.cif.g08.bks.cpg/sg2_121_cif.got.tgz:241984.got - 2010.06.03 11:33:40.
