data_PCOD9095849
_publ_section_title
;
Structure prediction by ZEFSAII (Michael W. Deem and Ramdas Pophale) SiO2 
 PCOD9095849
Probable space group: P -1
;
_chemical_formula_sum "Si O2"
_cell_formula_units_Z 12
_cell_length_a 12.053017
_cell_length_b 12.023463
_cell_length_c 14.250032
_cell_angle_alpha 150.005959
_cell_angle_beta 28.887188
_cell_angle_gamma 147.778140
_cell_volume 464.693656
_symmetry_space_group_name_H-M "P -1"
_symmetry_group_IT_number 2
_symmetry_cell_setting 'triclinic'
loop_
_space_group_symop_operation_xyz
x,y,z
-x,-y,-z
loop_
_atom_site_type_symbol
_atom_site_label
_atom_site_fract_x
_atom_site_fract_y
_atom_site_fract_z
Si Si1 0.797180 0.781907 0.237489
Si Si2 0.593521 0.828573 0.242492
Si Si3 0.787164 0.491294 0.509931
Si Si4 0.833410 0.694020 0.809694
Si Si5 0.759349 0.867334 0.521011
Si Si6 0.766316 0.383904 0.230062
O O1 0.813925 0.830236 0.149150
O O2 0.509657 0.609222 0.333822
O O3 0.802390 0.957799 0.448382
O O4 0.012265 0.682587 0.021929
O O5 0.367781 0.575642 0.223279
O O6 0.500000 0.000000 0.500000
O O7 0.705819 0.855171 0.074658
O O8 0.867067 0.712788 0.686189
O O9 0.830247 0.494867 0.369287
O O10 0.927414 0.326371 0.331067
O O11 0.731555 0.589163 0.342059
O O12 0.490985 0.843953 0.740279
O O13 0.000000 0.000000 0.500000
#
# Coordination Sequence:
#
# PCOD9095849 Si02
#       6
#     2   2   2   2   2   2
#     4  10  20  38  60  88 122 160 206 256 308 369
#     4  10  20  35  60  89 124 165 205 252 307 366
#     4   9  18  35  61  87 119 162 208 240 306 377
#     4   9  18  36  57  85 125 164 204 249 302 374
#     4  10  23  40  61  91 120 156 213 258 312 377
#     4  10  20  40  67  84 125 167 194 262 320 356
#
# _framework density 25.823466
#
# number of rings (size 3 to 8) (size 9 to 14) (size 15 to 20)
#    0.000    2.333    1.667    0.500    0.000    2.000 
#    0.000    9.167    7.333    0.000    0.000    0.000 
#    0.000    0.000    0.000    0.000    0.000    0.000 
#
# Total GULP energy -66947.863700 kJ/mol
# GULP energy per Si atom -5578.988642 kJ/mol
# Density = 2.576469 g / cm^3
# Si number density = 25.823466 Si / 1000 Ang^3
#
#
#
# Elastic Constant Matrix: (Units=GPa)
#
#
# Indices 1 2 3 4 5 6 
#
# 1 104.6821 31.3681 22.9316 -24.6856 20.1266 18.0378
# 2 31.3681 122.3016 50.9813 -19.5271 15.5685 30.7747
# 3 22.9316 50.9813 162.4668 -26.8354 20.7996 13.1083
# 4 -24.6856 -19.5271 -26.8354 40.9679 0.9904 3.9609
# 5 20.1266 15.5685 20.7996 0.9904 53.9825 -7.9569
# 6 18.0378 30.7747 13.1083 3.9609 -7.9569 46.1093
#
#
#
# Elastic Compliance Matrix: (Units=1/GPa)
#
#
# Indices 1 2 3 4 5 6 
#
# 1 0.014654 0.000666 0.001221 0.010980 -0.007622 -0.008783
# 2 0.000666 0.012787 -0.001627 0.006488 -0.004862 -0.009729
# 3 0.001221 -0.001627 0.008116 0.005635 -0.003630 -0.002809
# 4 0.010980 0.006488 0.005635 0.039583 -0.011155 -0.015553
# 5 -0.007622 -0.004862 -0.003630 -0.011155 0.026251 0.012747
# 6 -0.008783 -0.009729 -0.002809 -0.015553 0.012747 0.035951
#
#
# Mechanical properties :
#
#
# Convention : Reuss Voigt Hill
#
# Bulk Modulus (GPa) = 27.71992 66.66804 47.19398
# Shear Modulus (GPa) = 33.59151 47.15658 40.37404
#
# Velocity S-wave (km/s) = 3.61059 4.27794 3.95836
# Velocity P-wave (km/s) = 5.30467 7.09041 6.26153
#
# Compressibility (1/GPa) = 0.03607514
#
# Stress axis : x y z
#
# Youngs Moduli (GPa) = 68.24181 78.20476 123.21829
#
# Poissons Ratio (x) = -0.05209 -0.15041
# Poissons Ratio (y) = -0.04545 0.20052
# Poissons Ratio (z) = -0.08330 0.12727
#
# Static dielectric constant tensor:
#      x y z
#    x 2.129830 -0.122560 -0.057600 
#    y -0.122560 2.256260 0.087770 
#    z -0.057600 0.087770 2.006420 
# 
# From -- ./inp_files/378612.got.cif
#   From: 2010.05.17/outbox.cif.g08.bks.cpg/sg2_190_cif.got.tgz:378612.got - 2010.06.03 11:33:40.
