data_PCOD9095725
_publ_section_title
;
Structure prediction by ZEFSAII (Michael W. Deem and Ramdas Pophale) SiO2 
 PCOD9095725
Probable space group: P -1
;
_chemical_formula_sum "Si O2"
_cell_formula_units_Z 14
_cell_length_a 11.047764
_cell_length_b 17.179627
_cell_length_c 9.638556
_cell_angle_alpha 37.514579
_cell_angle_beta 69.971617
_cell_angle_gamma 45.136348
_cell_volume 682.497769
_symmetry_space_group_name_H-M "P -1"
_symmetry_group_IT_number 2
_symmetry_cell_setting 'triclinic'
loop_
_space_group_symop_operation_xyz
x,y,z
-x,-y,-z
loop_
_atom_site_type_symbol
_atom_site_label
_atom_site_fract_x
_atom_site_fract_y
_atom_site_fract_z
Si Si1 0.186234 0.739084 0.540842
Si Si2 0.500753 0.635263 0.385670
Si Si3 0.990718 0.888921 0.825583
Si Si4 0.428242 0.909314 0.328069
Si Si5 0.374374 0.989059 0.909393
Si Si6 0.942086 0.278950 0.673905
Si Si7 0.657169 0.496304 0.938099
O O1 0.370502 0.693590 0.488991
O O2 0.091484 0.761499 0.404214
O O3 0.045942 0.931817 0.420682
O O4 0.258418 0.567250 0.848644
O O5 0.500000 0.500000 0.500000
O O6 0.732953 0.497640 0.493271
O O7 0.393342 0.830421 0.069125
O O8 0.797109 0.962014 0.742624
O O9 0.010061 0.855416 0.031598
O O10 0.176848 0.681783 0.978275
O O11 0.567222 0.696815 0.639313
O O12 0.491319 0.002860 0.220488
O O13 0.445564 0.908236 0.154555
O O14 0.145927 0.205095 0.692515
O O15 0.500000 0.500000 0.000000
#
# Coordination Sequence:
#
# PCOD9095725 Si02
#       7
#     2   2   2   2   2   2   2
#     4  11  21  37  58  92 122 149 194 248 297 347
#     4  10  20  35  59  90 117 150 192 244 292 342
#     4  11  21  37  61  88 118 154 197 246 291 343
#     4  10  22  38  60  83 122 158 194 242 292 353
#     4  10  20  40  58  88 118 153 202 243 288 347
#     4  10  21  36  62  88 118 152 195 248 294 337
#     4  12  23  39  58  89 123 154 196 238 299 356
#
# _framework density 20.512886000000002
#
# number of rings (size 3 to 8) (size 9 to 14) (size 15 to 20)
#    0.000    1.429    4.286    2.571    2.000    1.143 
#    0.000    5.000    0.000    4.286    0.000    0.000 
#    0.000    0.000    0.000    0.000    0.000    0.000 
#
# Total GULP energy -78019.875136 kJ/mol
# GULP energy per Si atom -5572.848224 kJ/mol
# Density = 2.046620 g / cm^3
# Si number density = 20.512886 Si / 1000 Ang^3
#
#
#
# Elastic Constant Matrix: (Units=GPa)
#
#
# Indices 1 2 3 4 5 6 
#
# 1 70.8192 33.0378 54.1704 4.8219 -4.7149 -8.4175
# 2 33.0378 81.3378 48.1040 -19.8241 0.5326 -9.5389
# 3 54.1704 48.1040 125.2495 -4.6722 1.6068 -15.3474
# 4 4.8219 -19.8241 -4.6722 32.5454 -0.4890 7.4731
# 5 -4.7149 0.5326 1.6068 -0.4890 31.4633 -1.4952
# 6 -8.4175 -9.5389 -15.3474 7.4731 -1.4952 19.2499
#
#
#
# Elastic Compliance Matrix: (Units=1/GPa)
#
#
# Indices 1 2 3 4 5 6 
#
# 1 0.025360 -0.007697 -0.007785 -0.010782 0.004427 0.005598
# 2 -0.007697 0.021270 -0.004543 0.013868 -0.001157 -0.001922
# 3 -0.007785 -0.004543 0.013762 -0.000938 -0.001543 0.005561
# 4 -0.010782 0.013868 -0.000938 0.044264 -0.001871 -0.015920
# 5 0.004427 -0.001157 -0.001543 -0.001871 0.032677 0.003397
# 6 0.005598 -0.001922 0.005561 -0.015920 0.003397 0.064322
#
#
# Mechanical properties :
#
#
# Convention : Reuss Voigt Hill
#
# Bulk Modulus (GPa) = 49.16084 60.89231 55.02658
# Shear Modulus (GPa) = 20.12174 26.12468 23.12321
#
# Velocity S-wave (km/s) = 3.13538 3.57259 3.36110
# Velocity P-wave (km/s) = 6.09306 6.83866 6.47659
#
# Compressibility (1/GPa) = 0.02034139
#
# Stress axis : x y z
#
# Youngs Moduli (GPa) = 39.43144 47.01460 72.66180
#
# Poissons Ratio (x) = 0.36187 0.56569
# Poissons Ratio (y) = 0.30350 0.33013
# Poissons Ratio (z) = 0.30699 0.21361
#
# Static dielectric constant tensor:
#      x y z
#    x 1.803500 0.020660 0.015950 
#    y 0.020660 1.784930 -0.010230 
#    z 0.015950 -0.010230 1.775460 
# 
# From -- ./inp_files/278785.got.cif
#   From: 2010.05.17/outbox.cif.g08.bks.cpg/sg2_140_cif.got.tgz:278785.got - 2010.06.03 11:33:40.
