data_PCOD9095677
_publ_section_title
;
Structure prediction by ZEFSAII (Michael W. Deem and Ramdas Pophale) SiO2 
 PCOD9095677
Probable space group: P -1
;
_chemical_formula_sum "Si O2"
_cell_formula_units_Z 16
_cell_length_a 5.195241
_cell_length_b 7.594843
_cell_length_c 18.231556
_cell_angle_alpha 109.403165
_cell_angle_beta 70.421546
_cell_angle_gamma 96.070019
_cell_volume 639.265046
_symmetry_space_group_name_H-M "P -1"
_symmetry_group_IT_number 2
_symmetry_cell_setting 'triclinic'
loop_
_space_group_symop_operation_xyz
x,y,z
-x,-y,-z
loop_
_atom_site_type_symbol
_atom_site_label
_atom_site_fract_x
_atom_site_fract_y
_atom_site_fract_z
Si Si1 0.646149 0.588499 0.825344
Si Si2 0.732017 0.992205 0.795530
Si Si3 0.992271 0.684934 0.576563
Si Si4 0.649025 0.282391 0.658525
Si Si5 0.866881 0.939607 0.370036
Si Si6 0.865662 0.901687 0.106093
Si Si7 0.048053 0.695960 0.924688
Si Si8 0.545115 0.425179 0.403371
O O1 0.431351 0.079290 0.826810
O O2 0.646496 0.407404 0.749245
O O3 0.873273 0.584271 0.866273
O O4 0.694410 0.778325 0.798556
O O5 0.923649 0.015157 0.709927
O O6 0.891141 0.102287 0.859489
O O7 0.139255 0.631986 0.632056
O O8 0.000000 0.500000 0.500000
O O9 0.672598 0.736401 0.612934
O O10 0.165067 0.862056 0.558372
O O11 0.412735 0.130196 0.647979
O O12 0.549276 0.426659 0.625996
O O13 0.957594 0.200201 0.614777
O O14 0.652226 0.389564 0.107480
O O15 0.896270 0.738091 0.021111
O O16 0.905013 0.098995 0.087300
O O17 0.500000 0.500000 0.500000
#
# Coordination Sequence:
#
# PCOD9095677 Si02
#       8
#     2   2   2   2   2   2   2   2
#     4  10  20  35  59  86 118 164 210 255 310 369
#     4  10  20  35  59  86 118 164 210 255 310 369
#     4  10  22  44  69  93 123 162 204 251 306 375
#     4  12  25  41  63  94 130 164 206 260 315 370
#     4  12  25  41  63  94 130 164 206 260 315 370
#     4   9  17  31  55  88 119 153 209 270 309 349
#     4   9  17  31  55  88 119 153 209 270 309 349
#     4  10  22  44  69  93 123 162 204 251 306 375
#
# _framework density 25.028739999999999
#
# number of rings (size 3 to 8) (size 9 to 14) (size 15 to 20)
#    0.000    1.750    0.000    4.500    0.000    6.000 
#    0.000   15.000    0.000   15.000    0.000    0.000 
#    0.000    0.000    0.000    0.000    0.000    0.000 
#
# Total GULP energy -89472.422926 kJ/mol
# GULP energy per Si atom -5592.026433 kJ/mol
# Density = 2.497177 g / cm^3
# Si number density = 25.028740 Si / 1000 Ang^3
#
#
#
# Elastic Constant Matrix: (Units=GPa)
#
#
# Indices 1 2 3 4 5 6 
#
# 1 157.6174 25.8670 17.7998 16.4478 29.0137 13.1008
# 2 25.8670 75.6030 24.2553 18.8445 19.5726 1.0605
# 3 17.7998 24.2553 76.0321 23.3764 17.4943 11.1957
# 4 16.4478 18.8445 23.3764 30.4650 5.2934 5.3365
# 5 29.0137 19.5726 17.4943 5.2934 40.4514 7.2176
# 6 13.1008 1.0605 11.1957 5.3365 7.2176 37.7878
#
#
#
# Elastic Compliance Matrix: (Units=1/GPa)
#
#
# Indices 1 2 3 4 5 6 
#
# 1 0.007731 -0.000847 0.000744 -0.003124 -0.004777 -0.001524
# 2 -0.000847 0.017913 -0.001743 -0.008616 -0.006678 0.002800
# 3 0.000744 -0.001743 0.019150 -0.012482 -0.005802 -0.003012
# 4 -0.003124 -0.008616 -0.012482 0.048915 0.005946 -0.003020
# 5 -0.004777 -0.006678 -0.005802 0.005946 0.033774 -0.003728
# 6 -0.001524 0.002800 -0.003012 -0.003020 -0.003728 0.028944
#
#
# Mechanical properties :
#
#
# Convention : Reuss Voigt Hill
#
# Bulk Modulus (GPa) = 24.32921 49.45520 36.89221
# Shear Modulus (GPa) = 28.76518 37.82952 33.29735
#
# Velocity S-wave (km/s) = 3.39379 3.89195 3.65137
# Velocity P-wave (km/s) = 5.00986 6.32444 5.70514
#
# Compressibility (1/GPa) = 0.04110285
#
# Stress axis : x y z
#
# Youngs Moduli (GPa) = 129.34270 55.82496 52.21825
#
# Poissons Ratio (x) = 0.04730 -0.03886
# Poissons Ratio (y) = 0.10960 0.09102
# Poissons Ratio (z) = -0.09627 0.09730
#
# Static dielectric constant tensor:
#      x y z
#    x 2.068190 -0.003700 -0.115530 
#    y -0.003700 2.121010 -0.004190 
#    z -0.115530 -0.004190 2.040680 
# 
# From -- ./inp_files/581173.got.cif
#   From: 2010.05.17/outbox.cif.g08.bks.cpg/sg2_291_cif.got.tgz:581173.got - 2010.06.03 11:33:40.
