data_PCOD9095008
_publ_section_title
;
Structure prediction by ZEFSAII (Michael W. Deem and Ramdas Pophale) SiO2 
 PCOD9095008
Probable space group: P -1
;
_chemical_formula_sum "Si O2"
_cell_formula_units_Z 16
_cell_length_a 11.643052
_cell_length_b 5.117289
_cell_length_c 17.615347
_cell_angle_alpha 67.776206
_cell_angle_beta 128.186179
_cell_angle_gamma 115.330187
_cell_volume 736.014412
_symmetry_space_group_name_H-M "P -1"
_symmetry_group_IT_number 2
_symmetry_cell_setting 'triclinic'
loop_
_space_group_symop_operation_xyz
x,y,z
-x,-y,-z
loop_
_atom_site_type_symbol
_atom_site_label
_atom_site_fract_x
_atom_site_fract_y
_atom_site_fract_z
Si Si1 0.885393 0.684073 0.506821
Si Si2 0.104284 0.024035 0.113138
Si Si3 0.872519 0.349039 0.275129
Si Si4 0.567475 0.758278 0.746212
Si Si5 0.579530 0.822243 0.420948
Si Si6 0.734600 0.659675 0.302011
Si Si7 0.955264 0.642721 0.800227
Si Si8 0.329665 0.222198 0.385361
O O1 0.726228 0.718556 0.469548
O O2 0.830895 0.533481 0.419532
O O3 0.971895 0.555084 0.621562
O O4 0.000000 0.000000 0.500000
O O5 0.278215 0.207240 0.149390
O O6 0.034348 0.173078 0.137744
O O7 0.117268 0.698344 0.173547
O O8 0.000000 0.000000 0.000000
O O9 0.772029 0.544454 0.248484
O O10 0.907165 0.368606 0.197549
O O11 0.793722 0.007113 0.293361
O O12 0.443112 0.455447 0.740242
O O13 0.627793 0.834971 0.676403
O O14 0.464001 0.983237 0.683994
O O15 0.432191 0.553164 0.402276
O O16 0.630515 0.965187 0.509017
O O17 0.844534 0.777797 0.688619
#
# Coordination Sequence:
#
# PCOD9095008 Si02
#       8
#     2   2   2   2   2   2   2   2
#     4  10  20  35  52  83 125 175 216 240 282 348
#     4  11  25  44  71  96 121 154 203 269 331 380
#     4  11  23  40  60  89 127 173 213 252 294 359
#     4  11  22  37  61  87 125 161 213 251 319 371
#     4  11  19  36  52  85 129 162 207 250 301 362
#     4  11  23  38  59  87 126 176 212 254 292 356
#     4  11  22  44  66  94 125 160 208 256 315 379
#     4  10  21  34  55  87 123 163 203 252 305 365
#
# _framework density 21.738703000000001
#
# number of rings (size 3 to 8) (size 9 to 14) (size 15 to 20)
#    0.000    1.250    3.750    3.375    0.000    1.000 
#    4.500    0.000    0.000    4.500    0.000    0.000 
#    0.000    0.000    0.000    0.000    0.000    0.000 
#
# Total GULP energy -89292.168126 kJ/mol
# GULP energy per Si atom -5580.760508 kJ/mol
# Density = 2.168922 g / cm^3
# Si number density = 21.738703 Si / 1000 Ang^3
#
#
#
# Elastic Constant Matrix: (Units=GPa)
#
#
# Indices 1 2 3 4 5 6 
#
# 1 108.8853 16.3792 32.3973 20.6359 -12.1090 -14.4616
# 2 16.3792 65.8127 25.8871 20.4974 0.6893 -5.4761
# 3 32.3973 25.8871 96.3662 32.5642 3.8027 3.8808
# 4 20.6359 20.4974 32.5642 22.9691 -3.3629 -0.8083
# 5 -12.1090 0.6893 3.8027 -3.3629 24.0611 9.9143
# 6 -14.4616 -5.4761 3.8808 -0.8083 9.9143 35.2495
#
#
#
# Elastic Compliance Matrix: (Units=1/GPa)
#
#
# Indices 1 2 3 4 5 6 
#
# 1 0.012113 0.000536 -0.001733 -0.008244 0.003529 0.004062
# 2 0.000536 0.022101 0.001905 -0.023599 -0.005835 0.004544
# 3 -0.001733 0.001905 0.021696 -0.032168 -0.008362 -0.001190
# 4 -0.008244 -0.023599 -0.032168 0.120480 0.021215 -0.006711
# 5 0.003529 -0.005835 -0.008362 0.021215 0.053147 -0.013000
# 6 0.004062 0.004544 -0.001190 -0.006711 -0.013000 0.034375
#
#
# Mechanical properties :
#
#
# Convention : Reuss Voigt Hill
#
# Bulk Modulus (GPa) = 17.44433 46.71017 32.07725
# Shear Modulus (GPa) = 17.75523 29.54930 23.65226
#
# Velocity S-wave (km/s) = 2.86100 3.69086 3.30210
# Velocity P-wave (km/s) = 4.35381 6.30056 5.41538
#
# Compressibility (1/GPa) = 0.05732522
#
# Stress axis : x y z
#
# Youngs Moduli (GPa) = 82.55261 45.24635 46.09051
#
# Poissons Ratio (x) = -0.02424 0.07989
# Poissons Ratio (y) = -0.04422 -0.08779
# Poissons Ratio (z) = 0.14309 -0.08618
#
# Static dielectric constant tensor:
#      x y z
#    x 1.923480 -0.044120 -0.018250 
#    y -0.044120 1.830830 -0.012060 
#    z -0.018250 -0.012060 1.809250 
# 
# From -- ./inp_files/96919.got.cif
#   From: 2010.05.17/outbox.cif.g08.bks.cpg/sg2_49_cif.got.tgz:96919.got - 2010.06.03 11:33:40.
