data_PCOD9095815
_publ_section_title
;
Structure prediction by ZEFSAII (Michael W. Deem and Ramdas Pophale) SiO2 
 PCOD9095815
Probable space group: P -1
;
_chemical_formula_sum "Si O2"
_cell_formula_units_Z 12
_cell_length_a 9.682135
_cell_length_b 5.179674
_cell_length_c 12.536396
_cell_angle_alpha 100.331256
_cell_angle_beta 45.533088
_cell_angle_gamma 102.056568
_cell_volume 438.289454
_symmetry_space_group_name_H-M "P -1"
_symmetry_group_IT_number 2
_symmetry_cell_setting 'triclinic'
loop_
_space_group_symop_operation_xyz
x,y,z
-x,-y,-z
loop_
_atom_site_type_symbol
_atom_site_label
_atom_site_fract_x
_atom_site_fract_y
_atom_site_fract_z
Si Si1 0.229926 0.859525 0.931081
Si Si2 0.224497 0.287209 0.797916
Si Si3 0.785520 0.909855 0.658638
Si Si4 0.997429 0.641462 0.685670
Si Si5 0.326877 0.664040 0.077683
Si Si6 0.734619 0.815345 0.457686
O O1 0.004498 0.835828 0.093692
O O2 0.289257 0.120591 0.849754
O O3 0.232268 0.596164 0.839701
O O4 0.357390 0.826504 0.964538
O O5 0.144229 0.424270 0.593503
O O6 0.349668 0.257280 0.619823
O O7 0.732389 0.132358 0.785787
O O8 0.835638 0.655495 0.680250
O O9 0.649230 0.869117 0.624666
O O10 0.000000 0.000000 0.500000
O O11 0.859032 0.559393 0.854249
O O12 0.127184 0.918379 0.628792
O O13 0.500000 0.500000 0.000000
#
# Coordination Sequence:
#
# PCOD9095815 Si02
#       6
#     2   2   2   2   2   2
#     4  10  21  36  56  84 121 156 197 241 303 348
#     4  10  20  35  60  87 114 154 197 256 288 351
#     4  10  21  38  63  88 122 156 204 253 300 352
#     4  11  20  37  58  93 121 158 192 251 301 355
#     4  12  26  41  60  92 130 164 198 246 306 367
#     4  11  21  35  65  93 119 147 206 255 307 344
#
# _framework density 27.379166999999999
#
# number of rings (size 3 to 8) (size 9 to 14) (size 15 to 20)
#    0.000    1.333    5.000    1.500    9.333    0.667 
#    0.000    0.000    0.000    2.000    0.000    0.000 
#    0.000    0.000    0.000    0.000    0.000    0.000 
#
# Total GULP energy -67131.287549 kJ/mol
# GULP energy per Si atom -5594.273962 kJ/mol
# Density = 2.731685 g / cm^3
# Si number density = 27.379167 Si / 1000 Ang^3
#
#
#
# Elastic Constant Matrix: (Units=GPa)
#
#
# Indices 1 2 3 4 5 6 
#
# 1 88.4475 16.1551 38.6058 1.2686 3.7332 -36.0829
# 2 16.1551 126.0009 39.3526 -8.2288 2.6465 -34.1548
# 3 38.6058 39.3526 153.0062 14.3821 47.7966 -16.5907
# 4 1.2686 -8.2288 14.3821 44.2618 -3.6681 5.8221
# 5 3.7332 2.6465 47.7966 -3.6681 50.8425 -14.1963
# 6 -36.0829 -34.1548 -16.5907 5.8221 -14.1963 49.6847
#
#
#
# Elastic Compliance Matrix: (Units=1/GPa)
#
#
# Indices 1 2 3 4 5 6 
#
# 1 0.021354 0.004903 -0.008261 0.001402 0.011410 0.019216
# 2 0.004903 0.012520 -0.006032 0.003237 0.008283 0.012141
# 3 -0.008261 -0.006032 0.014672 -0.005768 -0.015828 -0.009094
# 4 0.001402 0.003237 -0.005768 0.025571 0.007093 0.000347
# 5 0.011410 0.008283 -0.015828 0.007093 0.039107 0.019038
# 6 0.019216 0.012141 -0.009094 0.000347 0.019038 0.044790
#
#
# Mechanical properties :
#
#
# Convention : Reuss Voigt Hill
#
# Bulk Modulus (GPa) = 33.59689 61.74238 47.66963
# Shear Modulus (GPa) = 26.77840 47.18054 36.97947
#
# Velocity S-wave (km/s) = 3.13078 4.15568 3.67910
# Velocity P-wave (km/s) = 5.03653 6.75471 5.95788
#
# Compressibility (1/GPa) = 0.02976466
#
# Stress axis : x y z
#
# Youngs Moduli (GPa) = 46.82921 79.87093 68.15628
#
# Poissons Ratio (x) = -0.39161 0.56307
# Poissons Ratio (y) = -0.22961 0.41115
# Poissons Ratio (z) = 0.38688 0.48182
#
# Static dielectric constant tensor:
#      x y z
#    x 2.237500 0.063450 0.070700 
#    y 0.063450 2.111700 0.003970 
#    z 0.070700 0.003970 2.224750 
# 
# From -- ./inp_files/408712.got.cif
#   From: 2010.05.17/outbox.cif.g08.bks.cpg/sg2_205_cif.got.tgz:408712.got - 2010.06.03 11:33:40.
