data_PCOD9095291
_publ_section_title
;
Structure prediction by ZEFSAII (Michael W. Deem and Ramdas Pophale) SiO2 
 PCOD9095291
Probable space group: P -1
;
_chemical_formula_sum "Si O2"
_cell_formula_units_Z 16
_cell_length_a 9.658929
_cell_length_b 9.169657
_cell_length_c 11.551944
_cell_angle_alpha 57.476981
_cell_angle_beta 123.409312
_cell_angle_gamma 98.915658
_cell_volume 705.529482
_symmetry_space_group_name_H-M "P -1"
_symmetry_group_IT_number 2
_symmetry_cell_setting 'triclinic'
loop_
_space_group_symop_operation_xyz
x,y,z
-x,-y,-z
loop_
_atom_site_type_symbol
_atom_site_label
_atom_site_fract_x
_atom_site_fract_y
_atom_site_fract_z
Si Si1 0.577771 0.163482 0.927043
Si Si2 0.418603 0.345720 0.087170
Si Si3 0.240502 0.381536 0.763401
Si Si4 0.812357 0.570383 0.831852
Si Si5 0.242792 0.877803 0.741763
Si Si6 0.349092 0.660570 0.320708
Si Si7 0.109838 0.625268 0.409330
Si Si8 0.089450 0.260294 0.415685
O O1 0.421947 0.321762 0.814794
O O2 0.604647 0.176811 0.797397
O O3 0.723657 0.163080 0.088803
O O4 0.500000 0.000000 0.000000
O O5 0.329200 0.375149 0.157236
O O6 0.578234 0.185690 0.214852
O O7 0.500000 0.500000 0.000000
O O8 0.268165 0.346835 0.925975
O O9 0.181524 0.568757 0.592378
O O10 0.085444 0.284382 0.706583
O O11 0.752655 0.420308 0.791538
O O12 0.828099 0.720348 0.680547
O O13 0.000000 0.500000 0.000000
O O14 0.100443 0.770407 0.682124
O O15 0.180060 0.084318 0.598445
O O16 0.500000 0.500000 0.500000
O O17 0.229955 0.719398 0.349945
O O18 0.107411 0.440816 0.414985
#
# Coordination Sequence:
#
# PCOD9095291 Si02
#       8
#     2   2   2   2   2   2   2   2
#     4  11  22  38  60  85 122 159 196 240 304 352
#     4  11  21  35  56  85 117 153 199 242 293 349
#     4  10  20  35  56  86 114 154 193 244 293 354
#     4  11  22  38  64  87 117 156 202 248 295 353
#     4  10  22  37  59  86 120 157 196 244 294 366
#     4  11  22  37  61  91 116 151 204 247 287 353
#     4  10  20  36  60  84 118 148 198 249 295 343
#     4  10  21  39  60  87 116 156 199 241 305 348
#
# _framework density 22.678000999999998
#
# number of rings (size 3 to 8) (size 9 to 14) (size 15 to 20)
#    0.000    1.500    1.250    6.000    1.750    0.500 
#    0.000    0.625    0.000    0.000    0.000    0.000 
#    0.000    0.000    0.000    0.000    0.000    0.000 
#
# Total GULP energy -89274.054260 kJ/mol
# GULP energy per Si atom -5579.628391 kJ/mol
# Density = 2.262638 g / cm^3
# Si number density = 22.678001 Si / 1000 Ang^3
#
#
#
# Elastic Constant Matrix: (Units=GPa)
#
#
# Indices 1 2 3 4 5 6 
#
# 1 140.0298 11.4142 57.9483 -0.9154 -38.5728 -6.2105
# 2 11.4142 47.6476 14.3343 1.5804 4.0461 4.8877
# 3 57.9483 14.3343 124.4899 0.6029 -1.6978 6.1293
# 4 -0.9154 1.5804 0.6029 19.0148 7.4737 -6.2981
# 5 -38.5728 4.0461 -1.6978 7.4737 52.9695 5.0799
# 6 -6.2105 4.8877 6.1293 -6.2981 5.0799 25.7704
#
#
#
# Elastic Compliance Matrix: (Units=1/GPa)
#
#
# Indices 1 2 3 4 5 6 
#
# 1 0.012050 -0.002218 -0.005346 -0.001705 0.008779 0.002449
# 2 -0.002218 0.022708 -0.001379 -0.002448 -0.002608 -0.004598
# 3 -0.005346 -0.001379 0.010789 -0.000270 -0.003112 -0.003046
# 4 -0.001705 -0.002448 -0.000270 0.063242 -0.011701 0.017880
# 5 0.008779 -0.002608 -0.003112 -0.011701 0.027495 -0.004929
# 6 0.002449 -0.004598 -0.003046 0.017880 -0.004929 0.046332
#
#
# Mechanical properties :
#
#
# Convention : Reuss Voigt Hill
#
# Bulk Modulus (GPa) = 36.15451 53.28456 44.71953
# Shear Modulus (GPa) = 23.84073 34.78233 29.31153
#
# Velocity S-wave (km/s) = 3.24585 3.92056 3.59905
# Velocity P-wave (km/s) = 5.47946 6.63638 6.08548
#
# Compressibility (1/GPa) = 0.02765907
#
# Stress axis : x y z
#
# Youngs Moduli (GPa) = 82.98436 44.03713 92.68581
#
# Poissons Ratio (x) = 0.09769 0.49554
# Poissons Ratio (y) = 0.18410 0.12785
# Poissons Ratio (z) = 0.44367 0.06074
#
# Static dielectric constant tensor:
#      x y z
#    x 1.974800 -0.042860 0.034890 
#    y -0.042860 2.055760 -0.040700 
#    z 0.034890 -0.040700 1.945150 
# 
# From -- ./inp_files/332387.got.cif
#   From: 2010.05.17/outbox.cif.g08.bks.cpg/sg2_167_cif.got.tgz:332387.got - 2010.06.03 11:33:40.
