data_PCOD9095150
_publ_section_title
;
Structure prediction by ZEFSAII (Michael W. Deem and Ramdas Pophale) SiO2 
 PCOD9095150
Probable space group: P -1
;
_chemical_formula_sum "Si O2"
_cell_formula_units_Z 14
_cell_length_a 7.975071
_cell_length_b 22.455618
_cell_length_c 18.731942
_cell_angle_alpha 163.056774
_cell_angle_beta 44.730499
_cell_angle_gamma 141.487603
_cell_volume 595.187415
_symmetry_space_group_name_H-M "P -1"
_symmetry_group_IT_number 2
_symmetry_cell_setting 'triclinic'
loop_
_space_group_symop_operation_xyz
x,y,z
-x,-y,-z
loop_
_atom_site_type_symbol
_atom_site_label
_atom_site_fract_x
_atom_site_fract_y
_atom_site_fract_z
Si Si1 0.365265 0.667100 0.784799
Si Si2 0.882396 0.472704 0.605722
Si Si3 0.248932 0.903416 0.908381
Si Si4 0.497074 0.564659 0.908526
Si Si5 0.787072 0.555209 0.278642
Si Si6 0.042158 0.933173 0.241400
Si Si7 0.192594 0.387213 0.933664
O O1 0.350552 0.514489 0.682266
O O2 0.156391 0.510305 0.605519
O O3 0.228980 0.824528 0.032748
O O4 0.668675 0.854759 0.880316
O O5 0.771653 0.280244 0.356557
O O6 0.650844 0.420722 0.674384
O O7 0.978836 0.732455 0.839992
O O8 0.500000 0.000000 0.000000
O O9 0.397296 0.623543 0.933020
O O10 0.239699 0.419170 0.871686
O O11 0.739127 0.788841 0.132044
O O12 0.838396 0.803877 0.520319
O O13 0.063917 0.542248 0.179789
O O14 0.989820 0.866828 0.264996
O O15 0.500000 0.500000 0.000000
#
# Coordination Sequence:
#
# PCOD9095150 Si02
#       7
#     2   2   2   2   2   2   2
#     4   9  19  35  55  83 115 145 183 226 271 328
#     4   9  18  34  58  82 109 147 182 224 282 327
#     4   9  17  33  59  84 107 142 185 226 274 333
#     4  10  20  35  55  82 112 144 189 231 268 326
#     4  11  21  35  57  83 112 150 187 224 274 323
#     4   9  20  37  56  80 115 151 184 227 272 320
#     4   9  20  38  55  80 115 148 188 229 268 324
#
# _framework density 23.522002000000001
#
# number of rings (size 3 to 8) (size 9 to 14) (size 15 to 20)
#    0.000    2.571    0.000    2.143    0.000    4.000 
#    0.000    9.286    0.000   35.143    0.000    0.000 
#    0.000    0.000    0.000    0.000    0.000    0.000 
#
# Total GULP energy -78123.475210 kJ/mol
# GULP energy per Si atom -5580.248229 kJ/mol
# Density = 2.346846 g / cm^3
# Si number density = 23.522002 Si / 1000 Ang^3
#
#
#
# Elastic Constant Matrix: (Units=GPa)
#
#
# Indices 1 2 3 4 5 6 
#
# 1 65.4943 25.6220 32.1268 14.4026 8.1800 -12.5317
# 2 25.6220 150.8135 54.1983 20.5013 -5.8645 -31.6017
# 3 32.1268 54.1983 81.7708 21.4493 -2.3622 -2.5236
# 4 14.4026 20.5013 21.4493 33.2755 -8.6086 -4.0340
# 5 8.1800 -5.8645 -2.3622 -8.6086 38.0889 -4.7406
# 6 -12.5317 -31.6017 -2.5236 -4.0340 -4.7406 33.2572
#
#
#
# Elastic Compliance Matrix: (Units=1/GPa)
#
#
# Indices 1 2 3 4 5 6 
#
# 1 0.021997 0.001201 -0.007875 -0.005686 -0.005395 0.007374
# 2 0.001201 0.011717 -0.007590 -0.000898 0.002269 0.011225
# 3 -0.007875 -0.007590 0.022002 -0.007516 -0.001002 -0.009565
# 4 -0.005686 -0.000898 -0.007516 0.040900 0.010216 0.002851
# 5 -0.005395 0.002269 -0.001002 0.010216 0.030714 0.005665
# 6 0.007374 0.011225 -0.009565 0.002851 0.005665 0.043941
#
#
# Mechanical properties :
#
#
# Convention : Reuss Voigt Hill
#
# Bulk Modulus (GPa) = 36.78258 57.99697 47.38978
# Shear Modulus (GPa) = 23.93939 33.33309 28.63624
#
# Velocity S-wave (km/s) = 3.19367 3.76853 3.49295
# Velocity P-wave (km/s) = 5.41025 6.60649 6.03807
#
# Compressibility (1/GPa) = 0.02718678
#
# Stress axis : x y z
#
# Youngs Moduli (GPa) = 45.46128 85.34770 45.45088
#
# Poissons Ratio (x) = -0.10254 0.35794
# Poissons Ratio (y) = -0.05462 0.34499
# Poissons Ratio (z) = 0.35802 0.64783
#
# Static dielectric constant tensor:
#      x y z
#    x 1.904380 -0.020040 0.012110 
#    y -0.020040 1.965820 0.003590 
#    z 0.012110 0.003590 1.910030 
# 
# From -- ./inp_files/562425.got.cif
#   From: 2010.05.17/outbox.cif.g08.bks.cpg/sg2_282_cif.got.tgz:562425.got - 2010.06.03 11:33:40.
