data_PCOD9095499
_publ_section_title
;
Structure prediction by ZEFSAII (Michael W. Deem and Ramdas Pophale) SiO2 
 PCOD9095499
Probable space group: P -1
;
_chemical_formula_sum "Si O2"
_cell_formula_units_Z 16
_cell_length_a 14.929473
_cell_length_b 9.004490
_cell_length_c 9.604575
_cell_angle_alpha 43.096135
_cell_angle_beta 52.190087
_cell_angle_gamma 76.489657
_cell_volume 639.817553
_symmetry_space_group_name_H-M "P -1"
_symmetry_group_IT_number 2
_symmetry_cell_setting 'triclinic'
loop_
_space_group_symop_operation_xyz
x,y,z
-x,-y,-z
loop_
_atom_site_type_symbol
_atom_site_label
_atom_site_fract_x
_atom_site_fract_y
_atom_site_fract_z
Si Si1 0.480839 0.398599 0.323967
Si Si2 0.893602 0.274385 0.591430
Si Si3 0.834006 0.330841 0.896494
Si Si4 0.382977 0.187305 0.297945
Si Si5 0.780715 0.787079 0.344479
Si Si6 0.734706 0.558676 0.062584
Si Si7 0.079442 0.222126 0.027945
Si Si8 0.185089 0.906880 0.502018
O O1 0.457563 0.198989 0.360941
O O2 0.341837 0.326479 0.558233
O O3 0.587374 0.452129 0.298064
O O4 0.528518 0.633993 0.020785
O O5 0.812517 0.322764 0.756433
O O6 0.030615 0.471980 0.337845
O O7 0.908616 0.028117 0.780703
O O8 0.838053 0.244842 0.511598
O O9 0.749281 0.400578 0.031569
O O10 0.825010 0.069223 0.115253
O O11 0.279186 0.277790 0.400053
O O12 0.302814 0.947545 0.458589
O O13 0.884537 0.734661 0.199118
O O14 0.824714 0.591508 0.084740
O O15 0.782254 0.825879 0.770469
O O16 0.941922 0.186284 0.226331
#
# Coordination Sequence:
#
# PCOD9095499 Si02
#       8
#     2   2   2   2   2   2   2   2
#     4   8  17  34  50  66  88 128 163 194 218 276
#     4   9  17  29  45  73 101 122 148 183 243 285
#     4  10  17  28  48  71 102 121 143 193 241 285
#     4   8  17  34  50  65  88 131 162 189 223 273
#     4   9  19  31  45  71  98 125 154 186 234 279
#     4  10  17  29  52  73  93 121 155 194 236 270
#     4  10  17  28  48  77  98 114 154 199 232 271
#     4  10  16  30  52  70  93 123 160 192 222 276
#
# _framework density 25.007128000000002
#
# number of rings (size 3 to 8) (size 9 to 14) (size 15 to 20)
#    0.750    2.000    2.500    0.750    0.000    1.500 
#    0.000    0.625    0.000    0.750    0.000    0.000 
#    0.000    0.000    0.000    0.000    0.000    0.000 
#
# Total GULP energy -89304.145104 kJ/mol
# GULP energy per Si atom -5581.509069 kJ/mol
# Density = 2.495021 g / cm^3
# Si number density = 25.007128 Si / 1000 Ang^3
#
#
#
# Elastic Constant Matrix: (Units=GPa)
#
#
# Indices 1 2 3 4 5 6 
#
# 1 62.3847 16.8637 35.3679 -7.7224 -0.3240 17.5821
# 2 16.8637 126.5066 62.8381 -11.5044 -6.8323 9.1563
# 3 35.3679 62.8381 93.5152 -15.2961 -17.4290 19.1399
# 4 -7.7224 -11.5044 -15.2961 30.1590 15.1571 -6.4602
# 5 -0.3240 -6.8323 -17.4290 15.1571 39.3683 -10.2910
# 6 17.5821 9.1563 19.1399 -6.4602 -10.2910 36.5646
#
#
#
# Elastic Compliance Matrix: (Units=1/GPa)
#
#
# Indices 1 2 3 4 5 6 
#
# 1 0.023532 0.002039 -0.009272 0.003967 -0.007258 -0.008314
# 2 0.002039 0.012226 -0.009241 0.001877 -0.002570 0.000403
# 3 -0.009272 -0.009241 0.022518 0.001394 0.007023 -0.002792
# 4 0.003967 0.001877 0.001394 0.043545 -0.015749 0.000153
# 5 -0.007258 -0.002570 0.007023 -0.015749 0.036118 0.007840
# 6 -0.008314 0.000403 -0.002792 0.000153 0.007840 0.034941
#
#
# Mechanical properties :
#
#
# Convention : Reuss Voigt Hill
#
# Bulk Modulus (GPa) = 39.48243 56.94953 48.21598
# Shear Modulus (GPa) = 23.33517 32.37417 27.85467
#
# Velocity S-wave (km/s) = 3.05805 3.60196 3.34109
# Velocity P-wave (km/s) = 5.31899 6.33416 5.84864
#
# Compressibility (1/GPa) = 0.02532772
#
# Stress axis : x y z
#
# Youngs Moduli (GPa) = 42.49580 81.79466 44.40865
#
# Poissons Ratio (x) = -0.16682 0.41178
# Poissons Ratio (y) = -0.08667 0.41038
# Poissons Ratio (z) = 0.39404 0.75587
#
# Static dielectric constant tensor:
#      x y z
#    x 2.043910 -0.009280 0.053560 
#    y -0.009280 1.966920 -0.024540 
#    z 0.053560 -0.024540 1.994770 
# 
# From -- ./inp_files/247860.got.cif
#   From: 2010.05.17/outbox.cif.g08.bks.cpg/sg2_124_cif.got.tgz:247860.got - 2010.06.03 11:33:40.
