data_PCOD9095397
_publ_section_title
;
Structure prediction by ZEFSAII (Michael W. Deem and Ramdas Pophale) SiO2 
 PCOD9095397
Probable space group: P -1
;
_chemical_formula_sum "Si O2"
_cell_formula_units_Z 16
_cell_length_a 10.560764
_cell_length_b 11.124708
_cell_length_c 15.755752
_cell_angle_alpha 73.706816
_cell_angle_beta 62.693067
_cell_angle_gamma 128.829908
_cell_volume 731.795280
_symmetry_space_group_name_H-M "P -1"
_symmetry_group_IT_number 2
_symmetry_cell_setting 'triclinic'
loop_
_space_group_symop_operation_xyz
x,y,z
-x,-y,-z
loop_
_atom_site_type_symbol
_atom_site_label
_atom_site_fract_x
_atom_site_fract_y
_atom_site_fract_z
Si Si1 0.645896 0.488634 0.417199
Si Si2 0.434036 0.382520 0.331930
Si Si3 0.760404 0.471392 0.814524
Si Si4 0.119302 0.899203 0.761650
Si Si5 0.088599 0.636246 0.307025
Si Si6 0.431584 0.903262 0.308915
Si Si7 0.100095 0.875857 0.477098
Si Si8 0.804528 0.825895 0.008336
O O1 0.500000 0.500000 0.500000
O O2 0.678796 0.548638 0.296507
O O3 0.959770 0.673814 0.319738
O O4 0.390282 0.178267 0.568785
O O5 0.566515 0.535283 0.172989
O O6 0.186300 0.294437 0.455546
O O7 0.258395 0.118420 0.420986
O O8 0.406793 0.226250 0.950659
O O9 0.880763 0.640340 0.825994
O O10 0.853653 0.398593 0.789288
O O11 0.950020 0.678236 0.636797
O O12 0.259771 0.907037 0.782245
O O13 0.986605 0.906585 0.859191
O O14 0.823907 0.372410 0.502894
O O15 0.385053 0.848920 0.233895
O O16 0.344988 0.980015 0.335089
O O17 0.000000 0.000000 0.000000
#
# Coordination Sequence:
#
# PCOD9095397 Si02
#       8
#     2   2   2   2   2   2   2   2
#     4  11  21  34  59  89 120 145 192 241 290 336
#     4  10  20  35  57  85 115 150 188 233 292 338
#     4  10  20  37  61  86 114 148 200 242 278 337
#     4  11  22  36  61  88 112 152 196 239 284 339
#     4   9  19  33  56  87 117 151 188 239 288 335
#     4   9  18  33  56  85 116 147 192 233 288 339
#     4   9  18  34  58  85 116 147 186 242 287 335
#     4  11  23  40  59  81 118 158 193 231 286 353
#
# _framework density 21.864038000000001
#
# number of rings (size 3 to 8) (size 9 to 14) (size 15 to 20)
#    0.000    2.000    1.250    2.625    1.750    5.500 
#    0.000    0.625    0.000    3.750    0.000    0.000 
#    0.000    0.000    0.000    0.000    0.000    0.000 
#
# Total GULP energy -89216.508804 kJ/mol
# GULP energy per Si atom -5576.031800 kJ/mol
# Density = 2.181427 g / cm^3
# Si number density = 21.864038 Si / 1000 Ang^3
#
#
#
# Elastic Constant Matrix: (Units=GPa)
#
#
# Indices 1 2 3 4 5 6 
#
# 1 110.6163 32.7650 8.1315 -2.1579 -17.5689 6.1669
# 2 32.7650 96.0497 6.7087 8.2438 -20.8203 18.3473
# 3 8.1315 6.7087 35.4828 7.4909 -10.6858 1.4374
# 4 -2.1579 8.2438 7.4909 23.4910 2.3588 -6.4601
# 5 -17.5689 -20.8203 -10.6858 2.3588 24.1411 -0.9188
# 6 6.1669 18.3473 1.4374 -6.4601 -0.9188 32.3748
#
#
#
# Elastic Compliance Matrix: (Units=1/GPa)
#
#
# Indices 1 2 3 4 5 6 
#
# 1 0.010712 -0.002654 -0.000800 0.001662 0.004989 -0.000028
# 2 -0.002654 0.018102 0.005653 -0.013467 0.017034 -0.012208
# 3 -0.000800 0.005653 0.038462 -0.018778 0.022854 -0.007857
# 4 0.001662 -0.013467 -0.018778 0.061257 -0.023953 0.019692
# 5 0.004989 0.017034 0.022854 -0.023953 0.071654 -0.014364
# 6 -0.000028 -0.012208 -0.007857 0.019692 -0.014364 0.041683
#
#
# Mechanical properties :
#
#
# Convention : Reuss Voigt Hill
#
# Bulk Modulus (GPa) = 13.95223 37.48435 25.71829
# Shear Modulus (GPa) = 19.13049 28.97096 24.05072
#
# Velocity S-wave (km/s) = 2.96121 3.64407 3.32024
# Velocity P-wave (km/s) = 4.25287 5.90654 5.14656
#
# Compressibility (1/GPa) = 0.07167311
#
# Stress axis : x y z
#
# Youngs Moduli (GPa) = 93.35721 55.24275 25.99944
#
# Poissons Ratio (x) = 0.14662 0.02081
# Poissons Ratio (y) = 0.24778 -0.14698
# Poissons Ratio (z) = 0.07472 -0.31229
#
# Static dielectric constant tensor:
#      x y z
#    x 1.821900 -0.004600 -0.016890 
#    y -0.004600 1.836480 -0.024880 
#    z -0.016890 -0.024880 1.818550 
# 
# From -- ./inp_files/348998.got.cif
#   From: 2010.05.17/outbox.cif.g08.bks.cpg/sg2_175_cif.got.tgz:348998.got - 2010.06.03 11:33:40.
