data_PCOD9095074
_publ_section_title
;
Structure prediction by ZEFSAII (Michael W. Deem and Ramdas Pophale) SiO2 
 PCOD9095074
Probable space group: P -1
;
_chemical_formula_sum "Si O2"
_cell_formula_units_Z 12
_cell_length_a 11.580974
_cell_length_b 7.896738
_cell_length_c 8.620583
_cell_angle_alpha 72.326925
_cell_angle_beta 110.590866
_cell_angle_gamma 144.884300
_cell_volume 424.336641
_symmetry_space_group_name_H-M "P -1"
_symmetry_group_IT_number 2
_symmetry_cell_setting 'triclinic'
loop_
_space_group_symop_operation_xyz
x,y,z
-x,-y,-z
loop_
_atom_site_type_symbol
_atom_site_label
_atom_site_fract_x
_atom_site_fract_y
_atom_site_fract_z
Si Si1 0.355707 0.943215 0.089987
Si Si2 0.413824 0.545876 0.752881
Si Si3 0.007721 0.888277 0.713602
Si Si4 0.242689 0.661029 0.421980
Si Si5 0.167817 0.975915 0.349134
Si Si6 0.908386 0.598784 0.055143
O O1 0.381681 0.847328 0.281277
O O2 0.289977 0.756885 0.958348
O O3 0.514349 0.285829 0.095772
O O4 0.128072 0.758215 0.077203
O O5 0.331924 0.611796 0.586360
O O6 0.243987 0.199769 0.768595
O O7 0.625474 0.731838 0.721869
O O8 0.884399 0.922623 0.588672
O O9 0.962567 0.660366 0.657261
O O10 0.901913 0.729840 0.875643
O O11 0.204422 0.807544 0.443302
O O12 0.963863 0.738881 0.209650
#
# Coordination Sequence:
#
# PCOD9095074 Si02
#       6
#     2   2   2   2   2   2
#     4   8  15  31  57  74 100 145 169 207 267 304
#     4  10  20  35  54  80 107 136 178 216 254 312
#     4  11  21  34  56  81 106 137 173 218 263 305
#     4   9  19  37  54  76 110 138 172 218 257 307
#     4  10  21  37  57  76 104 144 174 211 264 310
#     4   8  16  33  52  77 106 133 173 215 258 309
#
# _framework density 28.279434999999999
#
# number of rings (size 3 to 8) (size 9 to 14) (size 15 to 20)
#    0.000    3.000    0.000    4.000    0.000    4.000 
#    0.000    5.833    0.000    0.000    0.000    1.167 
#    0.000    0.000    0.000    0.000    0.000    0.000 
#
# Total GULP energy -67054.655503 kJ/mol
# GULP energy per Si atom -5587.887959 kJ/mol
# Density = 2.821507 g / cm^3
# Si number density = 28.279435 Si / 1000 Ang^3
#
#
#
# Elastic Constant Matrix: (Units=GPa)
#
#
# Indices 1 2 3 4 5 6 
#
# 1 144.2555 32.4533 8.2168 21.3374 -9.5996 -27.3335
# 2 32.4533 240.6440 31.9179 54.4448 6.3419 -5.2698
# 3 8.2168 31.9179 91.1280 11.3140 21.4776 -3.6411
# 4 21.3374 54.4448 11.3140 58.5633 -2.5893 -5.8265
# 5 -9.5996 6.3419 21.4776 -2.5893 32.1844 -0.4745
# 6 -27.3335 -5.2698 -3.6411 -5.8265 -0.4745 36.7539
#
#
#
# Elastic Compliance Matrix: (Units=1/GPa)
#
#
# Indices 1 2 3 4 5 6 
#
# 1 0.008748 -0.000637 -0.000888 -0.001671 0.003283 0.006104
# 2 -0.000637 0.005469 -0.001069 -0.004743 -0.000944 -0.000559
# 3 -0.000888 -0.001069 0.013883 -0.001767 -0.009459 0.000159
# 4 -0.001671 -0.004743 -0.001767 0.022743 0.003468 0.001552
# 5 0.003283 -0.000944 -0.009459 0.003468 0.038863 0.002421
# 6 0.006104 -0.000559 0.000159 0.001552 0.002421 0.031960
#
#
# Mechanical properties :
#
#
# Convention : Reuss Voigt Hill
#
# Bulk Modulus (GPa) = 43.64428 69.02261 56.33345
# Shear Modulus (GPa) = 37.17686 52.39629 44.78658
#
# Velocity S-wave (km/s) = 3.62971 4.30909 3.98391
# Velocity P-wave (km/s) = 5.74744 7.01556 6.41292
#
# Compressibility (1/GPa) = 0.02291251
#
# Stress axis : x y z
#
# Youngs Moduli (GPa) = 114.30819 182.85081 72.02989
#
# Poissons Ratio (x) = 0.11642 0.06397
# Poissons Ratio (y) = 0.07278 0.07701
# Poissons Ratio (z) = 0.10152 0.19548
#
# Static dielectric constant tensor:
#      x y z
#    x 2.326540 0.034360 -0.122010 
#    y 0.034360 2.232270 -0.048310 
#    z -0.122010 -0.048310 2.343010 
# 
# From -- ./inp_files/181888.got.cif
#   From: 2010.05.17/outbox.cif.g08.bks.cpg/sg2_91_cif.got.tgz:181888.got - 2010.06.03 11:33:40.
