data_PCOD9095548
_publ_section_title
;
Structure prediction by ZEFSAII (Michael W. Deem and Ramdas Pophale) SiO2 
 PCOD9095548
Probable space group: P -1
;
_chemical_formula_sum "Si O2"
_cell_formula_units_Z 12
_cell_length_a 17.758598
_cell_length_b 9.759584
_cell_length_c 7.390325
_cell_angle_alpha 118.715333
_cell_angle_beta 38.972559
_cell_angle_gamma 142.208732
_cell_volume 462.900483
_symmetry_space_group_name_H-M "P -1"
_symmetry_group_IT_number 2
_symmetry_cell_setting 'triclinic'
loop_
_space_group_symop_operation_xyz
x,y,z
-x,-y,-z
loop_
_atom_site_type_symbol
_atom_site_label
_atom_site_fract_x
_atom_site_fract_y
_atom_site_fract_z
Si Si1 0.921064 0.317163 0.370247
Si Si2 0.131808 0.933681 0.209158
Si Si3 0.293615 0.747162 0.848554
Si Si4 0.605310 0.197144 0.703751
Si Si5 0.271688 0.368847 0.111084
Si Si6 0.840063 0.936269 0.166083
O O1 0.000000 0.500000 0.500000
O O2 0.792531 0.298119 0.475816
O O3 0.804357 0.044224 0.438055
O O4 0.120186 0.466715 0.019485
O O5 0.267932 0.216364 0.158464
O O6 0.939856 0.777010 0.568041
O O7 0.212879 0.843334 0.033623
O O8 0.102919 0.921403 0.038666
O O9 0.387166 0.776802 0.511177
O O10 0.433309 0.909078 0.857466
O O11 0.602647 0.363241 0.903424
O O12 0.297507 0.324115 0.833115
O O13 0.000000 0.000000 0.000000
#
# Coordination Sequence:
#
# PCOD9095548 Si02
#       6
#     2   2   2   2   2   2
#     4  12  24  39  65  86 124 161 193 250 300 354
#     4   9  18  35  58  87 113 152 197 243 293 342
#     4  11  23  38  63  94 117 157 202 248 297 351
#     4  11  21  39  64  91 120 152 205 248 295 354
#     4   9  18  33  60  84 116 154 193 241 297 344
#     4  10  20  35  58  87 115 154 200 237 297 357
#
# _framework density 25.923499
#
# number of rings (size 3 to 8) (size 9 to 14) (size 15 to 20)
#    1.000    0.667    3.333    2.500    0.000    1.333 
#    0.000    0.000    0.000    2.000    0.000    0.000 
#    0.000    0.000    0.000    0.000    0.000    0.000 
#
# Total GULP energy -66916.209514 kJ/mol
# GULP energy per Si atom -5576.350793 kJ/mol
# Density = 2.586450 g / cm^3
# Si number density = 25.923499 Si / 1000 Ang^3
#
#
#
# Elastic Constant Matrix: (Units=GPa)
#
#
# Indices 1 2 3 4 5 6 
#
# 1 72.8016 40.1418 4.5060 0.0330 -7.1372 8.5732
# 2 40.1418 215.8597 52.2983 39.6892 -5.2345 28.4063
# 3 4.5060 52.2983 64.8318 4.4574 -1.8158 3.8213
# 4 0.0330 39.6892 4.4574 57.6760 1.7551 -3.9282
# 5 -7.1372 -5.2345 -1.8158 1.7551 19.8654 7.5675
# 6 8.5732 28.4063 3.8213 -3.9282 7.5675 44.9755
#
#
#
# Elastic Compliance Matrix: (Units=1/GPa)
#
#
# Indices 1 2 3 4 5 6 
#
# 1 0.016290 -0.003425 0.001768 0.001911 0.005658 -0.001878
# 2 -0.003425 0.008528 -0.005844 -0.005864 0.003002 -0.005254
# 3 0.001768 -0.005844 0.019720 0.002629 -0.000066 0.001919
# 4 0.001911 -0.005864 0.002629 0.021709 -0.004750 0.005811
# 5 0.005658 0.003002 -0.000066 -0.004750 0.058623 -0.013248
# 6 -0.001878 -0.005254 0.001919 0.005811 -0.013248 0.028484
#
#
# Mechanical properties :
#
#
# Convention : Reuss Voigt Hill
#
# Bulk Modulus (GPa) = 33.85645 60.82060 47.33853
# Shear Modulus (GPa) = 28.05814 41.60651 34.83233
#
# Velocity S-wave (km/s) = 3.29347 4.01056 3.66957
# Velocity P-wave (km/s) = 5.24891 6.70512 6.02120
#
# Compressibility (1/GPa) = 0.02953647
#
# Stress axis : x y z
#
# Youngs Moduli (GPa) = 61.38807 117.26318 50.70909
#
# Poissons Ratio (x) = 0.40159 -0.08967
# Poissons Ratio (y) = 0.21024 0.29636
# Poissons Ratio (z) = -0.10855 0.68532
#
# Static dielectric constant tensor:
#      x y z
#    x 2.044940 -0.022930 0.121600 
#    y -0.022930 2.161040 -0.009690 
#    z 0.121600 -0.009690 2.259620 
# 
# From -- ./inp_files/266345.got.cif
#   From: 2010.05.17/outbox.cif.g08.bks.cpg/sg2_134_cif.got.tgz:266345.got - 2010.06.03 11:33:40.
