data_PCOD9095079
_publ_section_title
;
Structure prediction by ZEFSAII (Michael W. Deem and Ramdas Pophale) SiO2 
 PCOD9095079
Probable space group: P -1
;
_chemical_formula_sum "Si O2"
_cell_formula_units_Z 16
_cell_length_a 19.650048
_cell_length_b 14.477963
_cell_length_c 10.499439
_cell_angle_alpha 107.350958
_cell_angle_beta 95.363582
_cell_angle_gamma 19.796004
_cell_volume 787.361348
_symmetry_space_group_name_H-M "P -1"
_symmetry_group_IT_number 2
_symmetry_cell_setting 'triclinic'
loop_
_space_group_symop_operation_xyz
x,y,z
-x,-y,-z
loop_
_atom_site_type_symbol
_atom_site_label
_atom_site_fract_x
_atom_site_fract_y
_atom_site_fract_z
Si Si1 0.866169 0.072049 0.412076
Si Si2 0.343432 0.806512 0.950126
Si Si3 0.036607 0.838614 0.904408
Si Si4 0.908933 0.045755 0.687784
Si Si5 0.302269 0.903849 0.703658
Si Si6 0.319830 0.338144 0.602656
Si Si7 0.237356 0.137364 0.569538
Si Si8 0.122102 0.204201 0.314537
O O1 0.972492 0.915625 0.508626
O O2 0.595917 0.489860 0.554647
O O3 0.820181 0.033213 0.322120
O O4 0.042924 0.905120 0.300166
O O5 0.630232 0.396463 0.813710
O O6 0.269448 0.964096 0.873475
O O7 0.187359 0.919987 0.981940
O O8 0.302436 0.920785 0.119477
O O9 0.272969 0.445303 0.784922
O O10 0.052785 0.820451 0.745395
O O11 0.000000 0.000000 0.000000
O O12 0.195483 0.128336 0.681799
O O13 0.075514 0.612539 0.623384
O O14 0.500000 0.000000 0.500000
O O15 0.502724 0.162784 0.488886
O O16 0.025377 0.503497 0.649388
O O17 0.249704 0.056194 0.409277
#
# Coordination Sequence:
#
# PCOD9095079 Si02
#       8
#     2   2   2   2   2   2   2   2
#     4   9  20  36  54  79 115 145 196 226 285 359
#     4  10  22  37  53  83 121 146 186 245 298 344
#     4  11  22  34  57  86 116 152 195 238 302 346
#     4  10  20  35  54  80 113 155 184 240 287 348
#     4  10  20  36  57  80 110 152 186 237 291 349
#     4   9  20  38  58  84 116 149 195 245 286 346
#     4  10  20  37  65  82 110 157 197 241 290 347
#     4   9  21  39  58  89 113 146 201 245 287 352
#
# _framework density 20.321038000000001
#
# number of rings (size 3 to 8) (size 9 to 14) (size 15 to 20)
#    0.000    2.250    0.000    1.875    5.250    2.500 
#    0.000    0.000    0.000    0.750    0.000    0.000 
#    0.000    0.000    0.000    0.000    0.000    0.000 
#
# Total GULP energy -89102.585152 kJ/mol
# GULP energy per Si atom -5568.911572 kJ/mol
# Density = 2.027479 g / cm^3
# Si number density = 20.321038 Si / 1000 Ang^3
#
#
#
# Elastic Constant Matrix: (Units=GPa)
#
#
# Indices 1 2 3 4 5 6 
#
# 1 75.6852 -6.1705 28.1603 4.4150 2.1266 3.1025
# 2 -6.1705 30.6636 2.6872 -16.6319 -6.7036 6.6413
# 3 28.1603 2.6872 48.8505 -7.7911 -7.6820 7.1257
# 4 4.4150 -16.6319 -7.7911 38.4771 -0.6806 -7.5166
# 5 2.1266 -6.7036 -7.6820 -0.6806 36.8248 0.2949
# 6 3.1025 6.6413 7.1257 -7.5166 0.2949 21.2722
#
#
#
# Elastic Compliance Matrix: (Units=1/GPa)
#
#
# Indices 1 2 3 4 5 6 
#
# 1 0.017973 0.002106 -0.011447 -0.003660 -0.003104 -0.000695
# 2 0.002106 0.047133 0.002006 0.018917 0.009300 -0.009139
# 3 -0.011447 0.002006 0.030254 0.007136 0.007523 -0.006674
# 4 -0.003660 0.018917 0.007136 0.037167 0.005788 0.005290
# 5 -0.003104 0.009300 0.007523 0.005788 0.030731 -0.003351
# 6 -0.000695 -0.009139 -0.006674 0.005290 -0.003351 0.054116
#
#
# Mechanical properties :
#
#
# Convention : Reuss Voigt Hill
#
# Bulk Modulus (GPa) = 12.39326 22.72816 17.56071
# Shear Modulus (GPa) = 19.30952 28.01631 23.66292
#
# Velocity S-wave (km/s) = 3.08591 3.71709 3.41611
# Velocity P-wave (km/s) = 4.33695 5.44345 4.92140
#
# Compressibility (1/GPa) = 0.08068905
#
# Stress axis : x y z
#
# Youngs Moduli (GPa) = 55.64005 21.21649 33.05402
#
# Poissons Ratio (x) = -0.04469 0.37837
# Poissons Ratio (y) = -0.11719 -0.06629
# Poissons Ratio (z) = 0.63691 -0.04255
#
# Static dielectric constant tensor:
#      x y z
#    x 0.904760 -1.542110 -0.930910 
#    y -1.542110 -1.467080 -1.981630 
#    z -0.930910 -1.981630 0.519070 
# 
# From -- ./inp_files/318121.got.cif
#   From: 2010.05.17/outbox.cif.g08.bks.cpg/sg2_160_cif.got.tgz:318121.got - 2010.06.03 11:33:40.
