data_PCOD9095144
_publ_section_title
;
Structure prediction by ZEFSAII (Michael W. Deem and Ramdas Pophale) SiO2 
 PCOD9095144
Probable space group: P -1
;
_chemical_formula_sum "Si O2"
_cell_formula_units_Z 16
_cell_length_a 9.396884
_cell_length_b 13.943379
_cell_length_c 7.623668
_cell_angle_alpha 71.115098
_cell_angle_beta 47.921936
_cell_angle_gamma 91.712114
_cell_volume 656.758311
_symmetry_space_group_name_H-M "P -1"
_symmetry_group_IT_number 2
_symmetry_cell_setting 'triclinic'
loop_
_space_group_symop_operation_xyz
x,y,z
-x,-y,-z
loop_
_atom_site_type_symbol
_atom_site_label
_atom_site_fract_x
_atom_site_fract_y
_atom_site_fract_z
Si Si1 0.835840 0.190829 0.031385
Si Si2 0.045590 0.555435 0.682331
Si Si3 0.376247 0.071373 0.978145
Si Si4 0.137944 0.370049 0.891899
Si Si5 0.351196 0.281770 0.016127
Si Si6 0.972280 0.881605 0.416790
Si Si7 0.697691 0.370268 0.916051
Si Si8 0.758364 0.962206 0.278224
O O1 0.701830 0.266195 0.079991
O O2 0.907323 0.164404 0.797952
O O3 0.036023 0.261848 0.928607
O O4 0.727757 0.074847 0.277497
O O5 0.158355 0.618106 0.381891
O O6 0.020234 0.621654 0.831534
O O7 0.815877 0.477379 0.864661
O O8 0.160524 0.473037 0.691804
O O9 0.442781 0.191107 0.932212
O O10 0.366864 0.084288 0.767044
O O11 0.141050 0.996411 0.260933
O O12 0.500000 0.000000 0.000000
O O13 0.333975 0.359776 0.830221
O O14 0.121475 0.207881 0.306071
O O15 0.475184 0.349437 0.036509
O O16 0.773169 0.895200 0.476711
O O17 0.000000 0.000000 0.000000
#
# Coordination Sequence:
#
# PCOD9095144 Si02
#       8
#     2   2   2   2   2   2   2   2
#     4   9  17  36  58  79 107 151 187 223 272 336
#     4   9  21  42  59  79 108 147 178 238 297 329
#     4  10  20  36  56  82 117 150 187 229 271 317
#     4  10  20  36  61  84 108 138 190 236 282 335
#     4  12  22  34  57  89 111 146 192 228 267 334
#     4  10  20  35  55  81 119 152 182 223 275 323
#     4  10  21  38  59  79 111 145 186 227 286 342
#     4   8  16  33  53  74 110 149 179 217 267 314
#
# _framework density 24.362082000000001
#
# number of rings (size 3 to 8) (size 9 to 14) (size 15 to 20)
#    0.000    2.500    0.000    4.875    0.000    1.000 
#    0.000   12.500    0.000    0.000    0.000    0.000 
#    0.000    0.000    0.000    0.000    0.000    0.000 
#
# Total GULP energy -89388.238472 kJ/mol
# GULP energy per Si atom -5586.764905 kJ/mol
# Density = 2.430663 g / cm^3
# Si number density = 24.362082 Si / 1000 Ang^3
#
#
#
# Elastic Constant Matrix: (Units=GPa)
#
#
# Indices 1 2 3 4 5 6 
#
# 1 132.4279 8.3344 15.5495 -21.9044 16.2732 -9.2572
# 2 8.3344 58.4184 15.4447 -8.1744 1.2725 -1.3786
# 3 15.5495 15.4447 35.8559 -8.9568 -4.0847 -5.8812
# 4 -21.9044 -8.1744 -8.9568 27.5239 -2.8014 5.2504
# 5 16.2732 1.2725 -4.0847 -2.8014 29.4344 -11.4446
# 6 -9.2572 -1.3786 -5.8812 5.2504 -11.4446 28.5994
#
#
#
# Elastic Compliance Matrix: (Units=1/GPa)
#
#
# Indices 1 2 3 4 5 6 
#
# 1 0.009599 0.000570 -0.003660 0.006238 -0.005643 -0.001022
# 2 0.000570 0.019841 -0.008618 0.003716 -0.002991 -0.002510
# 3 -0.003660 -0.008618 0.037711 0.006147 0.012043 0.009845
# 4 0.006238 0.003716 0.006147 0.045317 -0.000393 -0.005014
# 5 -0.005643 -0.002991 0.012043 -0.000393 0.046283 0.019099
# 6 -0.001022 -0.002510 0.009845 -0.005014 0.019099 0.045102
#
#
# Mechanical properties :
#
#
# Convention : Reuss Voigt Hill
#
# Bulk Modulus (GPa) = 22.86525 33.92885 28.39705
# Shear Modulus (GPa) = 20.67421 29.60313 25.13867
#
# Velocity S-wave (km/s) = 2.91627 3.48965 3.21577
# Velocity P-wave (km/s) = 4.55472 5.49491 5.04676
#
# Compressibility (1/GPa) = 0.04373448
#
# Stress axis : x y z
#
# Youngs Moduli (GPa) = 104.17729 50.40099 26.51739
#
# Poissons Ratio (x) = -0.02873 0.09707
# Poissons Ratio (y) = -0.05938 0.22852
# Poissons Ratio (z) = 0.38134 0.43434
#
# Static dielectric constant tensor:
#      x y z
#    x 1.984200 -0.042300 -0.009370 
#    y -0.042300 1.925080 0.008410 
#    z -0.009370 0.008410 1.932300 
# 
# From -- ./inp_files/205838.got.cif
#   From: 2010.05.17/outbox.cif.g08.bks.cpg/sg2_103_cif.got.tgz:205838.got - 2010.06.03 11:33:40.
