data_PCOD9095336
_publ_section_title
;
Structure prediction by ZEFSAII (Michael W. Deem and Ramdas Pophale) SiO2 
 PCOD9095336
Probable space group: P -1
;
_chemical_formula_sum "Si O2"
_cell_formula_units_Z 12
_cell_length_a 15.085731
_cell_length_b 14.896005
_cell_length_c 11.590624
_cell_angle_alpha 135.690707
_cell_angle_beta 140.220718
_cell_angle_gamma 19.949244
_cell_volume 568.316085
_symmetry_space_group_name_H-M "P -1"
_symmetry_group_IT_number 2
_symmetry_cell_setting 'triclinic'
loop_
_space_group_symop_operation_xyz
x,y,z
-x,-y,-z
loop_
_atom_site_type_symbol
_atom_site_label
_atom_site_fract_x
_atom_site_fract_y
_atom_site_fract_z
Si Si1 0.279453 0.230753 0.399056
Si Si2 0.268806 0.517515 0.711119
Si Si3 0.599303 0.859281 0.819640
Si Si4 0.119755 0.935383 0.186531
Si Si5 0.802456 0.406918 0.027103
Si Si6 0.736117 0.627217 0.958057
O O1 0.150446 0.469162 0.534554
O O2 0.424395 0.145114 0.342950
O O3 0.060958 0.293605 0.210985
O O4 0.500000 0.000000 0.500000
O O5 0.342313 0.483376 0.889624
O O6 0.057703 0.796716 0.709407
O O7 0.555007 0.293604 0.719223
O O8 0.921343 0.655460 0.970549
O O9 0.363610 0.153201 0.891294
O O10 0.599301 0.738728 0.796374
O O11 0.101895 0.812361 0.117427
O O12 0.000000 0.000000 0.000000
O O13 0.644013 0.601471 0.940541
#
# Coordination Sequence:
#
# PCOD9095336 Si02
#       6
#     2   2   2   2   2   2
#     4  11  21  34  56  85 113 138 175 222 272 320
#     4  11  22  35  51  79 114 140 167 218 278 317
#     4   9  19  33  50  77 109 137 169 220 271 305
#     4  10  21  36  52  74 109 145 176 213 263 318
#     4  10  20  35  57  81 105 141 188 220 255 317
#     4   9  18  33  53  76 103 137 180 221 255 304
#
# _framework density 21.115010999999999
#
# number of rings (size 3 to 8) (size 9 to 14) (size 15 to 20)
#    0.000    2.000    0.000    5.500    0.000    9.333 
#    0.000    0.000    0.000    2.000    0.000    0.000 
#    0.000    1.333    0.000    0.000    0.000    0.000 
#
# Total GULP energy -66935.488456 kJ/mol
# GULP energy per Si atom -5577.957371 kJ/mol
# Density = 2.106695 g / cm^3
# Si number density = 21.115011 Si / 1000 Ang^3
#
#
#
# Elastic Constant Matrix: (Units=GPa)
#
#
# Indices 1 2 3 4 5 6 
#
# 1 114.8652 43.7806 45.9314 7.4556 -11.1138 40.0780
# 2 43.7806 119.3901 36.6303 20.5889 15.6494 8.4163
# 3 45.9314 36.6303 63.3800 13.8484 13.7651 9.8462
# 4 7.4556 20.5889 13.8484 23.8191 5.5184 2.1601
# 5 -11.1138 15.6494 13.7651 5.5184 47.2175 -1.9668
# 6 40.0780 8.4163 9.8462 2.1601 -1.9668 47.6164
#
#
#
# Elastic Compliance Matrix: (Units=1/GPa)
#
#
# Indices 1 2 3 4 5 6 
#
# 1 0.021663 -0.004715 -0.013782 0.004393 0.009568 -0.014354
# 2 -0.004715 0.012200 -0.001541 -0.007520 -0.003729 0.002318
# 3 -0.013782 -0.001541 0.030172 -0.010067 -0.010116 0.005672
# 4 0.004393 -0.007520 -0.010067 0.053174 0.000134 -0.002693
# 5 0.009568 -0.003729 -0.010116 0.000134 0.027426 -0.004176
# 6 -0.014354 0.002318 0.005672 -0.002693 -0.004176 0.031450
#
#
# Mechanical properties :
#
#
# Convention : Reuss Voigt Hill
#
# Bulk Modulus (GPa) = 41.73938 61.14664 51.44301
# Shear Modulus (GPa) = 22.30673 35.15013 28.72843
#
# Velocity S-wave (km/s) = 3.25382 4.08450 3.69259
# Velocity P-wave (km/s) = 5.82469 7.16002 6.52659
#
# Compressibility (1/GPa) = 0.02395819
#
# Stress axis : x y z
#
# Youngs Moduli (GPa) = 46.16133 81.96751 33.14369
#
# Poissons Ratio (x) = 0.38650 0.45679
# Poissons Ratio (y) = 0.21766 0.05107
# Poissons Ratio (z) = 0.63620 0.12631
#
# Static dielectric constant tensor:
#      x y z
#    x 1.873350 -0.009800 0.008150 
#    y -0.009800 1.790620 0.017230 
#    z 0.008150 0.017230 1.809680 
# 
# From -- ./inp_files/24315.got.cif
#   From: 2010.05.17/outbox.cif.g08.bks.cpg/sg2_13_cif.got.tgz:24315.got - 2010.06.03 11:33:40.
