data_PCOD9095356
_publ_section_title
;
Structure prediction by ZEFSAII (Michael W. Deem and Ramdas Pophale) SiO2 
 PCOD9095356
Probable space group: P -1
;
_chemical_formula_sum "Si O2"
_cell_formula_units_Z 16
_cell_length_a 16.887342
_cell_length_b 7.106713
_cell_length_c 8.207990
_cell_angle_alpha 78.308968
_cell_angle_beta 125.994851
_cell_angle_gamma 115.201149
_cell_volume 719.604510
_symmetry_space_group_name_H-M "P -1"
_symmetry_group_IT_number 2
_symmetry_cell_setting 'triclinic'
loop_
_space_group_symop_operation_xyz
x,y,z
-x,-y,-z
loop_
_atom_site_type_symbol
_atom_site_label
_atom_site_fract_x
_atom_site_fract_y
_atom_site_fract_z
Si Si1 0.003066 0.487513 0.813285
Si Si2 0.134450 0.289503 0.506097
Si Si3 0.605032 0.774939 0.381679
Si Si4 0.662232 0.407641 0.482085
Si Si5 0.792757 0.437164 0.153040
Si Si6 0.518801 0.826464 0.941552
Si Si7 0.826453 0.105208 0.492519
Si Si8 0.602807 0.180665 0.763886
O O1 0.971436 0.667699 0.660457
O O2 0.916291 0.268481 0.684046
O O3 0.117468 0.511345 0.884050
O O4 0.000000 0.500000 0.000000
O O5 0.220332 0.455349 0.460371
O O6 0.177471 0.367908 0.724270
O O7 0.867849 0.936616 0.496230
O O8 0.621445 0.570169 0.493025
O O9 0.514111 0.816396 0.361923
O O10 0.717055 0.970040 0.476268
O O11 0.569713 0.728128 0.155091
O O12 0.589355 0.312421 0.253392
O O13 0.648424 0.233009 0.629777
O O14 0.799157 0.247162 0.301675
O O15 0.679023 0.357257 0.945773
O O16 0.594657 0.959225 0.865233
O O17 0.500000 0.000000 0.000000
#
# Coordination Sequence:
#
# PCOD9095356 Si02
#       8
#     2   2   2   2   2   2   2   2
#     4  11  25  43  66  94 128 163 208 271 325 376
#     4  10  22  41  69  91 125 170 211 269 311 379
#     4  10  21  39  62  90 124 166 210 259 308 384
#     4  11  22  37  60  93 129 163 208 260 322 369
#     4  11  23  43  65  92 126 168 220 257 314 389
#     4  10  20  35  57  82 118 166 205 245 298 378
#     4  10  22  42  67  96 120 166 222 256 316 383
#     4  11  22  38  60  91 131 164 205 263 320 367
#
# _framework density 22.234437
#
# number of rings (size 3 to 8) (size 9 to 14) (size 15 to 20)
#    0.000    1.500    1.250    4.875    5.250    3.500 
#    2.250    2.500    0.000    0.000    0.000    0.000 
#    0.000    0.000    0.000    0.000    0.000    0.000 
#
# Total GULP energy -89494.337638 kJ/mol
# GULP energy per Si atom -5593.396102 kJ/mol
# Density = 2.218383 g / cm^3
# Si number density = 22.234437 Si / 1000 Ang^3
#
#
#
# Elastic Constant Matrix: (Units=GPa)
#
#
# Indices 1 2 3 4 5 6 
#
# 1 82.0169 32.4047 8.9256 10.2225 -6.6641 -8.1943
# 2 32.4047 83.8784 32.0685 7.8502 -10.9492 -8.5879
# 3 8.9256 32.0685 55.1194 11.6933 -9.2345 -4.4158
# 4 10.2225 7.8502 11.6933 29.2121 7.8612 -6.1443
# 5 -6.6641 -10.9492 -9.2345 7.8612 29.0693 0.8488
# 6 -8.1943 -8.5879 -4.4158 -6.1443 0.8488 38.8461
#
#
#
# Elastic Compliance Matrix: (Units=1/GPa)
#
#
# Indices 1 2 3 4 5 6 
#
# 1 0.015337 -0.005873 0.002857 -0.005659 0.003705 0.001286
# 2 -0.005873 0.018137 -0.009193 0.000600 0.002351 0.001770
# 3 0.002857 -0.009193 0.027015 -0.011854 0.008992 -0.000430
# 4 -0.005659 0.000600 -0.011854 0.046663 -0.017612 0.005357
# 5 0.003705 0.002351 0.008992 -0.017612 0.043796 -0.001419
# 6 0.001286 0.001770 -0.000430 0.005357 -0.001419 0.027234
#
#
# Mechanical properties :
#
#
# Convention : Reuss Voigt Hill
#
# Bulk Modulus (GPa) = 27.72204 40.86805 34.29504
# Shear Modulus (GPa) = 23.29662 29.26656 26.28159
#
# Velocity S-wave (km/s) = 3.24044 3.63198 3.44178
# Velocity P-wave (km/s) = 5.14740 6.00073 5.59037
#
# Compressibility (1/GPa) = 0.03607238
#
# Stress axis : x y z
#
# Youngs Moduli (GPa) = 65.20312 55.13482 37.01626
#
# Poissons Ratio (x) = 0.32378 -0.10577
# Poissons Ratio (y) = 0.38291 0.34030
# Poissons Ratio (z) = -0.18631 0.50686
#
# Static dielectric constant tensor:
#      x y z
#    x 1.827840 0.009210 0.002160 
#    y 0.009210 1.832100 -0.029620 
#    z 0.002160 -0.029620 1.825830 
# 
# From -- ./inp_files/328774.got.cif
#   From: 2010.05.17/outbox.cif.g08.bks.cpg/sg2_165_cif.got.tgz:328774.got - 2010.06.03 11:33:40.
