data_PCOD9095842
_publ_section_title
;
Structure prediction by ZEFSAII (Michael W. Deem and Ramdas Pophale) SiO2 
 PCOD9095842
Probable space group: P -1
;
_chemical_formula_sum "Si O2"
_cell_formula_units_Z 16
_cell_length_a 18.489945
_cell_length_b 8.656639
_cell_length_c 11.421537
_cell_angle_alpha 114.049861
_cell_angle_beta 154.183633
_cell_angle_gamma 70.392378
_cell_volume 724.769617
_symmetry_space_group_name_H-M "P -1"
_symmetry_group_IT_number 2
_symmetry_cell_setting 'triclinic'
loop_
_space_group_symop_operation_xyz
x,y,z
-x,-y,-z
loop_
_atom_site_type_symbol
_atom_site_label
_atom_site_fract_x
_atom_site_fract_y
_atom_site_fract_z
Si Si1 0.976989 0.960331 0.247291
Si Si2 0.482837 0.191658 0.074077
Si Si3 0.324062 0.560352 0.728004
Si Si4 0.124909 0.818341 0.642764
Si Si5 0.495244 0.459178 0.343759
Si Si6 0.141185 0.419400 0.103625
Si Si7 0.869252 0.514990 0.165480
Si Si8 0.140817 0.270116 0.474621
O O1 0.109948 0.925253 0.533805
O O2 0.849248 0.062880 0.170469
O O3 0.906716 0.780340 0.041991
O O4 0.053285 0.080929 0.292604
O O5 0.637225 0.306886 0.277977
O O6 0.488193 0.259352 0.236282
O O7 0.310168 0.248923 0.786549
O O8 0.500000 0.000000 0.000000
O O9 0.251424 0.676827 0.758743
O O10 0.204207 0.386896 0.492410
O O11 0.500000 0.500000 0.000000
O O12 0.947115 0.706948 0.358447
O O13 0.500000 0.500000 0.500000
O O14 0.665191 0.549673 0.567355
O O15 0.315179 0.517493 0.061750
O O16 0.138814 0.496778 0.992008
O O17 0.000000 0.500000 0.000000
O O18 0.999846 0.384323 0.356038
#
# Coordination Sequence:
#
# PCOD9095842 Si02
#       8
#     2   2   2   2   2   2   2   2
#     4  10  20  35  60  89 117 166 212 261 313 380
#     4  11  23  37  67  99 128 164 218 275 325 378
#     4   9  20  34  52  93 131 162 190 262 329 379
#     4   9  18  34  61  88 123 155 215 265 316 373
#     4  10  23  42  64  92 127 171 219 258 321 394
#     4  10  23  40  66  86 125 175 219 255 317 395
#     4   9  20  40  63  92 125 167 206 267 325 387
#     4  10  21  37  63  96 131 160 213 269 337 374
#
# _framework density 22.075980000000001
#
# number of rings (size 3 to 8) (size 9 to 14) (size 15 to 20)
#    0.000    2.250    0.000    1.500    7.000    9.500 
#    0.000    1.250    0.000    0.000    0.000    0.000 
#    0.000    0.000    0.000    0.000    0.000    0.000 
#
# Total GULP energy -89119.512572 kJ/mol
# GULP energy per Si atom -5569.969536 kJ/mol
# Density = 2.202573 g / cm^3
# Si number density = 22.075980 Si / 1000 Ang^3
#
#
#
# Elastic Constant Matrix: (Units=GPa)
#
#
# Indices 1 2 3 4 5 6 
#
# 1 107.4296 60.7580 54.0398 15.4631 14.3612 -18.1231
# 2 60.7580 139.6238 62.7899 18.5037 11.3369 -15.8755
# 3 54.0398 62.7899 96.7106 11.9207 29.0361 -24.8996
# 4 15.4631 18.5037 11.9207 40.2661 -9.4909 2.9948
# 5 14.3612 11.3369 29.0361 -9.4909 39.0931 3.1585
# 6 -18.1231 -15.8755 -24.8996 2.9948 3.1585 45.6503
#
#
#
# Elastic Compliance Matrix: (Units=1/GPa)
#
#
# Indices 1 2 3 4 5 6 
#
# 1 0.014656 -0.003614 -0.003895 -0.003629 -0.002555 0.002852
# 2 -0.003614 0.011386 -0.006105 -0.001435 0.002282 -0.000869
# 3 -0.003895 -0.006105 0.027149 -0.009509 -0.020335 0.013169
# 4 -0.003629 -0.001435 -0.009509 0.034765 0.018113 -0.010660
# 5 -0.002555 0.002282 -0.020335 0.018113 0.046629 -0.015727
# 6 0.002852 -0.000869 0.013169 -0.010660 -0.015727 0.031706
#
#
# Mechanical properties :
#
#
# Convention : Reuss Voigt Hill
#
# Bulk Modulus (GPa) = 38.51524 77.65992 58.08758
# Shear Modulus (GPa) = 24.73126 36.08032 30.40579
#
# Velocity S-wave (km/s) = 3.35069 4.04712 3.71526
# Velocity P-wave (km/s) = 5.69684 7.55604 6.69133
#
# Compressibility (1/GPa) = 0.02596375
#
# Stress axis : x y z
#
# Youngs Moduli (GPa) = 68.22969 87.82507 36.83443
#
# Poissons Ratio (x) = 0.31736 0.14346
# Poissons Ratio (y) = 0.24655 0.22489
# Poissons Ratio (z) = 0.26573 0.53621
#
# Static dielectric constant tensor:
#      x y z
#    x 1.988800 0.024260 -0.003960 
#    y 0.024260 1.819640 -0.004150 
#    z -0.003960 -0.004150 1.852660 
# 
# From -- ./inp_files/461593.got.cif
#   From: 2010.05.17/outbox.cif.g08.bks.cpg/sg2_231_cif.got.tgz:461593.got - 2010.06.03 11:33:40.
