data_PCOD9095315
_publ_section_title
;
Structure prediction by ZEFSAII (Michael W. Deem and Ramdas Pophale) SiO2 
 PCOD9095315
Probable space group: P -1
;
_chemical_formula_sum "Si O2"
_cell_formula_units_Z 16
_cell_length_a 7.959864
_cell_length_b 13.437681
_cell_length_c 14.923227
_cell_angle_alpha 144.196181
_cell_angle_beta 79.341546
_cell_angle_gamma 126.270386
_cell_volume 587.630047
_symmetry_space_group_name_H-M "P -1"
_symmetry_group_IT_number 2
_symmetry_cell_setting 'triclinic'
loop_
_space_group_symop_operation_xyz
x,y,z
-x,-y,-z
loop_
_atom_site_type_symbol
_atom_site_label
_atom_site_fract_x
_atom_site_fract_y
_atom_site_fract_z
Si Si1 0.689521 0.346696 0.084134
Si Si2 0.777049 0.737490 0.773037
Si Si3 0.671757 0.672365 0.253993
Si Si4 0.851559 0.106719 0.309391
Si Si5 0.871750 0.763611 0.117327
Si Si6 0.643035 0.269906 0.471599
Si Si7 0.261017 0.892519 0.384444
Si Si8 0.613637 0.932883 0.832333
O O1 0.654356 0.523670 0.229007
O O2 0.000406 0.577182 0.192788
O O3 0.646509 0.156956 0.018855
O O4 0.444842 0.131073 0.880094
O O5 0.677864 0.493061 0.655007
O O6 0.938215 0.782414 0.705844
O O7 0.595667 0.755113 0.768390
O O8 0.000000 0.000000 0.000000
O O9 0.824370 0.683685 0.167241
O O10 0.780296 0.941073 0.462750
O O11 0.382422 0.478629 0.095024
O O12 0.872756 0.308702 0.497978
O O13 0.874322 0.971063 0.276650
O O14 0.126840 0.905827 0.138778
O O15 0.387433 0.002853 0.353967
O O16 0.616174 0.247593 0.350859
O O17 0.500000 0.000000 0.500000
#
# Coordination Sequence:
#
# PCOD9095315 Si02
#       8
#     2   2   2   2   2   2   2   2
#     4  10  22  38  62  90 137 163 215 259 331 383
#     4  11  25  44  74  94 129 169 226 283 328 379
#     4  10  20  35  56  91 132 176 212 263 316 393
#     4   9  21  42  65  94 127 175 215 269 323 401
#     4   9  18  35  61  86 129 173 216 251 329 390
#     4  11  24  42  69  95 134 174 221 265 332 390
#     4  12  25  37  64 100 139 172 216 271 326 393
#     4  10  22  42  65  95 125 175 218 268 325 401
#
# _framework density 27.228016
#
# number of rings (size 3 to 8) (size 9 to 14) (size 15 to 20)
#    0.000    1.750    0.000    3.375    7.000    6.500 
#    0.000    2.500    5.500    0.000    0.000    0.000 
#    0.000    0.000    0.000    0.000    0.000    0.000 
#
# Total GULP energy -89412.906487 kJ/mol
# GULP energy per Si atom -5588.306655 kJ/mol
# Density = 2.716604 g / cm^3
# Si number density = 27.228016 Si / 1000 Ang^3
#
#
#
# Elastic Constant Matrix: (Units=GPa)
#
#
# Indices 1 2 3 4 5 6 
#
# 1 110.3223 20.8923 35.1196 11.5830 -49.9611 -14.6215
# 2 20.8923 98.9719 22.4031 23.5664 -15.8997 -10.8095
# 3 35.1196 22.4031 115.0045 30.4317 -39.7437 -20.9335
# 4 11.5830 23.5664 30.4317 34.2558 -6.9559 -9.5509
# 5 -49.9611 -15.8997 -39.7437 -6.9559 55.2705 3.0255
# 6 -14.6215 -10.8095 -20.9335 -9.5509 3.0255 43.1810
#
#
#
# Elastic Compliance Matrix: (Units=1/GPa)
#
#
# Indices 1 2 3 4 5 6 
#
# 1 0.016491 -0.000259 0.002013 -0.002662 0.015682 0.004808
# 2 -0.000259 0.012602 0.001280 -0.008649 0.003138 0.001555
# 3 0.002013 0.001280 0.016098 -0.011947 0.011969 0.005325
# 4 -0.002662 -0.008649 -0.011947 0.045555 -0.007849 0.001768
# 5 0.015682 0.003138 0.011969 -0.007849 0.040389 0.007332
# 6 0.004808 0.001555 0.005325 0.001768 0.007332 0.027634
#
#
# Mechanical properties :
#
#
# Convention : Reuss Voigt Hill
#
# Bulk Modulus (GPa) = 19.50797 53.45875 36.48336
# Shear Modulus (GPa) = 29.44889 42.93371 36.19130
#
# Velocity S-wave (km/s) = 3.29228 3.97523 3.64977
# Velocity P-wave (km/s) = 4.65106 6.38328 5.58474
#
# Compressibility (1/GPa) = 0.05126110
#
# Stress axis : x y z
#
# Youngs Moduli (GPa) = 60.63974 79.35216 62.11910
#
# Poissons Ratio (x) = 0.02052 -0.12507
# Poissons Ratio (y) = 0.01568 -0.07953
# Poissons Ratio (z) = -0.12209 -0.10159
#
# Static dielectric constant tensor:
#      x y z
#    x 2.284620 -0.052800 0.016980 
#    y -0.052800 2.158500 0.031010 
#    z 0.016980 0.031010 2.166560 
# 
# From -- ./inp_files/561423.got.cif
#   From: 2010.05.17/outbox.cif.g08.bks.cpg/sg2_281_cif.got.tgz:561423.got - 2010.06.03 11:33:40.
