data_PCOD9095089
_publ_section_title
;
Structure prediction by ZEFSAII (Michael W. Deem and Ramdas Pophale) SiO2 
 PCOD9095089
Probable space group: P -1
;
_chemical_formula_sum "Si O2"
_cell_formula_units_Z 16
_cell_length_a 10.463707
_cell_length_b 15.166366
_cell_length_c 12.607112
_cell_angle_alpha 27.235445
_cell_angle_beta 82.856284
_cell_angle_gamma 64.488662
_cell_volume 644.359997
_symmetry_space_group_name_H-M "P -1"
_symmetry_group_IT_number 2
_symmetry_cell_setting 'triclinic'
loop_
_space_group_symop_operation_xyz
x,y,z
-x,-y,-z
loop_
_atom_site_type_symbol
_atom_site_label
_atom_site_fract_x
_atom_site_fract_y
_atom_site_fract_z
Si Si1 0.986318 0.816992 0.341906
Si Si2 0.586564 0.321793 0.543117
Si Si3 0.077049 0.827267 0.543343
Si Si4 0.586077 0.094126 0.593772
Si Si5 0.764595 0.424723 0.999145
Si Si6 0.396857 0.895937 0.849982
Si Si7 0.228285 0.642137 0.332693
Si Si8 0.769175 0.860118 0.602120
O O1 0.110822 0.723884 0.531509
O O2 0.811563 0.875254 0.330026
O O3 0.109647 0.624768 0.435779
O O4 0.897093 0.115761 0.997430
O O5 0.676850 0.114794 0.657915
O O6 0.415005 0.377375 0.544235
O O7 0.708487 0.257395 0.697735
O O8 0.492378 0.615413 0.194963
O O9 0.951085 0.787526 0.645136
O O10 0.232493 0.682297 0.770773
O O11 0.938909 0.152116 0.214014
O O12 0.506868 0.975319 0.770267
O O13 0.707472 0.923818 0.661066
O O14 0.414469 0.398325 0.242607
O O15 0.779741 0.634498 0.797394
O O16 0.375348 0.892154 0.728994
#
# Coordination Sequence:
#
# PCOD9095089 Si02
#       8
#     2   2   2   2   2   2   2   2
#     4   9  18  36  59  80 107 145 189 235 284 327
#     4  10  21  38  59  81 111 147 188 236 282 331
#     4  10  21  35  57  83 112 153 188 223 276 337
#     4  11  22  36  57  86 120 153 184 225 279 338
#     4  10  20  35  54  82 118 149 183 224 270 335
#     4   9  19  36  56  82 114 149 184 225 278 337
#     4   9  19  37  59  81 106 142 190 244 285 319
#     4  10  21  35  53  83 121 151 182 226 271 332
#
# _framework density 24.830840999999999
#
# number of rings (size 3 to 8) (size 9 to 14) (size 15 to 20)
#    0.000    2.250    0.000    4.125    0.000    7.000 
#    0.000    6.250    0.000    4.500    0.000    0.000 
#    0.000    0.000    0.000    0.000    0.000    0.000 
#
# Total GULP energy -89508.285100 kJ/mol
# GULP energy per Si atom -5594.267819 kJ/mol
# Density = 2.477432 g / cm^3
# Si number density = 24.830841 Si / 1000 Ang^3
#
#
#
# Elastic Constant Matrix: (Units=GPa)
#
#
# Indices 1 2 3 4 5 6 
#
# 1 84.8718 28.5605 10.8243 -3.0109 -7.6057 -9.6502
# 2 28.5605 110.1939 23.0492 18.1258 -8.3003 -15.4038
# 3 10.8243 23.0492 44.9083 4.7803 0.3402 -2.8630
# 4 -3.0109 18.1258 4.7803 30.2934 1.9720 9.8724
# 5 -7.6057 -8.3003 0.3402 1.9720 31.9743 2.4916
# 6 -9.6502 -15.4038 -2.8630 9.8724 2.4916 41.4225
#
#
#
# Elastic Compliance Matrix: (Units=1/GPa)
#
#
# Indices 1 2 3 4 5 6 
#
# 1 0.013557 -0.003382 -0.001837 0.003239 0.002099 0.000876
# 2 -0.003382 0.013670 -0.004770 -0.009962 0.002929 0.006164
# 3 -0.001837 -0.004770 0.025294 -0.001179 -0.001867 -0.000060
# 4 0.003239 -0.009962 -0.001179 0.044047 -0.003482 -0.013320
# 5 0.002099 0.002929 -0.001867 -0.003482 0.032745 0.000309
# 6 0.000876 0.006164 -0.000060 -0.013320 0.000309 0.029790
#
#
# Mechanical properties :
#
#
# Convention : Reuss Voigt Hill
#
# Bulk Modulus (GPa) = 30.72703 40.53799 35.63251
# Shear Modulus (GPa) = 26.32567 32.57405 29.44986
#
# Velocity S-wave (km/s) = 3.25960 3.62586 3.44760
# Velocity P-wave (km/s) = 5.15443 5.82153 5.49811
#
# Compressibility (1/GPa) = 0.03254464
#
# Stress axis : x y z
#
# Youngs Moduli (GPa) = 73.76084 73.15195 39.53473
#
# Poissons Ratio (x) = 0.24739 0.07262
# Poissons Ratio (y) = 0.24945 0.18857
# Poissons Ratio (z) = 0.13548 0.34892
#
# Static dielectric constant tensor:
#      x y z
#    x 2.010600 -0.056670 0.016790 
#    y -0.056670 1.999030 0.022880 
#    z 0.016790 0.022880 1.983850 
# 
# From -- ./inp_files/418590.got.cif
#   From: 2010.05.17/outbox.cif.g08.bks.cpg/sg2_210_cif.got.tgz:418590.got - 2010.06.03 11:33:40.
