data_PCOD9095085
_publ_section_title
;
Structure prediction by ZEFSAII (Michael W. Deem and Ramdas Pophale) SiO2 
 PCOD9095085
Probable space group: P -1
;
_chemical_formula_sum "Si O2"
_cell_formula_units_Z 16
_cell_length_a 5.051812
_cell_length_b 15.750270
_cell_length_c 12.842218
_cell_angle_alpha 61.325975
_cell_angle_beta 73.383905
_cell_angle_gamma 76.320949
_cell_volume 853.063358
_symmetry_space_group_name_H-M "P -1"
_symmetry_group_IT_number 2
_symmetry_cell_setting 'triclinic'
loop_
_space_group_symop_operation_xyz
x,y,z
-x,-y,-z
loop_
_atom_site_type_symbol
_atom_site_label
_atom_site_fract_x
_atom_site_fract_y
_atom_site_fract_z
Si Si1 0.499549 0.772892 0.545223
Si Si2 0.691033 0.012271 0.571160
Si Si3 0.720104 0.631591 0.442496
Si Si4 0.138865 0.644721 0.772944
Si Si5 0.366532 0.193272 0.245245
Si Si6 0.203867 0.426128 0.874183
Si Si7 0.647206 0.346500 0.035859
Si Si8 0.681171 0.412901 0.655273
O O1 0.723382 0.714941 0.479511
O O2 0.279330 0.695408 0.632213
O O3 0.578551 0.793868 0.644073
O O4 0.384134 0.876930 0.448460
O O5 0.663600 0.919666 0.701974
O O6 0.500000 0.000000 0.500000
O O7 0.000000 0.000000 0.500000
O O8 0.706433 0.526520 0.560305
O O9 0.446670 0.640192 0.396663
O O10 0.997495 0.628824 0.342712
O O11 0.067937 0.538526 0.813170
O O12 0.340172 0.621986 0.863112
O O13 0.905419 0.729757 0.786627
O O14 0.596594 0.233722 0.122838
O O15 0.449383 0.407906 0.772542
O O16 0.383007 0.401971 0.973552
O O17 0.939542 0.365409 0.940952
#
# Coordination Sequence:
#
# PCOD9095085 Si02
#       8
#     2   2   2   2   2   2   2   2
#     4  10  21  34  58  83 112 150 173 223 278 327
#     4  10  20  35  54  81 112 143 180 218 269 331
#     4  10  21  37  54  79 107 140 182 224 272 319
#     4  11  21  34  54  81 115 146 181 213 266 331
#     4  10  22  36  55  83 115 148 179 222 265 327
#     4  12  23  36  54  78 110 152 183 220 268 311
#     4  11  24  36  52  78 113 149 185 219 257 326
#     4  10  22  36  54  77 107 141 185 227 263 320
#
# _framework density 18.755934
#
# number of rings (size 3 to 8) (size 9 to 14) (size 15 to 20)
#    0.000    1.500    3.750    1.500    5.250    1.000 
#    0.000    0.000    0.000    0.000    0.000    5.250 
#    0.000    0.000    0.000    0.000    0.000    0.000 
#
# Total GULP energy -89124.443357 kJ/mol
# GULP energy per Si atom -5570.277710 kJ/mol
# Density = 1.871324 g / cm^3
# Si number density = 18.755934 Si / 1000 Ang^3
#
#
#
# Elastic Constant Matrix: (Units=GPa)
#
#
# Indices 1 2 3 4 5 6 
#
# 1 95.0113 28.1839 25.7677 -18.7844 -15.1638 -11.1603
# 2 28.1839 60.7155 52.1153 -13.2607 -7.2757 -2.7144
# 3 25.7677 52.1153 85.6719 -28.9548 -25.4913 -0.2576
# 4 -18.7844 -13.2607 -28.9548 25.8729 3.1299 -5.0693
# 5 -15.1638 -7.2757 -25.4913 3.1299 34.5103 0.3463
# 6 -11.1603 -2.7144 -0.2576 -5.0693 0.3463 15.5250
#
#
#
# Elastic Compliance Matrix: (Units=1/GPa)
#
#
# Indices 1 2 3 4 5 6 
#
# 1 0.022135 -0.017344 0.020093 0.032081 0.017768 0.023292
# 2 -0.017344 0.055182 -0.051266 -0.041290 -0.029945 -0.016485
# 3 0.020093 -0.051266 0.075489 0.072902 0.046874 0.029492
# 4 0.032081 -0.041290 0.072902 0.127999 0.047053 0.057798
# 5 0.017768 -0.029945 0.046874 0.047053 0.060603 0.022327
# 6 0.023292 -0.016485 0.029492 0.057798 0.022327 0.097138
#
#
# Mechanical properties :
#
#
# Convention : Reuss Voigt Hill
#
# Bulk Modulus (GPa) = 17.93010 50.39250 34.16130
# Shear Modulus (GPa) = 9.02247 24.20375 16.61311
#
# Velocity S-wave (km/s) = 2.19566 3.59619 2.97939
# Velocity P-wave (km/s) = 4.00104 6.64600 5.48533
#
# Compressibility (1/GPa) = 0.05577214
#
# Stress axis : x y z
#
# Youngs Moduli (GPa) = 45.17685 18.12186 13.24689
#
# Poissons Ratio (x) = 0.31431 -0.26616
# Poissons Ratio (y) = 0.78356 0.67911
# Poissons Ratio (z) = -0.90772 0.92903
#
# Static dielectric constant tensor:
#      x y z
#    x 1.718670 0.011700 -0.008580 
#    y 0.011700 1.661110 -0.014980 
#    z -0.008580 -0.014980 1.697120 
# 
# From -- ./inp_files/95019.got.cif
#   From: 2010.05.17/outbox.cif.g08.bks.cpg/sg2_48_cif.got.tgz:95019.got - 2010.06.03 11:33:40.
