data_PCOD9095470
_publ_section_title
;
Structure prediction by ZEFSAII (Michael W. Deem and Ramdas Pophale) SiO2 
 PCOD9095470
Probable space group: P -1
;
_chemical_formula_sum "Si O2"
_cell_formula_units_Z 14
_cell_length_a 27.921574
_cell_length_b 16.767473
_cell_length_c 15.611616
_cell_angle_alpha 153.291941
_cell_angle_beta 162.157398
_cell_angle_gamma 16.847032
_cell_volume 635.959728
_symmetry_space_group_name_H-M "P -1"
_symmetry_group_IT_number 2
_symmetry_cell_setting 'triclinic'
loop_
_space_group_symop_operation_xyz
x,y,z
-x,-y,-z
loop_
_atom_site_type_symbol
_atom_site_label
_atom_site_fract_x
_atom_site_fract_y
_atom_site_fract_z
Si Si1 0.779939 0.036473 0.893119
Si Si2 0.048819 0.200069 0.872496
Si Si3 0.566536 0.610519 0.126562
Si Si4 0.742805 0.173340 0.771556
Si Si5 0.718008 0.619894 0.570938
Si Si6 0.744593 0.553652 0.199664
Si Si7 0.326078 0.075775 0.702159
O O1 0.812898 0.007662 0.819950
O O2 0.563451 0.092101 0.605102
O O3 0.662526 0.331687 0.997886
O O4 0.992522 0.818076 0.116321
O O5 0.825044 0.400426 0.617449
O O6 0.135215 0.328178 0.139506
O O7 0.278804 0.885334 0.924734
O O8 0.712004 0.534686 0.386981
O O9 0.631657 0.673291 0.216085
O O10 0.602303 0.168259 0.461084
O O11 0.638500 0.458586 0.892437
O O12 0.000000 0.000000 0.000000
O O13 0.683680 0.763727 0.232649
O O14 0.045570 0.287089 0.461442
O O15 0.500000 0.000000 0.000000
#
# Coordination Sequence:
#
# PCOD9095470 Si02
#       7
#     2   2   2   2   2   2   2
#     4  10  20  36  58  82 109 154 189 228 290 341
#     4  10  21  35  54  83 117 149 186 236 282 337
#     4  10  20  35  58  78 114 152 186 233 282 341
#     4   9  20  40  62  84 119 153 192 242 294 343
#     4  10  21  35  53  86 114 147 192 231 281 341
#     4   9  21  39  57  88 115 153 197 237 294 347
#     4  10  21  38  61  86 114 153 195 244 293 346
#
# _framework density 22.013973
#
# number of rings (size 3 to 8) (size 9 to 14) (size 15 to 20)
#    0.000    2.286    0.000    3.429    4.000    4.000 
#    2.571    7.143    0.000    0.000    0.000    0.000 
#    0.000    0.000    0.000    0.000    0.000    0.000 
#
# Total GULP energy -78115.063479 kJ/mol
# GULP energy per Si atom -5579.647391 kJ/mol
# Density = 2.196387 g / cm^3
# Si number density = 22.013973 Si / 1000 Ang^3
#
#
#
# Elastic Constant Matrix: (Units=GPa)
#
#
# Indices 1 2 3 4 5 6 
#
# 1 139.1622 4.6951 42.9680 -0.2278 -18.6362 6.6573
# 2 4.6951 48.8338 37.3898 4.2370 -20.6418 7.4825
# 3 42.9680 37.3898 122.9709 15.7272 -35.8992 4.5700
# 4 -0.2278 4.2370 15.7272 31.9190 1.8982 -8.6222
# 5 -18.6362 -20.6418 -35.8992 1.8982 32.5951 1.7732
# 6 6.6573 7.4825 4.5700 -8.6222 1.7732 21.8703
#
#
#
# Elastic Compliance Matrix: (Units=1/GPa)
#
#
# Indices 1 2 3 4 5 6 
#
# 1 0.008688 0.003835 -0.002579 -0.000549 0.004807 -0.004024
# 2 0.003835 0.036069 -0.004056 -0.008928 0.022065 -0.017969
# 3 -0.002579 -0.004056 0.015998 -0.009914 0.014494 -0.006254
# 4 -0.000549 -0.008928 -0.009914 0.045355 -0.020881 0.024867
# 5 0.004807 0.022065 0.014494 -0.020881 0.065975 -0.025622
# 6 -0.004024 -0.017969 -0.006254 0.024867 -0.025622 0.066285
#
#
# Mechanical properties :
#
#
# Convention : Reuss Voigt Hill
#
# Bulk Modulus (GPa) = 18.13031 53.45254 35.79142
# Shear Modulus (GPa) = 19.05828 32.33781 25.69804
#
# Velocity S-wave (km/s) = 2.94553 3.83687 3.42036
# Velocity P-wave (km/s) = 4.45218 6.63043 5.64732
#
# Compressibility (1/GPa) = 0.05515626
#
# Stress axis : x y z
#
# Youngs Moduli (GPa) = 115.10097 27.72467 62.50788
#
# Poissons Ratio (x) = -0.10633 0.16119
# Poissons Ratio (y) = -0.44144 0.25352
# Poissons Ratio (z) = 0.29682 0.11245
#
# Static dielectric constant tensor:
#      x y z
#    x 1.818350 0.003070 -0.010080 
#    y 0.003070 1.861230 0.025270 
#    z -0.010080 0.025270 1.855280 
# 
# From -- ./inp_files/201760.got.cif
#   From: 2010.05.17/outbox.cif.g08.bks.cpg/sg2_101_cif.got.tgz:201760.got - 2010.06.03 11:33:40.
