data_PCOD9095076
_publ_section_title
;
Structure prediction by ZEFSAII (Michael W. Deem and Ramdas Pophale) SiO2 
 PCOD9095076
Probable space group: P -1
;
_chemical_formula_sum "Si O2"
_cell_formula_units_Z 14
_cell_length_a 5.600435
_cell_length_b 14.994093
_cell_length_c 8.150836
_cell_angle_alpha 99.528902
_cell_angle_beta 67.265930
_cell_angle_gamma 119.686029
_cell_volume 548.138398
_symmetry_space_group_name_H-M "P -1"
_symmetry_group_IT_number 2
_symmetry_cell_setting 'triclinic'
loop_
_space_group_symop_operation_xyz
x,y,z
-x,-y,-z
loop_
_atom_site_type_symbol
_atom_site_label
_atom_site_fract_x
_atom_site_fract_y
_atom_site_fract_z
Si Si1 0.846078 0.564216 0.476945
Si Si2 0.274832 0.820526 0.946771
Si Si3 0.397193 0.107654 0.456846
Si Si4 0.948094 0.132939 0.435327
Si Si5 0.779247 0.431460 0.897401
Si Si6 0.834510 0.878339 0.986122
Si Si7 0.184878 0.363954 0.168237
O O1 0.500000 0.500000 0.500000
O O2 0.862210 0.647682 0.628773
O O3 0.000000 0.500000 0.500000
O O4 0.043903 0.607871 0.275746
O O5 0.477904 0.890940 0.761714
O O6 0.489969 0.840440 0.046812
O O7 0.004817 0.843322 0.058941
O O8 0.106444 0.706478 0.878667
O O9 0.676747 0.155777 0.515337
O O10 0.214140 0.169345 0.503180
O O11 0.205977 0.991662 0.535579
O O12 0.079670 0.152027 0.222331
O O13 0.724319 0.516377 0.841000
O O14 0.462482 0.352945 0.027839
O O15 0.000000 0.500000 0.000000
O O16 0.000000 0.000000 0.000000
#
# Coordination Sequence:
#
# PCOD9095076 Si02
#       7
#     2   2   2   2   2   2   2
#     4  10  20  36  59  88 117 155 205 245 297 369
#     4  10  21  34  56  79 112 150 197 247 299 349
#     4   8  14  27  45  69  91 124 170 217 271 325
#     4   8  14  26  47  67  91 124 169 219 267 333
#     4  10  20  37  63  88 123 168 205 245 310 371
#     4  10  20  35  54  80 109 150 195 242 300 361
#     4  10  22  37  59  90 125 165 206 256 304 366
#
# _framework density 25.540994999999999
#
# number of rings (size 3 to 8) (size 9 to 14) (size 15 to 20)
#    0.000    2.571    1.429    0.429    2.000    0.000 
#    0.000    1.429    0.000    5.143    0.000    0.000 
#    0.000    0.000    0.000    0.000    0.000    0.000 
#
# Total GULP energy -78114.453475 kJ/mol
# GULP energy per Si atom -5579.603820 kJ/mol
# Density = 2.548286 g / cm^3
# Si number density = 25.540995 Si / 1000 Ang^3
#
#
#
# Elastic Constant Matrix: (Units=GPa)
#
#
# Indices 1 2 3 4 5 6 
#
# 1 249.8674 24.0475 22.8284 6.8046 -20.2719 45.0804
# 2 24.0475 92.0692 25.5073 -2.6074 -6.7710 23.4147
# 3 22.8284 25.5073 131.2370 -2.7351 -12.7809 21.7663
# 4 6.8046 -2.6074 -2.7351 38.9707 1.3068 -1.1374
# 5 -20.2719 -6.7710 -12.7809 1.3068 19.5634 -9.1300
# 6 45.0804 23.4147 21.7663 -1.1374 -9.1300 40.3749
#
#
#
# Elastic Compliance Matrix: (Units=1/GPa)
#
#
# Indices 1 2 3 4 5 6 
#
# 1 0.005223 0.000132 0.000240 -0.001150 0.003196 -0.005347
# 2 0.000132 0.012990 -0.001354 0.000534 0.000531 -0.006815
# 3 0.000240 -0.001354 0.008781 0.000254 0.003953 -0.003316
# 4 -0.001150 0.000534 0.000254 0.026016 -0.002063 0.001103
# 5 0.003196 0.000531 0.003953 -0.002063 0.060931 0.007713
# 6 -0.005347 -0.006815 -0.003316 0.001103 0.007713 0.038253
#
#
# Mechanical properties :
#
#
# Convention : Reuss Voigt Hill
#
# Bulk Modulus (GPa) = 39.95488 68.66002 54.30745
# Shear Modulus (GPa) = 30.76891 46.50114 38.63503
#
# Velocity S-wave (km/s) = 3.47463 4.27153 3.89352
# Velocity P-wave (km/s) = 5.63691 7.16021 6.44373
#
# Compressibility (1/GPa) = 0.02502823
#
# Stress axis : x y z
#
# Youngs Moduli (GPa) = 191.46884 76.98501 113.87640
#
# Poissons Ratio (x) = -0.01014 -0.02733
# Poissons Ratio (y) = -0.02521 0.15424
# Poissons Ratio (z) = -0.04595 0.10427
#
# Static dielectric constant tensor:
#      x y z
#    x 2.254480 -0.150870 0.029510 
#    y -0.150870 2.069470 -0.073330 
#    z 0.029510 -0.073330 2.020790 
# 
# From -- ./inp_files/45116.got.cif
#   From: 2010.05.17/outbox.cif.g08.bks.cpg/sg2_23_cif.got.tgz:45116.got - 2010.06.03 11:33:40.
