data_PCOD9095448
_publ_section_title
;
Structure prediction by ZEFSAII (Michael W. Deem and Ramdas Pophale) SiO2 
 PCOD9095448
Probable space group: P -1
;
_chemical_formula_sum "Si O2"
_cell_formula_units_Z 14
_cell_length_a 13.256556
_cell_length_b 11.504065
_cell_length_c 7.997370
_cell_angle_alpha 140.421859
_cell_angle_beta 134.905023
_cell_angle_gamma 41.430793
_cell_volume 489.902804
_symmetry_space_group_name_H-M "P -1"
_symmetry_group_IT_number 2
_symmetry_cell_setting 'triclinic'
loop_
_space_group_symop_operation_xyz
x,y,z
-x,-y,-z
loop_
_atom_site_type_symbol
_atom_site_label
_atom_site_fract_x
_atom_site_fract_y
_atom_site_fract_z
Si Si1 0.989298 0.299549 0.331355
Si Si2 0.273217 0.119639 0.665965
Si Si3 0.690640 0.308397 0.834454
Si Si4 0.493070 0.710659 0.907297
Si Si5 0.789785 0.861455 0.884538
Si Si6 0.333851 0.338126 0.274467
Si Si7 0.089623 0.754194 0.303267
O O1 0.083366 0.228664 0.536312
O O2 0.121765 0.135035 0.179280
O O3 0.000000 0.500000 0.500000
O O4 0.817157 0.309294 0.119429
O O5 0.367682 0.227188 0.803234
O O6 0.306018 0.162543 0.941140
O O7 0.338930 0.888908 0.426982
O O8 0.527600 0.516405 0.848138
O O9 0.791375 0.286535 0.758584
O O10 0.322678 0.901392 0.943464
O O11 0.528393 0.672740 0.706895
O O12 0.681638 0.742448 0.649343
O O13 0.944270 0.722631 0.024132
O O14 0.199065 0.571907 0.353241
O O15 0.000000 0.000000 0.500000
#
# Coordination Sequence:
#
# PCOD9095448 Si02
#       7
#     2   2   2   2   2   2   2
#     4  11  21  39  62  90 116 158 201 245 293 344
#     4  10  20  39  65  82 119 157 200 238 298 347
#     4  10  20  39  60  85 119 157 195 249 290 347
#     4   9  21  39  61  87 122 152 198 239 301 350
#     4  11  21  37  63  86 122 156 195 244 297 353
#     4   9  20  40  59  87 118 157 195 241 298 344
#     4  10  20  35  57  90 119 152 202 244 289 345
#
# _framework density 28.577096000000001
#
# number of rings (size 3 to 8) (size 9 to 14) (size 15 to 20)
#    0.857    1.143    1.429    3.000    0.000    1.714 
#    2.571    2.857    0.000    0.000    0.000    0.000 
#    0.000    0.000    0.000    0.000    0.000    0.000 
#
# Total GULP energy -78210.132004 kJ/mol
# GULP energy per Si atom -5586.438000 kJ/mol
# Density = 2.851205 g / cm^3
# Si number density = 28.577096 Si / 1000 Ang^3
#
#
#
# Elastic Constant Matrix: (Units=GPa)
#
#
# Indices 1 2 3 4 5 6 
#
# 1 70.1874 22.0634 4.6077 -0.5702 -3.9074 -22.2628
# 2 22.0634 150.8490 37.7096 29.2592 -4.7013 -25.8266
# 3 4.6077 37.7096 113.8771 16.3568 22.2855 0.1940
# 4 -0.5702 29.2592 16.3568 58.5532 -2.2770 7.8669
# 5 -3.9074 -4.7013 22.2855 -2.2770 35.3060 9.4167
# 6 -22.2628 -25.8266 0.1940 7.8669 9.4167 51.4521
#
#
#
# Elastic Compliance Matrix: (Units=1/GPa)
#
#
# Indices 1 2 3 4 5 6 
#
# 1 0.016760 -0.001237 -0.000299 -0.000019 0.000114 0.006614
# 2 -0.001237 0.009119 -0.002584 -0.004404 0.001224 0.004501
# 3 -0.000299 -0.002584 0.011518 -0.002279 -0.007880 0.000320
# 4 -0.000019 -0.004404 -0.002279 0.020884 0.003825 -0.006104
# 5 0.000114 0.001224 -0.007880 0.003825 0.035420 -0.006374
# 6 0.006614 0.004501 0.000320 -0.006104 -0.006374 0.026656
#
#
# Mechanical properties :
#
#
# Convention : Reuss Voigt Hill
#
# Bulk Modulus (GPa) = 34.29749 51.51941 42.90845
# Shear Modulus (GPa) = 36.14876 47.09776 41.62326
#
# Velocity S-wave (km/s) = 3.56048 4.06408 3.82059
# Velocity P-wave (km/s) = 5.37871 6.33164 5.87453
#
# Compressibility (1/GPa) = 0.02915666
#
# Stress axis : x y z
#
# Youngs Moduli (GPa) = 59.66503 109.65944 86.81969
#
# Poissons Ratio (x) = 0.13563 0.02599
# Poissons Ratio (y) = 0.07379 0.22437
# Poissons Ratio (z) = 0.01786 0.28339
#
# Static dielectric constant tensor:
#      x y z
#    x 2.397920 0.120040 -0.048860 
#    y 0.120040 2.331400 -0.108510 
#    z -0.048860 -0.108510 2.452930 
# 
# From -- ./inp_files/465691.got.cif
#   From: 2010.05.17/outbox.cif.g08.bks.cpg/sg2_233_cif.got.tgz:465691.got - 2010.06.03 11:33:40.
