data_PCOD9095275
_publ_section_title
;
Structure prediction by ZEFSAII (Michael W. Deem and Ramdas Pophale) SiO2 
 PCOD9095275
Probable space group: P -1
;
_chemical_formula_sum "Si O2"
_cell_formula_units_Z 16
_cell_length_a 8.701329
_cell_length_b 22.761059
_cell_length_c 22.222201
_cell_angle_alpha 17.961894
_cell_angle_beta 140.466368
_cell_angle_gamma 139.022807
_cell_volume 858.821709
_symmetry_space_group_name_H-M "P -1"
_symmetry_group_IT_number 2
_symmetry_cell_setting 'triclinic'
loop_
_space_group_symop_operation_xyz
x,y,z
-x,-y,-z
loop_
_atom_site_type_symbol
_atom_site_label
_atom_site_fract_x
_atom_site_fract_y
_atom_site_fract_z
Si Si1 0.111751 0.848546 0.805238
Si Si2 0.727074 0.441152 0.265420
Si Si3 0.578330 0.911270 0.547676
Si Si4 0.412614 0.083009 0.955607
Si Si5 0.790189 0.414858 0.800208
Si Si6 0.710235 0.837308 0.351550
Si Si7 0.039868 0.863397 0.303574
Si Si8 0.485574 0.173768 0.152255
O O1 0.313871 0.850772 0.813175
O O2 0.846512 0.849264 0.696593
O O3 0.163707 0.034448 0.682424
O O4 0.139023 0.672315 0.030136
O O5 0.598345 0.274775 0.345557
O O6 0.816269 0.323376 0.464111
O O7 0.965143 0.546764 0.202344
O O8 0.556586 0.604877 0.068656
O O9 0.500000 0.000000 0.500000
O O10 0.563939 0.074376 0.333997
O O11 0.595625 0.264146 0.855063
O O12 0.145878 0.136504 0.807906
O O13 0.500000 0.000000 0.000000
O O14 0.460098 0.921149 0.176328
O O15 0.684260 0.617024 0.575944
O O16 0.884186 0.862520 0.320067
O O17 0.231697 0.051032 0.177303
#
# Coordination Sequence:
#
# PCOD9095275 Si02
#       8
#     2   2   2   2   2   2   2   2
#     4  11  23  38  56  80 114 148 180 224 274 328
#     4  10  21  36  57  83 110 143 184 227 273 326
#     4  11  23  40  61  84 107 140 185 228 274 324
#     4   9  17  31  56  87 112 139 183 234 277 318
#     4  10  20  35  56  84 111 144 187 227 275 324
#     4   9  19  36  58  82 110 146 186 231 273 319
#     4   9  19  36  58  83 111 145 186 230 274 319
#     4  11  23  38  56  81 114 147 180 223 274 328
#
# _framework density 18.630175000000001
#
# number of rings (size 3 to 8) (size 9 to 14) (size 15 to 20)
#    0.000    2.000    0.000    5.625    0.000   11.000 
#    0.000    2.500    0.000    4.500    0.000    0.000 
#    0.000    0.000    0.000    0.000    0.000    0.000 
#
# Total GULP energy -89293.056190 kJ/mol
# GULP energy per Si atom -5580.816012 kJ/mol
# Density = 1.858777 g / cm^3
# Si number density = 18.630175 Si / 1000 Ang^3
#
#
#
# Elastic Constant Matrix: (Units=GPa)
#
#
# Indices 1 2 3 4 5 6 
#
# 1 38.8639 13.8876 28.9033 0.9819 15.3316 8.8632
# 2 13.8876 96.8955 69.3340 29.7850 17.7261 19.1179
# 3 28.9033 69.3340 147.1276 -1.3795 18.1740 12.3185
# 4 0.9819 29.7850 -1.3795 26.9817 1.1045 5.7806
# 5 15.3316 17.7261 18.1740 1.1045 6.4326 0.1567
# 6 8.8632 19.1179 12.3185 5.7806 0.1567 9.4153
#
#
#
# Elastic Compliance Matrix: (Units=1/GPa)
#
#
# Indices 1 2 3 4 5 6 
#
# 1 -0.000454 -0.025163 0.000974 0.016919 0.063820 0.038796
# 2 -0.025163 0.011659 -0.010140 -0.020192 0.059360 0.024690
# 3 0.000974 -0.010140 0.014194 0.014132 -0.016730 -0.007296
# 4 0.016919 -0.020192 0.014132 0.068368 -0.035500 -0.034800
# 5 0.063820 0.059360 -0.016730 -0.035500 -0.103573 -0.135202
# 6 0.038796 0.024690 -0.007296 -0.034800 -0.135202 0.052717
#
#
# Mechanical properties :
#
#
# Convention : Reuss Voigt Hill
#
# Bulk Modulus (GPa) = -23.11687 56.34851 16.61582
# Shear Modulus (GPa) = 51.46793 19.95004 35.70899
#
# Velocity S-wave (km/s) = 5.26176 3.27593 4.38280
# Velocity P-wave (km/s) = 4.94768 6.67985 5.87792
#
# Compressibility (1/GPa) = -0.04325846
#
# Stress axis : x y z
#
# Youngs Moduli (GPa) = -2203.23304 85.77212 70.45282
#
# Poissons Ratio (x) = 2.15825 -0.06862
# Poissons Ratio (y) = -55.43917 0.71439
# Poissons Ratio (z) = 2.14598 0.86973
#
# Static dielectric constant tensor:
#      x y z
#    x 1.622870 0.012330 0.015160 
#    y 0.012330 1.633420 0.023380 
#    z 0.015160 0.023380 1.667340 
# 
# From -- ./inp_files/505718.got.cif
#   From: 2010.05.17/outbox.cif.g08.bks.cpg/sg2_253_cif.got.tgz:505718.got - 2010.06.03 11:33:40.
