data_PCOD9095706
_publ_section_title
;
Structure prediction by ZEFSAII (Michael W. Deem and Ramdas Pophale) SiO2 
 PCOD9095706
Probable space group: P -1
;
_chemical_formula_sum "Si O2"
_cell_formula_units_Z 16
_cell_length_a 10.524634
_cell_length_b 14.669358
_cell_length_c 9.221811
_cell_angle_alpha 141.593553
_cell_angle_beta 123.684894
_cell_angle_gamma 57.786521
_cell_volume 722.507932
_symmetry_space_group_name_H-M "P -1"
_symmetry_group_IT_number 2
_symmetry_cell_setting 'triclinic'
loop_
_space_group_symop_operation_xyz
x,y,z
-x,-y,-z
loop_
_atom_site_type_symbol
_atom_site_label
_atom_site_fract_x
_atom_site_fract_y
_atom_site_fract_z
Si Si1 0.426643 0.914961 0.224634
Si Si2 0.919448 0.185195 0.539192
Si Si3 0.225651 0.691129 0.942784
Si Si4 0.609082 0.349775 0.710259
Si Si5 0.238565 0.598933 0.520730
Si Si6 0.397829 0.119171 0.193818
Si Si7 0.920574 0.834583 0.097575
Si Si8 0.422135 0.369244 0.165823
O O1 0.294818 0.831601 0.099961
O O2 0.500000 0.000000 0.500000
O O3 0.361686 0.024289 0.190397
O O4 0.568135 0.790731 0.096904
O O5 0.763448 0.250067 0.612195
O O6 0.894246 0.285943 0.503917
O O7 0.053969 0.198705 0.756372
O O8 0.929277 0.010141 0.299941
O O9 0.347112 0.627230 0.066584
O O10 0.060978 0.739296 0.976343
O O11 0.211931 0.594681 0.669874
O O12 0.481123 0.249561 0.470475
O O13 0.575220 0.507361 0.803249
O O14 0.280675 0.442049 0.268838
O O15 0.407647 0.650312 0.673251
O O16 0.242317 0.184052 0.091772
O O17 0.500000 0.000000 0.000000
#
# Coordination Sequence:
#
# PCOD9095706 Si02
#       8
#     2   2   2   2   2   2   2   2
#     4  11  23  40  60  98 132 152 204 270 309 361
#     4   9  18  34  56  86 120 163 214 244 298 377
#     4  10  21  37  60  94 128 161 207 253 312 373
#     4  10  20  38  59  95 124 162 210 255 306 376
#     4   9  18  33  58  89 116 156 211 250 283 371
#     4  12  24  38  61  95 128 159 211 267 305 361
#     4  10  20  35  59  88 122 174 200 257 315 369
#     4   9  20  36  63  91 123 168 205 247 315 368
#
# _framework density 22.145087
#
# number of rings (size 3 to 8) (size 9 to 14) (size 15 to 20)
#    0.000    2.000    2.500    1.500    5.250    4.000 
#    0.000    0.000    0.000    3.750   16.250    0.000 
#    0.000    0.000    0.000    0.000    0.000    0.000 
#
# Total GULP energy -89412.341361 kJ/mol
# GULP energy per Si atom -5588.271335 kJ/mol
# Density = 2.209468 g / cm^3
# Si number density = 22.145087 Si / 1000 Ang^3
#
#
#
# Elastic Constant Matrix: (Units=GPa)
#
#
# Indices 1 2 3 4 5 6 
#
# 1 46.2357 37.9935 26.9056 -16.6364 -7.5169 -0.0113
# 2 37.9935 163.1629 77.3587 -31.8935 -2.0865 8.8306
# 3 26.9056 77.3587 127.3589 -17.6595 -22.9939 -0.4473
# 4 -16.6364 -31.8935 -17.6595 43.7650 -1.2730 -5.4102
# 5 -7.5169 -2.0865 -22.9939 -1.2730 34.8763 -2.9305
# 6 -0.0113 8.8306 -0.4473 -5.4102 -2.9305 39.5769
#
#
#
# Elastic Compliance Matrix: (Units=1/GPa)
#
#
# Indices 1 2 3 4 5 6 
#
# 1 0.030225 -0.005015 -0.001164 0.007863 0.005955 0.002630
# 2 -0.005015 0.010748 -0.005827 0.003157 -0.004363 -0.002357
# 3 -0.001164 -0.005827 0.013334 0.001213 0.008424 0.002240
# 4 0.007863 0.003157 0.001213 0.029192 0.004052 0.003602
# 5 0.005955 -0.004363 0.008424 0.004052 0.035756 0.004272
# 6 0.002630 -0.002357 0.002240 0.003602 0.004272 0.026628
#
#
# Mechanical properties :
#
#
# Convention : Reuss Voigt Hill
#
# Bulk Modulus (GPa) = 33.00979 69.03034 51.02006
# Shear Modulus (GPa) = 27.77846 36.61027 32.19437
#
# Velocity S-wave (km/s) = 3.54557 4.07037 3.81700
# Velocity P-wave (km/s) = 5.63027 7.30274 6.52035
#
# Compressibility (1/GPa) = 0.03029405
#
# Stress axis : x y z
#
# Youngs Moduli (GPa) = 33.08497 93.03749 74.99382
#
# Poissons Ratio (x) = 0.46661 0.08732
# Poissons Ratio (y) = 0.16593 0.43701
# Poissons Ratio (z) = 0.03852 0.54216
#
# Static dielectric constant tensor:
#      x y z
#    x 1.840920 0.010320 -0.014470 
#    y 0.010320 1.829200 -0.010860 
#    z -0.014470 -0.010860 1.852350 
# 
# From -- ./inp_files/274762.got.cif
#   From: 2010.05.17/outbox.cif.g08.bks.cpg/sg2_138_cif.got.tgz:274762.got - 2010.06.03 11:33:40.
