data_PCOD9095797
_publ_section_title
;
Structure prediction by ZEFSAII (Michael W. Deem and Ramdas Pophale) SiO2 
 PCOD9095797
Probable space group: P -1
;
_chemical_formula_sum "Si O2"
_cell_formula_units_Z 16
_cell_length_a 8.251312
_cell_length_b 14.480716
_cell_length_c 9.348824
_cell_angle_alpha 84.364997
_cell_angle_beta 61.984621
_cell_angle_gamma 129.125015
_cell_volume 625.291784
_symmetry_space_group_name_H-M "P -1"
_symmetry_group_IT_number 2
_symmetry_cell_setting 'triclinic'
loop_
_space_group_symop_operation_xyz
x,y,z
-x,-y,-z
loop_
_atom_site_type_symbol
_atom_site_label
_atom_site_fract_x
_atom_site_fract_y
_atom_site_fract_z
Si Si1 0.613558 0.422556 0.403534
Si Si2 0.290734 0.700755 0.795336
Si Si3 0.840848 0.673152 0.088755
Si Si4 0.263770 0.749946 0.331379
Si Si5 0.644391 0.960632 0.392095
Si Si6 0.952326 0.154713 0.761004
Si Si7 0.187266 0.092976 0.264529
Si Si8 0.296419 0.555861 0.296604
O O1 0.805577 0.429490 0.224896
O O2 0.694026 0.554435 0.293048
O O3 0.670665 0.429130 0.545055
O O4 0.274928 0.272976 0.543774
O O5 0.503767 0.829870 0.572869
O O6 0.495725 0.756034 0.836022
O O7 0.055617 0.687596 0.921252
O O8 0.578061 0.612596 0.117644
O O9 0.010640 0.815777 0.089124
O O10 0.532490 0.885336 0.295355
O O11 0.184449 0.806748 0.257916
O O12 0.302149 0.667619 0.243557
O O13 0.994051 0.617918 0.569748
O O14 0.500000 0.000000 0.500000
O O15 0.986928 0.085395 0.257940
O O16 0.793021 0.997981 0.811218
O O17 0.000000 0.000000 0.500000
#
# Coordination Sequence:
#
# PCOD9095797 Si02
#       8
#     2   2   2   2   2   2   2   2
#     4  11  18  39  59  89 114 159 199 237 276 358
#     4  11  23  39  60  86 123 152 196 245 296 338
#     4  11  22  37  58  92 121 154 190 246 296 341
#     4  11  19  34  61  88 110 154 198 237 285 337
#     4  11  22  37  61  87 113 153 202 238 286 350
#     4  11  19  36  66  84 114 152 208 239 276 346
#     4  10  20  39  60  84 109 154 202 245 273 339
#     4  10  20  35  60  85 122 151 199 234 284 354
#
# _framework density 25.588054
#
# number of rings (size 3 to 8) (size 9 to 14) (size 15 to 20)
#    0.000    1.250    6.250    3.375    0.000    0.500 
#    0.000    1.875    0.000    3.000    0.000    0.000 
#    0.000    0.000    0.000    0.000    0.000    0.000 
#
# Total GULP energy -89546.000264 kJ/mol
# GULP energy per Si atom -5596.625016 kJ/mol
# Density = 2.552981 g / cm^3
# Si number density = 25.588054 Si / 1000 Ang^3
#
#
#
# Elastic Constant Matrix: (Units=GPa)
#
#
# Indices 1 2 3 4 5 6 
#
# 1 122.6990 30.4349 26.2605 -5.3442 -42.2375 -1.1183
# 2 30.4349 108.5284 19.7744 4.6244 -16.2658 -6.4679
# 3 26.2605 19.7744 96.6355 1.2106 -27.8953 0.8158
# 4 -5.3442 4.6244 1.2106 33.8312 -11.1278 -11.2798
# 5 -42.2375 -16.2658 -27.8953 -11.1278 51.8397 0.3780
# 6 -1.1183 -6.4679 0.8158 -11.2798 0.3780 44.7500
#
#
#
# Elastic Compliance Matrix: (Units=1/GPa)
#
#
# Indices 1 2 3 4 5 6 
#
# 1 0.012813 -0.002114 0.000093 0.006519 0.011214 0.001561
# 2 -0.002114 0.010250 -0.001373 -0.001132 0.000503 0.001164
# 3 0.000093 -0.001373 0.012550 0.002007 0.006829 0.000023
# 4 0.006519 -0.001132 0.002007 0.038542 0.014240 0.009557
# 5 0.011214 0.000503 0.006829 0.014240 0.035291 0.003520
# 6 0.001561 0.001164 0.000023 0.009557 0.003520 0.024933
#
#
# Mechanical properties :
#
#
# Convention : Reuss Voigt Hill
#
# Bulk Modulus (GPa) = 34.69307 53.42250 44.05778
# Shear Modulus (GPa) = 33.16199 42.84371 38.00285
#
# Velocity S-wave (km/s) = 3.60390 4.09634 3.85798
# Velocity P-wave (km/s) = 5.55924 6.58001 6.09105
#
# Compressibility (1/GPa) = 0.02882420
#
# Stress axis : x y z
#
# Youngs Moduli (GPa) = 78.04525 97.55798 79.68269
#
# Poissons Ratio (x) = 0.20625 -0.00741
# Poissons Ratio (y) = 0.16500 0.10944
# Poissons Ratio (z) = -0.00726 0.13399
#
# Static dielectric constant tensor:
#      x y z
#    x 2.039690 0.009400 -0.053450 
#    y 0.009400 2.052300 -0.013850 
#    z -0.053450 -0.013850 2.117110 
# 
# From -- ./inp_files/217301.got.cif
#   From: 2010.05.17/outbox.cif.g08.bks.cpg/sg2_109_cif.got.tgz:217301.got - 2010.06.03 11:33:40.
