data_PCOD9095524
_publ_section_title
;
Structure prediction by ZEFSAII (Michael W. Deem and Ramdas Pophale) SiO2 
 PCOD9095524
Probable space group: P -1
;
_chemical_formula_sum "Si O2"
_cell_formula_units_Z 16
_cell_length_a 13.453294
_cell_length_b 8.931591
_cell_length_c 18.155252
_cell_angle_alpha 77.101412
_cell_angle_beta 22.521799
_cell_angle_gamma 91.931155
_cell_volume 624.132229
_symmetry_space_group_name_H-M "P -1"
_symmetry_group_IT_number 2
_symmetry_cell_setting 'triclinic'
loop_
_space_group_symop_operation_xyz
x,y,z
-x,-y,-z
loop_
_atom_site_type_symbol
_atom_site_label
_atom_site_fract_x
_atom_site_fract_y
_atom_site_fract_z
Si Si1 0.059026 0.528025 0.709644
Si Si2 0.631338 0.920742 0.025710
Si Si3 0.073464 0.360586 0.498988
Si Si4 0.007094 0.235579 0.161713
Si Si5 0.669747 0.640737 0.524523
Si Si6 0.646762 0.697505 0.829826
Si Si7 0.668389 0.180109 0.262455
Si Si8 0.651847 0.075541 0.624962
O O1 0.991643 0.593468 0.823854
O O2 0.306258 0.478035 0.542121
O O3 0.219736 0.720878 0.525984
O O4 0.692636 0.335740 0.949298
O O5 0.316817 0.834029 0.197740
O O6 0.508163 0.936241 0.187508
O O7 0.709727 0.768283 0.998433
O O8 0.986326 0.129456 0.740457
O O9 0.000000 0.500000 0.500000
O O10 0.294129 0.427828 0.413621
O O11 0.227786 0.316878 0.333136
O O12 0.973510 0.230266 0.097041
O O13 0.662016 0.026779 0.451854
O O14 0.379520 0.656351 0.714236
O O15 0.995551 0.885803 0.608514
O O16 0.500000 0.500000 0.000000
O O17 0.621574 0.114761 0.217128
#
# Coordination Sequence:
#
# PCOD9095524 Si02
#       8
#     2   2   2   2   2   2   2   2
#     4  10  20  35  58  85 117 155 196 237 289 347
#     4  10  21  37  59  89 119 152 194 241 294 345
#     4  11  21  36  59  85 120 156 192 237 292 355
#     4   9  19  38  61  81 113 160 198 236 287 350
#     4  11  23  36  56  88 121 151 193 246 290 339
#     4   9  18  33  56  84 112 147 190 233 282 344
#     4   9  20  38  58  84 116 153 199 242 287 340
#     4   9  19  37  60  85 116 156 193 235 291 355
#
# _framework density 25.635594999999999
#
# number of rings (size 3 to 8) (size 9 to 14) (size 15 to 20)
#    0.000    2.250    0.000    3.375    0.000    7.000 
#    0.000    2.500    0.000   10.500    0.000    0.000 
#    0.000    0.000    0.000    0.000    0.000    0.000 
#
# Total GULP energy -89526.172982 kJ/mol
# GULP energy per Si atom -5595.385811 kJ/mol
# Density = 2.557725 g / cm^3
# Si number density = 25.635595 Si / 1000 Ang^3
#
#
#
# Elastic Constant Matrix: (Units=GPa)
#
#
# Indices 1 2 3 4 5 6 
#
# 1 94.8695 31.4762 24.7526 7.9208 -17.3709 15.8231
# 2 31.4762 109.0710 13.4117 17.4138 -6.4396 3.7383
# 3 24.7526 13.4117 92.1652 -1.8191 -14.3913 -3.9320
# 4 7.9208 17.4138 -1.8191 29.4270 -12.6088 10.8106
# 5 -17.3709 -6.4396 -14.3913 -12.6088 36.2050 -2.2101
# 6 15.8231 3.7383 -3.9320 10.8106 -2.2101 22.8378
#
#
#
# Elastic Compliance Matrix: (Units=1/GPa)
#
#
# Indices 1 2 3 4 5 6 
#
# 1 0.015574 -0.004202 -0.002945 0.005643 0.006749 -0.012628
# 2 -0.004202 0.011575 -0.001024 -0.008879 -0.003167 0.004737
# 3 -0.002945 -0.001024 0.012729 0.002921 0.004694 0.003471
# 4 0.005643 -0.008879 0.002921 0.056402 0.020303 -0.026687
# 5 0.006749 -0.003167 0.004694 0.020303 0.038669 -0.009218
# 6 -0.012628 0.004737 0.003471 -0.026687 -0.009218 0.064099
#
#
# Mechanical properties :
#
#
# Convention : Reuss Voigt Hill
#
# Bulk Modulus (GPa) = 42.48639 48.37631 45.43135
# Shear Modulus (GPa) = 22.39797 32.79164 27.59481
#
# Velocity S-wave (km/s) = 2.95906 3.58039 3.28445
# Velocity P-wave (km/s) = 5.31826 6.00033 5.66956
#
# Compressibility (1/GPa) = 0.02353695
#
# Stress axis : x y z
#
# Youngs Moduli (GPa) = 64.20937 86.39208 78.56351
#
# Poissons Ratio (x) = 0.36303 0.23135
# Poissons Ratio (y) = 0.26981 0.08042
# Poissons Ratio (z) = 0.18908 0.08843
#
# Static dielectric constant tensor:
#      x y z
#    x 2.007810 -0.000090 0.005660 
#    y -0.000090 2.038780 -0.061710 
#    z 0.005660 -0.061710 2.062100 
# 
# From -- ./inp_files/597374.got.cif
#   From: 2010.05.17/outbox.cif.g08.bks.cpg/sg2_299_cif.got.tgz:597374.got - 2010.06.03 11:33:40.
