data_PCOD9095609
_publ_section_title
;
Structure prediction by ZEFSAII (Michael W. Deem and Ramdas Pophale) SiO2 
 PCOD9095609
Probable space group: P -1
;
_chemical_formula_sum "Si O2"
_cell_formula_units_Z 15
_cell_length_a 8.811307
_cell_length_b 15.706154
_cell_length_c 11.755849
_cell_angle_alpha 46.498541
_cell_angle_beta 75.224185
_cell_angle_gamma 112.589124
_cell_volume 687.699369
_symmetry_space_group_name_H-M "P -1"
_symmetry_group_IT_number 2
_symmetry_cell_setting 'triclinic'
loop_
_space_group_symop_operation_xyz
x,y,z
-x,-y,-z
loop_
_atom_site_type_symbol
_atom_site_label
_atom_site_fract_x
_atom_site_fract_y
_atom_site_fract_z
Si Si1 0.098010 0.602324 0.119332
Si Si2 0.194310 0.219233 0.220227
Si Si3 0.386978 0.386718 0.774047
Si Si4 0.500000 0.000000 0.000000
Si Si5 0.704291 0.351853 0.729165
Si Si6 0.463266 0.687932 0.545814
Si Si7 0.726109 0.479632 0.011302
Si Si8 0.851294 0.127302 0.030497
O O1 0.274451 0.648009 0.139100
O O2 0.789923 0.414332 0.378990
O O3 0.137440 0.548465 0.049815
O O4 0.164215 0.779928 0.953809
O O5 0.471496 0.358161 0.097831
O O6 0.248373 0.262986 0.034051
O O7 0.115543 0.303328 0.202970
O O8 0.000000 0.000000 0.500000
O O9 0.590860 0.411776 0.673191
O O10 0.522797 0.592465 0.581782
O O11 0.150901 0.268395 0.841696
O O12 0.509781 0.142895 0.903677
O O13 0.276966 0.894964 0.037581
O O14 0.000000 0.500000 0.500000
O O15 0.366708 0.613512 0.761289
O O16 0.687984 0.915625 0.287498
#
# Coordination Sequence:
#
# PCOD9095609 Si02
#       8
#     2   2   2   1   2   2   2   2
#     4  10  21  39  59  89 129 165 209 264 307 375
#     4  10  20  36  58  94 133 168 205 251 314 377
#     4  10  22  41  63  93 130 162 211 268 308 385
#     4  10  24  44  62  90 122 160 220 268 308 384
#     4  11  23  43  65  88 124 167 213 269 323 364
#     4  10  21  38  63  94 126 167 207 252 324 380
#     4  10  20  35  58  93 131 164 210 255 301 386
#     4  10  22  41  63  89 126 167 211 265 317 374
#
# _framework density 21.811858999999998
#
# number of rings (size 3 to 8) (size 9 to 14) (size 15 to 20)
#    0.000    1.867    1.333    2.000    0.000    3.200 
#    2.400    9.333    0.000    0.000    0.000    0.000 
#    0.000    0.000    0.000    0.000    0.000    0.000 
#
# Total GULP energy -83515.920802 kJ/mol
# GULP energy per Si atom -5567.728053 kJ/mol
# Density = 2.176221 g / cm^3
# Si number density = 21.811859 Si / 1000 Ang^3
#
#
#
# Elastic Constant Matrix: (Units=GPa)
#
#
# Indices 1 2 3 4 5 6 
#
# 1 155.9980 70.1805 42.0612 -5.9972 -2.7419 -27.8124
# 2 70.1805 139.2225 54.7298 -12.6105 -3.0711 -23.5820
# 3 42.0612 54.7298 91.9156 -21.2640 24.3216 -25.0577
# 4 -5.9972 -12.6105 -21.2640 30.6850 -3.2259 9.8896
# 5 -2.7419 -3.0711 24.3216 -3.2259 25.4408 6.4737
# 6 -27.8124 -23.5820 -25.0577 9.8896 6.4737 52.0555
#
#
#
# Elastic Compliance Matrix: (Units=1/GPa)
#
#
# Indices 1 2 3 4 5 6 
#
# 1 0.008911 -0.003219 -0.002625 -0.001834 0.002315 0.002099
# 2 -0.003219 0.012283 -0.009081 -0.000232 0.010234 -0.001756
# 3 -0.002625 -0.009081 0.032272 0.010602 -0.033999 0.012232
# 4 -0.001834 -0.000232 0.010602 0.039978 -0.004525 -0.003014
# 5 0.002315 0.010234 -0.033999 -0.004525 0.077630 -0.019288
# 6 0.002099 -0.001756 0.012232 -0.003014 -0.019288 0.028396
#
#
# Mechanical properties :
#
#
# Convention : Reuss Voigt Hill
#
# Bulk Modulus (GPa) = 42.34643 80.11988 61.23315
# Shear Modulus (GPa) = 21.08003 36.31390 28.69696
#
# Velocity S-wave (km/s) = 3.11215 4.08471 3.63114
# Velocity P-wave (km/s) = 5.68951 7.68495 6.76125
#
# Compressibility (1/GPa) = 0.02361474
#
# Stress axis : x y z
#
# Youngs Moduli (GPa) = 112.22108 81.41550 30.98682
#
# Poissons Ratio (x) = 0.26211 0.08135
# Poissons Ratio (y) = 0.36128 0.28138
# Poissons Ratio (z) = 0.29460 0.73931
#
# Static dielectric constant tensor:
#      x y z
#    x 1.814440 0.028310 0.026880 
#    y 0.028310 1.842240 0.040460 
#    z 0.026880 0.040460 1.794670 
# 
# From -- ./inp_files/397038.got.cif
#   From: 2010.05.17/outbox.cif.g08.bks.cpg/sg2_199_cif.got.tgz:397038.got - 2010.06.03 11:33:40.
