data_PCOD9095544
_publ_section_title
;
Structure prediction by ZEFSAII (Michael W. Deem and Ramdas Pophale) SiO2 
 PCOD9095544
Probable space group: P -1
;
_chemical_formula_sum "Si O2"
_cell_formula_units_Z 16
_cell_length_a 9.289134
_cell_length_b 8.995448
_cell_length_c 11.381851
_cell_angle_alpha 110.673106
_cell_angle_beta 65.999823
_cell_angle_gamma 118.794517
_cell_volume 746.603831
_symmetry_space_group_name_H-M "P -1"
_symmetry_group_IT_number 2
_symmetry_cell_setting 'triclinic'
loop_
_space_group_symop_operation_xyz
x,y,z
-x,-y,-z
loop_
_atom_site_type_symbol
_atom_site_label
_atom_site_fract_x
_atom_site_fract_y
_atom_site_fract_z
Si Si1 0.317496 0.228902 0.340714
Si Si2 0.656846 0.966406 0.107323
Si Si3 0.645998 0.375563 0.917389
Si Si4 0.161775 0.117140 0.781363
Si Si5 0.413304 0.002501 0.404540
Si Si6 0.537766 0.541920 0.200899
Si Si7 0.808575 0.130373 0.870408
Si Si8 0.046011 0.869603 0.533810
O O1 0.464422 0.388567 0.274622
O O2 0.146904 0.270517 0.424050
O O3 0.379916 0.172780 0.425540
O O4 0.262306 0.053231 0.228654
O O5 0.539714 0.780495 0.041740
O O6 0.815832 0.952909 0.118462
O O7 0.538242 0.992589 0.256436
O O8 0.711160 0.097587 0.018668
O O9 0.618883 0.447227 0.820733
O O10 0.776676 0.283525 0.859499
O O11 0.660265 0.507309 0.053370
O O12 0.343069 0.272111 0.735794
O O13 0.007115 0.178288 0.840891
O O14 0.113153 0.963634 0.661215
O O15 0.218074 0.853653 0.425322
O O16 0.500000 0.000000 0.500000
O O17 0.000000 0.000000 0.500000
#
# Coordination Sequence:
#
# PCOD9095544 Si02
#       8
#     2   2   2   2   2   2   2   2
#     4  10  20  38  64  87 115 153 198 244 285 359
#     4  11  19  34  60  90 116 150 196 245 281 352
#     4  10  20  35  58  86 123 155 187 232 294 369
#     4  10  22  36  57  88 126 152 184 248 301 346
#     4  11  20  35  59  89 114 149 203 251 280 322
#     4  10  21  38  57  88 124 159 179 232 317 350
#     4  11  20  36  62  92 113 151 202 240 290 342
#     4   9  20  38  59  84 112 156 203 242 279 335
#
# _framework density 21.430372999999999
#
# number of rings (size 3 to 8) (size 9 to 14) (size 15 to 20)
#    0.000    1.750    3.750    1.500    0.000    0.500 
#    0.000    3.750    0.000    3.000    0.000    0.000 
#    0.000    0.000    0.000    0.000    0.000    0.000 
#
# Total GULP energy -89207.563538 kJ/mol
# GULP energy per Si atom -5575.472721 kJ/mol
# Density = 2.138160 g / cm^3
# Si number density = 21.430373 Si / 1000 Ang^3
#
#
#
# Elastic Constant Matrix: (Units=GPa)
#
#
# Indices 1 2 3 4 5 6 
#
# 1 135.0597 17.4763 38.7851 -9.4569 1.7237 -22.3282
# 2 17.4763 43.1961 12.5213 -13.9820 5.2395 -9.0709
# 3 38.7851 12.5213 92.4322 -12.4350 -3.5671 -4.9190
# 4 -9.4569 -13.9820 -12.4350 22.8426 -3.7476 0.1347
# 5 1.7237 5.2395 -3.5671 -3.7476 37.0825 0.2453
# 6 -22.3282 -9.0709 -4.9190 0.1347 0.2453 27.6719
#
#
#
# Elastic Compliance Matrix: (Units=1/GPa)
#
#
# Indices 1 2 3 4 5 6 
#
# 1 0.009771 -0.000960 -0.003424 0.001464 -0.000546 0.006959
# 2 -0.000960 0.032049 -0.001109 0.018097 -0.002824 0.009471
# 3 -0.003424 -0.001109 0.013175 0.005431 0.002138 -0.000830
# 4 0.001464 0.018097 0.005431 0.058997 0.003808 0.007758
# 5 -0.000546 -0.002824 0.002138 0.003808 0.027990 -0.001253
# 6 0.006959 0.009471 -0.000830 0.007758 -0.001253 0.044683
#
#
# Mechanical properties :
#
#
# Convention : Reuss Voigt Hill
#
# Bulk Modulus (GPa) = 22.72209 45.36148 34.04178
# Shear Modulus (GPa) = 23.54918 30.97975 27.26447
#
# Velocity S-wave (km/s) = 3.31852 3.80623 3.57071
# Velocity P-wave (km/s) = 5.03082 6.36627 5.73753
#
# Compressibility (1/GPa) = 0.04401003
#
# Stress axis : x y z
#
# Youngs Moduli (GPa) = 102.33854 31.20186 75.90291
#
# Poissons Ratio (x) = 0.02994 0.25989
# Poissons Ratio (y) = 0.09819 0.08419
# Poissons Ratio (z) = 0.35041 0.03461
#
# Static dielectric constant tensor:
#      x y z
#    x 1.822070 -0.015260 -0.030560 
#    y -0.015260 1.769300 0.017540 
#    z -0.030560 0.017540 1.883140 
# 
# From -- ./inp_files/176703.got.cif
#   From: 2010.05.17/outbox.cif.g08.bks.cpg/sg2_89_cif.got.tgz:176703.got - 2010.06.03 11:33:40.
