data_PCOD9095246
_publ_section_title
;
Structure prediction by ZEFSAII (Michael W. Deem and Ramdas Pophale) SiO2 
 PCOD9095246
Probable space group: P -1
;
_chemical_formula_sum "Si O2"
_cell_formula_units_Z 16
_cell_length_a 12.314007
_cell_length_b 14.639647
_cell_length_c 14.943399
_cell_angle_alpha 53.558690
_cell_angle_beta 28.155754
_cell_angle_gamma 71.471545
_cell_volume 859.048714
_symmetry_space_group_name_H-M "P -1"
_symmetry_group_IT_number 2
_symmetry_cell_setting 'triclinic'
loop_
_space_group_symop_operation_xyz
x,y,z
-x,-y,-z
loop_
_atom_site_type_symbol
_atom_site_label
_atom_site_fract_x
_atom_site_fract_y
_atom_site_fract_z
Si Si1 0.928314 0.712901 0.697933
Si Si2 0.355501 0.489111 0.293862
Si Si3 0.713801 0.138369 0.316049
Si Si4 0.872155 0.485335 0.745297
Si Si5 0.942624 0.975239 0.838148
Si Si6 0.417205 0.925258 0.347646
Si Si7 0.492210 0.272688 0.287335
Si Si8 0.103848 0.059415 0.487915
O O1 0.961916 0.606726 0.679207
O O2 0.874875 0.800053 0.615465
O O3 0.183275 0.811510 0.518614
O O4 0.652806 0.626269 0.006812
O O5 0.259148 0.490875 0.260877
O O6 0.397397 0.365984 0.345007
O O7 0.128193 0.480595 0.528258
O O8 0.621689 0.127016 0.492372
O O9 0.697390 0.253282 0.210599
O O10 0.988261 0.135428 0.120034
O O11 0.500000 0.000000 0.500000
O O12 0.651377 0.349660 0.036748
O O13 0.705997 0.967269 0.072617
O O14 0.220790 0.124390 0.556843
O O15 0.891772 0.967057 0.773288
O O16 0.365926 0.047810 0.317642
O O17 0.000000 0.000000 0.500000
#
# Coordination Sequence:
#
# PCOD9095246 Si02
#       8
#     2   2   2   2   2   2   2   2
#     4  10  20  36  54  79 115 143 177 221 265 325
#     4  10  21  36  58  80 108 145 180 222 269 316
#     4   9  21  38  56  79 109 142 182 229 272 322
#     4  10  21  36  56  82 107 143 183 222 267 316
#     4  10  20  35  56  82 111 142 178 224 273 324
#     4  10  22  36  55  83 112 145 179 220 277 328
#     4  10  20  36  56  79 106 137 183 229 267 318
#     4   9  19  33  51  79 113 143 174 212 262 326
#
# _framework density 18.625253000000001
#
# number of rings (size 3 to 8) (size 9 to 14) (size 15 to 20)
#    0.000    2.250    0.000    3.000    0.000   14.000 
#    0.000    2.500    0.000    4.500    0.000    0.000 
#    0.000    0.000    0.000    0.000    0.000    0.000 
#
# Total GULP energy -89218.404403 kJ/mol
# GULP energy per Si atom -5576.150275 kJ/mol
# Density = 1.858286 g / cm^3
# Si number density = 18.625253 Si / 1000 Ang^3
#
#
#
# Elastic Constant Matrix: (Units=GPa)
#
#
# Indices 1 2 3 4 5 6 
#
# 1 91.4387 49.5310 33.9289 0.1350 11.0287 -6.9053
# 2 49.5310 119.0504 65.3041 17.4010 11.3353 -18.4692
# 3 33.9289 65.3041 88.4501 21.1875 -2.3486 -0.1098
# 4 0.1350 17.4010 21.1875 34.5850 5.8841 4.2510
# 5 11.0287 11.3353 -2.3486 5.8841 16.4986 -5.9650
# 6 -6.9053 -18.4692 -0.1098 4.2510 -5.9650 32.3014
#
#
#
# Elastic Compliance Matrix: (Units=1/GPa)
#
#
# Indices 1 2 3 4 5 6 
#
# 1 0.016568 -0.004175 -0.005479 0.007802 -0.012569 -0.002212
# 2 -0.004175 0.019481 -0.012592 -0.001697 -0.008584 0.008842
# 3 -0.005479 -0.012592 0.026253 -0.012669 0.019478 -0.003018
# 4 0.007802 -0.001697 -0.012669 0.042851 -0.024579 -0.009524
# 5 -0.012569 -0.008584 0.019478 -0.024579 0.090971 0.012505
# 6 -0.002212 0.008842 -0.003018 -0.009524 0.012505 0.039093
#
#
# Mechanical properties :
#
#
# Convention : Reuss Voigt Hill
#
# Bulk Modulus (GPa) = 56.14609 66.27414 61.21011
# Shear Modulus (GPa) = 17.50424 26.68868 22.09646
#
# Velocity S-wave (km/s) = 3.06896 3.78951 3.44811
# Velocity P-wave (km/s) = 6.53977 7.40320 6.98484
#
# Compressibility (1/GPa) = 0.01781068
#
# Stress axis : x y z
#
# Youngs Moduli (GPa) = 60.35744 51.33162 38.09145
#
# Poissons Ratio (x) = 0.21429 0.20869
# Poissons Ratio (y) = 0.25197 0.47966
# Poissons Ratio (z) = 0.33068 0.64638
#
# Static dielectric constant tensor:
#      x y z
#    x 1.693520 -0.003450 -0.009030 
#    y -0.003450 1.662000 -0.019160 
#    z -0.009030 -0.019160 1.631420 
# 
# From -- ./inp_files/438676.got.cif
#   From: 2010.05.17/outbox.cif.g08.bks.cpg/sg2_220_cif.got.tgz:438676.got - 2010.06.03 11:33:40.
