data_PCOD9095863
_publ_section_title
;
Structure prediction by ZEFSAII (Michael W. Deem and Ramdas Pophale) SiO2 
 PCOD9095863
Probable space group: P -1
;
_chemical_formula_sum "Si O2"
_cell_formula_units_Z 16
_cell_length_a 7.677100
_cell_length_b 14.494020
_cell_length_c 16.513584
_cell_angle_alpha 34.546573
_cell_angle_beta 137.853324
_cell_angle_gamma 139.145494
_cell_volume 645.943412
_symmetry_space_group_name_H-M "P -1"
_symmetry_group_IT_number 2
_symmetry_cell_setting 'triclinic'
loop_
_space_group_symop_operation_xyz
x,y,z
-x,-y,-z
loop_
_atom_site_type_symbol
_atom_site_label
_atom_site_fract_x
_atom_site_fract_y
_atom_site_fract_z
Si Si1 0.607218 0.769566 0.006870
Si Si2 0.586340 0.219851 0.455902
Si Si3 0.931246 0.580655 0.335664
Si Si4 0.766024 0.382076 0.159147
Si Si5 0.238632 0.091170 0.275576
Si Si6 0.070202 0.784149 0.026021
Si Si7 0.169613 0.180148 0.474929
Si Si8 0.476954 0.875738 0.229889
O O1 0.343869 0.640849 0.955554
O O2 0.540434 0.937802 0.886900
O O3 0.702499 0.672562 0.182703
O O4 0.877634 0.827358 0.997286
O O5 0.798491 0.405322 0.361221
O O6 0.335165 0.117650 0.381917
O O7 0.446585 0.260887 0.457235
O O8 0.737662 0.085740 0.621432
O O9 0.000000 0.500000 0.500000
O O10 0.214621 0.722238 0.295443
O O11 0.485941 0.258658 0.198973
O O12 0.910096 0.581762 0.092606
O O13 0.987187 0.295488 0.318357
O O14 0.951711 0.106657 0.139050
O O15 0.375167 0.828848 0.136239
O O16 0.258165 0.148420 0.618699
O O17 0.000000 0.000000 0.500000
#
# Coordination Sequence:
#
# PCOD9095863 Si02
#       8
#     2   2   2   2   2   2   2   2
#     4  10  20  37  63  93 121 165 208 254 306 370
#     4  11  22  37  60  95 124 159 198 268 311 362
#     4  11  21  33  58  93 127 145 201 262 313 342
#     4  11  21  38  65  88 123 165 213 250 296 381
#     4  10  20  37  63  90 121 157 205 259 321 349
#     4  10  20  35  60  90 121 152 212 260 303 359
#     4  12  22  41  62  89 123 172 217 236 304 388
#     4  11  22  39  65  92 124 168 207 257 305 374
#
# _framework density 24.769971999999999
#
# number of rings (size 3 to 8) (size 9 to 14) (size 15 to 20)
#    0.000    1.250    3.750    6.000    1.750    0.500 
#    0.000    2.500    0.000    0.750    0.000    0.000 
#    0.000    0.000    0.000    0.000    0.000    0.000 
#
# Total GULP energy -89473.255913 kJ/mol
# GULP energy per Si atom -5592.078495 kJ/mol
# Density = 2.471359 g / cm^3
# Si number density = 24.769972 Si / 1000 Ang^3
#
#
#
# Elastic Constant Matrix: (Units=GPa)
#
#
# Indices 1 2 3 4 5 6 
#
# 1 36.8844 21.0131 27.3427 5.8241 3.3340 -2.8901
# 2 21.0131 114.8856 47.4671 6.3229 20.1997 19.3910
# 3 27.3427 47.4671 196.5537 26.3105 11.9070 1.7194
# 4 5.8241 6.3229 26.3105 47.6925 -4.4408 2.3155
# 5 3.3340 20.1997 11.9070 -4.4408 34.6694 3.2657
# 6 -2.8901 19.3910 1.7194 2.3155 3.2657 19.7605
#
#
#
# Elastic Compliance Matrix: (Units=1/GPa)
#
#
# Indices 1 2 3 4 5 6 
#
# 1 0.034690 -0.007212 -0.002917 -0.002246 0.000393 0.012603
# 2 -0.007212 0.014146 -0.001992 0.000264 -0.005523 -0.013881
# 3 -0.002917 -0.001992 0.006462 -0.003144 -0.001327 0.001554
# 4 -0.002246 0.000264 -0.003144 0.023547 0.004518 -0.003820
# 5 0.000393 -0.005523 -0.001327 0.004518 0.033097 -0.000406
# 6 0.012603 -0.013881 0.001554 -0.003820 -0.000406 0.066451
#
#
# Mechanical properties :
#
#
# Convention : Reuss Voigt Hill
#
# Bulk Modulus (GPa) = 32.20178 59.99662 46.09920
# Shear Modulus (GPa) = 23.47547 37.25787 30.36667
#
# Velocity S-wave (km/s) = 3.08188 3.88255 3.50515
# Velocity P-wave (km/s) = 5.06878 6.66131 5.91885
#
# Compressibility (1/GPa) = 0.03105419
#
# Stress axis : x y z
#
# Youngs Moduli (GPa) = 28.82678 70.69073 154.74492
#
# Poissons Ratio (x) = 0.50985 0.45145
# Poissons Ratio (y) = 0.20791 0.30830
# Poissons Ratio (z) = 0.08410 0.14084
#
# Static dielectric constant tensor:
#      x y z
#    x 2.071270 -0.003820 -0.082250 
#    y -0.003820 2.066880 0.112690 
#    z -0.082250 0.112690 2.017950 
# 
# From -- ./inp_files/353566.got.cif
#   From: 2010.05.17/outbox.cif.g08.bks.cpg/sg2_177_cif.got.tgz:353566.got - 2010.06.03 11:33:40.
