data_PCOD9095361
_publ_section_title
;
Structure prediction by ZEFSAII (Michael W. Deem and Ramdas Pophale) SiO2 
 PCOD9095361
Probable space group: P -1
;
_chemical_formula_sum "Si O2"
_cell_formula_units_Z 15
_cell_length_a 6.976304
_cell_length_b 15.804175
_cell_length_c 22.027853
_cell_angle_alpha 157.636004
_cell_angle_beta 43.227555
_cell_angle_gamma 126.892352
_cell_volume 607.192971
_symmetry_space_group_name_H-M "P -1"
_symmetry_group_IT_number 2
_symmetry_cell_setting 'triclinic'
loop_
_space_group_symop_operation_xyz
x,y,z
-x,-y,-z
loop_
_atom_site_type_symbol
_atom_site_label
_atom_site_fract_x
_atom_site_fract_y
_atom_site_fract_z
Si Si1 0.000000 0.000000 0.000000
Si Si2 0.685041 0.546380 0.246663
Si Si3 0.391425 0.492267 0.148920
Si Si4 0.475583 0.951751 0.401823
Si Si5 0.584461 0.999486 0.802181
Si Si6 0.288233 0.577003 0.472185
Si Si7 0.141244 0.500834 0.644466
Si Si8 0.051891 0.080458 0.828674
O O1 0.262322 0.000057 0.893825
O O2 0.991862 0.737289 0.801473
O O3 0.563706 0.526562 0.193844
O O4 0.725345 0.802381 0.413493
O O5 0.434599 0.526427 0.338249
O O6 0.970651 0.330733 0.043940
O O7 0.066542 0.514765 0.261995
O O8 0.396664 0.711391 0.252629
O O9 0.553646 0.225768 0.916877
O O10 0.500000 0.000000 0.500000
O O11 0.774062 0.919632 0.274170
O O12 0.745527 0.039633 0.853365
O O13 0.775398 0.749847 0.570706
O O14 0.555749 0.456251 0.374151
O O15 0.000000 0.500000 0.500000
O O16 0.220750 0.855551 0.677888
#
# Coordination Sequence:
#
# PCOD9095361 Si02
#       8
#     1   2   2   2   2   2   2   2
#     4  10  22  36  54  80 106 144 188 234 284 328
#     4   9  20  38  58  84 119 150 191 236 275 336
#     4   9  20  36  60  88 112 146 189 235 284 331
#     4   9  17  33  59  89 116 145 188 236 283 332
#     4  10  20  35  57  83 112 143 187 238 283 333
#     4  11  24  39  57  82 113 154 192 231 285 341
#     4  11  22  37  58  81 112 146 187 237 284 335
#     4  10  21  37  58  86 116 151 190 233 284 337
#
# _framework density 24.703842999999999
#
# number of rings (size 3 to 8) (size 9 to 14) (size 15 to 20)
#    0.000    2.133    0.000    3.600    0.000   11.733 
#    0.000    2.667    0.000    4.800    0.000    0.000 
#    0.000    0.000    0.000    0.000    0.000    0.000 
#
# Total GULP energy -83549.048059 kJ/mol
# GULP energy per Si atom -5569.936537 kJ/mol
# Density = 2.464762 g / cm^3
# Si number density = 24.703843 Si / 1000 Ang^3
#
#
#
# Elastic Constant Matrix: (Units=GPa)
#
#
# Indices 1 2 3 4 5 6 
#
# 1 29.9202 -0.3688 -10.9666 1.2718 -2.6501 1.5262
# 2 -0.3688 121.5902 52.8659 22.8953 7.4458 -0.4875
# 3 -10.9666 52.8659 176.9638 37.7879 21.7789 -4.1916
# 4 1.2718 22.8953 37.7879 44.0194 12.1820 2.0601
# 5 -2.6501 7.4458 21.7789 12.1820 22.4541 1.0375
# 6 1.5262 -0.4875 -4.1916 2.0601 1.0375 17.7022
#
#
#
# Elastic Compliance Matrix: (Units=1/GPa)
#
#
# Indices 1 2 3 4 5 6 
#
# 1 0.035022 -0.000543 0.002641 -0.004010 0.004027 -0.002178
# 2 -0.000543 0.009819 -0.002356 -0.003278 0.000739 0.000098
# 3 0.002641 -0.002356 0.008120 -0.004739 -0.004325 0.002435
# 4 -0.004010 -0.003278 -0.004739 0.032119 -0.012035 -0.003899
# 5 0.004027 0.000739 -0.004325 -0.012035 0.055638 -0.003211
# 6 -0.002178 0.000098 0.002435 -0.003899 -0.003211 0.057899
#
#
# Mechanical properties :
#
#
# Convention : Reuss Voigt Hill
#
# Bulk Modulus (GPa) = 19.06650 45.72611 32.39631
# Shear Modulus (GPa) = 23.08249 35.96472 29.52361
#
# Velocity S-wave (km/s) = 3.06006 3.81968 3.46077
# Velocity P-wave (km/s) = 4.49667 6.16467 5.39552
#
# Compressibility (1/GPa) = 0.05244800
#
# Stress axis : x y z
#
# Youngs Moduli (GPa) = 28.55350 101.83961 123.15138
#
# Poissons Ratio (x) = 0.05525 -0.32529
# Poissons Ratio (y) = 0.01549 0.29009
# Poissons Ratio (z) = -0.07542 0.23989
#
# Static dielectric constant tensor:
#      x y z
#    x 2.114110 0.014930 -0.040630 
#    y 0.014930 2.000340 0.054120 
#    z -0.040630 0.054120 2.039850 
# 
# From -- ./inp_files/599272.got.cif
#   From: 2010.05.17/outbox.cif.g08.bks.cpg/sg2_300_cif.got.tgz:599272.got - 2010.06.03 11:33:40.
