data_PCOD9095623
_publ_section_title
;
Structure prediction by ZEFSAII (Michael W. Deem and Ramdas Pophale) SiO2 
 PCOD9095623
Probable space group: P -1
;
_chemical_formula_sum "Si O2"
_cell_formula_units_Z 14
_cell_length_a 8.756348
_cell_length_b 12.037074
_cell_length_c 9.074624
_cell_angle_alpha 67.581108
_cell_angle_beta 119.012831
_cell_angle_gamma 77.415077
_cell_volume 670.380016
_symmetry_space_group_name_H-M "P -1"
_symmetry_group_IT_number 2
_symmetry_cell_setting 'triclinic'
loop_
_space_group_symop_operation_xyz
x,y,z
-x,-y,-z
loop_
_atom_site_type_symbol
_atom_site_label
_atom_site_fract_x
_atom_site_fract_y
_atom_site_fract_z
Si Si1 0.312013 0.785048 0.529538
Si Si2 0.138708 0.802673 0.752736
Si Si3 0.725972 0.617109 0.663511
Si Si4 0.717792 0.864397 0.379014
Si Si5 0.870035 0.959031 0.165254
Si Si6 0.990280 0.328341 0.013478
Si Si7 0.702024 0.981168 0.776723
O O1 0.287074 0.766547 0.700970
O O2 0.506847 0.662779 0.604203
O O3 0.095568 0.829011 0.334763
O O4 0.325795 0.921238 0.423435
O O5 0.918733 0.848753 0.556976
O O6 0.162708 0.683535 0.936880
O O7 0.134118 0.925590 0.784737
O O8 0.709359 0.724153 0.475213
O O9 0.852500 0.642633 0.837521
O O10 0.859659 0.454014 0.778520
O O11 0.734332 0.900771 0.201002
O O12 0.517893 0.986272 0.296438
O O13 0.785394 0.025093 0.934806
O O14 0.132860 0.176560 0.092469
#
# Coordination Sequence:
#
# PCOD9095623 Si02
#       7
#     2   2   2   2   2   2   2
#     4  10  20  35  59  82 107 145 183 225 269 328
#     4  10  21  34  60  84 114 135 186 230 276 314
#     4   9  21  37  56  81 108 148 190 222 263 326
#     4   9  20  37  59  81 108 148 184 224 265 333
#     4  11  21  35  55  90 114 136 176 242 275 318
#     4  10  21  36  55  81 115 143 183 229 269 323
#     4  11  22  34  59  84 113 143 184 222 283 319
#
# _framework density 20.883676999999999
#
# number of rings (size 3 to 8) (size 9 to 14) (size 15 to 20)
#    0.000    2.000    1.429    2.571    6.000    2.286 
#    0.000    1.429    0.000    0.000    0.000    0.000 
#    0.000    0.000    0.000    0.000    0.000    0.000 
#
# Total GULP energy -78083.282747 kJ/mol
# GULP energy per Si atom -5577.377339 kJ/mol
# Density = 2.083615 g / cm^3
# Si number density = 20.883677 Si / 1000 Ang^3
#
#
#
# Elastic Constant Matrix: (Units=GPa)
#
#
# Indices 1 2 3 4 5 6 
#
# 1 126.7665 7.5357 23.1650 -15.2859 -10.5229 -14.1468
# 2 7.5357 26.5048 11.4946 -21.2153 0.2158 -4.9460
# 3 23.1650 11.4946 58.9847 -16.7379 -9.0897 2.5857
# 4 -15.2859 -21.2153 -16.7379 25.4657 -6.5665 10.0473
# 5 -10.5229 0.2158 -9.0897 -6.5665 22.2646 -1.3144
# 6 -14.1468 -4.9460 2.5857 10.0473 -1.3144 13.2359
#
#
#
# Elastic Compliance Matrix: (Units=1/GPa)
#
#
# Indices 1 2 3 4 5 6 
#
# 1 0.010461 0.008023 -0.001448 0.011517 0.008057 0.006520
# 2 0.008023 0.413644 0.142221 0.625839 0.223679 -0.317496
# 3 -0.001448 0.142221 0.085924 0.260374 0.100785 -0.152828
# 4 0.011517 0.625839 0.260374 1.064967 0.385832 -0.574786
# 5 0.008057 0.223679 0.100785 0.385832 0.189595 -0.201548
# 6 0.006520 -0.317496 -0.152828 -0.574786 -0.201548 0.410036
#
#
# Mechanical properties :
#
#
# Convention : Reuss Voigt Hill
#
# Bulk Modulus (GPa) = 1.23821 32.96073 17.09947
# Shear Modulus (GPa) = 2.32965 23.53062 12.93014
#
# Velocity S-wave (km/s) = 1.05734 3.36035 2.49097
# Velocity P-wave (km/s) = 1.44389 5.55636 4.05943
#
# Compressibility (1/GPa) = 0.80761994
#
# Stress axis : x y z
#
# Youngs Moduli (GPa) = 95.58986 2.41754 11.63826
#
# Poissons Ratio (x) = -0.01940 0.01685
# Poissons Ratio (y) = -0.76693 -1.65520
# Poissons Ratio (z) = 0.13843 -0.34382
#
# Static dielectric constant tensor:
#      x y z
#    x 1.814410 0.017390 -0.023490 
#    y 0.017390 1.754240 -0.005170 
#    z -0.023490 -0.005170 1.771860 
# 
# From -- ./inp_files/186029.got.cif
#   From: 2010.05.17/outbox.cif.g08.bks.cpg/sg2_94_cif.got.tgz:186029.got - 2010.06.03 11:33:40.
