data_PCOD9095702
_publ_section_title
;
Structure prediction by ZEFSAII (Michael W. Deem and Ramdas Pophale) SiO2 
 PCOD9095702
Probable space group: P -1
;
_chemical_formula_sum "Si O2"
_cell_formula_units_Z 16
_cell_length_a 8.380025
_cell_length_b 14.985488
_cell_length_c 11.146000
_cell_angle_alpha 60.328815
_cell_angle_beta 64.731867
_cell_angle_gamma 110.328457
_cell_volume 773.323001
_symmetry_space_group_name_H-M "P -1"
_symmetry_group_IT_number 2
_symmetry_cell_setting 'triclinic'
loop_
_space_group_symop_operation_xyz
x,y,z
-x,-y,-z
loop_
_atom_site_type_symbol
_atom_site_label
_atom_site_fract_x
_atom_site_fract_y
_atom_site_fract_z
Si Si1 0.507637 0.882007 0.553492
Si Si2 0.722568 0.864762 0.131345
Si Si3 0.490032 0.837582 0.847700
Si Si4 0.936721 0.970900 0.753403
Si Si5 0.654138 0.141876 0.631449
Si Si6 0.033548 0.600925 0.316139
Si Si7 0.097445 0.269205 0.554911
Si Si8 0.546608 0.423469 0.449643
O O1 0.406426 0.788997 0.769418
O O2 0.373470 0.810180 0.517617
O O3 0.500000 0.000000 0.500000
O O4 0.796837 0.970451 0.386891
O O5 0.524188 0.875102 0.203356
O O6 0.615602 0.733126 0.336433
O O7 0.768690 0.849707 0.991058
O O8 0.000000 0.000000 0.000000
O O9 0.764113 0.902535 0.737519
O O10 0.538217 0.979496 0.760883
O O11 0.298780 0.714196 0.088610
O O12 0.988936 0.108637 0.692204
O O13 0.944029 0.255411 0.502465
O O14 0.000000 0.500000 0.500000
O O15 0.991079 0.693790 0.332619
O O16 0.830771 0.509131 0.333474
O O17 0.400861 0.387046 0.395246
O O18 0.500000 0.500000 0.500000
#
# Coordination Sequence:
#
# PCOD9095702 Si02
#       8
#     2   2   2   2   2   2   2   2
#     4  10  21  36  55  86 120 153 191 245 301 348
#     4  12  20  34  60  90 116 149 196 249 296 346
#     4  10  22  36  58  86 119 156 193 240 297 353
#     4  11  20  35  60  88 116 147 197 252 294 347
#     4  10  20  35  59  88 119 147 195 247 295 344
#     4  11  22  38  58  85 123 156 192 236 297 362
#     4  10  20  36  58  86 113 151 191 245 297 337
#     4  10  22  34  51  84 123 155 185 232 296 355
#
# _framework density 20.689931000000001
#
# number of rings (size 3 to 8) (size 9 to 14) (size 15 to 20)
#    0.000    1.500    2.500    3.375    1.750    2.000 
#    0.000    0.000    0.000    8.250    0.000    0.000 
#    0.000    0.000    0.000    0.000    0.000    0.000 
#
# Total GULP energy -89133.268136 kJ/mol
# GULP energy per Si atom -5570.829259 kJ/mol
# Density = 2.064284 g / cm^3
# Si number density = 20.689931 Si / 1000 Ang^3
#
#
#
# Elastic Constant Matrix: (Units=GPa)
#
#
# Indices 1 2 3 4 5 6 
#
# 1 149.6027 32.6579 54.3229 3.4537 -19.3508 26.1005
# 2 32.6579 46.1205 33.7799 0.7119 -4.0332 9.3061
# 3 54.3229 33.7799 66.5904 10.9697 -8.3249 17.2519
# 4 3.4537 0.7119 10.9697 29.9610 10.1012 -5.2951
# 5 -19.3508 -4.0332 -8.3249 10.1012 21.5199 -1.4416
# 6 26.1005 9.3061 17.2519 -5.2951 -1.4416 46.3808
#
#
#
# Elastic Compliance Matrix: (Units=1/GPa)
#
#
# Indices 1 2 3 4 5 6 
#
# 1 0.010902 -0.002370 -0.005198 -0.002801 0.008409 -0.003784
# 2 -0.002370 0.036486 -0.019551 0.009333 -0.007095 0.002130
# 3 -0.005198 -0.019551 0.035970 -0.018113 0.013531 -0.008179
# 4 -0.002801 0.009333 -0.018113 0.052869 -0.031823 0.011488
# 5 0.008409 -0.007095 0.013531 -0.031823 0.072221 -0.009730
# 6 -0.003784 0.002130 -0.008179 0.011488 -0.009730 0.027314
#
#
# Mechanical properties :
#
#
# Convention : Reuss Voigt Hill
#
# Bulk Modulus (GPa) = 34.34214 55.98167 45.16190
# Shear Modulus (GPa) = 16.68293 29.00920 22.84607
#
# Velocity S-wave (km/s) = 2.84268 3.74851 3.32657
# Velocity P-wave (km/s) = 5.23535 6.77136 6.05228
#
# Compressibility (1/GPa) = 0.02911875
#
# Stress axis : x y z
#
# Youngs Moduli (GPa) = 91.72719 27.40752 27.80108
#
# Poissons Ratio (x) = 0.06496 0.14451
# Poissons Ratio (y) = 0.21742 0.54355
# Poissons Ratio (z) = 0.47679 0.53586
#
# Static dielectric constant tensor:
#      x y z
#    x 1.871430 0.084600 0.003770 
#    y 0.084600 1.641340 -0.041390 
#    z 0.003770 -0.041390 1.698480 
# 
# From -- ./inp_files/281626.got.cif
#   From: 2010.05.17/outbox.cif.g08.bks.cpg/sg2_141_cif.got.tgz:281626.got - 2010.06.03 11:33:40.
