data_PCOD9095376
_publ_section_title
;
Structure prediction by ZEFSAII (Michael W. Deem and Ramdas Pophale) SiO2 
 PCOD9095376
Probable space group: P -1
;
_chemical_formula_sum "Si O2"
_cell_formula_units_Z 16
_cell_length_a 7.718562
_cell_length_b 12.290742
_cell_length_c 8.758642
_cell_angle_alpha 83.995019
_cell_angle_beta 102.323482
_cell_angle_gamma 108.786343
_cell_volume 767.935099
_symmetry_space_group_name_H-M "P -1"
_symmetry_group_IT_number 2
_symmetry_cell_setting 'triclinic'
loop_
_space_group_symop_operation_xyz
x,y,z
-x,-y,-z
loop_
_atom_site_type_symbol
_atom_site_label
_atom_site_fract_x
_atom_site_fract_y
_atom_site_fract_z
Si Si1 0.930031 0.944480 0.742621
Si Si2 0.384875 0.443382 0.337035
Si Si3 0.531702 0.833127 0.114490
Si Si4 0.756838 0.426226 0.302878
Si Si5 0.387120 0.582169 0.030032
Si Si6 0.203782 0.936214 0.032230
Si Si7 0.060367 0.341088 0.508895
Si Si8 0.795965 0.863795 0.422601
O O1 0.783070 0.874322 0.600919
O O2 0.857301 0.030331 0.819741
O O3 0.097007 0.014196 0.652106
O O4 0.025657 0.884994 0.895821
O O5 0.500000 0.500000 0.500000
O O6 0.534487 0.389159 0.298067
O O7 0.342646 0.534541 0.199960
O O8 0.189936 0.367484 0.378242
O O9 0.510802 0.714147 0.044276
O O10 0.334429 0.856546 0.077372
O O11 0.604629 0.822473 0.300100
O O12 0.674056 0.941759 0.038431
O O13 0.850921 0.555071 0.369956
O O14 0.859690 0.347407 0.420183
O O15 0.774030 0.426895 0.122844
O O16 0.500000 0.500000 0.000000
O O17 0.083989 0.221409 0.583305
#
# Coordination Sequence:
#
# PCOD9095376 Si02
#       8
#     2   2   2   2   2   2   2   2
#     4   9  20  38  57  81 114 142 188 240 288 340
#     4   9  18  35  54  75 114 147 183 232 278 337
#     4  10  20  36  60  83 114 148 189 237 282 344
#     4   9  20  36  54  81 113 151 192 232 282 340
#     4  10  20  35  57  84 115 149 187 236 283 341
#     4   9  20  39  58  83 110 148 191 234 288 342
#     4  10  20  37  56  80 117 154 187 236 285 344
#     4  10  20  36  57  82 112 149 183 239 288 338
#
# _framework density 20.835094999999999
#
# number of rings (size 3 to 8) (size 9 to 14) (size 15 to 20)
#    0.000    2.500    0.000    2.250    1.750    3.000 
#    9.000    1.250    0.000    0.000    0.000    0.000 
#    0.000    0.000    0.000    0.000    0.000    0.000 
#
# Total GULP energy -89117.942390 kJ/mol
# GULP energy per Si atom -5569.871399 kJ/mol
# Density = 2.078767 g / cm^3
# Si number density = 20.835095 Si / 1000 Ang^3
#
#
#
# Elastic Constant Matrix: (Units=GPa)
#
#
# Indices 1 2 3 4 5 6 
#
# 1 57.0426 -0.0518 22.2770 2.5609 11.8711 -11.2514
# 2 -0.0518 50.7727 34.8502 4.5257 12.5925 -15.8291
# 3 22.2770 34.8502 146.0134 18.6834 10.4593 -11.5459
# 4 2.5609 4.5257 18.6834 21.7843 -3.7248 -1.6978
# 5 11.8711 12.5925 10.4593 -3.7248 25.7196 -6.6341
# 6 -11.2514 -15.8291 -11.5459 -1.6978 -6.6341 20.4059
#
#
#
# Elastic Compliance Matrix: (Units=1/GPa)
#
#
# Indices 1 2 3 4 5 6 
#
# 1 0.024642 0.010653 -0.003937 -0.002434 -0.011277 0.015754
# 2 0.010653 0.035913 -0.006809 -0.003259 -0.013716 0.025149
# 3 -0.003937 -0.006809 0.009769 -0.006791 -0.000489 -0.002649
# 4 -0.002434 -0.003259 -0.006791 0.055163 0.013823 0.001371
# 5 -0.011277 -0.013716 -0.000489 0.013823 0.053353 0.001361
# 6 0.015754 0.025149 -0.002649 0.001371 0.001361 0.076258
#
#
# Mechanical properties :
#
#
# Convention : Reuss Voigt Hill
#
# Bulk Modulus (GPa) = 14.25771 40.88661 27.57216
# Shear Modulus (GPa) = 17.94287 26.69885 22.32086
#
# Velocity S-wave (km/s) = 2.93778 3.58360 3.27664
# Velocity P-wave (km/s) = 4.28548 6.06543 5.25142
#
# Compressibility (1/GPa) = 0.07013751
#
# Stress axis : x y z
#
# Youngs Moduli (GPa) = 40.58182 27.84515 102.36492
#
# Poissons Ratio (x) = -0.29663 0.40303
# Poissons Ratio (y) = -0.43232 0.69698
# Poissons Ratio (z) = 0.15978 0.18959
#
# Static dielectric constant tensor:
#      x y z
#    x 1.762840 0.013950 -0.014800 
#    y 0.013950 1.778540 -0.005530 
#    z -0.014800 -0.005530 1.829300 
# 
# From -- ./inp_files/178096.got.cif
#   From: 2010.05.17/outbox.cif.g08.bks.cpg/sg2_90_cif.got.tgz:178096.got - 2010.06.03 11:33:40.
