data_PCOD9095518
_publ_section_title
;
Structure prediction by ZEFSAII (Michael W. Deem and Ramdas Pophale) SiO2 
 PCOD9095518
Probable space group: P -1
;
_chemical_formula_sum "Si O2"
_cell_formula_units_Z 16
_cell_length_a 9.921876
_cell_length_b 10.733909
_cell_length_c 8.143506
_cell_angle_alpha 115.790021
_cell_angle_beta 62.189212
_cell_angle_gamma 127.071650
_cell_volume 597.345922
_symmetry_space_group_name_H-M "P -1"
_symmetry_group_IT_number 2
_symmetry_cell_setting 'triclinic'
loop_
_space_group_symop_operation_xyz
x,y,z
-x,-y,-z
loop_
_atom_site_type_symbol
_atom_site_label
_atom_site_fract_x
_atom_site_fract_y
_atom_site_fract_z
Si Si1 0.079716 0.382997 0.581460
Si Si2 0.278821 0.990258 0.910379
Si Si3 0.449978 0.294263 0.774497
Si Si4 0.132684 0.688135 0.653469
Si Si5 0.764570 0.224449 0.880999
Si Si6 0.706810 0.949496 0.555547
Si Si7 0.759192 0.528726 0.943879
Si Si8 0.889777 0.892960 0.706966
O O1 0.923013 0.355982 0.528897
O O2 0.159795 0.289578 0.389967
O O3 0.196309 0.572856 0.628956
O O4 0.974726 0.297330 0.758625
O O5 0.297529 0.879913 0.977710
O O6 0.117478 0.011096 0.078572
O O7 0.246945 0.877325 0.708557
O O8 0.400369 0.171435 0.885225
O O9 0.425892 0.188573 0.567390
O O10 0.636868 0.440165 0.804625
O O11 0.319846 0.367134 0.875541
O O12 0.958496 0.640891 0.834635
O O13 0.747368 0.382068 0.973885
O O14 0.671246 0.090836 0.712755
O O15 0.737681 0.890621 0.679305
O O16 0.906471 0.018650 0.413051
#
# Coordination Sequence:
#
# PCOD9095518 Si02
#       8
#     2   2   2   2   2   2   2   2
#     4   9  18  33  54  82 116 143 177 227 283 330
#     4  11  21  34  60  89 110 141 189 233 274 325
#     4  11  23  38  57  82 112 151 191 225 269 332
#     4  10  20  35  58  85 111 145 187 231 276 328
#     4   9  20  37  57  84 115 144 181 233 282 326
#     4   9  18  33  55  81 107 140 183 226 273 324
#     4  10  23  39  56  79 117 153 183 225 278 331
#     4   9  17  31  53  82 112 137 173 232 281 318
#
# _framework density 26.785148
#
# number of rings (size 3 to 8) (size 9 to 14) (size 15 to 20)
#    0.000    2.250    0.000    3.750    0.000    5.500 
#    0.000    0.000    0.000   21.750    0.000    0.000 
#    0.000    0.000    0.000    0.000    0.000    0.000 
#
# Total GULP energy -89327.667673 kJ/mol
# GULP energy per Si atom -5582.979230 kJ/mol
# Density = 2.672418 g / cm^3
# Si number density = 26.785148 Si / 1000 Ang^3
#
#
#
# Elastic Constant Matrix: (Units=GPa)
#
#
# Indices 1 2 3 4 5 6 
#
# 1 71.0532 37.1986 26.3246 4.3708 -21.8931 -30.0313
# 2 37.1986 145.3074 31.9084 16.3748 -14.7770 -22.4278
# 3 26.3246 31.9084 90.3102 21.8250 -2.9719 -12.9780
# 4 4.3708 16.3748 21.8250 48.5145 -17.5961 -1.8725
# 5 -21.8931 -14.7770 -2.9719 -17.5961 45.2146 14.4329
# 6 -30.0313 -22.4278 -12.9780 -1.8725 14.4329 37.6936
#
#
#
# Elastic Compliance Matrix: (Units=1/GPa)
#
#
# Indices 1 2 3 4 5 6 
#
# 1 0.025849 -0.002950 -0.005348 0.004726 0.008589 0.013944
# 2 -0.002950 0.008475 -0.001343 -0.001988 -0.000229 0.002219
# 3 -0.005348 -0.001343 0.015093 -0.007851 -0.005709 0.001933
# 4 0.004726 -0.001988 -0.007851 0.029226 0.013752 -0.003934
# 5 0.008589 -0.000229 -0.005709 0.013752 0.033546 -0.007420
# 6 0.013944 0.002219 0.001933 -0.003934 -0.007420 0.042271
#
#
# Mechanical properties :
#
#
# Convention : Reuss Voigt Hill
#
# Bulk Modulus (GPa) = 33.18282 55.28157 44.23220
# Shear Modulus (GPa) = 27.20536 40.36715 33.78626
#
# Velocity S-wave (km/s) = 3.19044 3.88631 3.55544
# Velocity P-wave (km/s) = 5.09778 6.38918 5.77966
#
# Compressibility (1/GPa) = 0.03013607
#
# Stress axis : x y z
#
# Youngs Moduli (GPa) = 38.68615 117.99019 66.25370
#
# Poissons Ratio (x) = 0.34805 0.35434
# Poissons Ratio (y) = 0.11412 0.08897
# Poissons Ratio (z) = 0.20690 0.15844
#
# Static dielectric constant tensor:
#      x y z
#    x 2.186100 0.017230 0.056320 
#    y 0.017230 2.139520 -0.017030 
#    z 0.056320 -0.017030 2.134920 
# 
# From -- ./inp_files/260013.got.cif
#   From: 2010.05.17/outbox.cif.g08.bks.cpg/sg2_131_cif.got.tgz:260013.got - 2010.06.03 11:33:40.
