data_PCOD9095352
_publ_section_title
;
Structure prediction by ZEFSAII (Michael W. Deem and Ramdas Pophale) SiO2 
 PCOD9095352
Probable space group: P -1
;
_chemical_formula_sum "Si O2"
_cell_formula_units_Z 16
_cell_length_a 17.304183
_cell_length_b 8.728807
_cell_length_c 6.887929
_cell_angle_alpha 93.453050
_cell_angle_beta 115.105522
_cell_angle_gamma 106.157207
_cell_volume 885.670201
_symmetry_space_group_name_H-M "P -1"
_symmetry_group_IT_number 2
_symmetry_cell_setting 'triclinic'
loop_
_space_group_symop_operation_xyz
x,y,z
-x,-y,-z
loop_
_atom_site_type_symbol
_atom_site_label
_atom_site_fract_x
_atom_site_fract_y
_atom_site_fract_z
Si Si1 0.990289 0.811670 0.967272
Si Si2 0.481777 0.061625 0.191216
Si Si3 0.641392 0.128177 0.647150
Si Si4 0.357673 0.503400 0.315565
Si Si5 0.839035 0.287669 0.762781
Si Si6 0.486801 0.556748 0.777006
Si Si7 0.163279 0.417786 0.949647
Si Si8 0.920151 0.546941 0.531619
O O1 0.917116 0.722370 0.045004
O O2 0.084634 0.790757 0.124679
O O3 0.959037 0.705650 0.726077
O O4 0.000000 0.000000 0.000000
O O5 0.560920 0.038474 0.408171
O O6 0.494376 0.250879 0.201033
O O7 0.386507 0.964817 0.185883
O O8 0.500000 0.000000 0.000000
O O9 0.637285 0.309510 0.679996
O O10 0.739072 0.155556 0.660819
O O11 0.387978 0.474984 0.564210
O O12 0.436441 0.480482 0.268659
O O13 0.258634 0.404552 0.121260
O O14 0.865048 0.397924 0.604061
O O15 0.842341 0.415770 0.948517
O O16 0.500000 0.500000 0.000000
O O17 0.144860 0.423512 0.702165
O O18 0.000000 0.500000 0.500000
#
# Coordination Sequence:
#
# PCOD9095352 Si02
#       8
#     2   2   2   2   2   2   2   2
#     4  11  23  37  55  87 123 152 185 245 303 344
#     4  10  20  36  54  81 114 149 187 233 287 339
#     4   9  20  36  57  80 111 148 191 235 282 340
#     4   9  20  36  57  83 108 147 192 236 283 330
#     4  10  20  37  59  83 111 152 198 239 290 347
#     4  10  20  35  57  82 114 148 189 235 283 342
#     4  10  20  38  61  82 112 152 199 242 283 352
#     4  11  19  38  64  84 110 153 204 242 285 350
#
# _framework density 18.065415000000002
#
# number of rings (size 3 to 8) (size 9 to 14) (size 15 to 20)
#    0.000    2.000    2.500    1.500    0.000    8.500 
#    0.000    1.250    0.000    0.000    0.000    0.000 
#    0.000    0.000    0.000    0.000    0.000    0.000 
#
# Total GULP energy -89159.179245 kJ/mol
# GULP energy per Si atom -5572.448703 kJ/mol
# Density = 1.802430 g / cm^3
# Si number density = 18.065415 Si / 1000 Ang^3
#
#
#
# Elastic Constant Matrix: (Units=GPa)
#
#
# Indices 1 2 3 4 5 6 
#
# 1 124.6706 45.0199 70.6091 -6.0017 19.4022 12.3761
# 2 45.0199 49.3126 46.5654 -11.3248 11.0605 9.2840
# 3 70.6091 46.5654 143.1629 -20.9450 1.8324 8.1558
# 4 -6.0017 -11.3248 -20.9450 20.4699 -1.2517 -0.5585
# 5 19.4022 11.0605 1.8324 -1.2517 31.3257 -3.2858
# 6 12.3761 9.2840 8.1558 -0.5585 -3.2858 29.1689
#
#
#
# Elastic Compliance Matrix: (Units=1/GPa)
#
#
# Indices 1 2 3 4 5 6 
#
# 1 0.015038 -0.007780 -0.005495 -0.006024 -0.006828 -0.003252
# 2 -0.007780 0.040439 -0.006929 0.012192 -0.009455 -0.008464
# 3 -0.005495 -0.006929 0.012985 0.008230 0.005597 0.001694
# 4 -0.006024 0.012192 0.008230 0.062263 0.001191 -0.002300
# 5 -0.006828 -0.009455 0.005597 0.001191 0.040142 0.008886
# 6 -0.003252 -0.008464 0.001694 -0.002300 0.008886 0.038840
#
#
# Mechanical properties :
#
#
# Convention : Reuss Voigt Hill
#
# Bulk Modulus (GPa) = 35.64583 71.28165 53.46374
# Shear Modulus (GPa) = 19.27035 26.52302 22.89669
#
# Velocity S-wave (km/s) = 3.26958 3.83582 3.56396
# Velocity P-wave (km/s) = 5.83334 7.69163 6.82602
#
# Compressibility (1/GPa) = 0.02805377
#
# Stress axis : x y z
#
# Youngs Moduli (GPa) = 66.49734 24.72885 77.01180
#
# Poissons Ratio (x) = 0.19238 0.42319
# Poissons Ratio (y) = 0.51733 0.53363
# Poissons Ratio (z) = 0.36541 0.17135
#
# Static dielectric constant tensor:
#      x y z
#    x 1.625370 0.006130 0.016910 
#    y 0.006130 1.609910 0.008410 
#    z 0.016910 0.008410 1.660600 
# 
# From -- ./inp_files/105203.got.cif
#   From: 2010.05.17/outbox.cif.g08.bks.cpg/sg2_53_cif.got.tgz:105203.got - 2010.06.03 11:33:40.
