data_PCOD9095396
_publ_section_title
;
Structure prediction by ZEFSAII (Michael W. Deem and Ramdas Pophale) SiO2 
 PCOD9095396
Probable space group: P -1
;
_chemical_formula_sum "Si O2"
_cell_formula_units_Z 16
_cell_length_a 21.236507
_cell_length_b 8.925848
_cell_length_c 8.868667
_cell_angle_alpha 101.911575
_cell_angle_beta 31.349435
_cell_angle_gamma 100.342278
_cell_volume 855.747348
_symmetry_space_group_name_H-M "P -1"
_symmetry_group_IT_number 2
_symmetry_cell_setting 'triclinic'
loop_
_space_group_symop_operation_xyz
x,y,z
-x,-y,-z
loop_
_atom_site_type_symbol
_atom_site_label
_atom_site_fract_x
_atom_site_fract_y
_atom_site_fract_z
Si Si1 0.836324 0.476305 0.489340
Si Si2 0.042901 0.708417 0.059503
Si Si3 0.853045 0.894686 0.297405
Si Si4 0.751066 0.188469 0.738538
Si Si5 0.786720 0.036905 0.163190
Si Si6 0.359526 0.021443 0.836287
Si Si7 0.351995 0.284352 0.158418
Si Si8 0.429128 0.844064 0.161038
O O1 0.870560 0.394038 0.243828
O O2 0.825798 0.345344 0.609738
O O3 0.710059 0.563642 0.743833
O O4 0.943500 0.600552 0.320288
O O5 0.120381 0.823251 0.028102
O O6 0.968114 0.812685 0.115694
O O7 0.740666 0.784068 0.542653
O O8 0.825937 0.050747 0.477828
O O9 0.851882 0.928742 0.129814
O O10 0.638405 0.213430 0.861084
O O11 0.696074 0.125267 0.992310
O O12 0.673305 0.107629 0.500847
O O13 0.728203 0.956451 0.122286
O O14 0.500000 0.000000 0.500000
O O15 0.354388 0.161455 0.992451
O O16 0.481945 0.276993 0.969577
O O17 0.500000 0.000000 0.000000
#
# Coordination Sequence:
#
# PCOD9095396 Si02
#       8
#     2   2   2   2   2   2   2   2
#     4  10  21  37  58  80 119 143 185 233 284 333
#     4  10  20  37  60  86 109 146 190 241 272 320
#     4   9  18  34  61  84 107 141 195 236 269 315
#     4  10  20  35  57  86 111 152 185 229 283 326
#     4  11  19  32  60  88 106 142 194 232 277 324
#     4  11  21  36  59  82 117 147 186 232 276 332
#     4  10  20  35  57  85 115 149 177 233 288 329
#     4  11  16  33  57  84 110 137 191 238 273 321
#
# _framework density 18.697106000000002
#
# number of rings (size 3 to 8) (size 9 to 14) (size 15 to 20)
#    0.000    1.750    7.500    0.375    0.000    0.500 
#    0.000    6.875    8.250    0.000    0.000    0.000 
#    0.000    0.000    0.000    0.000    0.000    0.000 
#
# Total GULP energy -89222.266999 kJ/mol
# GULP energy per Si atom -5576.391687 kJ/mol
# Density = 1.865455 g / cm^3
# Si number density = 18.697106 Si / 1000 Ang^3
#
#
#
# Elastic Constant Matrix: (Units=GPa)
#
#
# Indices 1 2 3 4 5 6 
#
# 1 74.2688 11.7334 18.2927 -1.8636 -3.5840 0.7021
# 2 11.7334 89.6630 28.7045 -9.2331 -3.2133 -14.6560
# 3 18.2927 28.7045 52.3465 -8.8598 -6.2697 -8.9077
# 4 -1.8636 -9.2331 -8.8598 35.5065 -8.3619 -5.0895
# 5 -3.5840 -3.2133 -6.2697 -8.3619 22.9631 -4.2786
# 6 0.7021 -14.6560 -8.9077 -5.0895 -4.2786 19.3728
#
#
#
# Elastic Compliance Matrix: (Units=1/GPa)
#
#
# Indices 1 2 3 4 5 6 
#
# 1 0.015045 -0.001093 -0.005921 -0.001900 -0.001011 -0.004817
# 2 -0.001093 0.015543 -0.004370 0.005939 0.005307 0.012521
# 3 -0.005921 -0.004370 0.030178 0.011870 0.014202 0.017040
# 4 -0.001900 0.005939 0.011870 0.041993 0.023976 0.026347
# 5 -0.001011 0.005307 0.014202 0.023976 0.062456 0.030674
# 6 -0.004817 0.012521 0.017040 0.026347 0.030674 0.082797
#
#
# Mechanical properties :
#
#
# Convention : Reuss Voigt Hill
#
# Bulk Modulus (GPa) = 26.31576 37.08219 31.69897
# Shear Modulus (GPa) = 17.64003 26.07166 21.85584
#
# Velocity S-wave (km/s) = 3.07492 3.73825 3.42269
# Velocity P-wave (km/s) = 5.16838 6.20555 5.71056
#
# Compressibility (1/GPa) = 0.03800005
#
# Stress axis : x y z
#
# Youngs Moduli (GPa) = 66.46925 64.33664 33.13634
#
# Poissons Ratio (x) = 0.07029 0.19619
# Poissons Ratio (y) = 0.07262 0.14480
# Poissons Ratio (z) = 0.39354 0.28115
#
# Static dielectric constant tensor:
#      x y z
#    x 1.638090 -0.006100 -0.022220 
#    y -0.006100 1.687450 -0.027120 
#    z -0.022220 -0.027120 1.678460 
# 
# From -- ./inp_files/170586.got.cif
#   From: 2010.05.17/outbox.cif.g08.bks.cpg/sg2_86_cif.got.tgz:170586.got - 2010.06.03 11:33:40.
