data_PCOD9095143
_publ_section_title
;
Structure prediction by ZEFSAII (Michael W. Deem and Ramdas Pophale) SiO2 
 PCOD9095143
Probable space group: P -1
;
_chemical_formula_sum "Si O2"
_cell_formula_units_Z 14
_cell_length_a 9.468893
_cell_length_b 11.106327
_cell_length_c 8.962741
_cell_angle_alpha 78.159749
_cell_angle_beta 58.668462
_cell_angle_gamma 40.063694
_cell_volume 485.299007
_symmetry_space_group_name_H-M "P -1"
_symmetry_group_IT_number 2
_symmetry_cell_setting 'triclinic'
loop_
_space_group_symop_operation_xyz
x,y,z
-x,-y,-z
loop_
_atom_site_type_symbol
_atom_site_label
_atom_site_fract_x
_atom_site_fract_y
_atom_site_fract_z
Si Si1 0.197520 0.013475 0.044940
Si Si2 0.129280 0.367043 0.315488
Si Si3 0.193116 0.993129 0.710205
Si Si4 0.720613 0.460280 0.822191
Si Si5 0.138608 0.540883 0.853382
Si Si6 0.355792 0.620329 0.399041
Si Si7 0.271752 0.010270 0.339868
O O1 0.352119 0.944882 0.136725
O O2 0.022296 0.241689 0.068761
O O3 0.002375 0.011173 0.184232
O O4 0.301620 0.928876 0.837812
O O5 0.265969 0.409657 0.162117
O O6 0.293004 0.146136 0.311367
O O7 0.000000 0.500000 0.500000
O O8 0.910813 0.448024 0.297564
O O9 0.003610 0.225602 0.745522
O O10 0.358374 0.905588 0.483818
O O11 0.640336 0.496283 0.684776
O O12 0.500000 0.500000 0.000000
O O13 0.447450 0.386854 0.763107
O O14 0.000000 0.500000 0.000000
O O15 0.500000 0.500000 0.500000
O O16 0.046808 0.836821 0.526170
#
# Coordination Sequence:
#
# PCOD9095143 Si02
#       7
#     2   2   2   2   2   2   2
#     4  10  20  35  55  81 114 152 193 233 283 349
#     4  11  18  34  53  82 114 142 181 239 288 329
#     4  10  20  35  55  81 114 152 193 233 283 349
#     4  11  22  34  57  86 113 145 192 238 289 338
#     4  11  22  34  57  86 113 145 192 238 289 338
#     4  11  18  34  53  82 114 142 181 239 288 329
#     4  10  21  34  60  82 115 148 192 238 293 332
#
# _framework density 28.848193999999999
#
# number of rings (size 3 to 8) (size 9 to 14) (size 15 to 20)
#    0.000    1.429    5.714    3.000    0.000    0.000 
#    0.000    0.000    0.000   15.429    0.000   11.000 
#    0.000    0.000    0.000    0.000    0.000    0.000 
#
# Total GULP energy -78335.317307 kJ/mol
# GULP energy per Si atom -5595.379808 kJ/mol
# Density = 2.878253 g / cm^3
# Si number density = 28.848194 Si / 1000 Ang^3
#
#
#
# Elastic Constant Matrix: (Units=GPa)
#
#
# Indices 1 2 3 4 5 6 
#
# 1 195.1733 33.4820 76.3307 -6.1807 15.2509 44.0287
# 2 33.4820 123.1906 32.1704 -13.4114 6.4752 31.7274
# 3 76.3307 32.1704 197.2132 -20.1977 36.5909 28.9411
# 4 -6.1807 -13.4114 -20.1977 51.5593 18.6117 -7.0459
# 5 15.2509 6.4752 36.5909 18.6117 82.1555 3.0249
# 6 44.0287 31.7274 28.9411 -7.0459 3.0249 51.9551
#
#
#
# Elastic Compliance Matrix: (Units=1/GPa)
#
#
# Indices 1 2 3 4 5 6 
#
# 1 0.007016 -0.000215 -0.002036 -0.000643 -0.000057 -0.004763
# 2 -0.000215 0.009910 -0.000399 0.001959 -0.000811 -0.005334
# 3 -0.002036 -0.000399 0.007133 0.003537 -0.003520 -0.001319
# 4 -0.000643 0.001959 0.003537 0.023904 -0.007063 0.001031
# 5 -0.000057 -0.000811 -0.003520 -0.007063 0.015391 0.000650
# 6 -0.004763 -0.005334 -0.001319 0.001031 0.000650 0.027378
#
#
# Mechanical properties :
#
#
# Convention : Reuss Voigt Hill
#
# Bulk Modulus (GPa) = 53.31534 88.83813 71.07674
# Shear Modulus (GPa) = 48.88285 62.04024 55.46155
#
# Velocity S-wave (km/s) = 4.12088 4.64246 4.38942
# Velocity P-wave (km/s) = 6.41589 7.72001 7.09796
#
# Compressibility (1/GPa) = 0.01875633
#
# Stress axis : x y z
#
# Youngs Moduli (GPa) = 142.53732 100.90872 140.19542
#
# Poissons Ratio (x) = 0.02171 0.28551
# Poissons Ratio (y) = 0.03067 0.05600
# Poissons Ratio (z) = 0.29028 0.04031
#
# Static dielectric constant tensor:
#      x y z
#    x 2.169570 -0.004400 -0.023570 
#    y -0.004400 2.327180 0.012290 
#    z -0.023570 0.012290 2.460590 
# 
# From -- ./inp_files/177332.got.cif
#   From: 2010.05.17/outbox.cif.g08.bks.cpg/sg2_89_cif.got.tgz:177332.got - 2010.06.03 11:33:40.
