data_PCOD9095001
_publ_section_title
;
Structure prediction by ZEFSAII (Michael W. Deem and Ramdas Pophale) SiO2 
 PCOD9095001
Probable space group: P -1
;
_chemical_formula_sum "Si O2"
_cell_formula_units_Z 16
_cell_length_a 10.501191
_cell_length_b 13.559783
_cell_length_c 12.063732
_cell_angle_alpha 109.569469
_cell_angle_beta 135.285298
_cell_angle_gamma 49.301098
_cell_volume 889.343634
_symmetry_space_group_name_H-M "P -1"
_symmetry_group_IT_number 2
_symmetry_cell_setting 'triclinic'
loop_
_space_group_symop_operation_xyz
x,y,z
-x,-y,-z
loop_
_atom_site_type_symbol
_atom_site_label
_atom_site_fract_x
_atom_site_fract_y
_atom_site_fract_z
Si Si1 0.248677 0.648209 0.894900
Si Si2 0.038595 0.136646 0.791101
Si Si3 0.795889 0.281644 0.472867
Si Si4 0.155715 0.545836 0.598338
Si Si5 0.697052 0.175420 0.155627
Si Si6 0.715702 0.544098 0.765914
Si Si7 0.203029 0.299902 0.965879
Si Si8 0.304881 0.649965 0.171384
O O1 0.112376 0.627696 0.714631
O O2 0.261082 0.757290 0.889511
O O3 0.500000 0.500000 0.000000
O O4 0.169710 0.691000 0.987637
O O5 0.197188 0.178765 0.937928
O O6 0.969860 0.180567 0.636827
O O7 0.817296 0.232368 0.770287
O O8 0.158801 0.982594 0.822660
O O9 0.867676 0.363829 0.485819
O O10 0.758210 0.212435 0.323212
O O11 0.541319 0.376052 0.411320
O O12 0.428515 0.416745 0.710883
O O13 0.000000 0.500000 0.500000
O O14 0.424575 0.248238 0.012211
O O15 0.698617 0.467030 0.827340
O O16 0.951506 0.422636 0.806325
O O17 0.764542 0.641259 0.881517
#
# Coordination Sequence:
#
# PCOD9095001 Si02
#       8
#     2   2   2   2   2   2   2   2
#     4   9  18  35  55  71  96 132 168 211 259 298
#     4  11  21  32  50  76 108 140 168 203 250 313
#     4   9  19  34  52  74 104 139 168 204 261 307
#     4   9  18  33  55  79  97 124 174 221 250 289
#     4  10  20  35  52  73 104 138 171 207 252 309
#     4   8  16  32  51  74 104 130 161 211 257 297
#     4   9  17  30  50  76 101 127 168 211 249 290
#     4   9  19  33  49  75 104 133 168 205 259 305
#
# _framework density 17.990796
#
# number of rings (size 3 to 8) (size 9 to 14) (size 15 to 20)
#    0.000    2.750    0.000    3.000    0.000    8.000 
#    0.000    5.000    0.000    3.000    0.000    0.000 
#    0.000    0.000    0.000    0.000    0.000    0.000 
#
# Total GULP energy -89076.271007 kJ/mol
# GULP energy per Si atom -5567.266938 kJ/mol
# Density = 1.794985 g / cm^3
# Si number density = 17.990796 Si / 1000 Ang^3
#
#
#
# Elastic Constant Matrix: (Units=GPa)
#
#
# Indices 1 2 3 4 5 6 
#
# 1 73.1650 39.2729 50.0256 8.2858 11.9402 7.2389
# 2 39.2729 121.1458 38.9166 8.8379 4.5941 22.2863
# 3 50.0256 38.9166 56.5644 1.3529 1.0339 16.1882
# 4 8.2858 8.8379 1.3529 18.3753 6.7315 -1.2440
# 5 11.9402 4.5941 1.0339 6.7315 32.8553 7.7469
# 6 7.2389 22.2863 16.1882 -1.2440 7.7469 23.3514
#
#
#
# Elastic Compliance Matrix: (Units=1/GPa)
#
#
# Indices 1 2 3 4 5 6 
#
# 1 0.053903 -0.004978 -0.052795 -0.007337 -0.023267 0.031969
# 2 -0.004978 0.012543 -0.000875 -0.005969 0.004010 -0.011469
# 3 -0.052795 -0.000875 0.077128 0.005931 0.026193 -0.044640
# 4 -0.007337 -0.005969 0.005931 0.065670 -0.012883 0.011632
# 5 -0.023267 0.004010 0.026193 -0.012883 0.047508 -0.031219
# 6 0.031969 -0.011469 -0.044640 0.011632 -0.031219 0.085783
#
#
# Mechanical properties :
#
#
# Convention : Reuss Voigt Hill
#
# Bulk Modulus (GPa) = 38.05597 56.36726 47.21161
# Shear Modulus (GPa) = 10.67031 23.09374 16.88203
#
# Velocity S-wave (km/s) = 2.43800 3.58668 3.06661
# Velocity P-wave (km/s) = 5.39667 6.96790 6.23200
#
# Compressibility (1/GPa) = 0.02627709
#
# Stress axis : x y z
#
# Youngs Moduli (GPa) = 18.55199 79.72810 12.96542
#
# Poissons Ratio (x) = 0.39687 0.68451
# Poissons Ratio (y) = 0.09235 0.01135
# Poissons Ratio (z) = 0.97945 0.06978
#
# Static dielectric constant tensor:
#      x y z
#    x 1.637770 -0.022210 0.015580 
#    y -0.022210 1.626070 0.014230 
#    z 0.015580 0.014230 1.659510 
# 
# From -- ./inp_files/278222.got.cif
#   From: 2010.05.17/outbox.cif.g08.bks.cpg/sg2_140_cif.got.tgz:278222.got - 2010.06.03 11:33:40.
