data_PCOD9095746
_publ_section_title
;
Structure prediction by ZEFSAII (Michael W. Deem and Ramdas Pophale) SiO2 
 PCOD9095746
Probable space group: P -1
;
_chemical_formula_sum "Si O2"
_cell_formula_units_Z 15
_cell_length_a 8.377162
_cell_length_b 8.312893
_cell_length_c 11.333716
_cell_angle_alpha 94.336155
_cell_angle_beta 52.860706
_cell_angle_gamma 111.500385
_cell_volume 573.993489
_symmetry_space_group_name_H-M "P -1"
_symmetry_group_IT_number 2
_symmetry_cell_setting 'triclinic'
loop_
_space_group_symop_operation_xyz
x,y,z
-x,-y,-z
loop_
_atom_site_type_symbol
_atom_site_label
_atom_site_fract_x
_atom_site_fract_y
_atom_site_fract_z
Si Si1 0.500000 0.500000 0.500000
Si Si2 0.089206 0.710949 0.325766
Si Si3 0.201260 0.186658 0.406784
Si Si4 0.374761 0.792838 0.436525
Si Si5 0.689911 0.362701 0.210454
Si Si6 0.812532 0.092531 0.247300
Si Si7 0.225691 0.080900 0.148974
Si Si8 0.642936 0.390679 0.959681
O O1 0.438152 0.657205 0.476146
O O2 0.668142 0.509390 0.311590
O O3 0.206629 0.720579 0.399415
O O4 0.842357 0.683801 0.473541
O O5 0.175555 0.896007 0.225773
O O6 0.148622 0.577719 0.213444
O O7 0.442888 0.205144 0.325979
O O8 0.207810 0.214845 0.266474
O O9 0.000000 0.000000 0.500000
O O10 0.264041 0.881761 0.583894
O O11 0.601925 0.928289 0.287398
O O12 0.845644 0.268727 0.172574
O O13 0.710564 0.409939 0.066795
O O14 0.029250 0.056554 0.148756
O O15 0.469258 0.187872 0.001652
O O16 0.500000 0.500000 0.000000
#
# Coordination Sequence:
#
# PCOD9095746 Si02
#       8
#     1   2   2   2   2   2   2   2
#     4  10  22  36  60  90 126 158 202 242 316 370
#     4  11  21  38  65  92 119 160 215 252 305 362
#     4   9  18  34  64  95 118 149 209 263 292 352
#     4  10  20  35  59  91 126 160 194 255 312 357
#     4  10  22  42  63  89 126 162 203 256 311 365
#     4  10  20  36  65  90 123 157 205 259 309 352
#     4  10  21  38  64  95 120 156 214 260 298 362
#     4  11  24  44  61  84 126 169 202 254 314 372
#
# _framework density 26.132701000000001
#
# number of rings (size 3 to 8) (size 9 to 14) (size 15 to 20)
#    0.000    1.867    1.333    3.600    9.333    0.000 
#    4.800    5.333    0.000    0.000    0.000    0.000 
#    0.000    0.000    0.000    0.000    0.000    0.000 
#
# Total GULP energy -83692.681592 kJ/mol
# GULP energy per Si atom -5579.512106 kJ/mol
# Density = 2.607322 g / cm^3
# Si number density = 26.132701 Si / 1000 Ang^3
#
#
#
# Elastic Constant Matrix: (Units=GPa)
#
#
# Indices 1 2 3 4 5 6 
#
# 1 79.8493 11.8425 29.0640 -3.1337 10.6990 -30.5313
# 2 11.8425 65.6188 12.5773 -3.5040 -4.3191 -14.2681
# 3 29.0640 12.5773 95.6656 20.4950 -2.2299 -15.8913
# 4 -3.1337 -3.5040 20.4950 39.8762 4.5713 -8.2516
# 5 10.6990 -4.3191 -2.2299 4.5713 47.1763 -1.7391
# 6 -30.5313 -14.2681 -15.8913 -8.2516 -1.7391 47.5154
#
#
#
# Elastic Compliance Matrix: (Units=1/GPa)
#
#
# Indices 1 2 3 4 5 6 
#
# 1 0.020386 0.000226 -0.005974 0.007841 -0.005190 0.012341
# 2 0.000226 0.017018 -0.002178 0.003564 0.001250 0.005192
# 3 -0.005974 -0.002178 0.014256 -0.008517 0.002614 -0.001108
# 4 0.007841 0.003564 -0.008517 0.032739 -0.004704 0.008773
# 5 -0.005190 0.001250 0.002614 -0.004704 0.022992 -0.002061
# 6 0.012341 0.005192 -0.001108 0.008773 -0.002061 0.031612
#
#
# Mechanical properties :
#
#
# Convention : Reuss Voigt Hill
#
# Bulk Modulus (GPa) = 27.92643 38.67791 33.30217
# Shear Modulus (GPa) = 29.97772 39.42357 34.70065
#
# Velocity S-wave (km/s) = 3.39061 3.88827 3.64794
# Velocity P-wave (km/s) = 5.10274 5.91531 5.52399
#
# Compressibility (1/GPa) = 0.03580837
#
# Stress axis : x y z
#
# Youngs Moduli (GPa) = 49.05232 58.76271 70.14667
#
# Poissons Ratio (x) = -0.01330 0.41906
# Poissons Ratio (y) = -0.01111 0.15278
# Poissons Ratio (z) = 0.29304 0.12799
#
# Static dielectric constant tensor:
#      x y z
#    x 1.949940 0.068490 -0.056190 
#    y 0.068490 2.149660 0.015360 
#    z -0.056190 0.015360 2.063020 
# 
# From -- ./inp_files/273588.got.cif
#   From: 2010.05.17/outbox.cif.g08.bks.cpg/sg2_137_cif.got.tgz:273588.got - 2010.06.03 11:33:40.
