data_PCOD9095310
_publ_section_title
;
Structure prediction by ZEFSAII (Michael W. Deem and Ramdas Pophale) SiO2 
 PCOD9095310
Probable space group: P -1
;
_chemical_formula_sum "Si O2"
_cell_formula_units_Z 14
_cell_length_a 12.516802
_cell_length_b 20.197409
_cell_length_c 5.408736
_cell_angle_alpha 94.625815
_cell_angle_beta 92.175341
_cell_angle_gamma 149.613809
_cell_volume 673.535048
_symmetry_space_group_name_H-M "P -1"
_symmetry_group_IT_number 2
_symmetry_cell_setting 'triclinic'
loop_
_space_group_symop_operation_xyz
x,y,z
-x,-y,-z
loop_
_atom_site_type_symbol
_atom_site_label
_atom_site_fract_x
_atom_site_fract_y
_atom_site_fract_z
Si Si1 0.714060 0.573953 0.083669
Si Si2 0.564554 0.971065 0.157643
Si Si3 0.014565 0.273540 0.354738
Si Si4 0.544543 0.272573 0.538685
Si Si5 0.212397 0.733352 0.404711
Si Si6 0.511174 0.791976 0.973154
Si Si7 0.196121 0.519198 0.018477
O O1 0.167584 0.343149 0.625338
O O2 0.667508 0.469946 0.062815
O O3 0.500000 0.500000 0.000000
O O4 0.866169 0.663047 0.879819
O O5 0.406699 0.881138 0.351544
O O6 0.528933 0.880690 0.993827
O O7 0.185324 0.885041 0.711716
O O8 0.500000 0.000000 0.000000
O O9 0.907128 0.287729 0.406582
O O10 0.685748 0.281665 0.517194
O O11 0.405496 0.200164 0.258745
O O12 0.402175 0.183856 0.744452
O O13 0.719152 0.422646 0.676794
O O14 0.042091 0.626932 0.136514
O O15 0.271019 0.628618 0.930444
#
# Coordination Sequence:
#
# PCOD9095310 Si02
#       7
#     2   2   2   2   2   2   2
#     4  11  25  45  68  87 109 153 210 274 316 335
#     4  11  21  37  57  90 135 173 195 221 290 377
#     4  11  24  40  62  91 124 158 201 249 296 369
#     4   9  19  32  50  84 120 157 188 228 285 350
#     4  10  20  35  56  90 127 166 189 231 288 368
#     4   9  21  33  53  81 119 162 195 231 278 343
#     4   9  21  36  58  86 120 150 204 247 290 346
#
# _framework density 20.785851000000001
#
# number of rings (size 3 to 8) (size 9 to 14) (size 15 to 20)
#    0.857    1.143    0.000    3.857    4.000    6.286 
#    0.000    0.000    0.000    1.714    0.000    0.000 
#    0.000    0.000    0.000    0.000    0.000    0.000 
#
# Total GULP energy -77978.228285 kJ/mol
# GULP energy per Si atom -5569.873449 kJ/mol
# Density = 2.073854 g / cm^3
# Si number density = 20.785851 Si / 1000 Ang^3
#
#
#
# Elastic Constant Matrix: (Units=GPa)
#
#
# Indices 1 2 3 4 5 6 
#
# 1 61.6201 40.5223 11.2963 12.1801 -2.0997 -3.0461
# 2 40.5223 95.4279 36.2657 12.0500 -4.7528 -26.5671
# 3 11.2963 36.2657 142.8797 7.6974 8.7205 -8.7552
# 4 12.1801 12.0500 7.6974 39.1506 -6.7200 -3.4585
# 5 -2.0997 -4.7528 8.7205 -6.7200 21.7643 4.0397
# 6 -3.0461 -26.5671 -8.7552 -3.4585 4.0397 21.7305
#
#
#
# Elastic Compliance Matrix: (Units=1/GPa)
#
#
# Indices 1 2 3 4 5 6 
#
# 1 0.026246 -0.015166 0.001111 -0.005054 0.000041 -0.015227
# 2 -0.015166 0.026283 -0.003761 -0.000037 0.000502 0.028392
# 3 0.001111 -0.003761 0.008183 -0.001600 -0.004378 -0.000586
# 4 -0.005054 -0.000037 -0.001600 0.029098 0.008835 0.001590
# 5 0.000041 0.000502 -0.004378 0.008835 0.052299 -0.009461
# 6 -0.015227 0.028392 -0.000586 0.001590 -0.009461 0.080371
#
#
# Mechanical properties :
#
#
# Convention : Reuss Voigt Hill
#
# Bulk Modulus (GPa) = 39.87270 52.89957 46.38613
# Shear Modulus (GPa) = 18.76376 30.65197 24.70787
#
# Velocity S-wave (km/s) = 3.00779 3.84429 3.45147
# Velocity P-wave (km/s) = 5.59345 6.72382 6.18451
#
# Compressibility (1/GPa) = 0.02507982
#
# Stress axis : x y z
#
# Youngs Moduli (GPa) = 38.10093 38.04794 122.20236
#
# Poissons Ratio (x) = 0.57705 -0.13579
# Poissons Ratio (y) = 0.57785 0.45958
# Poissons Ratio (z) = -0.04234 0.14309
#
# Static dielectric constant tensor:
#      x y z
#    x 1.739600 -0.036920 0.041080 
#    y -0.036920 1.745990 -0.024010 
#    z 0.041080 -0.024010 1.909720 
# 
# From -- ./inp_files/82776.got.cif
#   From: 2010.05.17/outbox.cif.g08.bks.cpg/sg2_42_cif.got.tgz:82776.got - 2010.06.03 11:33:40.
