data_PCOD9095327
_publ_section_title
;
Structure prediction by ZEFSAII (Michael W. Deem and Ramdas Pophale) SiO2 
 PCOD9095327
Probable space group: P -1
;
_chemical_formula_sum "Si O2"
_cell_formula_units_Z 16
_cell_length_a 13.884062
_cell_length_b 10.877758
_cell_length_c 12.984532
_cell_angle_alpha 32.792554
_cell_angle_beta 124.981124
_cell_angle_gamma 141.285270
_cell_volume 644.215046
_symmetry_space_group_name_H-M "P -1"
_symmetry_group_IT_number 2
_symmetry_cell_setting 'triclinic'
loop_
_space_group_symop_operation_xyz
x,y,z
-x,-y,-z
loop_
_atom_site_type_symbol
_atom_site_label
_atom_site_fract_x
_atom_site_fract_y
_atom_site_fract_z
Si Si1 0.978425 0.194135 0.569308
Si Si2 0.382153 0.560502 0.824683
Si Si3 0.699037 0.106020 0.539699
Si Si4 0.776046 0.350952 0.746619
Si Si5 0.523361 0.604557 0.613184
Si Si6 0.515518 0.285656 0.011145
Si Si7 0.840196 0.013605 0.172286
Si Si8 0.802388 0.897692 0.452050
O O1 0.858274 0.167877 0.588988
O O2 0.134000 0.536196 0.387762
O O3 0.035074 0.018236 0.760900
O O4 0.889848 0.061017 0.497735
O O5 0.274862 0.593778 0.671864
O O6 0.351986 0.536069 0.944921
O O7 0.567506 0.882327 0.701859
O O8 0.393505 0.328386 0.944484
O O9 0.593238 0.894672 0.523052
O O10 0.807101 0.635986 0.615137
O O11 0.588121 0.071959 0.811230
O O12 0.829444 0.215431 0.949582
O O13 0.334696 0.334431 0.682371
O O14 0.622828 0.738273 0.476714
O O15 0.574298 0.446902 0.823068
O O16 0.870085 0.109630 0.243409
#
# Coordination Sequence:
#
# PCOD9095327 Si02
#       8
#     2   2   2   2   2   2   2   2
#     4  10  22  39  54  84 116 147 187 225 271 345
#     4   9  18  37  61  80 108 142 184 236 284 321
#     4   9  19  37  60  81 108 145 185 228 283 332
#     4  10  21  37  57  81 118 151 182 225 282 326
#     4   9  19  36  56  86 111 141 189 232 271 329
#     4   9  19  35  57  84 111 138 184 236 278 328
#     4  10  20  35  57  79 119 150 181 227 276 321
#     4  10  21  37  56  83 118 145 193 227 263 335
#
# _framework density 24.836427
#
# number of rings (size 3 to 8) (size 9 to 14) (size 15 to 20)
#    0.000    2.500    0.000    1.875    3.500    4.000 
#   13.500    1.250    0.000    0.000    0.000    0.000 
#    0.000    0.000    0.000    0.000    0.000    0.000 
#
# Total GULP energy -89378.037304 kJ/mol
# GULP energy per Si atom -5586.127331 kJ/mol
# Density = 2.477990 g / cm^3
# Si number density = 24.836427 Si / 1000 Ang^3
#
#
#
# Elastic Constant Matrix: (Units=GPa)
#
#
# Indices 1 2 3 4 5 6 
#
# 1 96.5215 -7.0023 20.0345 12.6054 -0.2441 21.7603
# 2 -7.0023 56.5762 -6.3994 2.3110 -1.1634 -3.3326
# 3 20.0345 -6.3994 92.1995 18.2581 4.2688 4.1199
# 4 12.6054 2.3110 18.2581 36.7654 5.3880 1.4872
# 5 -0.2441 -1.1634 4.2688 5.3880 20.1668 6.6513
# 6 21.7603 -3.3326 4.1199 1.4872 6.6513 25.9474
#
#
#
# Elastic Compliance Matrix: (Units=1/GPa)
#
#
# Indices 1 2 3 4 5 6 
#
# 1 0.014323 0.001109 -0.001865 -0.004421 0.006059 -0.012873
# 2 0.001109 0.018153 0.001401 -0.002415 0.001065 0.001045
# 3 -0.001865 0.001401 0.012473 -0.005476 -0.001250 0.000398
# 4 -0.004421 -0.002415 -0.005476 0.032766 -0.009368 0.004791
# 5 0.006059 0.001065 -0.001250 -0.009368 0.058852 -0.019295
# 6 -0.012873 0.001045 0.000398 0.004791 -0.019295 0.054078
#
#
# Mechanical properties :
#
#
# Convention : Reuss Voigt Hill
#
# Bulk Modulus (GPa) = 21.62678 28.72921 25.17799
# Shear Modulus (GPa) = 24.41793 32.48687 28.45240
#
# Velocity S-wave (km/s) = 3.13892 3.62060 3.38833
# Velocity P-wave (km/s) = 4.67586 5.39173 5.04651
#
# Compressibility (1/GPa) = 0.04623897
#
# Stress axis : x y z
#
# Youngs Moduli (GPa) = 69.81880 55.08700 80.17293
#
# Poissons Ratio (x) = -0.06107 0.14953
# Poissons Ratio (y) = -0.07741 -0.11236
# Poissons Ratio (z) = 0.13022 -0.07720
#
# Static dielectric constant tensor:
#      x y z
#    x 1.986320 0.004940 -0.034490 
#    y 0.004940 2.067390 0.023030 
#    z -0.034490 0.023030 2.019480 
# 
# From -- ./inp_files/532278.got.cif
#   From: 2010.05.17/outbox.cif.g08.bks.cpg/sg2_267_cif.got.tgz:532278.got - 2010.06.03 11:33:40.
