data_PCOD9095523
_publ_section_title
;
Structure prediction by ZEFSAII (Michael W. Deem and Ramdas Pophale) SiO2 
 PCOD9095523
Probable space group: P -1
;
_chemical_formula_sum "Si O2"
_cell_formula_units_Z 16
_cell_length_a 6.890807
_cell_length_b 18.278909
_cell_length_c 7.897076
_cell_angle_alpha 128.135589
_cell_angle_beta 118.258546
_cell_angle_gamma 60.491391
_cell_volume 659.734827
_symmetry_space_group_name_H-M "P -1"
_symmetry_group_IT_number 2
_symmetry_cell_setting 'triclinic'
loop_
_space_group_symop_operation_xyz
x,y,z
-x,-y,-z
loop_
_atom_site_type_symbol
_atom_site_label
_atom_site_fract_x
_atom_site_fract_y
_atom_site_fract_z
Si Si1 0.759438 0.801071 0.579888
Si Si2 0.073158 0.404136 0.560394
Si Si3 0.273158 0.520881 0.050510
Si Si4 0.448330 0.159653 0.092121
Si Si5 0.630249 0.389800 0.245858
Si Si6 0.771797 0.003120 0.812442
Si Si7 0.569027 0.198304 0.842331
Si Si8 0.409387 0.672602 0.488067
O O1 0.944848 0.696739 0.505527
O O2 0.721444 0.830080 0.804750
O O3 0.545384 0.784887 0.363883
O O4 0.791110 0.892914 0.622471
O O5 0.326949 0.364730 0.526519
O O6 0.852598 0.430756 0.383842
O O7 0.087513 0.482276 0.819587
O O8 0.391772 0.449200 0.148115
O O9 0.239382 0.632929 0.244154
O O10 0.500000 0.500000 0.000000
O O11 0.628704 0.214522 0.320979
O O12 0.564064 0.049782 0.924797
O O13 0.396964 0.209689 0.953977
O O14 0.578797 0.383167 0.411063
O O15 0.693928 0.280926 0.040928
O O16 0.722043 0.086336 0.767060
O O17 0.000000 0.000000 0.000000
#
# Coordination Sequence:
#
# PCOD9095523 Si02
#       8
#     2   2   2   2   2   2   2   2
#     4  11  18  37  63  81 117 162 192 244 302 348
#     4  10  22  37  63  88 116 162 198 240 306 351
#     4  10  21  38  61  88 118 156 200 243 298 361
#     4   8  20  35  58  83 113 152 196 239 299 349
#     4  11  20  40  61  83 124 156 197 250 297 354
#     4  10  20  35  58  85 117 151 196 245 294 357
#     4   9  20  35  60  84 116 156 195 243 298 352
#     4   9  20  38  59  85 121 152 196 249 292 352
#
# _framework density 24.252168000000001
#
# number of rings (size 3 to 8) (size 9 to 14) (size 15 to 20)
#    0.750    1.500    1.250    1.875    0.000    2.500 
#    0.000    3.125    8.250    0.000    0.000    0.000 
#    0.000    0.000    0.000    0.000    0.000    0.000 
#
# Total GULP energy -89108.760001 kJ/mol
# GULP energy per Si atom -5569.297500 kJ/mol
# Density = 2.419697 g / cm^3
# Si number density = 24.252168 Si / 1000 Ang^3
#
#
#
# Elastic Constant Matrix: (Units=GPa)
#
#
# Indices 1 2 3 4 5 6 
#
# 1 70.4555 7.0513 17.4032 -14.4050 -2.5678 -8.3800
# 2 7.0513 86.0460 19.4150 1.7754 9.0893 3.3122
# 3 17.4032 19.4150 101.3495 5.6319 19.6989 1.6150
# 4 -14.4050 1.7754 5.6319 50.9069 7.8067 3.5526
# 5 -2.5678 9.0893 19.6989 7.8067 36.6065 -0.9434
# 6 -8.3800 3.3122 1.6150 3.5526 -0.9434 20.4701
#
#
#
# Elastic Compliance Matrix: (Units=1/GPa)
#
#
# Indices 1 2 3 4 5 6 
#
# 1 0.016989 -0.001223 -0.003549 0.004362 0.002650 0.006798
# 2 -0.001223 0.012443 -0.001679 -0.000065 -0.002322 -0.002477
# 3 -0.003549 -0.001679 0.012093 -0.001187 -0.006144 -0.002212
# 4 0.004362 -0.000065 -0.001187 0.021726 -0.003725 -0.002052
# 5 0.002650 -0.002322 -0.006144 -0.003725 0.032285 0.004080
# 6 0.006798 -0.002477 -0.002212 -0.002052 0.004080 0.052754
#
#
# Mechanical properties :
#
#
# Convention : Reuss Voigt Hill
#
# Bulk Modulus (GPa) = 34.93699 38.39889 36.66794
# Shear Modulus (GPa) = 29.28526 35.86215 32.57370
#
# Velocity S-wave (km/s) = 3.47873 3.84958 3.66884
# Velocity P-wave (km/s) = 5.52923 5.96880 5.75322
#
# Compressibility (1/GPa) = 0.02862296
#
# Stress axis : x y z
#
# Youngs Moduli (GPa) = 58.86054 80.36801 82.69092
#
# Poissons Ratio (x) = 0.09830 0.29345
# Poissons Ratio (y) = 0.07199 0.13886
# Poissons Ratio (z) = 0.20889 0.13496
#
# Static dielectric constant tensor:
#      x y z
#    x 2.023360 0.059340 0.006850 
#    y 0.059340 2.050860 0.015350 
#    z 0.006850 0.015350 2.034050 
# 
# From -- ./inp_files/221214.got.cif
#   From: 2010.05.17/outbox.cif.g08.bks.cpg/sg2_111_cif.got.tgz:221214.got - 2010.06.03 11:33:40.
