data_PCOD9095319
_publ_section_title
;
Structure prediction by ZEFSAII (Michael W. Deem and Ramdas Pophale) SiO2 
 PCOD9095319
Probable space group: P -1
;
_chemical_formula_sum "Si O2"
_cell_formula_units_Z 14
_cell_length_a 18.111486
_cell_length_b 11.158167
_cell_length_c 12.690809
_cell_angle_alpha 58.483281
_cell_angle_beta 146.239598
_cell_angle_gamma 142.847781
_cell_volume 782.436453
_symmetry_space_group_name_H-M "P -1"
_symmetry_group_IT_number 2
_symmetry_cell_setting 'triclinic'
loop_
_space_group_symop_operation_xyz
x,y,z
-x,-y,-z
loop_
_atom_site_type_symbol
_atom_site_label
_atom_site_fract_x
_atom_site_fract_y
_atom_site_fract_z
Si Si1 0.069721 0.745346 0.867212
Si Si2 0.541837 0.760343 0.898531
Si Si3 0.929760 0.580247 0.013674
Si Si4 0.645483 0.484577 0.416191
Si Si5 0.501509 0.665740 0.453902
Si Si6 0.042871 0.896315 0.171314
Si Si7 0.333541 0.417430 0.971575
O O1 0.039329 0.560949 0.878727
O O2 0.297375 0.987119 0.006324
O O3 0.026635 0.710850 0.957659
O O4 0.889572 0.690546 0.624970
O O5 0.419184 0.672535 0.683004
O O6 0.387366 0.596717 0.884447
O O7 0.674537 0.723767 0.052057
O O8 0.684854 0.413361 0.793498
O O9 0.026987 0.749380 0.144132
O O10 0.553035 0.361411 0.474529
O O11 0.529610 0.534269 0.223572
O O12 0.500000 0.500000 0.500000
O O13 0.731704 0.907578 0.600889
O O14 0.866624 0.742255 0.120855
O O15 0.000000 0.000000 0.000000
#
# Coordination Sequence:
#
# PCOD9095319 Si02
#       7
#     2   2   2   2   2   2   2
#     4  10  20  35  57  74 112 142 173 217 257 317
#     4   9  19  37  52  79 109 138 177 219 256 310
#     4  10  22  35  51  87 104 137 181 211 267 320
#     4   9  18  33  53  80 104 137 177 212 260 317
#     4  11  20  31  55  83 106 135 173 218 274 313
#     4  12  19  35  57  76 111 137 163 229 270 302
#     4   9  19  35  55  82 105 135 179 218 263 310
#
# _framework density 17.892827
#
# number of rings (size 3 to 8) (size 9 to 14) (size 15 to 20)
#    0.857    1.143    2.857    1.714    2.000    1.714 
#    0.000    5.000    0.000    1.714    0.000    0.000 
#    0.000    0.000    0.000    0.000    0.000    0.000 
#
# Total GULP energy -78009.772987 kJ/mol
# GULP energy per Si atom -5572.126642 kJ/mol
# Density = 1.785210 g / cm^3
# Si number density = 17.892827 Si / 1000 Ang^3
#
#
#
# Elastic Constant Matrix: (Units=GPa)
#
#
# Indices 1 2 3 4 5 6 
#
# 1 74.4036 37.5241 19.0617 17.2615 1.2925 10.7682
# 2 37.5241 71.8706 27.6304 24.5750 -8.1359 15.5270
# 3 19.0617 27.6304 69.1760 18.8927 -2.6276 6.9419
# 4 17.2615 24.5750 18.8927 19.9999 -5.5955 1.8348
# 5 1.2925 -8.1359 -2.6276 -5.5955 14.8304 4.0684
# 6 10.7682 15.5270 6.9419 1.8348 4.0684 22.3801
#
#
#
# Elastic Compliance Matrix: (Units=1/GPa)
#
#
# Indices 1 2 3 4 5 6 
#
# 1 0.020135 -0.007584 0.000253 -0.010753 -0.009403 -0.001914
# 2 -0.007584 0.033740 -0.001220 -0.028130 0.013709 -0.019567
# 3 0.000253 -0.001220 0.020083 -0.018230 -0.003064 -0.003453
# 4 -0.010753 -0.028130 -0.018230 0.115422 0.021150 0.017038
# 5 -0.009403 0.013709 -0.003064 0.021150 0.089240 -0.021993
# 6 -0.001914 -0.019567 -0.003453 0.017038 -0.021993 0.062851
#
#
# Mechanical properties :
#
#
# Convention : Reuss Voigt Hill
#
# Bulk Modulus (GPa) = 17.58835 42.65363 30.12099
# Shear Modulus (GPa) = 13.24415 20.19101 16.71758
#
# Velocity S-wave (km/s) = 2.72360 3.36287 3.05998
# Velocity P-wave (km/s) = 4.44318 6.24249 5.41805
#
# Compressibility (1/GPa) = 0.05685583
#
# Stress axis : x y z
#
# Youngs Moduli (GPa) = 49.66369 29.63814 49.79452
#
# Poissons Ratio (x) = 0.22477 -0.01258
# Poissons Ratio (y) = 0.37665 0.06074
# Poissons Ratio (z) = -0.01254 0.03615
#
# Static dielectric constant tensor:
#      x y z
#    x 1.624930 -0.001910 0.001130 
#    y -0.001910 1.605100 -0.018750 
#    z 0.001130 -0.018750 1.627170 
# 
# From -- ./inp_files/430095.got.cif
#   From: 2010.05.17/outbox.cif.g08.bks.cpg/sg2_216_cif.got.tgz:430095.got - 2010.06.03 11:33:40.
