data_PCOD9095002
_publ_section_title
;
Structure prediction by ZEFSAII (Michael W. Deem and Ramdas Pophale) SiO2 
 PCOD9095002
Probable space group: P -1
;
_chemical_formula_sum "Si O2"
_cell_formula_units_Z 14
_cell_length_a 12.405421
_cell_length_b 8.363568
_cell_length_c 12.240670
_cell_angle_alpha 74.382512
_cell_angle_beta 143.884597
_cell_angle_gamma 128.066941
_cell_volume 512.662184
_symmetry_space_group_name_H-M "P -1"
_symmetry_group_IT_number 2
_symmetry_cell_setting 'triclinic'
loop_
_space_group_symop_operation_xyz
x,y,z
-x,-y,-z
loop_
_atom_site_type_symbol
_atom_site_label
_atom_site_fract_x
_atom_site_fract_y
_atom_site_fract_z
Si Si1 0.976794 0.674117 0.403022
Si Si2 0.750784 0.359015 0.933598
Si Si3 0.195688 0.261340 0.159956
Si Si4 0.513327 0.341318 0.224267
Si Si5 0.339710 0.052607 0.808177
Si Si6 0.039601 0.867756 0.801795
Si Si7 0.382414 0.946534 0.534368
O O1 0.697052 0.539109 0.247042
O O2 0.000000 0.500000 0.500000
O O3 0.187357 0.897850 0.607135
O O4 0.077820 0.785986 0.343287
O O5 0.903322 0.617098 0.970965
O O6 0.575965 0.304752 0.904468
O O7 0.570700 0.183716 0.716969
O O8 0.907699 0.297112 0.112692
O O9 0.451705 0.401836 0.273269
O O10 0.204286 0.248370 0.300308
O O11 0.000000 0.000000 0.000000
O O12 0.614265 0.233992 0.377370
O O13 0.264173 0.114072 0.000262
O O14 0.111210 0.956969 0.720457
O O15 0.500000 0.000000 0.000000
O O16 0.500000 0.000000 0.500000
#
# Coordination Sequence:
#
# PCOD9095002 Si02
#       7
#     2   2   2   2   2   2   2
#     4   9  17  32  53  77 105 137 169 214 268 320
#     4   9  18  34  55  78 106 139 180 223 265 319
#     4  10  20  35  52  75 110 146 179 223 270 314
#     4   9  19  36  52  75 110 142 174 220 271 318
#     4   9  17  32  55  81 103 132 179 224 263 318
#     4   9  18  35  57  79 104 142 183 221 264 318
#     4   9  18  34  55  79 102 134 181 223 264 321
#
# _framework density 27.308433999999998
#
# number of rings (size 3 to 8) (size 9 to 14) (size 15 to 20)
#    0.000    2.857    0.000    3.000    0.000    2.286 
#    0.000   20.000    0.000    0.000    0.000    0.000 
#    0.000    0.000    0.000    0.000    0.000    0.000 
#
# Total GULP energy -78096.132365 kJ/mol
# GULP energy per Si atom -5578.295169 kJ/mol
# Density = 2.724628 g / cm^3
# Si number density = 27.308434 Si / 1000 Ang^3
#
#
#
# Elastic Constant Matrix: (Units=GPa)
#
#
# Indices 1 2 3 4 5 6 
#
# 1 206.9578 60.9871 15.4324 6.9238 -12.1714 58.8184
# 2 60.9871 154.2346 25.9091 -5.2846 1.8526 23.8533
# 3 15.4324 25.9091 34.0816 2.1860 -0.4219 -3.9569
# 4 6.9238 -5.2846 2.1860 26.6340 3.7886 7.4384
# 5 -12.1714 1.8526 -0.4219 3.7886 36.0490 -3.7843
# 6 58.8184 23.8533 -3.9569 7.4384 -3.7843 56.7681
#
#
#
# Elastic Compliance Matrix: (Units=1/GPa)
#
#
# Indices 1 2 3 4 5 6 
#
# 1 0.007735 -0.001370 -0.003300 -0.000178 0.001873 -0.007521
# 2 -0.001370 0.008839 -0.006762 0.003861 -0.001757 -0.003389
# 3 -0.003300 -0.006762 0.037551 -0.006507 0.001388 0.009823
# 4 -0.000178 0.003861 -0.006507 0.041844 -0.005545 -0.007744
# 5 0.001873 -0.001757 0.001388 -0.005545 0.029226 0.001570
# 6 -0.007521 -0.003389 0.009823 -0.007744 0.001570 0.028636
#
#
# Mechanical properties :
#
#
# Convention : Reuss Voigt Hill
#
# Bulk Modulus (GPa) = 31.98794 66.65902 49.32348
# Shear Modulus (GPa) = 26.72151 43.41991 35.07071
#
# Velocity S-wave (km/s) = 3.13150 3.99178 3.58752
# Velocity P-wave (km/s) = 4.98137 6.76080 5.93812
#
# Compressibility (1/GPa) = 0.03126178
#
# Stress axis : x y z
#
# Youngs Moduli (GPa) = 129.28014 113.13860 26.63046
#
# Poissons Ratio (x) = 0.15497 0.08788
# Poissons Ratio (y) = 0.17708 0.18007
# Poissons Ratio (z) = 0.42661 0.76504
#
# Static dielectric constant tensor:
#      x y z
#    x 0.034310 0.838520 -0.844210 
#    y 0.838520 1.880620 0.278230 
#    z -0.844210 0.278230 1.750110 
# 
# From -- ./inp_files/256307.got.cif
#   From: 2010.05.17/outbox.cif.g08.bks.cpg/sg2_129_cif.got.tgz:256307.got - 2010.06.03 11:33:40.
