data_PCOD9095761
_publ_section_title
;
Structure prediction by ZEFSAII (Michael W. Deem and Ramdas Pophale) SiO2 
 PCOD9095761
Probable space group: P -1
;
_chemical_formula_sum "Si O2"
_cell_formula_units_Z 14
_cell_length_a 17.556503
_cell_length_b 11.375923
_cell_length_c 16.381218
_cell_angle_alpha 156.838991
_cell_angle_beta 30.170348
_cell_angle_gamma 136.161745
_cell_volume 600.267327
_symmetry_space_group_name_H-M "P -1"
_symmetry_group_IT_number 2
_symmetry_cell_setting 'triclinic'
loop_
_space_group_symop_operation_xyz
x,y,z
-x,-y,-z
loop_
_atom_site_type_symbol
_atom_site_label
_atom_site_fract_x
_atom_site_fract_y
_atom_site_fract_z
Si Si1 0.358472 0.353629 0.049279
Si Si2 0.243994 0.639327 0.508631
Si Si3 0.311175 0.246437 0.845382
Si Si4 0.926102 0.366272 0.908412
Si Si5 0.609947 0.198702 0.938890
Si Si6 0.880437 0.748442 0.509358
Si Si7 0.575588 0.731964 0.532664
O O1 0.278312 0.371276 0.047900
O O2 0.441085 0.980426 0.758539
O O3 0.500000 0.500000 0.000000
O O4 0.253100 0.523320 0.332863
O O5 0.128018 0.522479 0.595738
O O6 0.216171 0.011911 0.767994
O O7 0.421786 0.440518 0.259374
O O8 0.500000 0.000000 0.500000
O O9 0.293533 0.562572 0.012804
O O10 0.015576 0.392948 0.758763
O O11 0.946398 0.992378 0.650990
O O12 0.733063 0.555627 0.219503
O O13 0.000000 0.500000 0.000000
O O14 0.697689 0.977844 0.793115
O O15 0.623489 0.947963 0.693058
O O16 0.500000 0.500000 0.500000
#
# Coordination Sequence:
#
# PCOD9095761 Si02
#       7
#     2   2   2   2   2   2   2
#     4  11  20  37  57  92 128 161 205 254 309 370
#     4  10  22  36  60  94 129 159 207 261 306 361
#     4  10  20  35  59  93 127 164 201 259 316 364
#     4  11  24  42  63  89 131 169 201 255 324 372
#     4  10  20  38  60  97 126 160 210 259 313 368
#     4  11  24  40  62  92 124 166 212 259 306 380
#     4  11  23  38  66  99 123 162 208 262 313 363
#
# _framework density 23.322942999999999
#
# number of rings (size 3 to 8) (size 9 to 14) (size 15 to 20)
#    0.000    1.429    5.714    2.143    6.000    1.143 
#    0.000    0.000    0.000   10.286    0.000    0.000 
#    0.000    0.000    0.000    0.000    0.000    0.000 
#
# Total GULP energy -78278.921559 kJ/mol
# GULP energy per Si atom -5591.351540 kJ/mol
# Density = 2.326986 g / cm^3
# Si number density = 23.322943 Si / 1000 Ang^3
#
#
#
# Elastic Constant Matrix: (Units=GPa)
#
#
# Indices 1 2 3 4 5 6 
#
# 1 87.5321 25.6074 41.1771 -6.8660 27.1461 -3.9469
# 2 25.6074 166.7184 65.4344 19.4501 36.9413 -20.4529
# 3 41.1771 65.4344 103.0810 3.9598 21.0489 14.8754
# 4 -6.8660 19.4501 3.9598 33.8117 -0.3398 -6.6061
# 5 27.1461 36.9413 21.0489 -0.3398 44.5260 2.8345
# 6 -3.9469 -20.4529 14.8754 -6.6061 2.8345 18.9394
#
#
#
# Elastic Compliance Matrix: (Units=1/GPa)
#
#
# Indices 1 2 3 4 5 6 
#
# 1 0.025461 0.011877 -0.019958 0.008192 -0.018389 0.039418
# 2 0.011877 0.022847 -0.022391 0.001062 -0.018652 0.047897
# 3 -0.019958 -0.022391 0.037899 -0.007819 0.016802 -0.063348
# 4 0.008192 0.001062 -0.007819 0.035805 -0.003305 0.021978
# 5 -0.018389 -0.018652 0.016802 -0.003305 0.044036 -0.044915
# 6 0.039418 0.047897 -0.063348 0.021978 -0.044915 0.176882
#
#
# Mechanical properties :
#
#
# Convention : Reuss Voigt Hill
#
# Bulk Modulus (GPa) = 39.58551 69.08547 54.33549
# Shear Modulus (GPa) = 12.12721 34.46291 23.29506
#
# Velocity S-wave (km/s) = 2.28276 3.84818 3.16382
# Velocity P-wave (km/s) = 4.89465 7.03066 6.05755
#
# Compressibility (1/GPa) = 0.02526177
#
# Stress axis : x y z
#
# Youngs Moduli (GPa) = 39.27504 43.76913 26.38626
#
# Poissons Ratio (x) = -0.51985 0.52663
# Poissons Ratio (y) = -0.46648 0.59083
# Poissons Ratio (z) = 0.78387 0.98006
#
# Static dielectric constant tensor:
#      x y z
#    x 1.954030 -0.019040 -0.083490 
#    y -0.019040 1.979670 -0.042810 
#    z -0.083490 -0.042810 1.963050 
# 
# From -- ./inp_files/578066.got.cif
#   From: 2010.05.17/outbox.cif.g08.bks.cpg/sg2_290_cif.got.tgz:578066.got - 2010.06.03 11:33:40.
