data_PCOD9095919
_publ_section_title
;
Structure prediction by ZEFSAII (Michael W. Deem and Ramdas Pophale) SiO2 
 PCOD9095919
Probable space group: P -1
;
_chemical_formula_sum "Si O2"
_cell_formula_units_Z 16
_cell_length_a 9.221180
_cell_length_b 12.244767
_cell_length_c 21.318860
_cell_angle_alpha 36.850603
_cell_angle_beta 33.196564
_cell_angle_gamma 38.623969
_cell_volume 743.311511
_symmetry_space_group_name_H-M "P -1"
_symmetry_group_IT_number 2
_symmetry_cell_setting 'triclinic'
loop_
_space_group_symop_operation_xyz
x,y,z
-x,-y,-z
loop_
_atom_site_type_symbol
_atom_site_label
_atom_site_fract_x
_atom_site_fract_y
_atom_site_fract_z
Si Si1 0.649765 0.933271 0.172270
Si Si2 0.656946 0.709035 0.693757
Si Si3 0.287250 0.428159 0.470824
Si Si4 0.755429 0.937820 0.987486
Si Si5 0.013893 0.275342 0.746108
Si Si6 0.317639 0.859127 0.635197
Si Si7 0.145575 0.831621 0.401893
Si Si8 0.337595 0.701146 0.931908
O O1 0.880346 0.757727 0.205245
O O2 0.370392 0.911731 0.314138
O O3 0.713160 0.124572 0.080824
O O4 0.628524 0.934809 0.104483
O O5 0.378746 0.787568 0.716099
O O6 0.561425 0.730930 0.788690
O O7 0.785389 0.486251 0.729702
O O8 0.897848 0.800348 0.547765
O O9 0.242335 0.287428 0.606198
O O10 0.545091 0.311816 0.386042
O O11 0.299528 0.623514 0.409042
O O12 0.000000 0.500000 0.500000
O O13 0.891218 0.106806 0.853336
O O14 0.040711 0.742443 0.982242
O O15 0.500000 0.000000 0.000000
O O16 0.500000 0.000000 0.500000
O O17 0.008981 0.999318 0.668662
O O18 0.500000 0.500000 0.000000
#
# Coordination Sequence:
#
# PCOD9095919 Si02
#       8
#     2   2   2   2   2   2   2   2
#     4  11  25  44  65  95 135 173 218 279 332 408
#     4  10  21  38  68  94 127 174 212 270 336 395
#     4  11  20  38  65  96 133 181 211 274 336 392
#     4  11  26  42  71  95 123 178 230 281 322 402
#     4  10  22  43  67  91 133 177 222 262 344 399
#     4  10  20  35  60  98 133 167 215 270 322 392
#     4  10  24  39  63 100 136 166 224 269 334 401
#     4  11  24  47  68  92 136 179 218 275 345 399
#
# _framework density 21.525296000000001
#
# number of rings (size 3 to 8) (size 9 to 14) (size 15 to 20)
#    0.000    1.500    3.750    3.000   10.500    2.500 
#    6.750    1.250    0.000    0.000    0.000    0.000 
#    0.000    0.000    0.000    0.000    0.000    0.000 
#
# Total GULP energy -89153.838791 kJ/mol
# GULP energy per Si atom -5572.114924 kJ/mol
# Density = 2.147630 g / cm^3
# Si number density = 21.525296 Si / 1000 Ang^3
#
#
#
# Elastic Constant Matrix: (Units=GPa)
#
#
# Indices 1 2 3 4 5 6 
#
# 1 105.3571 24.7295 48.5744 -8.9878 17.8346 -21.4265
# 2 24.7295 64.0055 36.5993 -4.8340 4.8433 -13.9945
# 3 48.5744 36.5993 96.9774 -0.7560 24.4451 -10.3981
# 4 -8.9878 -4.8340 -0.7560 26.7202 -1.9548 16.4858
# 5 17.8346 4.8433 24.4451 -1.9548 37.1051 4.7631
# 6 -21.4265 -13.9945 -10.3981 16.4858 4.7631 32.5521
#
#
#
# Elastic Compliance Matrix: (Units=1/GPa)
#
#
# Indices 1 2 3 4 5 6 
#
# 1 0.014409 -0.000560 -0.004790 -0.001392 -0.004943 0.009141
# 2 -0.000560 0.021379 -0.007509 -0.000344 0.001590 0.006365
# 3 -0.004790 -0.007509 0.018277 -0.005337 -0.009496 0.003550
# 4 -0.001392 -0.000344 -0.005337 0.058712 0.011716 -0.034218
# 5 -0.004943 0.001590 -0.009496 0.011716 0.038190 -0.017125
# 6 0.009141 0.006365 0.003550 -0.034218 -0.017125 0.060443
#
#
# Mechanical properties :
#
#
# Convention : Reuss Voigt Hill
#
# Bulk Modulus (GPa) = 35.27774 54.01626 44.64700
# Shear Modulus (GPa) = 20.27754 29.70458 24.99106
#
# Velocity S-wave (km/s) = 3.07259 3.71884 3.41105
# Velocity P-wave (km/s) = 5.38630 6.60216 6.02498
#
# Compressibility (1/GPa) = 0.02834649
#
# Stress axis : x y z
#
# Youngs Moduli (GPa) = 69.40254 46.77415 54.71208
#
# Poissons Ratio (x) = 0.02620 0.26209
# Poissons Ratio (y) = 0.03888 0.41083
# Poissons Ratio (z) = 0.33246 0.35123
#
# Static dielectric constant tensor:
#      x y z
#    x 1.436090 0.079020 -0.196480 
#    y 0.079020 1.837150 0.121960 
#    z -0.196480 0.121960 1.696030 
# 
# From -- ./inp_files/589436.got.cif
#   From: 2010.05.17/outbox.cif.g08.bks.cpg/sg2_295_cif.got.tgz:589436.got - 2010.06.03 11:33:40.
