data_PCOD9095656
_publ_section_title
;
Structure prediction by ZEFSAII (Michael W. Deem and Ramdas Pophale) SiO2 
 PCOD9095656
Probable space group: P -1
;
_chemical_formula_sum "Si O2"
_cell_formula_units_Z 16
_cell_length_a 6.005111
_cell_length_b 11.928841
_cell_length_c 14.459748
_cell_angle_alpha 87.027719
_cell_angle_beta 68.588343
_cell_angle_gamma 122.779072
_cell_volume 768.474270
_symmetry_space_group_name_H-M "P -1"
_symmetry_group_IT_number 2
_symmetry_cell_setting 'triclinic'
loop_
_space_group_symop_operation_xyz
x,y,z
-x,-y,-z
loop_
_atom_site_type_symbol
_atom_site_label
_atom_site_fract_x
_atom_site_fract_y
_atom_site_fract_z
Si Si1 0.246158 0.557872 0.763929
Si Si2 0.733386 0.902566 0.472704
Si Si3 0.726435 0.374875 0.711300
Si Si4 0.307947 0.439267 0.434505
Si Si5 0.105155 0.811799 0.376163
Si Si6 0.063536 0.323573 0.133085
Si Si7 0.679786 0.098096 0.340101
Si Si8 0.679503 0.611793 0.102043
O O1 0.539545 0.597794 0.664254
O O2 0.167027 0.437325 0.853756
O O3 0.005140 0.499756 0.721778
O O4 0.207445 0.661985 0.821252
O O5 0.433821 0.829018 0.583283
O O6 0.818970 0.813649 0.408891
O O7 0.739868 0.010227 0.400368
O O8 0.000000 0.000000 0.500000
O O9 0.716248 0.446333 0.615972
O O10 0.798350 0.263510 0.699553
O O11 0.431223 0.319852 0.817678
O O12 0.500000 0.500000 0.500000
O O13 0.998536 0.290567 0.514417
O O14 0.388272 0.972913 0.334074
O O15 0.373791 0.466846 0.115647
O O16 0.955052 0.201749 0.228069
O O17 0.125841 0.302805 0.020273
#
# Coordination Sequence:
#
# PCOD9095656 Si02
#       8
#     2   2   2   2   2   2   2   2
#     4  10  20  35  59  85 114 144 181 236 284 329
#     4   9  21  37  52  81 112 154 184 220 268 333
#     4  10  22  37  55  87 114 145 187 232 281 331
#     4  11  22  34  55  85 115 149 181 225 272 339
#     4  11  22  35  55  80 116 147 184 220 276 335
#     4  10  20  39  59  83 109 147 191 232 283 324
#     4  10  22  37  57  78 115 150 184 230 272 334
#     4   9  21  37  60  84 110 141 189 242 277 329
#
# _framework density 20.820478999999999
#
# number of rings (size 3 to 8) (size 9 to 14) (size 15 to 20)
#    0.000    2.000    1.250    1.500    1.750   11.000 
#    0.000    0.625    0.000    1.500    0.000    0.000 
#    0.000    0.000    0.000    0.000    0.000    0.000 
#
# Total GULP energy -89178.556963 kJ/mol
# GULP energy per Si atom -5573.659810 kJ/mol
# Density = 2.077309 g / cm^3
# Si number density = 20.820479 Si / 1000 Ang^3
#
#
#
# Elastic Constant Matrix: (Units=GPa)
#
#
# Indices 1 2 3 4 5 6 
#
# 1 43.5443 16.3781 25.6097 9.5723 5.8046 -21.3304
# 2 16.3781 60.0742 28.7370 5.0490 -12.2385 -26.1177
# 3 25.6097 28.7370 150.3528 2.6494 -8.7697 -13.9431
# 4 9.5723 5.0490 2.6494 20.5181 0.6397 -8.7954
# 5 5.8046 -12.2385 -8.7697 0.6397 25.0052 2.9975
# 6 -21.3304 -26.1177 -13.9431 -8.7954 2.9975 38.3323
#
#
#
# Elastic Compliance Matrix: (Units=1/GPa)
#
#
# Indices 1 2 3 4 5 6 
#
# 1 0.039424 -0.002979 -0.005238 -0.009254 -0.014247 0.016994
# 2 -0.002979 0.027800 -0.002706 0.001271 0.011435 0.015696
# 3 -0.005238 -0.002706 0.008043 0.001218 0.002894 -0.001780
# 4 -0.009254 0.001271 0.001218 0.056447 0.000667 0.009059
# 5 -0.014247 0.011435 0.002894 0.000667 0.050236 -0.002860
# 6 0.016994 0.015696 -0.001780 0.009059 -0.002860 0.047894
#
#
# Mechanical properties :
#
#
# Convention : Reuss Voigt Hill
#
# Bulk Modulus (GPa) = 18.71934 43.93567 31.32751
# Shear Modulus (GPa) = 18.55314 28.98755 23.77035
#
# Velocity S-wave (km/s) = 2.98837 3.73535 3.38254
# Velocity P-wave (km/s) = 4.57356 6.30490 5.50769
#
# Compressibility (1/GPa) = 0.05342067
#
# Stress axis : x y z
#
# Youngs Moduli (GPa) = 25.36514 35.97184 124.33723
#
# Poissons Ratio (x) = 0.10718 0.65124
# Poissons Ratio (y) = 0.07557 0.33641
# Poissons Ratio (z) = 0.13286 0.09733
#
# Static dielectric constant tensor:
#      x y z
#    x 1.831000 -0.005120 -0.027760 
#    y -0.005120 1.823740 0.049220 
#    z -0.027760 0.049220 1.764890 
# 
# From -- ./inp_files/366821.got.cif
#   From: 2010.05.17/outbox.cif.g08.bks.cpg/sg2_184_cif.got.tgz:366821.got - 2010.06.03 11:33:40.
