data_PCOD9095484
_publ_section_title
;
Structure prediction by ZEFSAII (Michael W. Deem and Ramdas Pophale) SiO2 
 PCOD9095484
Probable space group: P -1
;
_chemical_formula_sum "Si O2"
_cell_formula_units_Z 16
_cell_length_a 15.766909
_cell_length_b 7.090794
_cell_length_c 7.028850
_cell_angle_alpha 109.741686
_cell_angle_beta 115.347300
_cell_angle_gamma 79.390655
_cell_volume 667.711240
_symmetry_space_group_name_H-M "P -1"
_symmetry_group_IT_number 2
_symmetry_cell_setting 'triclinic'
loop_
_space_group_symop_operation_xyz
x,y,z
-x,-y,-z
loop_
_atom_site_type_symbol
_atom_site_label
_atom_site_fract_x
_atom_site_fract_y
_atom_site_fract_z
Si Si1 0.175169 0.241272 0.819152
Si Si2 0.338535 0.502509 0.642575
Si Si3 0.961772 0.719645 0.967070
Si Si4 0.677743 0.285931 0.658394
Si Si5 0.126779 0.860521 0.392712
Si Si6 0.447763 0.834456 0.779838
Si Si7 0.624077 0.602106 0.972397
Si Si8 0.876166 0.521215 0.483011
O O1 0.286968 0.264126 0.937440
O O2 0.124448 0.434365 0.726790
O O3 0.131374 0.226915 0.980337
O O4 0.149521 0.057058 0.598263
O O5 0.346308 0.512998 0.426827
O O6 0.361559 0.737634 0.776016
O O7 0.397935 0.383354 0.817554
O O8 0.233759 0.444390 0.562702
O O9 0.040890 0.865551 0.163530
O O10 0.065674 0.319546 0.289780
O O11 0.000000 0.500000 0.000000
O O12 0.781292 0.212520 0.667050
O O13 0.601302 0.131689 0.460310
O O14 0.662529 0.376597 0.881066
O O15 0.102658 0.696364 0.477183
O O16 0.528944 0.659806 0.792318
O O17 0.500000 0.000000 0.000000
#
# Coordination Sequence:
#
# PCOD9095484 Si02
#       8
#     2   2   2   2   2   2   2   2
#     4  11  22  36  61  86 113 151 192 229 288 333
#     4   8  19  34  57  77 113 140 185 226 274 327
#     4  10  21  38  60  84 116 151 191 232 283 337
#     4   9  20  37  57  78 115 145 185 229 280 327
#     4  10  20  39  59  82 119 149 186 245 275 329
#     4  10  20  35  58  82 113 144 182 233 279 330
#     4  11  19  35  60  81 105 155 186 221 284 337
#     4   9  20  39  57  83 116 152 186 233 282 334
#
# _framework density 23.962457000000001
#
# number of rings (size 3 to 8) (size 9 to 14) (size 15 to 20)
#    0.750    1.500    0.000    4.125    0.000    2.500 
#    0.000    8.125    8.250    0.000    0.000    0.000 
#    0.000    0.000    0.000    0.000    0.000    0.000 
#
# Total GULP energy -89097.774595 kJ/mol
# GULP energy per Si atom -5568.610912 kJ/mol
# Density = 2.390792 g / cm^3
# Si number density = 23.962457 Si / 1000 Ang^3
#
#
#
# Elastic Constant Matrix: (Units=GPa)
#
#
# Indices 1 2 3 4 5 6 
#
# 1 56.0354 6.7475 26.4497 -5.8215 9.6839 -10.2278
# 2 6.7475 28.4567 7.5417 4.0792 4.4342 0.7188
# 3 26.4497 7.5417 78.4412 10.7476 35.8520 8.1575
# 4 -5.8215 4.0792 10.7476 40.0411 1.5607 3.6363
# 5 9.6839 4.4342 35.8520 1.5607 47.2213 4.3139
# 6 -10.2278 0.7188 8.1575 3.6363 4.3139 8.8642
#
#
#
# Elastic Compliance Matrix: (Units=1/GPa)
#
#
# Indices 1 2 3 4 5 6 
#
# 1 0.040920 -0.006887 -0.022026 0.006647 0.002921 0.063895
# 2 -0.006887 0.037618 0.001183 -0.004221 -0.002023 -0.009370
# 3 -0.022026 0.001183 0.033340 -0.007536 -0.016542 -0.045051
# 4 0.006647 -0.004221 -0.007536 0.028102 0.003677 0.001629
# 5 0.002921 -0.002023 -0.016542 0.003677 0.033101 0.001140
# 6 0.063895 -0.009370 -0.045051 0.001629 0.001140 0.227532
#
#
# Mechanical properties :
#
#
# Convention : Reuss Voigt Hill
#
# Bulk Modulus (GPa) = 17.72549 27.15682 22.44116
# Shear Modulus (GPa) = 10.52895 27.37162 18.95029
#
# Velocity S-wave (km/s) = 2.09845 3.38342 2.81522
# Velocity P-wave (km/s) = 3.64480 5.15956 4.46685
#
# Compressibility (1/GPa) = 0.05641592
#
# Stress axis : x y z
#
# Youngs Moduli (GPa) = 24.43789 26.58328 29.99387
#
# Poissons Ratio (x) = 0.18309 0.66066
# Poissons Ratio (y) = 0.16831 -0.03548
# Poissons Ratio (z) = 0.53828 -0.03144
#
# Static dielectric constant tensor:
#      x y z
#    x 1.913640 0.026940 -0.002950 
#    y 0.026940 1.990860 -0.010360 
#    z -0.002950 -0.010360 1.938040 
# 
# From -- ./inp_files/326788.got.cif
#   From: 2010.05.17/outbox.cif.g08.bks.cpg/sg2_164_cif.got.tgz:326788.got - 2010.06.03 11:33:40.
