data_PCOD9095285
_publ_section_title
;
Structure prediction by ZEFSAII (Michael W. Deem and Ramdas Pophale) SiO2 
 PCOD9095285
Probable space group: P -1
;
_chemical_formula_sum "Si O2"
_cell_formula_units_Z 16
_cell_length_a 7.517258
_cell_length_b 20.805999
_cell_length_c 18.023320
_cell_angle_alpha 158.013607
_cell_angle_beta 47.338697
_cell_angle_gamma 122.332348
_cell_volume 729.910170
_symmetry_space_group_name_H-M "P -1"
_symmetry_group_IT_number 2
_symmetry_cell_setting 'triclinic'
loop_
_space_group_symop_operation_xyz
x,y,z
-x,-y,-z
loop_
_atom_site_type_symbol
_atom_site_label
_atom_site_fract_x
_atom_site_fract_y
_atom_site_fract_z
Si Si1 0.917526 0.658852 0.844654
Si Si2 0.886422 0.145151 0.622105
Si Si3 0.350663 0.211650 0.472918
Si Si4 0.951856 0.860653 0.189822
Si Si5 0.775291 0.964287 0.817114
Si Si6 0.130178 0.104904 0.019882
Si Si7 0.232747 0.265050 0.304974
Si Si8 0.387264 0.607395 0.908500
O O1 0.996449 0.791229 0.907240
O O2 0.667060 0.626877 0.846121
O O3 0.147924 0.467939 0.575410
O O4 0.851983 0.737750 0.031034
O O5 0.109547 0.197719 0.573153
O O6 0.708801 0.319696 0.903503
O O7 0.000000 0.000000 0.500000
O O8 0.780127 0.026134 0.467719
O O9 0.313509 0.177058 0.359452
O O10 0.395142 0.401286 0.675900
O O11 0.599288 0.038553 0.236794
O O12 0.062114 0.966571 0.212006
O O13 0.183233 0.731907 0.038862
O O14 0.907149 0.846759 0.724851
O O15 0.528497 0.138407 0.093539
O O16 0.169850 0.254505 0.225390
O O17 0.000000 0.000000 0.000000
#
# Coordination Sequence:
#
# PCOD9095285 Si02
#       8
#     2   2   2   2   2   2   2   2
#     4  12  24  38  61  91 123 159 201 246 298 356
#     4   9  19  39  64  86 116 157 200 249 303 354
#     4  10  20  37  62  88 119 161 202 245 301 356
#     4  10  22  39  60  86 121 158 198 246 300 356
#     4   9  19  37  59  85 120 160 199 244 295 354
#     4  11  22  36  55  84 124 163 199 246 297 352
#     4  10  20  35  56  85 120 156 200 244 293 354
#     4  11  22  39  63  91 121 155 200 251 300 358
#
# _framework density 21.920507000000001
#
# number of rings (size 3 to 8) (size 9 to 14) (size 15 to 20)
#    0.000    1.750    0.000    6.000    0.000    2.000 
#    0.000    0.000    0.000   10.500    0.000    0.000 
#    0.000    0.000    0.000    0.000    0.000    0.000 
#
# Total GULP energy -89259.685209 kJ/mol
# GULP energy per Si atom -5578.730326 kJ/mol
# Density = 2.187062 g / cm^3
# Si number density = 21.920507 Si / 1000 Ang^3
#
#
#
# Elastic Constant Matrix: (Units=GPa)
#
#
# Indices 1 2 3 4 5 6 
#
# 1 84.1730 26.6716 35.4428 0.3344 28.2307 -13.5520
# 2 26.6716 95.0272 41.3890 -7.3973 9.0712 -17.0618
# 3 35.4428 41.3890 150.0484 -0.5024 28.3923 -11.5966
# 4 0.3344 -7.3973 -0.5024 28.1431 2.5645 1.5393
# 5 28.2307 9.0712 28.3923 2.5645 28.3769 1.2021
# 6 -13.5520 -17.0618 -11.5966 1.5393 1.2021 34.4553
#
#
#
# Elastic Compliance Matrix: (Units=1/GPa)
#
#
# Indices 1 2 3 4 5 6 
#
# 1 0.020624 -0.002556 0.000274 0.000525 -0.020345 0.007625
# 2 -0.002556 0.013501 -0.002876 0.003223 0.000620 0.004547
# 3 0.000274 -0.002876 0.009189 0.000079 -0.008643 0.002075
# 4 0.000525 0.003223 0.000079 0.036808 -0.004973 0.000358
# 5 -0.020345 0.000620 -0.008643 -0.004973 0.064915 -0.012647
# 6 0.007625 0.004547 0.002075 0.000358 -0.012647 0.035397
#
#
# Mechanical properties :
#
#
# Convention : Reuss Voigt Hill
#
# Bulk Modulus (GPa) = 30.30355 59.58392 44.94373
# Shear Modulus (GPa) = 24.78335 33.24476 29.01406
#
# Velocity S-wave (km/s) = 3.36609 3.89859 3.64208
# Velocity P-wave (km/s) = 5.38161 6.89247 6.18336
#
# Compressibility (1/GPa) = 0.03299944
#
# Stress axis : x y z
#
# Youngs Moduli (GPa) = 48.48750 74.06775 108.82754
#
# Poissons Ratio (x) = 0.18932 -0.02985
# Poissons Ratio (y) = 0.12394 0.31294
# Poissons Ratio (z) = -0.01330 0.21298
#
# Static dielectric constant tensor:
#      x y z
#    x 1.881250 0.037110 0.070330 
#    y 0.037110 1.817880 -0.000380 
#    z 0.070330 -0.000380 1.809030 
# 
# From -- ./inp_files/562721.got.cif
#   From: 2010.05.17/outbox.cif.g08.bks.cpg/sg2_282_cif.got.tgz:562721.got - 2010.06.03 11:33:40.
