data_PCOD9095368
_publ_section_title
;
Structure prediction by ZEFSAII (Michael W. Deem and Ramdas Pophale) SiO2 
 PCOD9095368
Probable space group: P -1
;
_chemical_formula_sum "Si O2"
_cell_formula_units_Z 16
_cell_length_a 22.372275
_cell_length_b 9.412538
_cell_length_c 9.195612
_cell_angle_alpha 116.818059
_cell_angle_beta 99.084134
_cell_angle_gamma 135.692484
_cell_volume 768.482315
_symmetry_space_group_name_H-M "P -1"
_symmetry_group_IT_number 2
_symmetry_cell_setting 'triclinic'
loop_
_space_group_symop_operation_xyz
x,y,z
-x,-y,-z
loop_
_atom_site_type_symbol
_atom_site_label
_atom_site_fract_x
_atom_site_fract_y
_atom_site_fract_z
Si Si1 0.734546 0.855970 0.833022
Si Si2 0.592870 0.860152 0.257825
Si Si3 0.105420 0.224839 0.011205
Si Si4 0.003344 0.840812 0.505256
Si Si5 0.233174 0.846726 0.282646
Si Si6 0.944215 0.370564 0.665459
Si Si7 0.781426 0.150835 0.247819
Si Si8 0.606315 0.226540 0.516289
O O1 0.646829 0.494592 0.593364
O O2 0.717223 0.951057 0.749246
O O3 0.696672 0.827363 0.968661
O O4 0.898055 0.211206 0.065246
O O5 0.644269 0.929275 0.468503
O O6 0.716430 0.125272 0.318001
O O7 0.549501 0.941984 0.272162
O O8 0.500000 0.500000 0.000000
O O9 0.135826 0.465496 0.056793
O O10 0.247700 0.495415 0.248592
O O11 0.000000 0.000000 0.000000
O O12 0.057608 0.994656 0.760290
O O13 0.855516 0.425382 0.280560
O O14 0.072517 0.859384 0.454195
O O15 0.000000 0.000000 0.500000
O O16 0.145271 0.765696 0.304478
O O17 0.883130 0.292475 0.454908
O O18 0.500000 0.000000 0.500000
#
# Coordination Sequence:
#
# PCOD9095368 Si02
#       8
#     2   2   2   2   2   2   2   2
#     4  11  20  36  58  87 119 149 191 246 292 342
#     4  10  22  42  61  77 108 152 197 238 288 357
#     4  11  21  39  62  87 119 157 198 239 285 353
#     4  11  21  33  53  87 119 148 188 241 289 335
#     4  10  22  37  58  88 114 151 198 246 294 339
#     4  10  20  35  57  83 119 156 189 230 291 353
#     4  10  20  36  57  82 112 155 193 227 285 351
#     4  11  23  38  61  89 116 154 198 241 294 354
#
# _framework density 20.820257000000002
#
# number of rings (size 3 to 8) (size 9 to 14) (size 15 to 20)
#    0.000    1.500    0.000    8.625    0.000    3.000 
#    0.000    7.500    0.000    0.000    0.000    0.000 
#    0.000    0.000    0.000    0.000    0.000    0.000 
#
# Total GULP energy -89236.056625 kJ/mol
# GULP energy per Si atom -5577.253539 kJ/mol
# Density = 2.077287 g / cm^3
# Si number density = 20.820257 Si / 1000 Ang^3
#
#
#
# Elastic Constant Matrix: (Units=GPa)
#
#
# Indices 1 2 3 4 5 6 
#
# 1 74.8825 12.6537 6.7081 9.3382 -19.3427 -17.1852
# 2 12.6537 68.1921 15.3341 2.2146 3.5162 -32.8762
# 3 6.7081 15.3341 71.3592 6.9946 -25.6785 -11.1622
# 4 9.3382 2.2146 6.9946 28.0406 -4.8311 -6.8667
# 5 -19.3427 3.5162 -25.6785 -4.8311 30.7640 14.6852
# 6 -17.1852 -32.8762 -11.1622 -6.8667 14.6852 39.1186
#
#
#
# Elastic Compliance Matrix: (Units=1/GPa)
#
#
# Indices 1 2 3 4 5 6 
#
# 1 0.018926 -0.008886 0.007269 -0.005240 0.020960 -0.005868
# 2 -0.008886 0.048428 -0.021016 0.008079 -0.052113 0.051781
# 3 0.007269 -0.021016 0.029986 -0.006611 0.041837 -0.022779
# 4 -0.005240 0.008079 -0.006611 0.039986 -0.009806 0.013301
# 5 0.020960 -0.052113 0.041837 -0.009806 0.117757 -0.068579
# 6 -0.005868 0.051781 -0.022779 0.013301 -0.068579 0.088083
#
#
# Mechanical properties :
#
#
# Convention : Reuss Voigt Hill
#
# Bulk Modulus (GPa) = 19.20382 31.53619 25.37000
# Shear Modulus (GPa) = 12.32160 31.56715 21.94438
#
# Velocity S-wave (km/s) = 2.43535 3.89803 3.25005
# Velocity P-wave (km/s) = 4.14144 5.95309 5.12791
#
# Compressibility (1/GPa) = 0.05207299
#
# Stress axis : x y z
#
# Youngs Moduli (GPa) = 52.83865 20.64912 33.34878
#
# Poissons Ratio (x) = 0.18348 -0.24240
# Poissons Ratio (y) = 0.46951 0.70086
# Poissons Ratio (z) = -0.38406 0.43397
#
# Static dielectric constant tensor:
#      x y z
#    x 1.898320 0.057810 -0.017520 
#    y 0.057810 1.797630 0.059070 
#    z -0.017520 0.059070 1.855260 
# 
# From -- ./inp_files/278291.got.cif
#   From: 2010.05.17/outbox.cif.g08.bks.cpg/sg2_140_cif.got.tgz:278291.got - 2010.06.03 11:33:40.
