data_PCOD9095449
_publ_section_title
;
Structure prediction by ZEFSAII (Michael W. Deem and Ramdas Pophale) SiO2 
 PCOD9095449
Probable space group: P -1
;
_chemical_formula_sum "Si O2"
_cell_formula_units_Z 16
_cell_length_a 10.636116
_cell_length_b 21.960350
_cell_length_c 6.365876
_cell_angle_alpha 55.759236
_cell_angle_beta 70.302247
_cell_angle_gamma 29.566798
_cell_volume 562.641633
_symmetry_space_group_name_H-M "P -1"
_symmetry_group_IT_number 2
_symmetry_cell_setting 'triclinic'
loop_
_space_group_symop_operation_xyz
x,y,z
-x,-y,-z
loop_
_atom_site_type_symbol
_atom_site_label
_atom_site_fract_x
_atom_site_fract_y
_atom_site_fract_z
Si Si1 0.555389 0.242877 0.322531
Si Si2 0.362474 0.984644 0.070829
Si Si3 0.128782 0.289446 0.435477
Si Si4 0.007048 0.437201 0.834985
Si Si5 0.214919 0.103407 0.540071
Si Si6 0.809374 0.276481 0.056175
Si Si7 0.655019 0.512860 0.568954
Si Si8 0.419803 0.771939 0.168646
O O1 0.621664 0.298042 0.165213
O O2 0.679212 0.162601 0.651875
O O3 0.223926 0.402584 0.229502
O O4 0.643664 0.177420 0.150476
O O5 0.068033 0.124666 0.068504
O O6 0.597781 0.825696 0.363063
O O7 0.316478 0.986224 0.850665
O O8 0.500000 0.000000 0.000000
O O9 0.104607 0.214149 0.555451
O O10 0.840599 0.444155 0.399346
O O11 0.160926 0.311460 0.155801
O O12 0.255401 0.362685 0.735934
O O13 0.846849 0.453668 0.757637
O O14 0.980539 0.211726 0.294743
O O15 0.500000 0.000000 0.500000
O O16 0.652325 0.426048 0.775677
O O17 0.399200 0.691465 0.343396
#
# Coordination Sequence:
#
# PCOD9095449 Si02
#       8
#     2   2   2   2   2   2   2   2
#     4  11  26  43  64  98 129 177 208 268 338 384
#     4  10  20  35  57  90 129 165 207 258 314 395
#     4  11  20  34  63  96 121 164 221 260 318 374
#     4  11  24  42  66  91 124 172 225 271 309 379
#     4  11  19  36  57  91 134 166 210 255 321 391
#     4  12  23  37  63  94 138 165 199 268 337 402
#     4  11  21  37  61  96 128 165 211 261 327 381
#     4  11  26  46  66  91 129 176 231 266 309 382
#
# _framework density 28.437280000000001
#
# number of rings (size 3 to 8) (size 9 to 14) (size 15 to 20)
#    0.000    1.000    7.500    1.875    3.500    2.500 
#    0.000    0.000    0.000    1.500    0.000    0.000 
#    0.000    0.000    0.000    0.000    0.000    0.000 
#
# Total GULP energy -89210.725578 kJ/mol
# GULP energy per Si atom -5575.670349 kJ/mol
# Density = 2.837256 g / cm^3
# Si number density = 28.437280 Si / 1000 Ang^3
#
#
#
# Elastic Constant Matrix: (Units=GPa)
#
#
# Indices 1 2 3 4 5 6 
#
# 1 74.6611 23.8959 19.7814 11.8084 14.9333 -4.9927
# 2 23.8959 84.7174 27.0178 14.3148 5.5252 -9.6925
# 3 19.7814 27.0178 192.5667 12.0971 15.4778 -1.2428
# 4 11.8084 14.3148 12.0971 37.3956 -6.7222 2.4588
# 5 14.9333 5.5252 15.4778 -6.7222 49.9129 9.5905
# 6 -4.9927 -9.6925 -1.2428 2.4588 9.5905 33.9859
#
#
#
# Elastic Compliance Matrix: (Units=1/GPa)
#
#
# Indices 1 2 3 4 5 6 
#
# 1 0.016720 -0.002847 -0.000478 -0.005352 -0.005970 0.003699
# 2 -0.002847 0.014474 -0.001250 -0.004877 -0.001894 0.004551
# 3 -0.000478 -0.001250 0.005658 -0.001542 -0.001755 0.000387
# 4 -0.005352 -0.004877 -0.001542 0.032759 0.008369 -0.006965
# 5 -0.005970 -0.001894 -0.001755 0.008369 0.025485 -0.009279
# 6 0.003699 0.004551 0.000387 -0.006965 -0.009279 0.034402
#
#
# Mechanical properties :
#
#
# Convention : Reuss Voigt Hill
#
# Bulk Modulus (GPa) = 36.09980 54.81505 45.45742
# Shear Modulus (GPa) = 33.81094 43.00889 38.40992
#
# Velocity S-wave (km/s) = 3.45188 3.89319 3.67916
# Velocity P-wave (km/s) = 5.34877 6.28704 5.83679
#
# Compressibility (1/GPa) = 0.02770098
#
# Stress axis : x y z
#
# Youngs Moduli (GPa) = 59.81022 69.08963 176.74238
#
# Poissons Ratio (x) = 0.19668 0.08452
# Poissons Ratio (y) = 0.17026 0.22099
# Poissons Ratio (z) = 0.02860 0.08639
#
# Static dielectric constant tensor:
#      x y z
#    x 2.364110 0.157940 -0.038840 
#    y 0.157940 2.238620 0.041200 
#    z -0.038840 0.041200 2.435900 
# 
# From -- ./inp_files/84780.got.cif
#   From: 2010.05.17/outbox.cif.g08.bks.cpg/sg2_43_cif.got.tgz:84780.got - 2010.06.03 11:33:40.
