data_PCOD9095115
_publ_section_title
;
Structure prediction by ZEFSAII (Michael W. Deem and Ramdas Pophale) SiO2 
 PCOD9095115
Probable space group: P -1
;
_chemical_formula_sum "Si O2"
_cell_formula_units_Z 14
_cell_length_a 6.699788
_cell_length_b 9.667595
_cell_length_c 10.405102
_cell_angle_alpha 75.420123
_cell_angle_beta 92.577294
_cell_angle_gamma 125.600052
_cell_volume 525.903810
_symmetry_space_group_name_H-M "P -1"
_symmetry_group_IT_number 2
_symmetry_cell_setting 'triclinic'
loop_
_space_group_symop_operation_xyz
x,y,z
-x,-y,-z
loop_
_atom_site_type_symbol
_atom_site_label
_atom_site_fract_x
_atom_site_fract_y
_atom_site_fract_z
Si Si1 0.772964 0.185872 0.474372
Si Si2 0.465137 0.314810 0.040838
Si Si3 0.092737 0.703961 0.033848
Si Si4 0.662871 0.747425 0.229115
Si Si5 0.894798 0.112411 0.245781
Si Si6 0.666619 0.141871 0.754932
Si Si7 0.340564 0.578359 0.725986
O O1 0.948231 0.183233 0.375396
O O2 0.836971 0.200192 0.622409
O O3 0.500000 0.000000 0.500000
O O4 0.604329 0.037585 0.234023
O O5 0.709007 0.327897 0.001542
O O6 0.298464 0.218175 0.931866
O O7 0.500000 0.500000 0.000000
O O8 0.439634 0.276775 0.203497
O O9 0.229351 0.863700 0.104749
O O10 0.892932 0.545077 0.157163
O O11 0.989790 0.749513 0.899431
O O12 0.410215 0.723976 0.263749
O O13 0.622488 0.563794 0.296663
O O14 0.869971 0.933162 0.260876
O O15 0.729518 0.330631 0.397706
#
# Coordination Sequence:
#
# PCOD9095115 Si02
#       7
#     2   2   2   2   2   2   2
#     4  10  20  35  55  78 102 143 184 220 253 323
#     4   9  18  33  51  80 110 133 174 219 262 310
#     4  11  19  32  58  81 109 138 174 224 263 315
#     4   8  19  34  53  79 108 137 177 219 257 317
#     4   9  18  34  56  79 105 139 180 213 261 316
#     4   8  19  35  53  77 103 144 179 214 257 311
#     4  11  21  32  54  84 108 138 177 219 274 305
#
# _framework density 26.620839
#
# number of rings (size 3 to 8) (size 9 to 14) (size 15 to 20)
#    0.857    1.714    1.429    0.857    0.000    1.714 
#    0.000    0.000    0.000    0.857    0.000    0.000 
#    0.000    0.000    0.000    0.000    0.000    0.000 
#
# Total GULP energy -78134.506257 kJ/mol
# GULP energy per Si atom -5581.036161 kJ/mol
# Density = 2.656025 g / cm^3
# Si number density = 26.620839 Si / 1000 Ang^3
#
#
#
# Elastic Constant Matrix: (Units=GPa)
#
#
# Indices 1 2 3 4 5 6 
#
# 1 72.7274 36.8091 36.5352 -1.6182 3.4595 -26.8263
# 2 36.8091 113.2297 56.0851 0.4907 -0.2427 -43.5261
# 3 36.5352 56.0851 149.8857 12.3452 -23.4104 -24.4955
# 4 -1.6182 0.4907 12.3452 45.0668 -8.1933 -2.3687
# 5 3.4595 -0.2427 -23.4104 -8.1933 23.7621 -1.0276
# 6 -26.8263 -43.5261 -24.4955 -2.3687 -1.0276 52.4129
#
#
#
# Elastic Compliance Matrix: (Units=1/GPa)
#
#
# Indices 1 2 3 4 5 6 
#
# 1 0.019406 -0.001855 -0.004037 0.001036 -0.006186 0.006431
# 2 -0.001855 0.015246 -0.004202 0.000887 -0.002988 0.009729
# 3 -0.004037 -0.004202 0.010994 -0.001129 0.010976 -0.000254
# 4 0.001036 0.000887 -0.001129 0.023916 0.007077 0.001959
# 5 -0.006186 -0.002988 0.010976 0.007077 0.056247 0.000905
# 6 0.006431 0.009729 -0.000254 0.001959 0.000905 0.030438
#
#
# Mechanical properties :
#
#
# Convention : Reuss Voigt Hill
#
# Bulk Modulus (GPa) = 39.27997 66.07795 52.67896
# Shear Modulus (GPa) = 27.03871 38.00925 32.52398
#
# Velocity S-wave (km/s) = 3.19046 3.78272 3.49914
# Velocity P-wave (km/s) = 5.32536 6.62981 6.01306
#
# Compressibility (1/GPa) = 0.02545827
#
# Stress axis : x y z
#
# Youngs Moduli (GPa) = 51.53006 65.59255 90.95840
#
# Poissons Ratio (x) = 0.12165 0.36718
# Poissons Ratio (y) = 0.09557 0.38224
# Poissons Ratio (z) = 0.20802 0.27564
#
# Static dielectric constant tensor:
#      x y z
#    x 2.232640 0.114980 -0.011990 
#    y 0.114980 2.155590 0.089500 
#    z -0.011990 0.089500 2.129500 
# 
# From -- ./inp_files/379132.got.cif
#   From: 2010.05.17/outbox.cif.g08.bks.cpg/sg2_190_cif.got.tgz:379132.got - 2010.06.03 11:33:40.
