data_PCOD9095904
_publ_section_title
;
Structure prediction by ZEFSAII (Michael W. Deem and Ramdas Pophale) SiO2 
 PCOD9095904
Probable space group: P -1
;
_chemical_formula_sum "Si O2"
_cell_formula_units_Z 13
_cell_length_a 17.573889
_cell_length_b 8.959192
_cell_length_c 11.817417
_cell_angle_alpha 40.821286
_cell_angle_beta 152.367156
_cell_angle_gamma 136.489548
_cell_volume 554.826825
_symmetry_space_group_name_H-M "P -1"
_symmetry_group_IT_number 2
_symmetry_cell_setting 'triclinic'
loop_
_space_group_symop_operation_xyz
x,y,z
-x,-y,-z
loop_
_atom_site_type_symbol
_atom_site_label
_atom_site_fract_x
_atom_site_fract_y
_atom_site_fract_z
Si Si1 0.640467 0.142706 0.477347
Si Si2 0.311396 0.905313 0.919620
Si Si3 0.500000 0.500000 0.500000
Si Si4 0.715484 0.811585 0.947710
Si Si5 0.742166 0.492272 0.610153
Si Si6 0.359869 0.739417 0.839011
Si Si7 0.946418 0.135919 0.205612
O O1 0.438533 0.100135 0.241324
O O2 0.691021 0.368199 0.493975
O O3 0.699455 0.178798 0.406648
O O4 0.708225 0.930438 0.747293
O O5 0.280710 0.831259 0.792044
O O6 0.143463 0.897526 0.772844
O O7 0.405759 0.711655 0.211759
O O8 0.444248 0.145289 0.962786
O O9 0.594799 0.505052 0.496452
O O10 0.674961 0.537052 0.047636
O O11 0.885627 0.905457 0.183959
O O12 0.863158 0.738993 0.613848
O O13 0.853185 0.319498 0.911392
#
# Coordination Sequence:
#
# PCOD9095904 Si02
#       7
#     2   2   1   2   2   2   2
#     4  10  20  35  60  94 116 166 210 256 294 377
#     4  10  22  36  60  91 124 162 209 253 309 360
#     4  10  20  38  64  92 118 160 208 256 294 380
#     4  10  20  35  63  86 124 159 213 252 308 355
#     4   9  19  36  65  91 122 159 210 247 313 366
#     4  11  22  36  59  91 125 163 208 258 298 366
#     4   9  18  38  62  90 121 165 201 254 309 373
#
# _framework density 23.430734000000001
#
# number of rings (size 3 to 8) (size 9 to 14) (size 15 to 20)
#    0.000    2.154    1.538    1.385    4.308    0.000 
#    0.000    1.538    3.385    6.462    0.000    0.000 
#    0.000    0.000    0.000    0.000    0.000    0.000 
#
# Total GULP energy -72523.749228 kJ/mol
# GULP energy per Si atom -5578.749941 kJ/mol
# Density = 2.337740 g / cm^3
# Si number density = 23.430734 Si / 1000 Ang^3
#
#
#
# Elastic Constant Matrix: (Units=GPa)
#
#
# Indices 1 2 3 4 5 6 
#
# 1 160.0735 93.3788 57.1638 4.6542 -55.5550 -3.1479
# 2 93.3788 148.4517 52.1566 3.5641 -13.4549 13.9877
# 3 57.1638 52.1566 78.1365 -4.3122 -12.7363 1.5592
# 4 4.6542 3.5641 -4.3122 40.7267 5.3061 -1.2682
# 5 -55.5550 -13.4549 -12.7363 5.3061 43.0567 -4.6930
# 6 -3.1479 13.9877 1.5592 -1.2682 -4.6930 13.7189
#
#
#
# Elastic Compliance Matrix: (Units=1/GPa)
#
#
# Indices 1 2 3 4 5 6 
#
# 1 0.041224 -0.023094 -0.008046 -0.008507 0.050122 0.050280
# 2 -0.023094 0.022946 -0.002025 0.002850 -0.027684 -0.037672
# 3 -0.008046 -0.002025 0.019315 0.003831 -0.006181 -0.003737
# 4 -0.008507 0.002850 0.003831 0.027162 -0.013091 -0.007261
# 5 0.050122 -0.027684 -0.006181 -0.013091 0.086532 0.068821
# 6 0.050280 -0.037672 -0.003737 -0.007261 0.068821 0.146135
#
#
# Mechanical properties :
#
#
# Convention : Reuss Voigt Hill
#
# Bulk Modulus (GPa) = 58.29385 88.00667 73.15026
# Shear Modulus (GPa) = 12.03767 31.76463 21.90115
#
# Velocity S-wave (km/s) = 2.26908 3.68595 3.06063
# Velocity P-wave (km/s) = 5.63899 7.46705 6.61646
#
# Compressibility (1/GPa) = 0.01715447
#
# Stress axis : x y z
#
# Youngs Moduli (GPa) = 24.25768 43.58011 51.77392
#
# Poissons Ratio (x) = 1.00645 0.41659
# Poissons Ratio (y) = 0.56021 0.10483
# Poissons Ratio (z) = 0.19519 0.08824
#
# Static dielectric constant tensor:
#      x y z
#    x 1.816590 0.004490 -0.056370 
#    y 0.004490 1.915080 0.011750 
#    z -0.056370 0.011750 1.966100 
# 
# From -- ./inp_files/401749.got.cif
#   From: 2010.05.17/outbox.cif.g08.bks.cpg/sg2_201_cif.got.tgz:401749.got - 2010.06.03 11:33:40.
