data_PCOD9095099
_publ_section_title
;
Structure prediction by ZEFSAII (Michael W. Deem and Ramdas Pophale) SiO2 
 PCOD9095099
Probable space group: P -1
;
_chemical_formula_sum "Si O2"
_cell_formula_units_Z 14
_cell_length_a 9.170918
_cell_length_b 14.256654
_cell_length_c 11.465307
_cell_angle_alpha 149.002416
_cell_angle_beta 66.096464
_cell_angle_gamma 121.577998
_cell_volume 654.433074
_symmetry_space_group_name_H-M "P -1"
_symmetry_group_IT_number 2
_symmetry_cell_setting 'triclinic'
loop_
_space_group_symop_operation_xyz
x,y,z
-x,-y,-z
loop_
_atom_site_type_symbol
_atom_site_label
_atom_site_fract_x
_atom_site_fract_y
_atom_site_fract_z
Si Si1 0.705064 0.967730 0.245644
Si Si2 0.314463 0.654479 0.270347
Si Si3 0.936316 0.009414 0.898376
Si Si4 0.656783 0.505610 0.372117
Si Si5 0.418600 0.093022 0.029524
Si Si6 0.023306 0.549406 0.681501
Si Si7 0.438891 0.515786 0.870582
O O1 0.658484 0.117874 0.500687
O O2 0.906765 0.010481 0.244380
O O3 0.594845 0.733956 0.043038
O O4 0.671919 0.022785 0.181032
O O5 0.303242 0.554514 0.041499
O O6 0.148751 0.548453 0.291877
O O7 0.475201 0.622232 0.244235
O O8 0.737311 0.861921 0.807503
O O9 0.925369 0.215928 0.085170
O O10 0.000000 0.000000 0.000000
O O11 0.500000 0.500000 0.500000
O O12 0.580220 0.270650 0.118006
O O13 0.835848 0.532198 0.402629
O O14 0.643523 0.582449 0.329487
O O15 0.500000 0.000000 0.000000
O O16 0.000000 0.500000 0.500000
#
# Coordination Sequence:
#
# PCOD9095099 Si02
#       7
#     2   2   2   2   2   2   2
#     4  10  21  38  62  87 119 161 205 246 300 367
#     4  11  23  40  67  88 123 164 206 252 302 369
#     4  10  20  35  56  85 124 155 199 249 298 359
#     4  11  25  37  61  89 125 159 201 259 306 360
#     4  10  20  35  54  87 121 155 195 249 303 356
#     4  12  23  38  61  93 122 161 207 250 310 363
#     4  10  23  44  61  91 123 162 209 249 305 365
#
# _framework density 21.392562999999999
#
# number of rings (size 3 to 8) (size 9 to 14) (size 15 to 20)
#    0.000    1.429    2.857    3.000    8.000    0.571 
#    0.000    0.000    0.000    0.857    0.000    0.000 
#    0.000    0.000    0.000    0.000    0.000    0.000 
#
# Total GULP energy -78033.511766 kJ/mol
# GULP energy per Si atom -5573.822269 kJ/mol
# Density = 2.134387 g / cm^3
# Si number density = 21.392563 Si / 1000 Ang^3
#
#
#
# Elastic Constant Matrix: (Units=GPa)
#
#
# Indices 1 2 3 4 5 6 
#
# 1 115.7381 13.6663 28.1889 -25.6842 -17.4594 0.9579
# 2 13.6663 63.5948 4.3414 -19.5261 -1.3473 16.7344
# 3 28.1889 4.3414 71.5123 -27.6157 -24.0950 -0.9111
# 4 -25.6842 -19.5261 -27.6157 48.0044 -5.3321 0.6713
# 5 -17.4594 -1.3473 -24.0950 -5.3321 35.2396 0.0051
# 6 0.9579 16.7344 -0.9111 0.6713 0.0051 38.4594
#
#
#
# Elastic Compliance Matrix: (Units=1/GPa)
#
#
# Indices 1 2 3 4 5 6 
#
# 1 0.011129 0.000033 0.000818 0.007240 0.007170 -0.000399
# 2 0.000033 0.022140 0.006093 0.013449 0.007065 -0.009726
# 3 0.000818 0.006093 0.030868 0.023517 0.025303 -0.002354
# 4 0.007240 0.013449 0.023517 0.046821 0.027266 -0.006296
# 5 0.007170 0.007065 0.025303 0.027266 0.053626 -0.003136
# 6 -0.000399 -0.009726 -0.002354 -0.006296 -0.003136 0.030298
#
#
# Mechanical properties :
#
#
# Convention : Reuss Voigt Hill
#
# Bulk Modulus (GPa) = 12.81654 38.13757 25.47705
# Shear Modulus (GPa) = 24.15420 37.98392 31.06906
#
# Velocity S-wave (km/s) = 3.36384 4.21832 3.81508
# Velocity P-wave (km/s) = 4.59254 6.44917 5.59836
#
# Compressibility (1/GPa) = 0.07802418
#
# Stress axis : x y z
#
# Youngs Moduli (GPa) = 89.85780 45.16724 32.39554
#
# Poissons Ratio (x) = -0.00147 -0.02649
# Poissons Ratio (y) = -0.00293 -0.19740
# Poissons Ratio (z) = -0.07347 -0.27522
#
# Static dielectric constant tensor:
#      x y z
#    x 1.804710 0.004020 0.099360 
#    y 0.004020 1.872480 0.034290 
#    z 0.099360 0.034290 2.018180 
# 
# From -- ./inp_files/169873.got.cif
#   From: 2010.05.17/outbox.cif.g08.bks.cpg/sg2_85_cif.got.tgz:169873.got - 2010.06.03 11:33:40.
