data_PCOD9095381
_publ_section_title
;
Structure prediction by ZEFSAII (Michael W. Deem and Ramdas Pophale) SiO2 
 PCOD9095381
Probable space group: P -1
;
_chemical_formula_sum "Si O2"
_cell_formula_units_Z 14
_cell_length_a 12.516220
_cell_length_b 7.774747
_cell_length_c 18.155154
_cell_angle_alpha 44.218792
_cell_angle_beta 141.532022
_cell_angle_gamma 107.506664
_cell_volume 613.147269
_symmetry_space_group_name_H-M "P -1"
_symmetry_group_IT_number 2
_symmetry_cell_setting 'triclinic'
loop_
_space_group_symop_operation_xyz
x,y,z
-x,-y,-z
loop_
_atom_site_type_symbol
_atom_site_label
_atom_site_fract_x
_atom_site_fract_y
_atom_site_fract_z
Si Si1 0.769590 0.232699 0.269791
Si Si2 0.737752 0.702200 0.735573
Si Si3 0.999180 0.086163 0.137874
Si Si4 0.989857 0.882780 0.353862
Si Si5 0.569431 0.852916 0.903929
Si Si6 0.007130 0.259408 0.885173
Si Si7 0.317901 0.277484 0.766414
O O1 0.588464 0.197982 0.208802
O O2 0.814496 0.134938 0.238051
O O3 0.685999 0.581412 0.112161
O O4 0.000000 0.000000 0.500000
O O5 0.859383 0.557864 0.766108
O O6 0.834940 0.828759 0.803702
O O7 0.500000 0.000000 0.500000
O O8 0.780624 0.401900 0.891968
O O9 0.001272 0.031887 0.241844
O O10 0.053215 0.786363 0.215673
O O11 0.886825 0.713072 0.325369
O O12 0.211693 0.640160 0.592047
O O13 0.412246 0.164809 0.769164
O O14 0.756592 0.825643 0.968641
O O15 0.000000 0.000000 0.000000
O O16 0.500000 0.000000 0.000000
#
# Coordination Sequence:
#
# PCOD9095381 Si02
#       7
#     2   2   2   2   2   2   2
#     4  10  21  39  62  90 129 174 216 265 325 387
#     4  10  23  44  67  94 127 171 225 273 327 395
#     4  10  22  42  65  93 133 168 212 276 331 387
#     4  10  21  36  57  89 122 159 208 259 315 379
#     4  10  21  38  60  90 125 165 218 266 319 388
#     4  10  22  42  66  94 132 173 217 271 332 394
#     4  10  20  35  57  84 118 157 204 256 310 376
#
# _framework density 22.833013000000001
#
# number of rings (size 3 to 8) (size 9 to 14) (size 15 to 20)
#    0.000    2.000    0.000    2.571    0.000    6.286 
#    0.000   18.571    0.000    0.000    0.000    0.000 
#    0.000    0.000    0.000    0.000    0.000    0.000 
#
# Total GULP energy -77943.019923 kJ/mol
# GULP energy per Si atom -5567.358566 kJ/mol
# Density = 2.278104 g / cm^3
# Si number density = 22.833013 Si / 1000 Ang^3
#
#
#
# Elastic Constant Matrix: (Units=GPa)
#
#
# Indices 1 2 3 4 5 6 
#
# 1 102.5046 39.0132 27.5264 -9.3562 14.6958 4.8389
# 2 39.0132 95.4947 27.8509 -2.2377 17.4966 -8.9731
# 3 27.5264 27.8509 142.2800 -2.2962 14.4686 5.0806
# 4 -9.3562 -2.2377 -2.2962 31.8130 -5.1251 9.6750
# 5 14.6958 17.4966 14.4686 -5.1251 36.0445 -1.8123
# 6 4.8389 -8.9731 5.0806 9.6750 -1.8123 35.0018
#
#
#
# Elastic Compliance Matrix: (Units=1/GPa)
#
#
# Indices 1 2 3 4 5 6 
#
# 1 0.012754 -0.004804 -0.001105 0.004259 -0.002026 -0.004117
# 2 -0.004804 0.014119 -0.001614 -0.002782 -0.004388 0.005060
# 3 -0.001105 -0.001614 0.007817 0.000292 -0.001941 -0.001577
# 4 0.004259 -0.002782 0.000292 0.036598 0.004135 -0.011247
# 5 -0.002026 -0.004388 -0.001941 0.004135 0.032065 -0.000046
# 6 -0.004117 0.005060 -0.001577 -0.011247 -0.000046 0.033771
#
#
# Mechanical properties :
#
#
# Convention : Reuss Voigt Hill
#
# Bulk Modulus (GPa) = 50.90631 58.78448 54.84539
# Shear Modulus (GPa) = 31.50222 36.96446 34.23334
#
# Velocity S-wave (km/s) = 3.71843 4.02793 3.87627
# Velocity P-wave (km/s) = 6.38585 6.88720 6.64126
#
# Compressibility (1/GPa) = 0.01964393
#
# Stress axis : x y z
#
# Youngs Moduli (GPa) = 78.40399 70.82461 127.93335
#
# Poissons Ratio (x) = 0.34025 0.14142
# Poissons Ratio (y) = 0.37666 0.20645
# Poissons Ratio (z) = 0.08667 0.11429
#
# Static dielectric constant tensor:
#      x y z
#    x 2.048710 -0.149940 -0.215650 
#    y -0.149940 2.117680 0.125540 
#    z -0.215650 0.125540 2.140220 
# 
# From -- ./inp_files/566450.got.cif
#   From: 2010.05.17/outbox.cif.g08.bks.cpg/sg2_284_cif.got.tgz:566450.got - 2010.06.03 11:33:40.
