data_PCOD9095257
_publ_section_title
;
Structure prediction by ZEFSAII (Michael W. Deem and Ramdas Pophale) SiO2 
 PCOD9095257
Probable space group: P -1
;
_chemical_formula_sum "Si O2"
_cell_formula_units_Z 16
_cell_length_a 9.852981
_cell_length_b 13.959542
_cell_length_c 8.261388
_cell_angle_alpha 67.009667
_cell_angle_beta 79.258034
_cell_angle_gamma 40.047770
_cell_volume 660.776641
_symmetry_space_group_name_H-M "P -1"
_symmetry_group_IT_number 2
_symmetry_cell_setting 'triclinic'
loop_
_space_group_symop_operation_xyz
x,y,z
-x,-y,-z
loop_
_atom_site_type_symbol
_atom_site_label
_atom_site_fract_x
_atom_site_fract_y
_atom_site_fract_z
Si Si1 0.291094 0.560317 0.438360
Si Si2 0.254138 0.185004 0.955511
Si Si3 0.329617 0.159806 0.607923
Si Si4 0.859420 0.281643 0.963655
Si Si5 0.449379 0.766265 0.382794
Si Si6 0.936639 0.114112 0.754748
Si Si7 0.375246 0.212776 0.227055
Si Si8 0.655927 0.236418 0.242972
O O1 0.500000 0.500000 0.500000
O O2 0.270185 0.577511 0.235491
O O3 0.325465 0.422476 0.577262
O O4 0.102666 0.747752 0.407577
O O5 0.184875 0.247903 0.743271
O O6 0.065623 0.218010 0.034464
O O7 0.271499 0.260351 0.042238
O O8 0.500000 0.000000 0.000000
O O9 0.514454 0.136688 0.636322
O O10 0.249634 0.249475 0.393915
O O11 0.430981 0.986071 0.683247
O O12 0.956957 0.135096 0.922765
O O13 0.702814 0.320901 0.101299
O O14 0.275738 0.835570 0.243530
O O15 0.359607 0.760043 0.564743
O O16 0.132435 0.949575 0.732222
O O17 0.462473 0.278519 0.187409
#
# Coordination Sequence:
#
# PCOD9095257 Si02
#       8
#     2   2   2   2   2   2   2   2
#     4   8  19  38  55  80 120 157 189 235 290 361
#     4  10  20  35  56  82 119 157 191 238 304 349
#     4   9  19  34  55  79 113 159 193 234 287 360
#     4  10  22  36  59  86 116 149 200 242 291 351
#     4  10  20  36  58  85 114 157 192 235 300 351
#     4   9  19  33  55  82 119 142 189 240 288 345
#     4   9  20  35  53  83 121 150 186 241 306 343
#     4  11  21  34  59  93 115 142 194 257 293 343
#
# _framework density 24.213930999999999
#
# number of rings (size 3 to 8) (size 9 to 14) (size 15 to 20)
#    0.750    1.750    0.000    2.250    5.250    0.500 
#    4.500    0.625    0.000    3.000    0.000    0.000 
#    0.000    0.000    0.000    0.000    0.000    0.000 
#
# Total GULP energy -89174.367776 kJ/mol
# GULP energy per Si atom -5573.397986 kJ/mol
# Density = 2.415882 g / cm^3
# Si number density = 24.213931 Si / 1000 Ang^3
#
#
#
# Elastic Constant Matrix: (Units=GPa)
#
#
# Indices 1 2 3 4 5 6 
#
# 1 116.1567 2.4338 31.4718 6.7803 -0.0233 7.3873
# 2 2.4338 52.5855 16.4596 -2.7073 -2.2169 -2.1469
# 3 31.4718 16.4596 89.7542 11.9625 0.1132 -9.9670
# 4 6.7803 -2.7073 11.9625 26.9222 0.9442 4.0325
# 5 -0.0233 -2.2169 0.1132 0.9442 31.5355 8.3836
# 6 7.3873 -2.1469 -9.9670 4.0325 8.3836 19.8369
#
#
#
# Elastic Compliance Matrix: (Units=1/GPa)
#
#
# Indices 1 2 3 4 5 6 
#
# 1 0.010245 0.000781 -0.004576 0.000504 0.001908 -0.006939
# 2 0.000781 0.020728 -0.004899 0.004327 0.001932 -0.002205
# 3 -0.004576 -0.004899 0.016126 -0.008244 -0.003459 0.012414
# 4 0.000504 0.004327 -0.008244 0.043082 0.002703 -0.013761
# 5 0.001908 0.001932 -0.003459 0.002703 0.036637 -0.018273
# 6 -0.006939 -0.002205 0.012414 -0.013761 -0.018273 0.069514
#
#
# Mechanical properties :
#
#
# Convention : Reuss Voigt Hill
#
# Bulk Modulus (GPa) = 33.65688 39.91407 36.78547
# Shear Modulus (GPa) = 22.35915 29.53433 25.94674
#
# Velocity S-wave (km/s) = 3.04205 3.49624 3.27702
# Velocity P-wave (km/s) = 5.12530 5.72870 5.43538
#
# Compressibility (1/GPa) = 0.02971161
#
# Stress axis : x y z
#
# Youngs Moduli (GPa) = 97.61183 48.24359 62.01166
#
# Poissons Ratio (x) = -0.03769 0.28374
# Poissons Ratio (y) = -0.07625 0.30381
# Poissons Ratio (z) = 0.44663 0.23635
#
# Static dielectric constant tensor:
#      x y z
#    x 1.929820 0.014690 -0.058000 
#    y 0.014690 1.989250 -0.060350 
#    z -0.058000 -0.060350 2.001390 
# 
# From -- ./inp_files/206351.got.cif
#   From: 2010.05.17/outbox.cif.g08.bks.cpg/sg2_104_cif.got.tgz:206351.got - 2010.06.03 11:33:40.
