data_PCOD9095538
_publ_section_title
;
Structure prediction by ZEFSAII (Michael W. Deem and Ramdas Pophale) SiO2 
 PCOD9095538
Probable space group: P -1
;
_chemical_formula_sum "Si O2"
_cell_formula_units_Z 14
_cell_length_a 8.904179
_cell_length_b 5.002224
_cell_length_c 14.051433
_cell_angle_alpha 81.558294
_cell_angle_beta 71.157836
_cell_angle_gamma 77.036748
_cell_volume 575.347209
_symmetry_space_group_name_H-M "P -1"
_symmetry_group_IT_number 2
_symmetry_cell_setting 'triclinic'
loop_
_space_group_symop_operation_xyz
x,y,z
-x,-y,-z
loop_
_atom_site_type_symbol
_atom_site_label
_atom_site_fract_x
_atom_site_fract_y
_atom_site_fract_z
Si Si1 0.939857 0.818873 0.309038
Si Si2 0.367378 0.255889 0.051007
Si Si3 0.176070 0.552675 0.419820
Si Si4 0.672915 0.005248 0.515448
Si Si5 0.863961 0.823460 0.033304
Si Si6 0.406163 0.707914 0.859802
Si Si7 0.153549 0.613000 0.790879
O O1 0.806118 0.933657 0.409198
O O2 0.882889 0.566792 0.280714
O O3 0.112601 0.717915 0.328745
O O4 0.927341 0.074599 0.227876
O O5 0.409482 0.290802 0.150349
O O6 0.199229 0.185739 0.060371
O O7 0.370579 0.513675 0.965946
O O8 0.500000 0.000000 0.000000
O O9 0.286084 0.251621 0.406787
O O10 0.000000 0.500000 0.500000
O O11 0.722749 0.269157 0.544319
O O12 0.500000 0.000000 0.500000
O O13 0.902041 0.538599 0.097406
O O14 0.709245 0.999012 0.113434
O O15 0.000000 0.000000 0.000000
O O16 0.342959 0.607143 0.779520
#
# Coordination Sequence:
#
# PCOD9095538 Si02
#       7
#     2   2   2   2   2   2   2
#     4  11  21  38  62  90 124 161 203 242 298 370
#     4   8  16  30  55  78 104 144 195 253 284 348
#     4  10  20  38  64  95 120 165 208 239 291 377
#     4  11  22  39  67  98 123 156 206 255 298 351
#     4  10  20  35  58  86 114 150 206 257 300 343
#     4   9  17  34  54  83 105 147 199 242 295 353
#     4  11  21  35  58  89 116 159 199 247 299 362
#
# _framework density 24.333134999999999
#
# number of rings (size 3 to 8) (size 9 to 14) (size 15 to 20)
#    0.000    2.000    1.429    4.714    0.000    2.286 
#    0.000    0.000    3.143   15.429    0.000    0.000 
#    0.000    0.000    0.000    0.000    0.000    0.000 
#
# Total GULP energy -78098.909551 kJ/mol
# GULP energy per Si atom -5578.493539 kJ/mol
# Density = 2.427775 g / cm^3
# Si number density = 24.333135 Si / 1000 Ang^3
#
#
#
# Elastic Constant Matrix: (Units=GPa)
#
#
# Indices 1 2 3 4 5 6 
#
# 1 154.1762 48.0469 40.2171 -12.1564 55.3433 15.1660
# 2 48.0469 126.8153 18.2275 -33.1995 19.8814 6.6253
# 3 40.2171 18.2275 72.9575 -17.8176 27.9546 0.6720
# 4 -12.1564 -33.1995 -17.8176 43.9924 -0.4044 16.2286
# 5 55.3433 19.8814 27.9546 -0.4044 47.0544 7.8794
# 6 15.1660 6.6253 0.6720 16.2286 7.8794 42.1773
#
#
#
# Elastic Compliance Matrix: (Units=1/GPa)
#
#
# Indices 1 2 3 4 5 6 
#
# 1 0.012298 -0.001676 -0.000754 0.002747 -0.012814 -0.002810
# 2 -0.001676 0.011936 0.001984 0.011152 -0.003321 -0.004974
# 3 -0.000754 0.001984 0.020696 0.010356 -0.011798 -0.002151
# 4 0.002747 0.011152 0.010356 0.042333 -0.010857 -0.017165
# 5 -0.012814 -0.003321 -0.011798 -0.010857 0.044443 0.001192
# 6 -0.002810 -0.004974 -0.002151 -0.017165 0.001192 0.031917
#
#
# Mechanical properties :
#
#
# Convention : Reuss Voigt Hill
#
# Bulk Modulus (GPa) = 22.70792 62.99246 42.85019
# Shear Modulus (GPa) = 27.90292 43.14198 35.52245
#
# Velocity S-wave (km/s) = 3.38998 4.21524 3.82493
# Velocity P-wave (km/s) = 4.96739 7.04519 6.09547
#
# Compressibility (1/GPa) = 0.04403751
#
# Stress axis : x y z
#
# Youngs Moduli (GPa) = 81.31598 83.78333 48.31871
#
# Poissons Ratio (x) = 0.14044 0.03642
# Poissons Ratio (y) = 0.13630 -0.09587
# Poissons Ratio (z) = 0.06129 -0.16623
#
# Static dielectric constant tensor:
#      x y z
#    x 2.066490 0.046420 0.012680 
#    y 0.046420 2.011990 0.017480 
#    z 0.012680 0.017480 2.017630 
# 
# From -- ./inp_files/488279.got.cif
#   From: 2010.05.17/outbox.cif.g08.bks.cpg/sg2_245_cif.got.tgz:488279.got - 2010.06.03 11:33:40.
