data_PCOD9095634
_publ_section_title
;
Structure prediction by ZEFSAII (Michael W. Deem and Ramdas Pophale) SiO2 
 PCOD9095634
Probable space group: P -1
;
_chemical_formula_sum "Si O2"
_cell_formula_units_Z 11
_cell_length_a 8.276495
_cell_length_b 11.383666
_cell_length_c 11.058830
_cell_angle_alpha 71.889330
_cell_angle_beta 132.963231
_cell_angle_gamma 144.307454
_cell_volume 366.021844
_symmetry_space_group_name_H-M "P -1"
_symmetry_group_IT_number 2
_symmetry_cell_setting 'triclinic'
loop_
_space_group_symop_operation_xyz
x,y,z
-x,-y,-z
loop_
_atom_site_type_symbol
_atom_site_label
_atom_site_fract_x
_atom_site_fract_y
_atom_site_fract_z
Si Si1 0.885632 0.337074 0.218402
Si Si2 0.862527 0.802058 0.545929
Si Si3 0.000000 0.500000 0.000000
Si Si4 0.027257 0.274192 0.904621
Si Si5 0.301955 0.243684 0.243352
Si Si6 0.157385 0.695749 0.417512
O O1 0.363557 0.560546 0.317536
O O2 0.874704 0.199690 0.323438
O O3 0.951976 0.480206 0.301577
O O4 0.641312 0.263963 0.996465
O O5 0.801601 0.777858 0.666052
O O6 0.000000 0.000000 0.500000
O O7 0.015346 0.633705 0.051369
O O8 0.981449 0.129916 0.010305
O O9 0.500000 0.500000 0.000000
O O10 0.707877 0.148574 0.669680
O O11 0.450795 0.174770 0.350606
O O12 0.745612 0.532960 0.340209
#
# Coordination Sequence:
#
# PCOD9095634 Si02
#       6
#     2   2   1   2   2   2
#     4   9  18  32  51  73 100 129 174 215 253 310
#     4  10  19  32  50  74 103 135 170 209 259 316
#     4  10  16  30  52  76 100 132 176 218 256 314
#     4   9  16  26  45  75 101 128 169 216 260 306
#     4   9  15  29  47  69 100 130 166 211 257 301
#     4   8  16  27  48  74  93 127 174 209 251 309
#
# _framework density 30.052849999999999
#
# number of rings (size 3 to 8) (size 9 to 14) (size 15 to 20)
#    0.000    2.909    1.818    0.000    0.000    0.000 
#    0.000    1.818    0.000    0.000    0.000    3.818 
#    0.000    0.000    0.000    0.000    0.000    0.000 
#
# Total GULP energy -61241.007045 kJ/mol
# GULP energy per Si atom -5567.364277 kJ/mol
# Density = 2.998445 g / cm^3
# Si number density = 30.052850 Si / 1000 Ang^3
#
#
#
# Elastic Constant Matrix: (Units=GPa)
#
#
# Indices 1 2 3 4 5 6 
#
# 1 159.4275 42.2844 56.0388 -23.2428 -17.0941 -18.7493
# 2 42.2844 97.3536 -7.6677 -54.4516 -11.0913 -20.5381
# 3 56.0388 -7.6677 115.2346 -42.2057 -28.3453 -3.6559
# 4 -23.2428 -54.4516 -42.2057 78.3936 18.3736 3.7433
# 5 -17.0941 -11.0913 -28.3453 18.3736 61.7884 -16.7282
# 6 -18.7493 -20.5381 -3.6559 3.7433 -16.7282 36.5172
#
#
#
# Elastic Compliance Matrix: (Units=1/GPa)
#
#
# Indices 1 2 3 4 5 6 
#
# 1 0.011194 -0.011515 -0.010091 -0.009821 -0.001001 -0.001191
# 2 -0.011515 0.044856 0.026154 0.037895 0.011966 0.023531
# 3 -0.010091 0.026154 0.028417 0.027259 0.010761 0.014509
# 4 -0.009821 0.037895 0.027259 0.048419 0.006841 0.017170
# 5 -0.001001 0.011966 0.010761 0.006841 0.025962 0.018485
# 6 -0.001191 0.023531 0.014509 0.017170 0.018485 0.048168
#
#
# Mechanical properties :
#
#
# Convention : Reuss Voigt Hill
#
# Bulk Modulus (GPa) = 10.68793 61.48075 36.08434
# Shear Modulus (GPa) = 21.82377 54.09718 37.96047
#
# Velocity S-wave (km/s) = 2.69770 4.24732 3.55790
# Velocity P-wave (km/s) = 3.64246 6.67495 5.37692
#
# Compressibility (1/GPa) = 0.09356347
#
# Stress axis : x y z
#
# Youngs Moduli (GPa) = 89.33058 22.29336 35.19063
#
# Poissons Ratio (x) = 0.25671 0.35511
# Poissons Ratio (y) = 1.02865 -0.92038
# Poissons Ratio (z) = 0.90144 -0.58306
#
# Static dielectric constant tensor:
#      x y z
#    x 2.367280 0.130680 -0.060050 
#    y 0.130680 2.540840 0.126620 
#    z -0.060050 0.126620 1.326510 
# 
# From -- ./inp_files/33206.got.cif
#   From: 2010.05.17/outbox.cif.g08.bks.cpg/sg2_17_cif.got.tgz:33206.got - 2010.06.03 11:33:40.
