data_PCOD9095582
_publ_section_title
;
Structure prediction by ZEFSAII (Michael W. Deem and Ramdas Pophale) SiO2 
 PCOD9095582
Probable space group: P -1
;
_chemical_formula_sum "Si O2"
_cell_formula_units_Z 16
_cell_length_a 9.640842
_cell_length_b 11.548028
_cell_length_c 15.950522
_cell_angle_alpha 102.080651
_cell_angle_beta 31.707733
_cell_angle_gamma 114.846614
_cell_volume 805.032593
_symmetry_space_group_name_H-M "P -1"
_symmetry_group_IT_number 2
_symmetry_cell_setting 'triclinic'
loop_
_space_group_symop_operation_xyz
x,y,z
-x,-y,-z
loop_
_atom_site_type_symbol
_atom_site_label
_atom_site_fract_x
_atom_site_fract_y
_atom_site_fract_z
Si Si1 0.613273 0.565631 0.861440
Si Si2 0.944737 0.175471 0.892113
Si Si3 0.643779 0.682625 0.166958
Si Si4 0.665530 0.914254 0.079391
Si Si5 0.767727 0.244413 0.493293
Si Si6 0.235535 0.973237 0.427741
Si Si7 0.254127 0.085249 0.606466
Si Si8 0.406337 0.164821 0.077418
O O1 0.477270 0.452590 0.843398
O O2 0.533007 0.686320 0.912457
O O3 0.972042 0.642125 0.677610
O O4 0.500000 0.500000 0.000000
O O5 0.091797 0.293729 0.900787
O O6 0.133882 0.189923 0.713030
O O7 0.609937 0.133042 0.030773
O O8 0.945322 0.050210 0.923258
O O9 0.732803 0.805677 0.074479
O O10 0.398065 0.693064 0.355135
O O11 0.483888 0.966258 0.239430
O O12 0.500550 0.844168 0.067370
O O13 0.893062 0.171499 0.481691
O O14 0.528067 0.129298 0.537542
O O15 0.351670 0.081453 0.460380
O O16 0.000000 0.000000 0.500000
O O17 0.944782 0.943623 0.752412
#
# Coordination Sequence:
#
# PCOD9095582 Si02
#       8
#     2   2   2   2   2   2   2   2
#     4  12  24  40  63  85 119 164 208 242 283 363
#     4  10  21  37  62  89 121 155 191 252 303 349
#     4  10  22  40  59  87 119 161 202 238 292 355
#     4  10  20  35  58  89 121 150 195 245 297 352
#     4  10  23  40  64  84 121 159 201 248 292 353
#     4  11  20  32  57  93 123 146 186 247 308 348
#     4  10  20  39  62  90 118 155 197 246 302 351
#     4  11  21  38  62  89 122 156 195 245 305 350
#
# _framework density 19.874972
#
# number of rings (size 3 to 8) (size 9 to 14) (size 15 to 20)
#    0.000    1.500    2.500    4.125    0.000    2.500 
#    0.000    0.000    2.750    1.500    0.000    0.000 
#    0.000    0.000    0.000    0.000    0.000    0.000 
#
# Total GULP energy -89152.453694 kJ/mol
# GULP energy per Si atom -5572.028356 kJ/mol
# Density = 1.982974 g / cm^3
# Si number density = 19.874972 Si / 1000 Ang^3
#
#
#
# Elastic Constant Matrix: (Units=GPa)
#
#
# Indices 1 2 3 4 5 6 
#
# 1 120.8240 66.0496 38.5683 0.0014 -2.9055 24.4395
# 2 66.0496 130.1803 24.9933 16.2570 2.3398 42.1870
# 3 38.5683 24.9933 76.7809 6.6030 14.1434 20.5208
# 4 0.0014 16.2570 6.6030 26.9038 8.3046 8.3826
# 5 -2.9055 2.3398 14.1434 8.3046 25.9048 6.7793
# 6 24.4395 42.1870 20.5208 8.3826 6.7793 34.0742
#
#
#
# Elastic Compliance Matrix: (Units=1/GPa)
#
#
# Indices 1 2 3 4 5 6 
#
# 1 0.013789 -0.006355 -0.005884 0.004115 0.004094 -0.000305
# 2 -0.006355 0.016459 0.002162 -0.006336 0.002874 -0.016135
# 3 -0.005884 0.002162 0.019133 -0.000737 -0.008968 -0.008014
# 4 0.004115 -0.006336 -0.000737 0.046115 -0.012422 -0.003537
# 5 0.004094 0.002874 -0.008968 -0.012422 0.049758 -0.007937
# 6 -0.000305 -0.016135 -0.008014 -0.003537 -0.007937 0.056819
#
#
# Mechanical properties :
#
#
# Convention : Reuss Voigt Hill
#
# Bulk Modulus (GPa) = 34.21403 65.22307 49.71855
# Shear Modulus (GPa) = 21.55450 30.58814 26.07132
#
# Velocity S-wave (km/s) = 3.29675 3.92730 3.62576
# Velocity P-wave (km/s) = 5.63413 7.31115 6.52673
#
# Compressibility (1/GPa) = 0.02922778
#
# Stress axis : x y z
#
# Youngs Moduli (GPa) = 72.52200 60.75583 52.26546
#
# Poissons Ratio (x) = 0.38610 0.30754
# Poissons Ratio (y) = 0.46087 -0.11302
# Poissons Ratio (z) = 0.42674 -0.13138
#
# Static dielectric constant tensor:
#      x y z
#    x 1.736460 0.011590 0.010900 
#    y 0.011590 1.713310 0.033340 
#    z 0.010900 0.033340 1.772600 
# 
# From -- ./inp_files/499173.got.cif
#   From: 2010.05.17/outbox.cif.g08.bks.cpg/sg2_250_cif.got.tgz:499173.got - 2010.06.03 11:33:40.
