data_PCOD9095813
_publ_section_title
;
Structure prediction by ZEFSAII (Michael W. Deem and Ramdas Pophale) SiO2 
 PCOD9095813
Probable space group: P -1
;
_chemical_formula_sum "Si O2"
_cell_formula_units_Z 16
_cell_length_a 8.817277
_cell_length_b 10.420309
_cell_length_c 11.236783
_cell_angle_alpha 50.052253
_cell_angle_beta 91.694855
_cell_angle_gamma 113.813706
_cell_volume 684.174937
_symmetry_space_group_name_H-M "P -1"
_symmetry_group_IT_number 2
_symmetry_cell_setting 'triclinic'
loop_
_space_group_symop_operation_xyz
x,y,z
-x,-y,-z
loop_
_atom_site_type_symbol
_atom_site_label
_atom_site_fract_x
_atom_site_fract_y
_atom_site_fract_z
Si Si1 0.280147 0.798764 0.144978
Si Si2 0.737001 0.816361 0.605258
Si Si3 0.293519 0.733849 0.433351
Si Si4 0.351742 0.926114 0.818082
Si Si5 0.084932 0.508232 0.783118
Si Si6 0.027332 0.795842 0.746151
Si Si7 0.591448 0.391035 0.127815
Si Si8 0.341002 0.481636 0.426562
O O1 0.266751 0.847711 0.254188
O O2 0.368192 0.660709 0.237102
O O3 0.077879 0.666633 0.179939
O O4 0.368396 0.941169 0.951500
O O5 0.544162 0.739700 0.694696
O O6 0.735330 0.697202 0.558471
O O7 0.844395 0.786362 0.732224
O O8 0.845905 0.039274 0.442639
O O9 0.193678 0.677224 0.587533
O O10 0.231759 0.520956 0.501433
O O11 0.505178 0.874751 0.361272
O O12 0.152143 0.867530 0.819996
O O13 0.380994 0.754380 0.870749
O O14 0.003684 0.594900 0.821863
O O15 0.224709 0.475655 0.879150
O O16 0.500000 0.500000 0.000000
O O17 0.500000 0.500000 0.500000
#
# Coordination Sequence:
#
# PCOD9095813 Si02
#       8
#     2   2   2   2   2   2   2   2
#     4  10  23  36  63  87 116 158 199 243 291 354
#     4  11  21  40  54  99 117 156 198 241 303 350
#     4  10  22  38  64  86 115 159 204 240 287 353
#     4  11  22  41  61  89 119 159 198 242 305 352
#     4  11  21  42  62  90 115 158 205 241 297 351
#     4  10  22  35  67  84 126 151 195 250 295 358
#     4  11  25  36  63  85 124 153 194 250 300 357
#     4  10  20  35  60  86 123 152 199 243 291 349
#
# _framework density 23.385831
#
# number of rings (size 3 to 8) (size 9 to 14) (size 15 to 20)
#    0.750    0.750    1.250    4.500    1.750    3.000 
#    0.000    0.000    0.000    0.750    0.000    0.000 
#    0.000    0.000    0.000    0.000    0.000    0.000 
#
# Total GULP energy -89158.833516 kJ/mol
# GULP energy per Si atom -5572.427095 kJ/mol
# Density = 2.333260 g / cm^3
# Si number density = 23.385831 Si / 1000 Ang^3
#
#
#
# Elastic Constant Matrix: (Units=GPa)
#
#
# Indices 1 2 3 4 5 6 
#
# 1 63.5939 29.3410 33.9361 2.8937 14.7680 14.8220
# 2 29.3410 97.5216 16.9429 11.8871 6.3643 9.3533
# 3 33.9361 16.9429 115.5873 14.6764 0.4432 4.5018
# 4 2.8937 11.8871 14.6764 37.2452 14.3254 6.5287
# 5 14.7680 6.3643 0.4432 14.3254 40.2970 6.5357
# 6 14.8220 9.3533 4.5018 6.5287 6.5357 31.9457
#
#
#
# Elastic Compliance Matrix: (Units=1/GPa)
#
#
# Indices 1 2 3 4 5 6 
#
# 1 0.026813 -0.006222 -0.007640 0.008477 -0.010286 -0.009170
# 2 -0.006222 0.012472 0.000563 -0.004399 0.001923 -0.000338
# 3 -0.007640 0.000563 0.011499 -0.006198 0.004444 0.002117
# 4 0.008477 -0.004399 -0.006198 0.036666 -0.014352 -0.006329
# 5 -0.010286 0.001923 0.004444 -0.014352 0.033386 -0.000314
# 6 -0.009170 -0.000338 0.002117 -0.006329 -0.000314 0.036716
#
#
# Mechanical properties :
#
#
# Convention : Reuss Voigt Hill
#
# Bulk Modulus (GPa) = 41.34649 48.57143 44.95896
# Shear Modulus (GPa) = 26.01305 34.99644 30.50475
#
# Velocity S-wave (km/s) = 3.33880 3.87263 3.61558
# Velocity P-wave (km/s) = 5.70806 6.38835 6.05776
#
# Compressibility (1/GPa) = 0.02418585
#
# Stress axis : x y z
#
# Youngs Moduli (GPa) = 37.29593 80.18256 86.96093
#
# Poissons Ratio (x) = 0.49891 0.66436
# Poissons Ratio (y) = 0.23206 -0.04897
# Poissons Ratio (z) = 0.28493 -0.04515
#
# Static dielectric constant tensor:
#      x y z
#    x 1.906540 0.055230 0.034580 
#    y 0.055230 1.914500 0.035160 
#    z 0.034580 0.035160 1.948640 
# 
# From -- ./inp_files/389111.got.cif
#   From: 2010.05.17/outbox.cif.g08.bks.cpg/sg2_195_cif.got.tgz:389111.got - 2010.06.03 11:33:40.
