data_PCOD9095902
_publ_section_title
;
Structure prediction by ZEFSAII (Michael W. Deem and Ramdas Pophale) SiO2 
 PCOD9095902
Probable space group: P -1
;
_chemical_formula_sum "Si O2"
_cell_formula_units_Z 16
_cell_length_a 16.342432
_cell_length_b 11.217229
_cell_length_c 15.592786
_cell_angle_alpha 133.884101
_cell_angle_beta 26.423690
_cell_angle_gamma 141.645919
_cell_volume 788.883280
_symmetry_space_group_name_H-M "P -1"
_symmetry_group_IT_number 2
_symmetry_cell_setting 'triclinic'
loop_
_space_group_symop_operation_xyz
x,y,z
-x,-y,-z
loop_
_atom_site_type_symbol
_atom_site_label
_atom_site_fract_x
_atom_site_fract_y
_atom_site_fract_z
Si Si1 0.228059 0.551108 0.014721
Si Si2 0.960573 0.520413 0.408255
Si Si3 0.646187 0.785961 0.445657
Si Si4 0.670067 0.812394 0.028133
Si Si5 0.765156 0.194779 0.556275
Si Si6 0.434921 0.425377 0.160002
Si Si7 0.933825 0.878947 0.086830
Si Si8 0.762230 0.455165 0.188222
O O1 0.077629 0.579107 0.236418
O O2 0.439260 0.603379 0.896019
O O3 0.088491 0.323940 0.011972
O O4 0.296605 0.637528 0.898259
O O5 0.884529 0.307753 0.412929
O O6 0.753788 0.542328 0.615449
O O7 0.122860 0.660186 0.398151
O O8 0.699969 0.825561 0.314161
O O9 0.737511 0.644561 0.310230
O O10 0.404470 0.682176 0.652612
O O11 0.763577 0.000088 0.479403
O O12 0.476669 0.850913 0.244413
O O13 0.608725 0.621106 0.045725
O O14 0.659822 0.744683 0.906132
O O15 0.888464 0.992619 0.945500
O O16 0.000000 0.000000 0.000000
O O17 0.000000 0.500000 0.000000
#
# Coordination Sequence:
#
# PCOD9095902 Si02
#       8
#     2   2   2   2   2   2   2   2
#     4  11  22  39  62  88 126 162 211 270 314 373
#     4  10  21  37  61  99 132 166 202 253 319 396
#     4  10  23  41  66  89 123 170 218 261 320 378
#     4  10  20  35  60  93 133 170 199 245 318 393
#     4  10  20  37  64  95 132 166 209 250 320 398
#     4  10  20  37  61  88 131 175 200 245 320 383
#     4  11  21  36  60  97 134 158 203 264 320 389
#     4  10  25  47  65  85 122 173 225 277 319 361
#
# _framework density 20.281835000000001
#
# number of rings (size 3 to 8) (size 9 to 14) (size 15 to 20)
#    0.000    1.750    2.500    1.500    5.250    3.000 
#    0.000    2.500    0.000    2.250    0.000    0.000 
#    0.000    0.000    0.000    0.000    0.000    0.000 
#
# Total GULP energy -89258.243242 kJ/mol
# GULP energy per Si atom -5578.640203 kJ/mol
# Density = 2.023567 g / cm^3
# Si number density = 20.281835 Si / 1000 Ang^3
#
#
#
# Elastic Constant Matrix: (Units=GPa)
#
#
# Indices 1 2 3 4 5 6 
#
# 1 86.4889 4.8216 53.4205 -9.2151 4.6732 15.9486
# 2 4.8216 61.3959 25.8936 -1.6020 5.2586 5.9548
# 3 53.4205 25.8936 151.3001 -19.6048 10.1885 -0.2668
# 4 -9.2151 -1.6020 -19.6048 24.1016 1.3317 3.9552
# 5 4.6732 5.2586 10.1885 1.3317 31.9638 -6.2225
# 6 15.9486 5.9548 -0.2668 3.9552 -6.2225 24.7541
#
#
#
# Elastic Compliance Matrix: (Units=1/GPa)
#
#
# Indices 1 2 3 4 5 6 
#
# 1 0.018722 0.003089 -0.006231 0.004956 -0.004338 -0.014755
# 2 0.003089 0.018805 -0.003983 0.000649 -0.003785 -0.007612
# 3 -0.006231 -0.003983 0.010233 0.005085 -0.001131 0.003986
# 4 0.004956 0.000649 0.005085 0.050104 -0.007086 -0.013082
# 5 -0.004338 -0.003785 -0.001131 -0.007086 0.035894 0.013848
# 6 -0.014755 -0.007612 0.003986 -0.013082 0.013848 0.057349
#
#
# Mechanical properties :
#
#
# Convention : Reuss Voigt Hill
#
# Bulk Modulus (GPa) = 29.84182 51.93959 40.89071
# Shear Modulus (GPa) = 23.09200 30.50052 26.79626
#
# Velocity S-wave (km/s) = 3.37791 3.88214 3.63877
# Velocity P-wave (km/s) = 5.47350 6.76455 6.15298
#
# Compressibility (1/GPa) = 0.03351002
#
# Stress axis : x y z
#
# Youngs Moduli (GPa) = 53.41443 53.17869 97.72200
#
# Poissons Ratio (x) = -0.16429 0.60886
# Poissons Ratio (y) = -0.16502 0.38927
# Poissons Ratio (z) = 0.33280 0.21184
#
# Static dielectric constant tensor:
#      x y z
#    x 1.754730 -0.034100 0.021850 
#    y -0.034100 1.741540 0.013220 
#    z 0.021850 0.013220 1.770890 
# 
# From -- ./inp_files/455872.got.cif
#   From: 2010.05.17/outbox.cif.g08.bks.cpg/sg2_228_cif.got.tgz:455872.got - 2010.06.03 11:33:40.
