data_PCOD9095537
_publ_section_title
;
Structure prediction by ZEFSAII (Michael W. Deem and Ramdas Pophale) SiO2 
 PCOD9095537
Probable space group: P -1
;
_chemical_formula_sum "Si O2"
_cell_formula_units_Z 14
_cell_length_a 7.784487
_cell_length_b 8.869908
_cell_length_c 24.703779
_cell_angle_alpha 138.887843
_cell_angle_beta 140.457560
_cell_angle_gamma 70.624128
_cell_volume 573.699061
_symmetry_space_group_name_H-M "P -1"
_symmetry_group_IT_number 2
_symmetry_cell_setting 'triclinic'
loop_
_space_group_symop_operation_xyz
x,y,z
-x,-y,-z
loop_
_atom_site_type_symbol
_atom_site_label
_atom_site_fract_x
_atom_site_fract_y
_atom_site_fract_z
Si Si1 0.748865 0.844242 0.164464
Si Si2 0.050643 0.166970 0.680596
Si Si3 0.532871 0.206363 0.019153
Si Si4 0.683287 0.951876 0.839265
Si Si5 0.183492 0.402935 0.158171
Si Si6 0.721629 0.051094 0.461010
Si Si7 0.743717 0.240723 0.408287
O O1 0.025219 0.918618 0.296833
O O2 0.551662 0.957113 0.174222
O O3 0.500000 0.500000 0.000000
O O4 0.786953 0.943217 0.138853
O O5 0.793185 0.136623 0.565211
O O6 0.361165 0.499029 0.849464
O O7 0.167446 0.980720 0.637553
O O8 0.859490 0.298922 0.087720
O O9 0.500000 0.000000 0.000000
O O10 0.606000 0.677377 0.778232
O O11 0.611991 0.889967 0.742145
O O12 0.047740 0.211203 0.019359
O O13 0.384466 0.733429 0.285067
O O14 0.747901 0.268048 0.481731
O O15 0.000000 0.000000 0.500000
O O16 0.000000 0.500000 0.500000
#
# Coordination Sequence:
#
# PCOD9095537 Si02
#       7
#     2   2   2   2   2   2   2
#     4   8  16  33  55  81 110 145 183 225 277 336
#     4   9  19  35  59  81 111 152 188 230 286 338
#     4  10  21  37  59  85 115 149 190 236 287 345
#     4   9  18  34  57  82 116 147 184 240 284 330
#     4  10  21  36  55  84 115 149 194 235 279 342
#     4  10  21  36  57  82 112 148 190 234 288 345
#     4  10  20  35  58  86 114 146 189 236 287 346
#
# _framework density 24.403037999999999
#
# number of rings (size 3 to 8) (size 9 to 14) (size 15 to 20)
#    0.000    2.571    0.000    1.714    0.000   11.429 
#    0.000    7.143    0.000    2.571    0.000    0.000 
#    0.000    0.000    0.000    0.000    0.000    0.000 
#
# Total GULP energy -78034.274952 kJ/mol
# GULP energy per Si atom -5573.876782 kJ/mol
# Density = 2.434750 g / cm^3
# Si number density = 24.403038 Si / 1000 Ang^3
#
#
#
# Elastic Constant Matrix: (Units=GPa)
#
#
# Indices 1 2 3 4 5 6 
#
# 1 77.2271 41.9754 32.2723 1.2663 8.5861 16.2480
# 2 41.9754 183.0112 50.4483 -33.9962 -20.4077 50.4304
# 3 32.2723 50.4483 74.3191 -26.3770 -18.6431 41.8926
# 4 1.2663 -33.9962 -26.3770 48.7732 11.9049 -25.9553
# 5 8.5861 -20.4077 -18.6431 11.9049 29.4693 -5.0752
# 6 16.2480 50.4304 41.8926 -25.9553 -5.0752 57.9893
#
#
#
# Elastic Compliance Matrix: (Units=1/GPa)
#
#
# Indices 1 2 3 4 5 6 
#
# 1 0.023629 -0.005606 -0.016258 -0.005911 -0.017664 0.005808
# 2 -0.005606 0.009114 0.002718 0.002715 0.007457 -0.006451
# 3 -0.016258 0.002718 0.039039 0.006040 0.025243 -0.021098
# 4 -0.005911 0.002715 0.006040 0.031317 -0.003743 0.008621
# 5 -0.017664 0.007457 0.025243 -0.003743 0.058920 -0.016290
# 6 0.005808 -0.006451 -0.021098 0.008621 -0.016290 0.038902
#
#
# Mechanical properties :
#
#
# Convention : Reuss Voigt Hill
#
# Bulk Modulus (GPa) = 29.85943 64.88328 47.37135
# Shear Modulus (GPa) = 19.96999 41.23711 30.60355
#
# Velocity S-wave (km/s) = 2.86377 4.11522 3.54515
# Velocity P-wave (km/s) = 4.81637 7.01612 6.01761
#
# Compressibility (1/GPa) = 0.03349026
#
# Stress axis : x y z
#
# Youngs Moduli (GPa) = 42.32149 109.71842 25.61551
#
# Poissons Ratio (x) = 0.61509 0.41646
# Poissons Ratio (y) = 0.23726 -0.06963
# Poissons Ratio (z) = 0.68806 -0.29824
#
# Static dielectric constant tensor:
#      x y z
#    x 2.003620 0.054880 -0.020720 
#    y 0.054880 2.003330 -0.075520 
#    z -0.020720 -0.075520 1.990090 
# 
# From -- ./inp_files/281088.got.cif
#   From: 2010.05.17/outbox.cif.g08.bks.cpg/sg2_141_cif.got.tgz:281088.got - 2010.06.03 11:33:40.
