data_PCOD9095078
_publ_section_title
;
Structure prediction by ZEFSAII (Michael W. Deem and Ramdas Pophale) SiO2 
 PCOD9095078
Probable space group: P -1
;
_chemical_formula_sum "Si O2"
_cell_formula_units_Z 14
_cell_length_a 24.840530
_cell_length_b 5.176863
_cell_length_c 9.789617
_cell_angle_alpha 51.181560
_cell_angle_beta 138.539215
_cell_angle_gamma 115.142409
_cell_volume 646.969327
_symmetry_space_group_name_H-M "P -1"
_symmetry_group_IT_number 2
_symmetry_cell_setting 'triclinic'
loop_
_space_group_symop_operation_xyz
x,y,z
-x,-y,-z
loop_
_atom_site_type_symbol
_atom_site_label
_atom_site_fract_x
_atom_site_fract_y
_atom_site_fract_z
Si Si1 0.067102 0.533346 0.230997
Si Si2 0.969692 0.389535 0.334877
Si Si3 0.706290 0.078953 0.253281
Si Si4 0.595761 0.461978 0.719612
Si Si5 0.825202 0.115032 0.249776
Si Si6 0.691228 0.061440 0.803198
Si Si7 0.760234 0.301495 0.572036
O O1 0.142163 0.739782 0.260336
O O2 0.011558 0.618235 0.230275
O O3 0.112740 0.172976 0.474367
O O4 0.000000 0.500000 0.000000
O O5 0.872396 0.380019 0.166305
O O6 0.000000 0.500000 0.500000
O O7 0.000000 0.000000 0.500000
O O8 0.772969 0.260250 0.230056
O O9 0.714328 0.171552 0.395349
O O10 0.732373 0.691482 0.409400
O O11 0.622983 0.185784 0.978968
O O12 0.500000 0.500000 0.500000
O O13 0.641326 0.355143 0.698904
O O14 0.629113 0.792647 0.735805
O O15 0.762934 0.957935 0.081634
O O16 0.734386 0.145357 0.716359
#
# Coordination Sequence:
#
# PCOD9095078 Si02
#       7
#     2   2   2   2   2   2   2
#     4  10  20  36  57  85 120 159 202 257 302 340
#     4  10  20  35  54  80 112 153 200 248 289 334
#     4  10  21  40  64  87 121 162 199 248 301 359
#     4  11  23  43  67  94 121 156 200 246 302 372
#     4   9  20  38  58  84 118 165 211 245 294 364
#     4  11  23  40  65  91 122 163 201 246 303 370
#     4  11  22  40  60  91 124 160 204 248 301 361
#
# _framework density 21.639355999999999
#
# number of rings (size 3 to 8) (size 9 to 14) (size 15 to 20)
#    0.000    1.714    0.000    5.571    0.000    3.429 
#    0.000   24.286    0.000    0.000    0.000    0.000 
#    0.000    0.000    0.000    0.000    0.000    0.000 
#
# Total GULP energy -78161.023561 kJ/mol
# GULP energy per Si atom -5582.930254 kJ/mol
# Density = 2.159010 g / cm^3
# Si number density = 21.639356 Si / 1000 Ang^3
#
#
#
# Elastic Constant Matrix: (Units=GPa)
#
#
# Indices 1 2 3 4 5 6 
#
# 1 103.4980 30.7822 75.3931 20.1845 -27.1222 -13.4921
# 2 30.7822 95.0910 28.0996 27.0229 -2.0338 -17.3675
# 3 75.3931 28.0996 143.4076 31.0905 5.6499 0.8831
# 4 20.1845 27.0229 31.0905 31.5679 -4.3627 -5.5173
# 5 -27.1222 -2.0338 5.6499 -4.3627 41.2958 11.6567
# 6 -13.4921 -17.3675 0.8831 -5.5173 11.6567 37.2384
#
#
#
# Elastic Compliance Matrix: (Units=1/GPa)
#
#
# Indices 1 2 3 4 5 6 
#
# 1 0.025751 -0.004540 -0.014379 0.004561 0.018445 0.002455
# 2 -0.004540 0.015796 0.002194 -0.012563 -0.005382 0.005493
# 3 -0.014379 0.002194 0.017131 -0.011680 -0.012207 -0.002502
# 4 0.004561 -0.012563 -0.011680 0.052463 0.009250 0.000948
# 5 0.018445 -0.005382 -0.012207 0.009250 0.040658 -0.006894
# 6 0.002455 0.005493 -0.002502 0.000948 -0.006894 0.032664
#
#
# Mechanical properties :
#
#
# Convention : Reuss Voigt Hill
#
# Bulk Modulus (GPa) = 39.63963 67.83850 53.73906
# Shear Modulus (GPa) = 22.09230 35.86856 28.98043
#
# Velocity S-wave (km/s) = 3.19867 4.07573 3.66354
# Velocity P-wave (km/s) = 5.65686 7.31891 6.54089
#
# Compressibility (1/GPa) = 0.02522728
#
# Stress axis : x y z
#
# Youngs Moduli (GPa) = 38.83371 63.30701 58.37260
#
# Poissons Ratio (x) = 0.28742 0.83933
# Poissons Ratio (y) = 0.17631 -0.12804
# Poissons Ratio (z) = 0.55839 -0.13886
#
# Static dielectric constant tensor:
#      x y z
#    x 1.868030 0.031260 0.020640 
#    y 0.031260 1.812150 -0.024240 
#    z 0.020640 -0.024240 1.777270 
# 
# From -- ./inp_files/350662.got.cif
#   From: 2010.05.17/outbox.cif.g08.bks.cpg/sg2_176_cif.got.tgz:350662.got - 2010.06.03 11:33:40.
