data_PCOD9095684
_publ_section_title
;
Structure prediction by ZEFSAII (Michael W. Deem and Ramdas Pophale) SiO2 
 PCOD9095684
Probable space group: P -1
;
_chemical_formula_sum "Si O2"
_cell_formula_units_Z 14
_cell_length_a 11.649968
_cell_length_b 15.774620
_cell_length_c 6.533492
_cell_angle_alpha 124.985498
_cell_angle_beta 128.227290
_cell_angle_gamma 32.897060
_cell_volume 508.197917
_symmetry_space_group_name_H-M "P -1"
_symmetry_group_IT_number 2
_symmetry_cell_setting 'triclinic'
loop_
_space_group_symop_operation_xyz
x,y,z
-x,-y,-z
loop_
_atom_site_type_symbol
_atom_site_label
_atom_site_fract_x
_atom_site_fract_y
_atom_site_fract_z
Si Si1 0.107384 0.192004 0.337051
Si Si2 0.423602 0.292565 0.454318
Si Si3 0.268065 0.705524 0.767619
Si Si4 0.224900 0.357122 0.742542
Si Si5 0.630243 0.062749 0.042845
Si Si6 0.723295 0.484983 0.766383
Si Si7 0.129052 0.000874 0.408467
O O1 0.112042 0.306841 0.571040
O O2 0.264431 0.088386 0.173174
O O3 0.194021 0.068903 0.441012
O O4 0.853448 0.287490 0.169755
O O5 0.255848 0.368827 0.557369
O O6 0.374592 0.406357 0.392838
O O7 0.669450 0.185193 0.668323
O O8 0.460272 0.165726 0.191355
O O9 0.528376 0.574922 0.844464
O O10 0.203655 0.663835 0.442957
O O11 0.116979 0.885509 0.792880
O O12 0.472447 0.204248 0.899026
O O13 0.121326 0.510114 0.958583
O O14 0.841464 0.994589 0.310774
#
# Coordination Sequence:
#
# PCOD9095684 Si02
#       7
#     2   2   2   2   2   2   2
#     4  10  20  35  59  87 117 145 194 228 280 341
#     4   9  20  36  56  92 111 148 187 230 282 340
#     4   9  21  45  57  81 110 158 193 231 282 344
#     4  11  20  35  58  90 118 145 187 236 282 335
#     4   9  17  34  58  83 120 148 175 235 281 331
#     4  10  22  42  61  75 120 151 190 238 285 328
#     4   8  19  36  57  88 112 147 193 226 279 339
#
# _framework density 27.548321999999999
#
# number of rings (size 3 to 8) (size 9 to 14) (size 15 to 20)
#    1.714    0.857    1.429    0.429    0.000    4.571 
#    5.143    5.714    0.000    0.000    0.000    0.000 
#    0.000    0.000    0.000    0.000    0.000    0.000 
#
# Total GULP energy -78032.245338 kJ/mol
# GULP energy per Si atom -5573.731810 kJ/mol
# Density = 2.748562 g / cm^3
# Si number density = 27.548322 Si / 1000 Ang^3
#
#
#
# Elastic Constant Matrix: (Units=GPa)
#
#
# Indices 1 2 3 4 5 6 
#
# 1 101.9911 15.0488 35.1741 -0.4877 1.8217 6.8828
# 2 15.0488 81.6899 21.7048 -7.8772 -9.2239 -14.5917
# 3 35.1741 21.7048 87.9133 -8.1785 -0.7636 4.7021
# 4 -0.4877 -7.8772 -8.1785 56.3170 -2.0768 -2.0326
# 5 1.8217 -9.2239 -0.7636 -2.0768 37.3660 4.2267
# 6 6.8828 -14.5917 4.7021 -2.0326 4.2267 24.0630
#
#
#
# Elastic Compliance Matrix: (Units=1/GPa)
#
#
# Indices 1 2 3 4 5 6 
#
# 1 0.011767 -0.001896 -0.004137 -0.000924 -0.000765 -0.003651
# 2 -0.001896 0.015952 -0.003517 0.002192 0.002883 0.010582
# 3 -0.004137 -0.003517 0.014225 0.001411 0.000113 -0.003630
# 4 -0.000924 0.002192 0.001411 0.018405 0.001340 0.002637
# 5 -0.000765 0.002883 0.000113 0.001340 0.027910 -0.002844
# 6 -0.003651 0.010582 -0.003630 0.002637 -0.002844 0.050450
#
#
# Mechanical properties :
#
#
# Convention : Reuss Voigt Hill
#
# Bulk Modulus (GPa) = 43.77530 46.16109 44.96819
# Shear Modulus (GPa) = 30.22550 36.86030 33.54290
#
# Velocity S-wave (km/s) = 3.31597 3.66187 3.49320
# Velocity P-wave (km/s) = 5.53043 5.88828 5.71216
#
# Compressibility (1/GPa) = 0.02284393
#
# Stress axis : x y z
#
# Youngs Moduli (GPa) = 84.98373 62.68738 70.29978
#
# Poissons Ratio (x) = 0.11886 0.29084
# Poissons Ratio (y) = 0.16113 0.24723
# Poissons Ratio (z) = 0.35160 0.22046
#
# Static dielectric constant tensor:
#      x y z
#    x 2.189790 -0.020830 0.084110 
#    y -0.020830 2.153740 0.004450 
#    z 0.084110 0.004450 2.208030 
# 
# From -- ./inp_files/80707.got.cif
#   From: 2010.05.17/outbox.cif.g08.bks.cpg/sg2_41_cif.got.tgz:80707.got - 2010.06.03 11:33:40.
