data_PCOD9095903
_publ_section_title
;
Structure prediction by ZEFSAII (Michael W. Deem and Ramdas Pophale) SiO2 
 PCOD9095903
Probable space group: P -1
;
_chemical_formula_sum "Si O2"
_cell_formula_units_Z 16
_cell_length_a 8.137297
_cell_length_b 12.938989
_cell_length_c 8.259731
_cell_angle_alpha 71.500525
_cell_angle_beta 95.197688
_cell_angle_gamma 52.545279
_cell_volume 606.472311
_symmetry_space_group_name_H-M "P -1"
_symmetry_group_IT_number 2
_symmetry_cell_setting 'triclinic'
loop_
_space_group_symop_operation_xyz
x,y,z
-x,-y,-z
loop_
_atom_site_type_symbol
_atom_site_label
_atom_site_fract_x
_atom_site_fract_y
_atom_site_fract_z
Si Si1 0.919969 0.433471 0.914365
Si Si2 0.514223 0.597954 0.577610
Si Si3 0.087364 0.276512 0.479625
Si Si4 0.334863 0.830806 0.943129
Si Si5 0.518185 0.896070 0.188123
Si Si6 0.662025 0.489855 0.167894
Si Si7 0.333942 0.162579 0.214189
Si Si8 0.932284 0.093693 0.610554
O O1 0.763706 0.518780 0.700712
O O2 0.779444 0.430354 0.036447
O O3 0.000000 0.500000 0.000000
O O4 0.149983 0.266537 0.004892
O O5 0.500000 0.500000 0.500000
O O6 0.406343 0.596003 0.731081
O O7 0.331413 0.772855 0.440423
O O8 0.239666 0.247461 0.654792
O O9 0.223716 0.224368 0.348915
O O10 0.854599 0.441297 0.337173
O O11 0.027876 0.175988 0.564786
O O12 0.470830 0.838054 0.811021
O O13 0.390251 0.860250 0.103327
O O14 0.454885 0.662202 0.052816
O O15 0.076132 0.961915 0.818648
O O16 0.413372 0.003975 0.279431
O O17 0.500000 0.000000 0.000000
O O18 0.000000 0.000000 0.500000
#
# Coordination Sequence:
#
# PCOD9095903 Si02
#       8
#     2   2   2   2   2   2   2   2
#     4  11  22  42  73 101 135 183 236 284 343 425
#     4  11  27  48  72 102 146 188 236 296 358 414
#     4  10  21  40  65 100 130 181 227 286 343 416
#     4  11  22  40  66 101 134 178 222 284 351 414
#     4  10  20  35  60  93 135 169 210 280 349 393
#     4  10  23  45  67 102 140 187 232 281 355 423
#     4  10  21  36  67  99 134 167 233 285 346 405
#     4  11  24  43  70  93 137 183 239 277 347 424
#
# _framework density 26.382078
#
# number of rings (size 3 to 8) (size 9 to 14) (size 15 to 20)
#    0.000    1.500    3.750    1.500    1.750    3.500 
#    6.750    0.625    0.000    0.000    0.000    0.000 
#    0.000    0.000    0.000    0.000    0.000    0.000 
#
# Total GULP energy -89422.985733 kJ/mol
# GULP energy per Si atom -5588.936608 kJ/mol
# Density = 2.632203 g / cm^3
# Si number density = 26.382078 Si / 1000 Ang^3
#
#
#
# Elastic Constant Matrix: (Units=GPa)
#
#
# Indices 1 2 3 4 5 6 
#
# 1 48.5630 20.9865 38.3014 -1.3672 17.1014 -6.3857
# 2 20.9865 101.7362 65.6563 -35.6305 19.0878 5.7127
# 3 38.3014 65.6563 212.9563 -30.2183 61.0800 -9.2281
# 4 -1.3672 -35.6305 -30.2183 61.2708 -14.4075 5.2119
# 5 17.1014 19.0878 61.0800 -14.4075 67.2363 4.0658
# 6 -6.3857 5.7127 -9.2281 5.2119 4.0658 35.3208
#
#
#
# Elastic Compliance Matrix: (Units=1/GPa)
#
#
# Indices 1 2 3 4 5 6 
#
# 1 0.027181 -0.005479 -0.002299 -0.005405 -0.004824 0.006553
# 2 -0.005479 0.016298 -0.003780 0.008582 0.002412 -0.006158
# 3 -0.002299 -0.003780 0.008099 0.000116 -0.005854 0.002969
# 4 -0.005405 0.008582 0.000116 0.022731 0.004077 -0.006158
# 5 -0.004824 0.002412 -0.005854 0.004077 0.021965 -0.005922
# 6 0.006553 -0.006158 0.002969 -0.006158 -0.005922 0.032859
#
#
# Mechanical properties :
#
#
# Convention : Reuss Voigt Hill
#
# Bulk Modulus (GPa) = 35.13563 68.12711 51.63137
# Shear Modulus (GPa) = 30.91456 48.65303 39.78379
#
# Velocity S-wave (km/s) = 3.42687 4.29904 3.88749
# Velocity P-wave (km/s) = 5.38561 7.10786 6.30581
#
# Compressibility (1/GPa) = 0.02846114
#
# Stress axis : x y z
#
# Youngs Moduli (GPa) = 36.79042 61.35639 123.47388
#
# Poissons Ratio (x) = 0.33620 0.28383
# Poissons Ratio (y) = 0.20159 0.46677
# Poissons Ratio (z) = 0.08457 0.23195
#
# Static dielectric constant tensor:
#      x y z
#    x 2.122970 0.010400 0.041270 
#    y 0.010400 2.239450 -0.111090 
#    z 0.041270 -0.111090 2.139430 
# 
# From -- ./inp_files/206399.got.cif
#   From: 2010.05.17/outbox.cif.g08.bks.cpg/sg2_104_cif.got.tgz:206399.got - 2010.06.03 11:33:40.
