data_PCOD9095205
_publ_section_title
;
Structure prediction by ZEFSAII (Michael W. Deem and Ramdas Pophale) SiO2 
 PCOD9095205
Probable space group: P -1
;
_chemical_formula_sum "Si O2"
_cell_formula_units_Z 16
_cell_length_a 6.985890
_cell_length_b 8.664168
_cell_length_c 12.237566
_cell_angle_alpha 99.424721
_cell_angle_beta 69.917236
_cell_angle_gamma 73.768355
_cell_volume 639.630199
_symmetry_space_group_name_H-M "P -1"
_symmetry_group_IT_number 2
_symmetry_cell_setting 'triclinic'
loop_
_space_group_symop_operation_xyz
x,y,z
-x,-y,-z
loop_
_atom_site_type_symbol
_atom_site_label
_atom_site_fract_x
_atom_site_fract_y
_atom_site_fract_z
Si Si1 0.966195 0.309942 0.254472
Si Si2 0.860920 0.023902 0.360643
Si Si3 0.038926 0.359043 0.766831
Si Si4 0.655764 0.101137 0.634654
Si Si5 0.942259 0.315994 0.014158
Si Si6 0.401148 0.108967 0.210468
Si Si7 0.669846 0.154622 0.972647
Si Si8 0.464912 0.587697 0.156282
O O1 0.046009 0.273970 0.107383
O O2 0.865073 0.513360 0.296067
O O3 0.180296 0.267009 0.282987
O O4 0.849054 0.181228 0.301095
O O5 0.868276 0.836872 0.305350
O O6 0.101493 0.974586 0.366418
O O7 0.685331 0.093619 0.499694
O O8 0.775677 0.424754 0.801818
O O9 0.051157 0.377617 0.899166
O O10 0.548089 0.285184 0.727675
O O11 0.536425 0.984793 0.698633
O O12 0.687820 0.429905 0.100021
O O13 0.910524 0.155985 0.943223
O O14 0.336202 0.987916 0.124878
O O15 0.580607 0.143664 0.108144
O O16 0.528350 0.315964 0.947016
#
# Coordination Sequence:
#
# PCOD9095205 Si02
#       8
#     2   2   2   2   2   2   2   2
#     4  11  21  33  52  79 109 140 171 212 263 315
#     4   9  19  36  54  77 106 135 177 222 259 300
#     4  10  20  35  56  78 104 139 176 216 257 307
#     4   8  16  34  56  74 101 139 176 222 259 294
#     4  11  20  31  49  79 113 139 166 211 269 315
#     4   9  17  31  53  79 103 133 179 217 255 312
#     4   9  17  30  51  77 105 139 173 214 260 307
#     4   9  17  32  53  75 105 138 171 215 260 305
#
# _framework density 25.014454000000001
#
# number of rings (size 3 to 8) (size 9 to 14) (size 15 to 20)
#    0.000    2.500    0.000    5.625    0.000    2.000 
#    0.000   14.375    0.000    1.500    0.000    0.000 
#    0.000    0.000    0.000    0.000    0.000    0.000 
#
# Total GULP energy -89292.361108 kJ/mol
# GULP energy per Si atom -5580.772569 kJ/mol
# Density = 2.495752 g / cm^3
# Si number density = 25.014454 Si / 1000 Ang^3
#
#
#
# Elastic Constant Matrix: (Units=GPa)
#
#
# Indices 1 2 3 4 5 6 
#
# 1 57.9991 39.7336 6.8421 -2.8590 0.2681 -10.5623
# 2 39.7336 180.3976 77.3869 -22.9968 -2.1715 20.1332
# 3 6.8421 77.3869 138.5032 -8.6548 -7.7578 13.5870
# 4 -2.8590 -22.9968 -8.6548 37.2618 1.8692 -1.6728
# 5 0.2681 -2.1715 -7.7578 1.8692 25.9041 -2.7271
# 6 -10.5623 20.1332 13.5870 -1.6728 -2.7271 32.4673
#
#
#
# Elastic Compliance Matrix: (Units=1/GPa)
#
#
# Indices 1 2 3 4 5 6 
#
# 1 0.024410 -0.007765 0.001895 -0.001996 0.001066 0.011950
# 2 -0.007765 0.010605 -0.004645 0.004629 -0.001498 -0.007045
# 3 0.001895 -0.004645 0.009872 -0.000576 0.002542 -0.000451
# 4 -0.001996 0.004629 -0.000576 0.029425 -0.002091 -0.001938
# 5 0.001066 -0.001498 0.002542 -0.002091 0.039742 0.003442
# 6 0.011950 -0.007045 -0.000451 -0.001938 0.003442 0.039434
#
#
# Mechanical properties :
#
#
# Convention : Reuss Voigt Hill
#
# Bulk Modulus (GPa) = 41.91430 69.42503 55.66966
# Shear Modulus (GPa) = 27.40171 35.98914 31.69542
#
# Velocity S-wave (km/s) = 3.31333 3.79718 3.56347
# Velocity P-wave (km/s) = 5.60624 6.85850 6.26374
#
# Compressibility (1/GPa) = 0.02385821
#
# Stress axis : x y z
#
# Youngs Moduli (GPa) = 40.96611 94.29889 101.29299
#
# Poissons Ratio (x) = 0.73222 -0.19199
# Poissons Ratio (y) = 0.31810 0.47051
# Poissons Ratio (z) = -0.07765 0.43802
#
# Static dielectric constant tensor:
#      x y z
#    x 2.090680 0.106580 0.025430 
#    y 0.106580 2.135800 0.032320 
#    z 0.025430 0.032320 1.980720 
# 
# From -- ./inp_files/187860.got.cif
#   From: 2010.05.17/outbox.cif.g08.bks.cpg/sg2_94_cif.got.tgz:187860.got - 2010.06.03 11:33:40.
