data_PCOD9095313
_publ_section_title
;
Structure prediction by ZEFSAII (Michael W. Deem and Ramdas Pophale) SiO2 
 PCOD9095313
Probable space group: P -1
;
_chemical_formula_sum "Si O2"
_cell_formula_units_Z 16
_cell_length_a 15.907788
_cell_length_b 14.911010
_cell_length_c 12.133036
_cell_angle_alpha 67.108575
_cell_angle_beta 153.067061
_cell_angle_gamma 132.331577
_cell_volume 747.357250
_symmetry_space_group_name_H-M "P -1"
_symmetry_group_IT_number 2
_symmetry_cell_setting 'triclinic'
loop_
_space_group_symop_operation_xyz
x,y,z
-x,-y,-z
loop_
_atom_site_type_symbol
_atom_site_label
_atom_site_fract_x
_atom_site_fract_y
_atom_site_fract_z
Si Si1 0.763419 0.694818 0.000156
Si Si2 0.568867 0.835776 0.168420
Si Si3 0.611573 0.399363 0.200040
Si Si4 0.775473 0.832026 0.757756
Si Si5 0.136653 0.478225 0.799854
Si Si6 0.248207 0.079940 0.887886
Si Si7 0.717503 0.057030 0.826336
Si Si8 0.587665 0.937975 0.361701
O O1 0.824984 0.612984 0.063230
O O2 0.516005 0.586788 0.859429
O O3 0.630490 0.712950 0.744396
O O4 0.087708 0.874875 0.329691
O O5 0.573924 0.883770 0.028676
O O6 0.509815 0.891486 0.165640
O O7 0.353590 0.654372 0.005438
O O8 0.897735 0.927737 0.532273
O O9 0.799379 0.513470 0.260704
O O10 0.816769 0.394908 0.483895
O O11 0.317838 0.223216 0.898976
O O12 0.600756 0.832841 0.474196
O O13 0.963096 0.830219 0.908715
O O14 0.000000 0.000000 0.000000
O O15 0.333069 0.065032 0.108958
O O16 0.656837 0.107535 0.829253
O O17 0.500000 0.000000 0.500000
#
# Coordination Sequence:
#
# PCOD9095313 Si02
#       8
#     2   2   2   2   2   2   2   2
#     4  11  20  35  62  87 116 161 207 250 295 363
#     4  10  21  42  60  89 130 165 188 252 317 366
#     4  10  20  38  60  87 120 158 208 253 292 359
#     4  10  20  35  56  91 122 153 202 258 298 349
#     4  10  23  38  58  87 125 159 200 250 307 358
#     4  10  20  38  67  89 122 163 204 248 305 362
#     4  12  21  34  61  99 118 150 209 266 290 347
#     4  11  22  37  63  92 124 158 203 255 302 358
#
# _framework density 21.408771000000002
#
# number of rings (size 3 to 8) (size 9 to 14) (size 15 to 20)
#    0.000    1.500    5.000    1.875    0.000    0.500 
#    2.250    0.625    0.000    1.500    0.000    0.000 
#    0.000    0.000    0.000    0.000    0.000    0.000 
#
# Total GULP energy -89152.516336 kJ/mol
# GULP energy per Si atom -5572.032271 kJ/mol
# Density = 2.136004 g / cm^3
# Si number density = 21.408771 Si / 1000 Ang^3
#
#
#
# Elastic Constant Matrix: (Units=GPa)
#
#
# Indices 1 2 3 4 5 6 
#
# 1 122.3029 4.4990 2.9053 1.5341 15.6800 -11.5443
# 2 4.4990 52.9801 16.3111 1.2096 2.3509 3.5108
# 3 2.9053 16.3111 34.1586 10.4012 14.8525 -0.6579
# 4 1.5341 1.2096 10.4012 25.0655 -3.8791 -2.6716
# 5 15.6800 2.3509 14.8525 -3.8791 31.4283 -16.6970
# 6 -11.5443 3.5108 -0.6579 -2.6716 -16.6970 17.2467
#
#
#
# Elastic Compliance Matrix: (Units=1/GPa)
#
#
# Indices 1 2 3 4 5 6 
#
# 1 0.009028 -0.001619 0.004536 -0.003750 -0.007867 -0.001652
# 2 -0.001619 0.024083 -0.022515 0.012288 0.017580 0.012078
# 3 0.004536 -0.022515 0.136517 -0.097717 -0.161394 -0.158561
# 4 -0.003750 0.012288 -0.097717 0.116350 0.136772 0.141697
# 5 -0.007867 0.017580 -0.161394 0.136772 0.269466 0.267063
# 6 -0.001652 0.012078 -0.158561 0.141697 0.267063 0.328871
#
#
# Mechanical properties :
#
#
# Convention : Reuss Voigt Hill
#
# Bulk Modulus (GPa) = 7.66682 28.54140 18.10411
# Shear Modulus (GPa) = 5.17070 27.12986 16.15028
#
# Velocity S-wave (km/s) = 1.55578 3.56368 2.74957
# Velocity P-wave (km/s) = 2.61079 5.50397 4.30755
#
# Compressibility (1/GPa) = 0.13043225
#
# Stress axis : x y z
#
# Youngs Moduli (GPa) = 110.76680 41.52258 7.32510
#
# Poissons Ratio (x) = 0.06723 -0.03323
# Poissons Ratio (y) = 0.17933 0.16493
# Poissons Ratio (z) = -0.50246 0.93489
#
# Static dielectric constant tensor:
#      x y z
#    x 1.846220 0.029440 -0.001900 
#    y 0.029440 1.818750 -0.019230 
#    z -0.001900 -0.019230 1.794630 
# 
# From -- ./inp_files/454787.got.cif
#   From: 2010.05.17/outbox.cif.g08.bks.cpg/sg2_228_cif.got.tgz:454787.got - 2010.06.03 11:33:40.
