data_PCOD9095344
_publ_section_title
;
Structure prediction by ZEFSAII (Michael W. Deem and Ramdas Pophale) SiO2 
 PCOD9095344
Probable space group: P -1
;
_chemical_formula_sum "Si O2"
_cell_formula_units_Z 12
_cell_length_a 7.930288
_cell_length_b 8.013594
_cell_length_c 14.469642
_cell_angle_alpha 45.343439
_cell_angle_beta 101.921254
_cell_angle_gamma 69.705688
_cell_volume 452.647377
_symmetry_space_group_name_H-M "P -1"
_symmetry_group_IT_number 2
_symmetry_cell_setting 'triclinic'
loop_
_space_group_symop_operation_xyz
x,y,z
-x,-y,-z
loop_
_atom_site_type_symbol
_atom_site_label
_atom_site_fract_x
_atom_site_fract_y
_atom_site_fract_z
Si Si1 0.250625 0.468920 0.060425
Si Si2 0.147565 0.405658 0.734097
Si Si3 0.563839 0.336573 0.887263
Si Si4 0.753908 0.443615 0.490261
Si Si5 0.929706 0.747381 0.752249
Si Si6 0.763941 0.229594 0.757196
O O1 0.188584 0.471826 0.945648
O O2 0.465619 0.436703 0.125940
O O3 0.248970 0.241254 0.211627
O O4 0.007764 0.845183 0.919235
O O5 0.324682 0.445202 0.777518
O O6 0.135054 0.475010 0.598170
O O7 0.931235 0.647825 0.687999
O O8 0.274514 0.035086 0.912439
O O9 0.701982 0.322564 0.820867
O O10 0.783022 0.427805 0.610535
O O11 0.469601 0.689638 0.337623
O O12 0.865390 0.081735 0.617451
#
# Coordination Sequence:
#
# PCOD9095344 Si02
#       6
#     2   2   2   2   2   2
#     4  10  20  35  59  82 105 143 188 220 259 324
#     4  10  20  35  57  82 109 143 177 225 274 311
#     4  10  20  35  59  82 105 143 188 220 259 324
#     4   9  19  34  56  80 113 139 176 222 276 319
#     4  10  20  35  57  82 109 143 177 225 274 311
#     4   9  17  34  56  79 103 144 181 216 258 325
#
# _framework density 26.510702999999999
#
# number of rings (size 3 to 8) (size 9 to 14) (size 15 to 20)
#    0.000    2.333    1.667    1.000    0.000    0.667 
#    0.000    6.667    7.333    0.000    0.000    0.000 
#    0.000    0.000    0.000    0.000    0.000    0.000 
#
# Total GULP energy -67145.195816 kJ/mol
# GULP energy per Si atom -5595.432985 kJ/mol
# Density = 2.645036 g / cm^3
# Si number density = 26.510703 Si / 1000 Ang^3
#
#
#
# Elastic Constant Matrix: (Units=GPa)
#
#
# Indices 1 2 3 4 5 6 
#
# 1 85.5361 27.1159 39.0973 14.8025 -30.2515 13.9685
# 2 27.1159 99.8286 50.0741 45.2980 -17.5916 3.5099
# 3 39.0973 50.0741 137.6208 35.5790 -33.1849 -10.8438
# 4 14.8025 45.2980 35.5790 46.2970 -13.9581 -1.2725
# 5 -30.2515 -17.5916 -33.1849 -13.9581 49.8102 11.3587
# 6 13.9685 3.5099 -10.8438 -1.2725 11.3587 43.3027
#
#
#
# Elastic Compliance Matrix: (Units=1/GPa)
#
#
# Indices 1 2 3 4 5 6 
#
# 1 0.019129 -0.001854 -0.003086 0.001265 0.011489 -0.009770
# 2 -0.001854 0.019265 -0.002398 -0.016493 -0.000079 -0.002028
# 3 -0.003086 -0.002398 0.011008 -0.004221 0.002721 0.003109
# 4 0.001265 -0.016493 -0.004221 0.041725 0.003800 0.000101
# 5 0.011489 -0.000079 0.002721 0.003800 0.032512 -0.011435
# 6 -0.009770 -0.002028 0.003109 0.000101 -0.011435 0.030190
#
#
# Mechanical properties :
#
#
# Convention : Reuss Voigt Hill
#
# Bulk Modulus (GPa) = 28.79653 61.72889 45.26271
# Shear Modulus (GPa) = 27.76548 41.66184 34.71366
#
# Velocity S-wave (km/s) = 3.23976 3.96853 3.62252
# Velocity P-wave (km/s) = 4.98804 6.65838 5.88280
#
# Compressibility (1/GPa) = 0.03472641
#
# Stress axis : x y z
#
# Youngs Moduli (GPa) = 52.27538 51.90844 90.84409
#
# Poissons Ratio (x) = 0.09622 0.28038
# Poissons Ratio (y) = 0.09690 0.21783
# Poissons Ratio (z) = 0.16134 0.12447
#
# Static dielectric constant tensor:
#      x y z
#    x 2.173500 0.000910 0.019860 
#    y 0.000910 2.054740 0.055720 
#    z 0.019860 0.055720 2.051290 
# 
# From -- ./inp_files/145476.got.cif
#   From: 2010.05.17/outbox.cif.g08.bks.cpg/sg2_73_cif.got.tgz:145476.got - 2010.06.03 11:33:40.
