data_PCOD9095952
_publ_section_title
;
Structure prediction by ZEFSAII (Michael W. Deem and Ramdas Pophale) SiO2 
 PCOD9095952
Probable space group: P -1
;
_chemical_formula_sum "Si O2"
_cell_formula_units_Z 14
_cell_length_a 7.934494
_cell_length_b 8.442856
_cell_length_c 8.828306
_cell_angle_alpha 110.986188
_cell_angle_beta 98.583039
_cell_angle_gamma 104.848868
_cell_volume 514.350325
_symmetry_space_group_name_H-M "P -1"
_symmetry_group_IT_number 2
_symmetry_cell_setting 'triclinic'
loop_
_space_group_symop_operation_xyz
x,y,z
-x,-y,-z
loop_
_atom_site_type_symbol
_atom_site_label
_atom_site_fract_x
_atom_site_fract_y
_atom_site_fract_z
Si Si1 0.413767 0.137473 0.732416
Si Si2 0.072040 0.692813 0.501134
Si Si3 0.172350 0.935233 0.866812
Si Si4 0.960950 0.749669 0.032530
Si Si5 0.723838 0.009346 0.654782
Si Si6 0.742567 0.551082 0.182897
Si Si7 0.555344 0.339228 0.375830
O O1 0.285539 0.046631 0.540728
O O2 0.383372 0.325318 0.815443
O O3 0.365016 0.018172 0.837904
O O4 0.607199 0.140734 0.708040
O O5 0.057132 0.837797 0.671207
O O6 0.283474 0.703345 0.524074
O O7 0.000000 0.500000 0.500000
O O8 0.921908 0.660487 0.340676
O O9 0.106249 0.773790 0.924915
O O10 0.149571 0.119189 0.989131
O O11 0.833836 0.565308 0.029690
O O12 0.084450 0.878672 0.219163
O O13 0.620091 0.834393 0.679243
O O14 0.628059 0.394629 0.231831
O O15 0.500000 0.500000 0.500000
#
# Coordination Sequence:
#
# PCOD9095952 Si02
#       7
#     2   2   2   2   2   2   2
#     4  10  20  35  61  87 120 149 203 256 286 352
#     4  10  21  37  62  87 117 159 198 247 294 354
#     4  10  20  40  57  88 123 155 208 240 296 352
#     4  10  23  36  63  87 120 165 196 247 292 365
#     4  11  21  36  61  93 117 154 201 250 310 337
#     4  10  21  39  61  89 119 157 202 244 301 350
#     4  11  22  38  57  91 125 153 190 257 305 351
#
# _framework density 27.218800000000002
#
# number of rings (size 3 to 8) (size 9 to 14) (size 15 to 20)
#    0.000    1.714    2.857    1.714    4.000    2.857 
#    0.000    2.857    0.000    9.429    0.000    0.000 
#    0.000    0.000    0.000    0.000    0.000    0.000 
#
# Total GULP energy -78042.891049 kJ/mol
# GULP energy per Si atom -5574.492218 kJ/mol
# Density = 2.715685 g / cm^3
# Si number density = 27.218800 Si / 1000 Ang^3
#
#
#
# Elastic Constant Matrix: (Units=GPa)
#
#
# Indices 1 2 3 4 5 6 
#
# 1 64.0039 51.4480 24.5998 -7.8117 -18.8998 -2.7737
# 2 51.4480 191.6236 55.2817 -64.7253 -23.8856 49.3880
# 3 24.5998 55.2817 65.4663 -22.7682 -10.4316 17.1540
# 4 -7.8117 -64.7253 -22.7682 52.0133 18.9093 -24.0898
# 5 -18.8998 -23.8856 -10.4316 18.9093 47.5104 -6.7191
# 6 -2.7737 49.3880 17.1540 -24.0898 -6.7191 42.0561
#
#
#
# Elastic Compliance Matrix: (Units=1/GPa)
#
#
# Indices 1 2 3 4 5 6 
#
# 1 0.030952 -0.012497 -0.007110 -0.011041 0.010992 0.015049
# 2 -0.012497 0.016248 -0.001844 0.013482 -0.004287 -0.012115
# 3 -0.007110 -0.001844 0.022163 0.004552 -0.001402 -0.004960
# 4 -0.011041 0.013482 0.004552 0.043034 -0.013158 0.004130
# 5 0.010992 -0.004287 -0.001402 -0.013158 0.028672 0.003375
# 6 0.015049 -0.012115 -0.004960 0.004130 0.003375 0.043925
#
#
# Mechanical properties :
#
#
# Convention : Reuss Voigt Hill
#
# Bulk Modulus (GPa) = 37.79004 64.86142 51.32573
# Shear Modulus (GPa) = 21.12240 40.96692 31.04466
#
# Velocity S-wave (km/s) = 2.78874 3.88377 3.38088
# Velocity P-wave (km/s) = 4.92782 6.63271 5.84278
#
# Compressibility (1/GPa) = 0.02646200
#
# Stress axis : x y z
#
# Youngs Moduli (GPa) = 32.30766 61.54706 45.12047
#
# Poissons Ratio (x) = 0.76916 0.32079
# Poissons Ratio (y) = 0.40375 0.08320
# Poissons Ratio (z) = 0.22969 0.11349
#
# Static dielectric constant tensor:
#      x y z
#    x 2.169740 0.001900 -0.010770 
#    y 0.001900 2.152830 -0.100560 
#    z -0.010770 -0.100560 2.129240 
# 
# From -- ./inp_files/159788.got.cif
#   From: 2010.05.17/outbox.cif.g08.bks.cpg/sg2_80_cif.got.tgz:159788.got - 2010.06.03 11:33:40.
