data_PCOD9095473
_publ_section_title
;
Structure prediction by ZEFSAII (Michael W. Deem and Ramdas Pophale) SiO2 
 PCOD9095473
Probable space group: P -1
;
_chemical_formula_sum "Si O2"
_cell_formula_units_Z 14
_cell_length_a 9.340430
_cell_length_b 15.147206
_cell_length_c 14.041315
_cell_angle_alpha 28.161093
_cell_angle_beta 96.363772
_cell_angle_gamma 115.502857
_cell_volume 656.542580
_symmetry_space_group_name_H-M "P -1"
_symmetry_group_IT_number 2
_symmetry_cell_setting 'triclinic'
loop_
_space_group_symop_operation_xyz
x,y,z
-x,-y,-z
loop_
_atom_site_type_symbol
_atom_site_label
_atom_site_fract_x
_atom_site_fract_y
_atom_site_fract_z
Si Si1 0.639719 0.782826 0.865348
Si Si2 0.207971 0.713904 0.371284
Si Si3 0.169069 0.345741 0.290255
Si Si4 0.126354 0.035433 0.097054
Si Si5 0.300366 0.436336 0.566388
Si Si6 0.120885 0.639298 0.659357
Si Si7 0.910878 0.746499 0.840555
O O1 0.707323 0.688888 0.884500
O O2 0.786766 0.864005 0.887481
O O3 0.704918 0.053417 0.584563
O O4 0.410558 0.569796 0.086361
O O5 0.251523 0.973660 0.122548
O O6 0.354055 0.699849 0.344788
O O7 0.168366 0.643130 0.548330
O O8 0.000000 0.500000 0.500000
O O9 0.075331 0.309878 0.213400
O O10 0.082240 0.421184 0.284029
O O11 0.090032 0.062151 0.573611
O O12 0.884047 0.766172 0.330423
O O13 0.184438 0.260578 0.820914
O O14 0.500000 0.500000 0.500000
O O15 0.103387 0.437043 0.912769
#
# Coordination Sequence:
#
# PCOD9095473 Si02
#       7
#     2   2   2   2   2   2   2
#     4  10  21  37  57  84 119 152 188 238 291 340
#     4   9  19  37  56  79 114 148 183 235 286 331
#     4  10  22  38  59  86 116 154 193 237 293 345
#     4   9  20  37  53  80 115 144 186 237 281 338
#     4  10  20  35  58  81 107 148 191 232 285 340
#     4  10  21  38  59  84 115 151 195 241 284 345
#     4  10  21  38  59  86 118 150 194 243 286 343
#
# _framework density 21.323827000000001
#
# number of rings (size 3 to 8) (size 9 to 14) (size 15 to 20)
#    0.000    2.286    0.000    1.714    0.000    6.857 
#    0.000   10.000    0.000    0.000    0.000    0.000 
#    0.000    0.000    0.000    0.000    0.000    0.000 
#
# Total GULP energy -78075.051455 kJ/mol
# GULP energy per Si atom -5576.789390 kJ/mol
# Density = 2.127529 g / cm^3
# Si number density = 21.323827 Si / 1000 Ang^3
#
#
#
# Elastic Constant Matrix: (Units=GPa)
#
#
# Indices 1 2 3 4 5 6 
#
# 1 121.8515 21.0265 45.7267 -12.4529 -13.8630 -18.3742
# 2 21.0265 59.0252 9.0409 2.4183 5.3842 0.4071
# 3 45.7267 9.0409 109.9927 7.3355 3.3287 21.8280
# 4 -12.4529 2.4183 7.3355 14.8099 7.9674 5.0615
# 5 -13.8630 5.3842 3.3287 7.9674 46.0613 7.8319
# 6 -18.3742 0.4071 21.8280 5.0615 7.8319 26.6867
#
#
#
# Elastic Compliance Matrix: (Units=1/GPa)
#
#
# Indices 1 2 3 4 5 6 
#
# 1 0.018201 -0.005500 -0.011963 0.014947 0.001130 0.019234
# 2 -0.005500 0.019091 0.001959 -0.006158 -0.002311 -0.003833
# 3 -0.011963 0.001959 0.019022 -0.012784 0.000680 -0.021600
# 4 0.014947 -0.006158 -0.012784 0.090892 -0.010728 0.006751
# 5 0.001130 -0.002311 0.000680 -0.010728 0.024984 -0.005041
# 6 0.019234 -0.003833 -0.021600 0.006751 -0.005041 0.068640
#
#
# Mechanical properties :
#
#
# Convention : Reuss Voigt Hill
#
# Bulk Modulus (GPa) = 39.51519 49.16197 44.33858
# Shear Modulus (GPa) = 17.83979 31.84993 24.84486
#
# Velocity S-wave (km/s) = 2.89556 3.86894 3.41709
# Velocity P-wave (km/s) = 5.45438 6.56226 6.03380
#
# Compressibility (1/GPa) = 0.02530672
#
# Stress axis : x y z
#
# Youngs Moduli (GPa) = 54.94135 52.38183 52.56994
#
# Poissons Ratio (x) = 0.28808 0.62888
# Poissons Ratio (y) = 0.30215 -0.10296
# Poissons Ratio (z) = 0.65724 -0.10259
#
# Static dielectric constant tensor:
#      x y z
#    x 1.818540 -0.058560 0.005700 
#    y -0.058560 1.841240 0.014610 
#    z 0.005700 0.014610 1.779210 
# 
# From -- ./inp_files/315200.got.cif
#   From: 2010.05.17/outbox.cif.g08.bks.cpg/sg2_158_cif.got.tgz:315200.got - 2010.06.03 11:33:40.
