data_PCOD9095886
_publ_section_title
;
Structure prediction by ZEFSAII (Michael W. Deem and Ramdas Pophale) SiO2 
 PCOD9095886
Probable space group: P -1
;
_chemical_formula_sum "Si O2"
_cell_formula_units_Z 16
_cell_length_a 7.505046
_cell_length_b 19.181154
_cell_length_c 6.209333
_cell_angle_alpha 119.905642
_cell_angle_beta 112.216038
_cell_angle_gamma 60.958437
_cell_volume 666.415074
_symmetry_space_group_name_H-M "P -1"
_symmetry_group_IT_number 2
_symmetry_cell_setting 'triclinic'
loop_
_space_group_symop_operation_xyz
x,y,z
-x,-y,-z
loop_
_atom_site_type_symbol
_atom_site_label
_atom_site_fract_x
_atom_site_fract_y
_atom_site_fract_z
Si Si1 0.484788 0.903262 0.449768
Si Si2 0.455979 0.241633 0.077524
Si Si3 0.238116 0.379539 0.860397
Si Si4 0.770575 0.161144 0.422096
Si Si5 0.086291 0.127983 0.194218
Si Si6 0.898399 0.461695 0.205166
Si Si7 0.044578 0.301100 0.268885
Si Si8 0.867430 0.938835 0.335984
O O1 0.379943 0.867460 0.542121
O O2 0.722160 0.873029 0.578709
O O3 0.341802 0.005000 0.552369
O O4 0.473451 0.852528 0.148907
O O5 0.616556 0.240847 0.337873
O O6 0.238163 0.261638 0.131636
O O7 0.421301 0.308858 0.968697
O O8 0.275282 0.456835 0.864965
O O9 0.136900 0.335502 0.569869
O O10 0.068230 0.422158 0.034652
O O11 0.919554 0.102249 0.210024
O O12 0.965720 0.154226 0.653107
O O13 0.977090 0.225516 0.208757
O O14 0.183014 0.069798 0.945532
O O15 0.000000 0.500000 0.500000
O O16 0.872145 0.380508 0.187585
O O17 0.000000 0.000000 0.500000
#
# Coordination Sequence:
#
# PCOD9095886 Si02
#       8
#     2   2   2   2   2   2   2   2
#     4  11  24  43  61  89 119 160 214 265 312 370
#     4  11  20  38  62  86 129 161 207 260 306 372
#     4   9  16  32  56  92 125 164 206 245 305 366
#     4  11  24  40  61  86 122 161 202 258 314 367
#     4  12  24  40  65  91 120 163 212 259 319 366
#     4   8  16  29  55  91 130 161 199 250 298 366
#     4  10  20  35  60  92 125 161 206 255 307 367
#     4  10  25  44  61  88 122 162 215 260 317 374
#
# _framework density 24.009063999999999
#
# number of rings (size 3 to 8) (size 9 to 14) (size 15 to 20)
#    0.000    1.750    2.500    1.875    1.750    5.000 
#    0.000    0.000    0.000    0.750    0.000   36.750 
#    0.000    0.000    0.000    0.000    0.000    0.000 
#
# Total GULP energy -89191.131704 kJ/mol
# GULP energy per Si atom -5574.445731 kJ/mol
# Density = 2.395442 g / cm^3
# Si number density = 24.009064 Si / 1000 Ang^3
#
#
#
# Elastic Constant Matrix: (Units=GPa)
#
#
# Indices 1 2 3 4 5 6 
#
# 1 71.0098 5.1503 23.0171 -8.7905 -6.6700 2.2031
# 2 5.1503 122.7381 31.3713 -29.7775 0.0704 12.6910
# 3 23.0171 31.3713 102.9436 -5.4882 -20.5045 5.5930
# 4 -8.7905 -29.7775 -5.4882 43.7786 -7.3280 -0.3193
# 5 -6.6700 0.0704 -20.5045 -7.3280 24.0919 -10.8099
# 6 2.2031 12.6910 5.5930 -0.3193 -10.8099 25.8138
#
#
#
# Elastic Compliance Matrix: (Units=1/GPa)
#
#
# Indices 1 2 3 4 5 6 
#
# 1 0.015772 0.001080 -0.003038 0.004032 0.003053 0.000110
# 2 0.001080 0.011366 -0.003729 0.006819 -0.003672 -0.006326
# 3 -0.003038 -0.003729 0.014007 0.000900 0.013480 0.004714
# 4 0.004032 0.006819 0.000900 0.030376 0.011728 0.001395
# 5 0.003053 -0.003672 0.013480 0.011728 0.070005 0.028085
# 6 0.000110 -0.006326 0.004714 0.001395 0.028085 0.052596
#
#
# Mechanical properties :
#
#
# Convention : Reuss Voigt Hill
#
# Bulk Modulus (GPa) = 33.59223 46.19653 39.89438
# Shear Modulus (GPa) = 23.21044 34.54705 28.87875
#
# Velocity S-wave (km/s) = 3.11261 3.79742 3.47194
# Velocity P-wave (km/s) = 5.19034 6.20566 5.72057
#
# Compressibility (1/GPa) = 0.02976879
#
# Stress axis : x y z
#
# Youngs Moduli (GPa) = 63.40495 87.98205 71.39473
#
# Poissons Ratio (x) = -0.09502 0.21692
# Poissons Ratio (y) = -0.06848 0.26626
# Poissons Ratio (z) = 0.19265 0.32812
#
# Static dielectric constant tensor:
#      x y z
#    x 1.925180 0.049880 -0.048950 
#    y 0.049880 2.091040 -0.032250 
#    z -0.048950 -0.032250 1.932190 
# 
# From -- ./inp_files/51782.got.cif
#   From: 2010.05.17/outbox.cif.g08.bks.cpg/sg2_26_cif.got.tgz:51782.got - 2010.06.03 11:33:40.
