data_PCOD9095711
_publ_section_title
;
Structure prediction by ZEFSAII (Michael W. Deem and Ramdas Pophale) SiO2 
 PCOD9095711
Probable space group: P -1
;
_chemical_formula_sum "Si O2"
_cell_formula_units_Z 16
_cell_length_a 23.999870
_cell_length_b 15.553034
_cell_length_c 12.479101
_cell_angle_alpha 38.276276
_cell_angle_beta 154.696421
_cell_angle_gamma 158.763740
_cell_volume 669.312629
_symmetry_space_group_name_H-M "P -1"
_symmetry_group_IT_number 2
_symmetry_cell_setting 'triclinic'
loop_
_space_group_symop_operation_xyz
x,y,z
-x,-y,-z
loop_
_atom_site_type_symbol
_atom_site_label
_atom_site_fract_x
_atom_site_fract_y
_atom_site_fract_z
Si Si1 0.661018 0.081474 0.791754
Si Si2 0.858284 0.063249 0.475034
Si Si3 0.028907 0.103077 0.064329
Si Si4 0.494395 0.383142 0.266125
Si Si5 0.915710 0.269188 0.601774
Si Si6 0.417798 0.927091 0.050683
Si Si7 0.608286 0.419841 0.182988
Si Si8 0.158706 0.511567 0.137811
O O1 0.749330 0.282007 0.826331
O O2 0.500000 0.000000 0.500000
O O3 0.493317 0.813351 0.810770
O O4 0.898033 0.235834 0.994474
O O5 0.107453 0.302497 0.609119
O O6 0.904200 0.179419 0.555582
O O7 0.659738 0.983079 0.153141
O O8 0.810035 0.858445 0.621416
O O9 0.774432 0.878694 0.903001
O O10 0.070418 0.301633 0.912469
O O11 0.000000 0.000000 0.000000
O O12 0.543873 0.367092 0.248904
O O13 0.673818 0.471162 0.574044
O O14 0.523559 0.573026 0.114062
O O15 0.000000 0.500000 0.500000
O O16 0.641865 0.052918 0.376981
O O17 0.189751 0.622668 0.972582
O O18 0.500000 0.000000 0.000000
#
# Coordination Sequence:
#
# PCOD9095711 Si02
#       8
#     2   2   2   2   2   2   2   2
#     4  11  23  39  62  96 125 163 204 260 304 377
#     4   9  20  36  61  82 115 165 192 248 311 361
#     4   9  18  37  60  83 116 158 206 245 309 372
#     4  10  20  38  63  89 119 170 201 252 311 377
#     4  10  20  35  59  89 112 151 206 253 303 363
#     4  10  21  39  58  86 123 157 206 259 302 368
#     4  10  21  38  61  91 128 155 212 250 310 371
#     4  11  23  39  66  90 127 166 207 251 324 362
#
# _framework density 23.905123
#
# number of rings (size 3 to 8) (size 9 to 14) (size 15 to 20)
#    0.000    2.000    2.500    0.750    3.500    0.500 
#    4.500    0.625    0.000    0.000    0.000    0.000 
#    0.000    0.000    0.000    0.000    0.000    0.000 
#
# Total GULP energy -89307.696209 kJ/mol
# GULP energy per Si atom -5581.731013 kJ/mol
# Density = 2.385071 g / cm^3
# Si number density = 23.905123 Si / 1000 Ang^3
#
#
#
# Elastic Constant Matrix: (Units=GPa)
#
#
# Indices 1 2 3 4 5 6 
#
# 1 81.3035 20.6593 25.2659 -4.4036 6.4102 15.7953
# 2 20.6593 63.4927 15.7789 -36.2419 -3.0237 -0.7577
# 3 25.2659 15.7789 131.1622 -47.8173 10.5823 -0.4017
# 4 -4.4036 -36.2419 -47.8173 47.4898 11.0197 7.2159
# 5 6.4102 -3.0237 10.5823 11.0197 28.3578 0.8512
# 6 15.7953 -0.7577 -0.4017 7.2159 0.8512 36.9401
#
#
#
# Elastic Compliance Matrix: (Units=1/GPa)
#
#
# Indices 1 2 3 4 5 6 
#
# 1 0.018205 -0.014221 -0.009099 -0.018836 0.005222 -0.004616
# 2 -0.014221 0.054378 0.025095 0.073002 -0.028536 -0.006134
# 3 -0.009099 0.025095 0.027846 0.053192 -0.026177 -0.005079
# 4 -0.018836 0.073002 0.053192 0.146011 -0.064039 -0.016916
# 5 0.005222 -0.028536 -0.026177 -0.064039 0.065457 0.007898
# 6 -0.004616 -0.006134 -0.005079 -0.016916 0.007898 0.031986
#
#
# Mechanical properties :
#
#
# Convention : Reuss Voigt Hill
#
# Bulk Modulus (GPa) = 9.61705 44.37407 26.99556
# Shear Modulus (GPa) = 13.33357 36.84117 25.08737
#
# Velocity S-wave (km/s) = 2.36428 3.93000 3.24305
# Velocity P-wave (km/s) = 3.38893 6.26067 5.03393
#
# Compressibility (1/GPa) = 0.10398199
#
# Stress axis : x y z
#
# Youngs Moduli (GPa) = 54.92863 18.38968 35.91147
#
# Poissons Ratio (x) = 0.26151 0.32675
# Poissons Ratio (y) = 0.78112 -0.90121
# Poissons Ratio (z) = 0.49978 -0.46150
#
# Static dielectric constant tensor:
#      x y z
#    x 1.943590 0.033570 0.003790 
#    y 0.033570 2.019280 0.034760 
#    z 0.003790 0.034760 1.944150 
# 
# From -- ./inp_files/544279.got.cif
#   From: 2010.05.17/outbox.cif.g08.bks.cpg/sg2_273_cif.got.tgz:544279.got - 2010.06.03 11:33:40.
