data_PCOD9095740
_publ_section_title
;
Structure prediction by ZEFSAII (Michael W. Deem and Ramdas Pophale) SiO2 
 PCOD9095740
Probable space group: P -1
;
_chemical_formula_sum "Si O2"
_cell_formula_units_Z 14
_cell_length_a 14.751526
_cell_length_b 7.012608
_cell_length_c 8.417052
_cell_angle_alpha 79.942450
_cell_angle_beta 51.337791
_cell_angle_gamma 104.808494
_cell_volume 589.341174
_symmetry_space_group_name_H-M "P -1"
_symmetry_group_IT_number 2
_symmetry_cell_setting 'triclinic'
loop_
_space_group_symop_operation_xyz
x,y,z
-x,-y,-z
loop_
_atom_site_type_symbol
_atom_site_label
_atom_site_fract_x
_atom_site_fract_y
_atom_site_fract_z
Si Si1 0.398386 0.418144 0.314144
Si Si2 0.623215 0.220402 0.903421
Si Si3 0.358807 0.921591 0.749696
Si Si4 0.895061 0.172729 0.139367
Si Si5 0.312453 0.277388 0.943816
Si Si6 0.172451 0.314947 0.819539
Si Si7 0.230355 0.983366 0.385336
O O1 0.393869 0.573481 0.157919
O O2 0.544281 0.525992 0.204012
O O3 0.298372 0.428082 0.551585
O O4 0.343013 0.170623 0.347548
O O5 0.741057 0.206733 0.683900
O O6 0.644002 0.206446 0.068234
O O7 0.500000 0.000000 0.000000
O O8 0.230594 0.804475 0.791253
O O9 0.500000 0.000000 0.500000
O O10 0.349072 0.129735 0.805398
O O11 0.873285 0.944597 0.117050
O O12 0.887007 0.125886 0.344507
O O13 0.046482 0.345956 0.910401
O O14 0.222739 0.358322 0.937845
O O15 0.237766 0.126004 0.200341
#
# Coordination Sequence:
#
# PCOD9095740 Si02
#       7
#     2   2   2   2   2   2   2
#     4  11  21  38  61  88 124 154 194 250 295 351
#     4  11  21  37  58  91 121 152 195 248 298 352
#     4  10  20  35  60  87 117 157 195 245 301 349
#     4   9  19  37  61  83 119 161 197 241 297 352
#     4  10  20  35  59  91 117 154 200 246 293 353
#     4   9  20  38  57  86 119 159 200 241 293 352
#     4  10  21  37  61  88 121 156 196 245 300 346
#
# _framework density 23.755341000000001
#
# number of rings (size 3 to 8) (size 9 to 14) (size 15 to 20)
#    0.000    2.000    2.857    1.714    0.000    0.571 
#    2.571    2.857    0.000    0.000    0.000    0.000 
#    0.000    0.000    0.000    0.000    0.000    0.000 
#
# Total GULP energy -78224.227826 kJ/mol
# GULP energy per Si atom -5587.444845 kJ/mol
# Density = 2.370127 g / cm^3
# Si number density = 23.755341 Si / 1000 Ang^3
#
#
#
# Elastic Constant Matrix: (Units=GPa)
#
#
# Indices 1 2 3 4 5 6 
#
# 1 155.0760 20.3868 75.8452 5.9794 -12.1097 5.1592
# 2 20.3868 71.2284 21.5926 16.1550 1.4657 -6.8087
# 3 75.8452 21.5926 119.7690 6.6064 -7.4964 27.4627
# 4 5.9794 16.1550 6.6064 25.7012 0.4007 7.4065
# 5 -12.1097 1.4657 -7.4964 0.4007 27.3818 5.5008
# 6 5.1592 -6.8087 27.4627 7.4065 5.5008 29.0514
#
#
#
# Elastic Compliance Matrix: (Units=1/GPa)
#
#
# Indices 1 2 3 4 5 6 
#
# 1 0.010113 0.000531 -0.007660 -0.002457 0.001183 0.005972
# 2 0.000531 0.022034 -0.007939 -0.017064 -0.006516 0.018159
# 3 -0.007660 -0.007939 0.019791 0.008083 0.006872 -0.022571
# 4 -0.002457 -0.017064 0.008083 0.055707 0.006578 -0.026651
# 5 0.001183 -0.006516 0.006872 0.006578 0.042797 -0.018014
# 6 0.005972 0.018159 -0.022571 -0.026651 -0.018014 0.069160
#
#
# Mechanical properties :
#
#
# Convention : Reuss Voigt Hill
#
# Bulk Modulus (GPa) = 45.86542 64.63582 55.25062
# Shear Modulus (GPa) = 19.45479 31.64348 25.54913
#
# Velocity S-wave (km/s) = 2.86486 3.65370 3.28306
# Velocity P-wave (km/s) = 5.50387 6.71322 6.13840
#
# Compressibility (1/GPa) = 0.02180292
#
# Stress axis : x y z
#
# Youngs Moduli (GPa) = 98.87801 45.38376 50.52714
#
# Poissons Ratio (x) = -0.02411 0.38704
# Poissons Ratio (y) = -0.05253 0.40115
# Poissons Ratio (z) = 0.75741 0.36032
#
# Static dielectric constant tensor:
#      x y z
#    x 1.944730 -0.004530 -0.018180 
#    y -0.004530 1.966270 -0.000670 
#    z -0.018180 -0.000670 1.943280 
# 
# From -- ./inp_files/263478.got.cif
#   From: 2010.05.17/outbox.cif.g08.bks.cpg/sg2_132_cif.got.tgz:263478.got - 2010.06.03 11:33:40.
