data_PCOD9095338
_publ_section_title
;
Structure prediction by ZEFSAII (Michael W. Deem and Ramdas Pophale) SiO2 
 PCOD9095338
Probable space group: P -1
;
_chemical_formula_sum "Si O2"
_cell_formula_units_Z 14
_cell_length_a 8.978548
_cell_length_b 7.946035
_cell_length_c 13.205305
_cell_angle_alpha 69.171111
_cell_angle_beta 96.442159
_cell_angle_gamma 49.992169
_cell_volume 593.135398
_symmetry_space_group_name_H-M "P -1"
_symmetry_group_IT_number 2
_symmetry_cell_setting 'triclinic'
loop_
_space_group_symop_operation_xyz
x,y,z
-x,-y,-z
loop_
_atom_site_type_symbol
_atom_site_label
_atom_site_fract_x
_atom_site_fract_y
_atom_site_fract_z
Si Si1 0.048991 0.640150 0.415831
Si Si2 0.646736 0.545351 0.986393
Si Si3 0.911672 0.515548 0.879388
Si Si4 0.920147 0.879540 0.754012
Si Si5 0.591577 0.478398 0.622210
Si Si6 0.199766 0.635786 0.637356
Si Si7 0.282133 0.154746 0.815653
O O1 0.268941 0.462583 0.399543
O O2 0.099772 0.716725 0.500056
O O3 0.000000 0.500000 0.500000
O O4 0.839252 0.850417 0.282256
O O5 0.755482 0.485092 0.897272
O O6 0.502070 0.853648 0.926580
O O7 0.500000 0.500000 0.000000
O O8 0.849220 0.342943 0.121818
O O9 0.794499 0.799559 0.768711
O O10 0.110756 0.301600 0.864474
O O11 0.000000 0.500000 0.000000
O O12 0.999231 0.837688 0.655390
O O13 0.778888 0.164730 0.726621
O O14 0.500000 0.500000 0.500000
O O15 0.391292 0.617858 0.653814
O O16 0.299615 0.348077 0.737802
#
# Coordination Sequence:
#
# PCOD9095338 Si02
#       7
#     2   2   2   2   2   2   2
#     4   9  19  36  56  81 112 145 182 224 277 336
#     4  11  23  36  56  87 117 149 188 229 278 340
#     4   9  21  38  57  81 112 148 191 232 273 333
#     4  10  21  37  57  83 111 143 189 235 275 329
#     4  10  20  35  57  81 109 146 187 230 276 328
#     4   9  20  37  60  83 108 147 190 231 276 328
#     4  10  20  38  59  81 116 153 181 229 290 328
#
# _framework density 23.603379
#
# number of rings (size 3 to 8) (size 9 to 14) (size 15 to 20)
#    0.000    2.286    0.000    1.714    0.000   11.429 
#    0.000    2.857    0.000   15.429    0.000    0.000 
#    0.000    0.000    0.000    0.000    0.000    0.000 
#
# Total GULP energy -78098.294693 kJ/mol
# GULP energy per Si atom -5578.449621 kJ/mol
# Density = 2.354966 g / cm^3
# Si number density = 23.603379 Si / 1000 Ang^3
#
#
#
# Elastic Constant Matrix: (Units=GPa)
#
#
# Indices 1 2 3 4 5 6 
#
# 1 157.0660 7.9935 35.6388 6.4494 -33.0155 -20.5449
# 2 7.9935 61.7620 34.1291 0.3682 -14.5262 -14.1246
# 3 35.6388 34.1291 88.5720 -7.5984 -7.7210 3.6307
# 4 6.4494 0.3682 -7.5984 36.7363 -3.5588 -15.1124
# 5 -33.0155 -14.5262 -7.7210 -3.5588 42.7597 6.7386
# 6 -20.5449 -14.1246 3.6307 -15.1124 6.7386 26.0422
#
#
#
# Elastic Compliance Matrix: (Units=1/GPa)
#
#
# Indices 1 2 3 4 5 6 
#
# 1 0.010654 0.006925 -0.006583 0.002635 0.007618 0.012636
# 2 0.006925 0.031653 -0.014575 0.007229 0.009927 0.026289
# 3 -0.006583 -0.014575 0.019711 -0.001446 -0.004135 -0.015616
# 4 0.002635 0.007229 -0.001446 0.037974 0.003065 0.027444
# 5 0.007618 0.009927 -0.004135 0.003065 0.031257 0.005660
# 6 0.012636 0.026289 -0.015616 0.027444 0.005660 0.079265
#
#
# Mechanical properties :
#
#
# Convention : Reuss Voigt Hill
#
# Bulk Modulus (GPa) = 29.80552 51.43586 40.62069
# Shear Modulus (GPa) = 19.98691 36.41688 28.20190
#
# Velocity S-wave (km/s) = 2.91311 3.93220 3.46037
# Velocity P-wave (km/s) = 4.89592 6.51577 5.76304
#
# Compressibility (1/GPa) = 0.03355083
#
# Stress axis : x y z
#
# Youngs Moduli (GPa) = 93.86120 31.59287 50.73341
#
# Poissons Ratio (x) = -0.21877 0.33398
# Poissons Ratio (y) = -0.64996 0.73944
# Poissons Ratio (z) = 0.61789 0.46047
#
# Static dielectric constant tensor:
#      x y z
#    x 2.042540 0.030210 -0.033660 
#    y 0.030210 1.930240 0.013510 
#    z -0.033660 0.013510 1.930700 
# 
# From -- ./inp_files/233164.got.cif
#   From: 2010.05.17/outbox.cif.g08.bks.cpg/sg2_117_cif.got.tgz:233164.got - 2010.06.03 11:33:40.
