data_PCOD9095672
_publ_section_title
;
Structure prediction by ZEFSAII (Michael W. Deem and Ramdas Pophale) SiO2 
 PCOD9095672
Probable space group: P -1
;
_chemical_formula_sum "Si O2"
_cell_formula_units_Z 16
_cell_length_a 14.641817
_cell_length_b 9.874563
_cell_length_c 13.049409
_cell_angle_alpha 144.490027
_cell_angle_beta 132.695181
_cell_angle_gamma 68.115520
_cell_volume 731.005898
_symmetry_space_group_name_H-M "P -1"
_symmetry_group_IT_number 2
_symmetry_cell_setting 'triclinic'
loop_
_space_group_symop_operation_xyz
x,y,z
-x,-y,-z
loop_
_atom_site_type_symbol
_atom_site_label
_atom_site_fract_x
_atom_site_fract_y
_atom_site_fract_z
Si Si1 0.994754 0.606065 0.176178
Si Si2 0.381395 0.990902 0.770304
Si Si3 0.674498 0.315655 0.270713
Si Si4 0.518455 0.942301 0.320586
Si Si5 0.622308 0.790822 0.491657
Si Si6 0.810522 0.790837 0.277651
Si Si7 0.924757 0.176967 0.019948
Si Si8 0.210984 0.578390 0.789322
O O1 0.860878 0.645704 0.140655
O O2 0.104524 0.900727 0.458070
O O3 0.000000 0.500000 0.000000
O O4 0.005072 0.399592 0.136652
O O5 0.380465 0.908059 0.601596
O O6 0.338266 0.227801 0.876544
O O7 0.294121 0.790137 0.665801
O O8 0.539268 0.083852 0.980464
O O9 0.628863 0.543493 0.393523
O O10 0.786651 0.421483 0.331569
O O11 0.581726 0.783390 0.337582
O O12 0.486342 0.136716 0.486829
O O13 0.369110 0.751028 0.048170
O O14 0.775941 0.009927 0.754308
O O15 0.824513 0.676349 0.327534
O O16 0.886445 0.297327 0.165008
O O17 0.000000 0.000000 0.000000
#
# Coordination Sequence:
#
# PCOD9095672 Si02
#       8
#     2   2   2   2   2   2   2   2
#     4  10  24  41  59  88 116 157 210 247 292 350
#     4  10  21  36  57  87 120 149 187 244 300 360
#     4  10  21  35  57  89 116 149 190 234 309 365
#     4   9  19  36  59  88 116 147 194 239 294 355
#     4  10  20  35  59  86 113 153 193 239 292 356
#     4  10  21  40  62  84 120 159 197 252 295 342
#     4  10  23  40  58  85 119 153 198 247 295 353
#     4   9  19  39  62  85 116 154 192 242 296 358
#
# _framework density 21.887649
#
# number of rings (size 3 to 8) (size 9 to 14) (size 15 to 20)
#    0.000    2.250    0.000    1.500    5.250    4.500 
#    0.000    0.625    0.000    0.000    0.000    0.000 
#    0.000    0.000    0.000    0.000    0.000    0.000 
#
# Total GULP energy -89243.129399 kJ/mol
# GULP energy per Si atom -5577.695587 kJ/mol
# Density = 2.183783 g / cm^3
# Si number density = 21.887649 Si / 1000 Ang^3
#
#
#
# Elastic Constant Matrix: (Units=GPa)
#
#
# Indices 1 2 3 4 5 6 
#
# 1 139.6366 94.3291 25.2496 -4.6648 -22.8045 12.8610
# 2 94.3291 185.5236 27.4842 17.9329 -15.3135 15.3350
# 3 25.2496 27.4842 38.7158 2.7689 -7.1607 5.0847
# 4 -4.6648 17.9329 2.7689 23.7143 -8.0527 3.6956
# 5 -22.8045 -15.3135 -7.1607 -8.0527 25.2223 0.0589
# 6 12.8610 15.3350 5.0847 3.6956 0.0589 39.2425
#
#
#
# Elastic Compliance Matrix: (Units=1/GPa)
#
#
# Indices 1 2 3 4 5 6 
#
# 1 0.015783 -0.007585 -0.003040 0.014223 0.013350 -0.003174
# 2 -0.007585 0.010253 -0.002417 -0.010518 -0.004677 -0.000210
# 3 -0.003040 -0.002417 0.030624 -0.000578 0.004298 -0.001979
# 4 0.014223 -0.010518 -0.000578 0.062967 0.026428 -0.006446
# 5 0.013350 -0.004677 0.004298 0.026428 0.058550 -0.005681
# 6 -0.003174 -0.000210 -0.001979 -0.006446 -0.005681 0.027477
#
#
# Mechanical properties :
#
#
# Convention : Reuss Voigt Hill
#
# Bulk Modulus (GPa) = 32.70529 73.11132 52.90831
# Shear Modulus (GPa) = 20.66733 32.09000 26.37867
#
# Velocity S-wave (km/s) = 3.07619 3.83315 3.47534
# Velocity P-wave (km/s) = 5.25282 7.28466 6.35053
#
# Compressibility (1/GPa) = 0.03057609
#
# Stress axis : x y z
#
# Youngs Moduli (GPa) = 63.36053 97.53481 32.65435
#
# Poissons Ratio (x) = 0.73979 0.09926
# Poissons Ratio (y) = 0.48058 0.07892
# Poissons Ratio (z) = 0.19261 0.23573
#
# Static dielectric constant tensor:
#      x y z
#    x 1.859070 0.011000 0.041040 
#    y 0.011000 1.775510 -0.020910 
#    z 0.041040 -0.020910 1.872410 
# 
# From -- ./inp_files/295537.got.cif
#   From: 2010.05.17/outbox.cif.g08.bks.cpg/sg2_148_cif.got.tgz:295537.got - 2010.06.03 11:33:40.
