data_PCOD9095477
_publ_section_title
;
Structure prediction by ZEFSAII (Michael W. Deem and Ramdas Pophale) SiO2 
 PCOD9095477
Probable space group: P -1
;
_chemical_formula_sum "Si O2"
_cell_formula_units_Z 14
_cell_length_a 5.154135
_cell_length_b 8.629654
_cell_length_c 19.223598
_cell_angle_alpha 120.727419
_cell_angle_beta 78.970340
_cell_angle_gamma 125.325096
_cell_volume 593.025004
_symmetry_space_group_name_H-M "P -1"
_symmetry_group_IT_number 2
_symmetry_cell_setting 'triclinic'
loop_
_space_group_symop_operation_xyz
x,y,z
-x,-y,-z
loop_
_atom_site_type_symbol
_atom_site_label
_atom_site_fract_x
_atom_site_fract_y
_atom_site_fract_z
Si Si1 0.500347 0.344868 0.239029
Si Si2 0.128730 0.794200 0.336521
Si Si3 0.229398 0.378758 0.394072
Si Si4 0.345796 0.252045 0.755061
Si Si5 0.017667 0.311625 0.536208
Si Si6 0.478716 0.958994 0.073523
Si Si7 0.236792 0.269595 0.926364
O O1 0.857546 0.530485 0.291928
O O2 0.240736 0.271852 0.296980
O O3 0.460137 0.491353 0.219365
O O4 0.511775 0.157194 0.159856
O O5 0.975239 0.860602 0.300987
O O6 0.139806 0.861504 0.431579
O O7 0.452251 0.839725 0.300819
O O8 0.013504 0.244079 0.441136
O O9 0.602483 0.522607 0.430616
O O10 0.142189 0.552858 0.422863
O O11 0.302382 0.247915 0.837976
O O12 0.729143 0.905832 0.074030
O O13 0.106233 0.765483 0.061252
O O14 0.500000 0.000000 0.000000
O O15 0.500000 0.500000 0.000000
#
# Coordination Sequence:
#
# PCOD9095477 Si02
#       7
#     2   2   2   2   2   2   2
#     4   9  21  34  59  85 119 145 196 236 297 326
#     4   9  17  30  56  82 116 148 188 237 280 334
#     4   9  16  25  47  78 122 144 180 238 285 328
#     4  10  20  35  58  81 114 150 187 235 287 338
#     4   9  14  26  43  82 117 146 183 228 292 316
#     4  12  27  42  65  89 115 153 194 243 299 351
#     4  12  27  44  63  85 117 152 196 243 295 354
#
# _framework density 23.607773999999999
#
# number of rings (size 3 to 8) (size 9 to 14) (size 15 to 20)
#    0.857    1.143    1.429    2.571    4.000    0.000 
#    0.000    0.000    0.000    0.000    0.000    6.000 
#    0.000    0.000    0.000    0.000    0.000    0.000 
#
# Total GULP energy -78188.492729 kJ/mol
# GULP energy per Si atom -5584.892338 kJ/mol
# Density = 2.355404 g / cm^3
# Si number density = 23.607774 Si / 1000 Ang^3
#
#
#
# Elastic Constant Matrix: (Units=GPa)
#
#
# Indices 1 2 3 4 5 6 
#
# 1 148.9356 11.0060 21.1885 -10.4109 -4.1799 -24.3281
# 2 11.0060 50.5991 49.3113 -9.4279 5.3080 -16.2996
# 3 21.1885 49.3113 161.8169 -32.1294 -15.3225 -14.9828
# 4 -10.4109 -9.4279 -32.1294 62.6630 -3.0345 2.8215
# 5 -4.1799 5.3080 -15.3225 -3.0345 35.6870 -6.8400
# 6 -24.3281 -16.2996 -14.9828 2.8215 -6.8400 35.6427
#
#
#
# Elastic Compliance Matrix: (Units=1/GPa)
#
#
# Indices 1 2 3 4 5 6 
#
# 1 0.007773 0.000312 -0.000189 0.001082 0.001960 0.005660
# 2 0.000312 0.033437 -0.010224 -0.000967 -0.007523 0.009839
# 3 -0.000189 -0.010224 0.010869 0.004294 0.006665 0.000704
# 4 0.001082 -0.000967 0.004294 0.018322 0.003942 0.001408
# 5 0.001960 -0.007523 0.006665 0.003942 0.033888 0.006891
# 6 0.005660 0.009839 0.000704 0.001408 0.006891 0.037926
#
#
# Mechanical properties :
#
#
# Convention : Reuss Voigt Hill
#
# Bulk Modulus (GPa) = 31.36831 58.26259 44.81545
# Shear Modulus (GPa) = 28.89478 45.45491 37.17484
#
# Velocity S-wave (km/s) = 3.50230 4.39272 3.97254
# Velocity P-wave (km/s) = 5.44710 7.10359 6.32977
#
# Compressibility (1/GPa) = 0.03187931
#
# Stress axis : x y z
#
# Youngs Moduli (GPa) = 128.64790 29.90665 92.00447
#
# Poissons Ratio (x) = -0.00933 0.01735
# Poissons Ratio (y) = -0.04014 0.94062
# Poissons Ratio (z) = 0.02425 0.30576
#
# Static dielectric constant tensor:
#      x y z
#    x 1.857190 0.017640 0.020200 
#    y 0.017640 1.952250 -0.013090 
#    z 0.020200 -0.013090 1.915330 
# 
# From -- ./inp_files/547051.got.cif
#   From: 2010.05.17/outbox.cif.g08.bks.cpg/sg2_274_cif.got.tgz:547051.got - 2010.06.03 11:33:40.
