data_PCOD9095435
_publ_section_title
;
Structure prediction by ZEFSAII (Michael W. Deem and Ramdas Pophale) SiO2 
 PCOD9095435
Probable space group: P -1
;
_chemical_formula_sum "Si O2"
_cell_formula_units_Z 16
_cell_length_a 11.906486
_cell_length_b 11.905243
_cell_length_c 12.146077
_cell_angle_alpha 90.303677
_cell_angle_beta 148.815684
_cell_angle_gamma 109.846119
_cell_volume 666.246568
_symmetry_space_group_name_H-M "P -1"
_symmetry_group_IT_number 2
_symmetry_cell_setting 'triclinic'
loop_
_space_group_symop_operation_xyz
x,y,z
-x,-y,-z
loop_
_atom_site_type_symbol
_atom_site_label
_atom_site_fract_x
_atom_site_fract_y
_atom_site_fract_z
Si Si1 0.195747 0.055582 0.498997
Si Si2 0.759522 0.651154 0.781650
Si Si3 0.027606 0.948878 0.906194
Si Si4 0.250909 0.331550 0.620071
Si Si5 0.621509 0.716247 0.067318
Si Si6 0.455121 0.724617 0.693025
Si Si7 0.896829 0.543797 0.084545
Si Si8 0.756574 0.279728 0.070564
O O1 0.169867 0.173394 0.524853
O O2 0.495512 0.115293 0.802431
O O3 0.196463 0.073615 0.368539
O O4 0.915299 0.888223 0.293976
O O5 0.500000 0.500000 0.500000
O O6 0.608103 0.690875 0.735957
O O7 0.937839 0.624394 0.006058
O O8 0.952992 0.793230 0.862255
O O9 0.342209 0.095104 0.127401
O O10 0.000000 0.000000 0.000000
O O11 0.020389 0.317606 0.355631
O O12 0.259542 0.346871 0.759627
O O13 0.573119 0.466616 0.848124
O O14 0.459577 0.663991 0.814272
O O15 0.399565 0.698503 0.965903
O O16 0.148842 0.654460 0.384063
O O17 0.870069 0.399443 0.068315
#
# Coordination Sequence:
#
# PCOD9095435 Si02
#       8
#     2   2   2   2   2   2   2   2
#     4   9  18  36  58  86 121 155 199 248 297 358
#     4  11  22  40  65  89 116 156 204 248 297 356
#     4   9  20  40  63  88 119 154 195 247 302 355
#     4  10  20  35  59  89 121 158 202 245 292 355
#     4   9  20  36  57  87 123 160 197 239 298 364
#     4  10  22  41  61  87 125 158 192 247 302 352
#     4  10  22  38  57  84 117 155 199 243 294 350
#     4  10  20  35  57  88 122 158 198 245 295 351
#
# _framework density 24.015132999999999
#
# number of rings (size 3 to 8) (size 9 to 14) (size 15 to 20)
#    0.000    2.500    0.000    3.750    0.000    6.000 
#    0.000   15.000    0.000    0.000    0.000    0.000 
#    0.000    0.000    0.000    0.250    0.000    0.000 
#
# Total GULP energy -89370.620699 kJ/mol
# GULP energy per Si atom -5585.663794 kJ/mol
# Density = 2.396047 g / cm^3
# Si number density = 24.015133 Si / 1000 Ang^3
#
#
#
# Elastic Constant Matrix: (Units=GPa)
#
#
# Indices 1 2 3 4 5 6 
#
# 1 56.7355 19.0109 29.1533 -21.1684 -16.2016 9.3914
# 2 19.0109 134.4823 68.0398 -21.2418 -3.0574 12.9961
# 3 29.1533 68.0398 228.9081 -34.3198 -3.7769 8.4924
# 4 -21.1684 -21.2418 -34.3198 46.1847 -0.8255 -10.3557
# 5 -16.2016 -3.0574 -3.7769 -0.8255 39.3366 -4.6146
# 6 9.3914 12.9961 8.4924 -10.3557 -4.6146 29.8410
#
#
#
# Elastic Compliance Matrix: (Units=1/GPa)
#
#
# Indices 1 2 3 4 5 6 
#
# 1 0.025658 -0.000970 -0.001212 0.010103 0.010329 -0.002204
# 2 -0.000970 0.009217 -0.002298 0.001511 -0.000172 -0.002557
# 3 -0.001212 -0.002298 0.005584 0.002701 0.000001 0.000730
# 4 0.010103 0.001511 0.002701 0.030652 0.005998 0.006958
# 5 0.010329 -0.000172 0.000001 0.005998 0.030208 0.003577
# 6 -0.002204 -0.002557 0.000730 0.006958 0.003577 0.038078
#
#
# Mechanical properties :
#
#
# Convention : Reuss Voigt Hill
#
# Bulk Modulus (GPa) = 31.74715 72.50375 52.12545
# Shear Modulus (GPa) = 31.47478 43.33392 37.40435
#
# Velocity S-wave (km/s) = 3.62418 4.25248 3.95084
# Velocity P-wave (km/s) = 5.54628 7.37346 6.52415
#
# Compressibility (1/GPa) = 0.03149889
#
# Stress axis : x y z
#
# Youngs Moduli (GPa) = 38.97436 108.49061 179.09193
#
# Poissons Ratio (x) = 0.10523 0.21714
# Poissons Ratio (y) = 0.03780 0.41149
# Poissons Ratio (z) = 0.04725 0.24927
#
# Static dielectric constant tensor:
#      x y z
#    x 1.989760 -0.031810 -0.028790 
#    y -0.031810 1.991080 -0.012180 
#    z -0.028790 -0.012180 1.921610 
# 
# From -- ./inp_files/454792.got.cif
#   From: 2010.05.17/outbox.cif.g08.bks.cpg/sg2_228_cif.got.tgz:454792.got - 2010.06.03 11:33:40.
