data_PCOD9095236
_publ_section_title
;
Structure prediction by ZEFSAII (Michael W. Deem and Ramdas Pophale) SiO2 
 PCOD9095236
Probable space group: P -1
;
_chemical_formula_sum "Si O2"
_cell_formula_units_Z 16
_cell_length_a 10.190471
_cell_length_b 11.483975
_cell_length_c 20.668623
_cell_angle_alpha 39.976351
_cell_angle_beta 145.005651
_cell_angle_gamma 116.623499
_cell_volume 778.112119
_symmetry_space_group_name_H-M "P -1"
_symmetry_group_IT_number 2
_symmetry_cell_setting 'triclinic'
loop_
_space_group_symop_operation_xyz
x,y,z
-x,-y,-z
loop_
_atom_site_type_symbol
_atom_site_label
_atom_site_fract_x
_atom_site_fract_y
_atom_site_fract_z
Si Si1 0.275604 0.389319 0.439373
Si Si2 0.155931 0.225685 0.243806
Si Si3 0.964819 0.800347 0.061111
Si Si4 0.598729 0.361014 0.795087
Si Si5 0.419145 0.135512 0.726955
Si Si6 0.369664 0.462014 0.137898
Si Si7 0.417487 0.795588 0.481766
Si Si8 0.951671 0.197423 0.436663
O O1 0.394548 0.316983 0.589727
O O2 0.511254 0.254524 0.542836
O O3 0.121960 0.625339 0.252895
O O4 0.054232 0.320069 0.380493
O O5 0.276850 0.316931 0.200207
O O6 0.334594 0.191581 0.392719
O O7 0.182086 0.014638 0.315197
O O8 0.859835 0.397613 0.063468
O O9 0.120048 0.704037 0.097908
O O10 0.650376 0.910152 0.893221
O O11 0.000000 0.000000 0.000000
O O12 0.494894 0.207310 0.793375
O O13 0.621851 0.382313 0.871213
O O14 0.413520 0.597677 0.595347
O O15 0.142146 0.143924 0.599488
O O16 0.652457 0.327911 0.279741
O O17 0.000000 0.000000 0.500000
#
# Coordination Sequence:
#
# PCOD9095236 Si02
#       8
#     2   2   2   2   2   2   2   2
#     4   9  20  35  56  82 117 146 190 240 271 344
#     4   9  19  33  55  83 110 143 187 241 284 332
#     4   9  18  35  58  88 113 144 191 230 288 335
#     4   9  19  34  55  87 109 145 188 232 290 337
#     4   9  21  37  57  83 118 153 187 236 284 339
#     4  10  20  35  56  81 113 146 190 237 281 338
#     4   9  17  33  54  81 112 140 185 231 294 336
#     4  10  22  38  56  80 113 159 194 228 292 338
#
# _framework density 20.56259
#
# number of rings (size 3 to 8) (size 9 to 14) (size 15 to 20)
#    0.750    2.000    0.000    0.750    1.750    8.000 
#    2.250    6.250    0.000    3.750    0.000    0.000 
#    0.000    0.000    0.000    0.000    0.000    0.000 
#
# Total GULP energy -89110.477095 kJ/mol
# GULP energy per Si atom -5569.404818 kJ/mol
# Density = 2.051579 g / cm^3
# Si number density = 20.562590 Si / 1000 Ang^3
#
#
#
# Elastic Constant Matrix: (Units=GPa)
#
#
# Indices 1 2 3 4 5 6 
#
# 1 16.3705 8.1223 10.3368 -1.8118 9.8798 -1.4029
# 2 8.1223 86.5013 27.8075 -11.7050 10.6132 -1.2476
# 3 10.3368 27.8075 99.6213 -8.1012 27.6940 -1.1073
# 4 -1.8118 -11.7050 -8.1012 25.3283 0.5941 3.1714
# 5 9.8798 10.6132 27.6940 0.5941 33.9065 4.7861
# 6 -1.4029 -1.2476 -1.1073 3.1714 4.7861 23.7052
#
#
#
# Elastic Compliance Matrix: (Units=1/GPa)
#
#
# Indices 1 2 3 4 5 6 
#
# 1 0.077856 -0.003886 -0.000428 0.003099 -0.022372 0.008485
# 2 -0.003886 0.013616 -0.002700 0.005191 -0.000997 -0.000133
# 3 -0.000428 -0.002700 0.014179 0.003229 -0.010990 0.002282
# 4 0.003099 0.005191 0.003229 0.043782 -0.005344 -0.004171
# 5 -0.022372 -0.000997 -0.010990 -0.005344 0.046896 -0.010643
# 6 0.008485 -0.000133 0.002282 -0.004171 -0.010643 0.045494
#
#
# Mechanical properties :
#
#
# Convention : Reuss Voigt Hill
#
# Bulk Modulus (GPa) = 10.91428 32.78070 21.84749
# Shear Modulus (GPa) = 17.45856 27.00310 22.23083
#
# Velocity S-wave (km/s) = 2.91700 3.62776 3.29162
# Velocity P-wave (km/s) = 4.08222 5.79000 5.00942
#
# Compressibility (1/GPa) = 0.09162309
#
# Stress axis : x y z
#
# Youngs Moduli (GPa) = 12.84422 73.44242 70.52638
#
# Poissons Ratio (x) = 0.28542 0.03019
# Poissons Ratio (y) = 0.04992 0.19040
# Poissons Ratio (z) = 0.00550 0.19827
#
# Static dielectric constant tensor:
#      x y z
#    x 1.742610 -0.001330 0.006580 
#    y -0.001330 1.764320 0.015840 
#    z 0.006580 0.015840 1.777820 
# 
# From -- ./inp_files/568732.got.cif
#   From: 2010.05.17/outbox.cif.g08.bks.cpg/sg2_285_cif.got.tgz:568732.got - 2010.06.03 11:33:40.
