data_PCOD9095279
_publ_section_title
;
Structure prediction by ZEFSAII (Michael W. Deem and Ramdas Pophale) SiO2 
 PCOD9095279
Probable space group: P -1
;
_chemical_formula_sum "Si O2"
_cell_formula_units_Z 16
_cell_length_a 25.546382
_cell_length_b 5.285806
_cell_length_c 18.112843
_cell_angle_alpha 109.006857
_cell_angle_beta 15.451349
_cell_angle_gamma 109.886604
_cell_volume 612.738727
_symmetry_space_group_name_H-M "P -1"
_symmetry_group_IT_number 2
_symmetry_cell_setting 'triclinic'
loop_
_space_group_symop_operation_xyz
x,y,z
-x,-y,-z
loop_
_atom_site_type_symbol
_atom_site_label
_atom_site_fract_x
_atom_site_fract_y
_atom_site_fract_z
Si Si1 0.560396 0.277803 0.112828
Si Si2 0.992914 0.014834 0.283083
Si Si3 0.819563 0.153118 0.397516
Si Si4 0.121070 0.554574 0.414322
Si Si5 0.654741 0.232095 0.483877
Si Si6 0.708740 0.627766 0.699771
Si Si7 0.684622 0.255604 0.094655
Si Si8 0.519873 0.309385 0.526049
O O1 0.377860 0.051733 0.346225
O O2 0.471901 0.556507 0.281039
O O3 0.711708 0.217810 0.967005
O O4 0.670838 0.306415 0.887998
O O5 0.996819 0.042766 0.192148
O O6 0.767381 0.890745 0.597609
O O7 0.999380 0.267875 0.351806
O O8 0.150262 0.828662 0.082871
O O9 0.833347 0.206865 0.296265
O O10 0.784999 0.409118 0.519161
O O11 0.173595 0.325808 0.377980
O O12 0.000000 0.500000 0.500000
O O13 0.689357 0.336325 0.362512
O O14 0.516191 0.947643 0.637580
O O15 0.500000 0.500000 0.000000
O O16 0.651764 0.566338 0.182398
O O17 0.500000 0.500000 0.500000
O O18 0.500000 0.000000 0.500000
#
# Coordination Sequence:
#
# PCOD9095279 Si02
#       8
#     2   2   2   2   2   2   2   2
#     4  10  20  35  56  84 117 169 222 270 312 374
#     4  11  23  37  56  88 127 174 216 267 327 370
#     4  10  21  36  56  84 119 168 215 262 313 378
#     4  11  22  34  52  81 122 167 218 269 320 366
#     4  10  20  38  65  93 125 160 213 265 321 383
#     4  11  22  36  53  78 120 174 227 271 309 370
#     4  10  22  38  62  94 126 165 209 270 326 392
#     4  11  22  42  70 105 130 161 206 265 326 400
#
# _framework density 26.112272999999998
#
# number of rings (size 3 to 8) (size 9 to 14) (size 15 to 20)
#    0.000    1.500    1.250    4.500    0.000    9.000 
#    0.000    0.000    0.000    1.500    0.000    0.000 
#    0.000    0.000    0.000    0.000    0.000    0.000 
#
# Total GULP energy -89306.601033 kJ/mol
# GULP energy per Si atom -5581.662565 kJ/mol
# Density = 2.605284 g / cm^3
# Si number density = 26.112273 Si / 1000 Ang^3
#
#
#
# Elastic Constant Matrix: (Units=GPa)
#
#
# Indices 1 2 3 4 5 6 
#
# 1 283.6390 39.3559 22.7185 12.7390 -37.1130 -17.9745
# 2 39.3559 91.3058 9.7144 4.7573 3.3708 11.4092
# 3 22.7185 9.7144 24.6012 -1.8181 -4.5829 12.0069
# 4 12.7390 4.7573 -1.8181 30.5131 0.2563 -0.7606
# 5 -37.1130 3.3708 -4.5829 0.2563 47.0847 -0.1185
# 6 -17.9745 11.4092 12.0069 -0.7606 -0.1185 39.1486
#
#
#
# Elastic Compliance Matrix: (Units=1/GPa)
#
#
# Indices 1 2 3 4 5 6 
#
# 1 0.005168 -0.002247 -0.005657 -0.002057 0.003707 0.004734
# 2 -0.002247 0.012788 -0.001476 -0.001228 -0.002834 -0.004338
# 3 -0.005657 -0.001476 0.056524 0.005468 0.001070 -0.019394
# 4 -0.002057 -0.001228 0.005468 0.034119 -0.001191 -0.001604
# 5 0.003707 -0.002834 0.001070 -0.001191 0.024479 0.002251
# 6 0.004734 -0.004338 -0.019394 -0.001604 0.002251 0.034905
#
#
# Mechanical properties :
#
#
# Convention : Reuss Voigt Hill
#
# Bulk Modulus (GPa) = 17.94697 60.34706 39.14701
# Shear Modulus (GPa) = 24.35249 45.19978 34.77613
#
# Velocity S-wave (km/s) = 3.05717 4.16502 3.65333
# Velocity P-wave (km/s) = 4.39883 6.80372 5.72889
#
# Compressibility (1/GPa) = 0.05571973
#
# Stress axis : x y z
#
# Youngs Moduli (GPa) = 193.50271 78.19547 17.69156
#
# Poissons Ratio (x) = 0.17569 0.10008
# Poissons Ratio (y) = 0.43477 0.02612
# Poissons Ratio (z) = 1.09467 0.11545
#
# Static dielectric constant tensor:
#      x y z
#    x 2.104430 -0.067970 -0.057830 
#    y -0.067970 2.164250 -0.043190 
#    z -0.057830 -0.043190 2.172000 
# 
# From -- ./inp_files/44577.got.cif
#   From: 2010.05.17/outbox.cif.g08.bks.cpg/sg2_23_cif.got.tgz:44577.got - 2010.06.03 11:33:40.
