data_PCOD9095772
_publ_section_title
;
Structure prediction by ZEFSAII (Michael W. Deem and Ramdas Pophale) SiO2 
 PCOD9095772
Probable space group: P -1
;
_chemical_formula_sum "Si O2"
_cell_formula_units_Z 15
_cell_length_a 15.874474
_cell_length_b 9.340777
_cell_length_c 8.981486
_cell_angle_alpha 86.119024
_cell_angle_beta 128.962748
_cell_angle_gamma 132.124853
_cell_volume 606.216546
_symmetry_space_group_name_H-M "P -1"
_symmetry_group_IT_number 2
_symmetry_cell_setting 'triclinic'
loop_
_space_group_symop_operation_xyz
x,y,z
-x,-y,-z
loop_
_atom_site_type_symbol
_atom_site_label
_atom_site_fract_x
_atom_site_fract_y
_atom_site_fract_z
Si Si1 0.813736 0.270817 0.623792
Si Si2 0.683889 0.534295 0.501787
Si Si3 0.200541 0.870429 0.667091
Si Si4 0.867501 0.718590 0.365383
Si Si5 0.500000 0.000000 0.500000
Si Si6 0.679408 0.011435 0.874674
Si Si7 0.993422 0.253506 0.034436
Si Si8 0.501598 0.410771 0.853226
O O1 0.820259 0.285965 0.452521
O O2 0.913002 0.516953 0.782869
O O3 0.605876 0.041398 0.469416
O O4 0.920813 0.243341 0.802156
O O5 0.769723 0.600007 0.427549
O O6 0.533414 0.248832 0.394236
O O7 0.853723 0.706134 0.791899
O O8 0.564707 0.550919 0.350918
O O9 0.007401 0.742106 0.483503
O O10 0.343569 0.125090 0.719815
O O11 0.291614 0.947461 0.923222
O O12 0.707076 0.567740 0.074713
O O13 0.000000 0.000000 0.500000
O O14 0.694850 0.179726 0.799873
O O15 0.810476 0.032789 0.946751
O O16 0.500000 0.500000 0.000000
#
# Coordination Sequence:
#
# PCOD9095772 Si02
#       8
#     2   2   2   2   1   2   2   2
#     4  10  24  44  63  89 127 165 220 266 311 377
#     4  11  19  36  65  93 121 173 210 240 316 397
#     4  12  22  39  64 100 125 158 216 272 306 367
#     4  11  19  36  61  95 130 166 198 259 319 372
#     4  10  22  44  60  84 126 176 202 248 324 376
#     4  11  21  37  65  92 124 167 210 254 315 377
#     4  10  22  43  61  85 125 179 207 253 328 379
#     4  10  20  35  59  96 131 158 202 256 323 374
#
# _framework density 24.743634
#
# number of rings (size 3 to 8) (size 9 to 14) (size 15 to 20)
#    0.000    1.333    8.000    0.000    0.000    1.067 
#    7.200    0.667    0.000    4.000    0.000    0.000 
#    0.000    0.000    0.000    0.000    0.000    0.000 
#
# Total GULP energy -83620.219161 kJ/mol
# GULP energy per Si atom -5574.681277 kJ/mol
# Density = 2.468732 g / cm^3
# Si number density = 24.743634 Si / 1000 Ang^3
#
#
#
# Elastic Constant Matrix: (Units=GPa)
#
#
# Indices 1 2 3 4 5 6 
#
# 1 46.2256 21.3381 32.1535 8.4188 11.8495 17.0676
# 2 21.3381 57.5102 30.3650 15.0873 6.9615 6.2027
# 3 32.1535 30.3650 150.1900 -4.4996 52.6942 -1.6564
# 4 8.4188 15.0873 -4.4996 43.8766 1.3739 10.4880
# 5 11.8495 6.9615 52.6942 1.3739 43.8283 2.9475
# 6 17.0676 6.2027 -1.6564 10.4880 2.9475 25.1990
#
#
#
# Elastic Compliance Matrix: (Units=1/GPa)
#
#
# Indices 1 2 3 4 5 6 
#
# 1 0.039833 -0.008287 -0.007623 0.000557 0.001432 -0.025840
# 2 -0.008287 0.024379 -0.004903 -0.007929 0.004372 0.002078
# 3 -0.007623 -0.004903 0.015034 0.003315 -0.015866 0.007835
# 4 0.000557 -0.007929 0.003315 0.028132 -0.003115 -0.009551
# 5 0.001432 0.004372 -0.015866 -0.003115 0.041354 -0.006630
# 6 -0.025840 0.002078 0.007835 -0.009551 -0.006630 0.061940
#
#
# Mechanical properties :
#
#
# Convention : Reuss Voigt Hill
#
# Bulk Modulus (GPa) = 26.58243 46.84878 36.71560
# Shear Modulus (GPa) = 18.87959 33.91873 26.39916
#
# Velocity S-wave (km/s) = 2.76526 3.70646 3.26990
# Velocity P-wave (km/s) = 4.57843 6.10671 5.39694
#
# Compressibility (1/GPa) = 0.03761884
#
# Stress axis : x y z
#
# Youngs Moduli (GPa) = 25.10495 41.01958 66.51642
#
# Poissons Ratio (x) = 0.33992 0.50706
# Poissons Ratio (y) = 0.20804 0.32616
# Poissons Ratio (z) = 0.19138 0.20114
#
# Static dielectric constant tensor:
#      x y z
#    x 2.026260 0.091650 -0.019380 
#    y 0.091650 1.910860 0.064810 
#    z -0.019380 0.064810 1.988140 
# 
# From -- ./inp_files/333297.got.cif
#   From: 2010.05.17/outbox.cif.g08.bks.cpg/sg2_167_cif.got.tgz:333297.got - 2010.06.03 11:33:40.
