data_PCOD9095909
_publ_section_title
;
Structure prediction by ZEFSAII (Michael W. Deem and Ramdas Pophale) SiO2 
 PCOD9095909
Probable space group: P -1
;
_chemical_formula_sum "Si O2"
_cell_formula_units_Z 16
_cell_length_a 8.117699
_cell_length_b 12.399097
_cell_length_c 10.380267
_cell_angle_alpha 58.541873
_cell_angle_beta 46.076268
_cell_angle_gamma 74.353531
_cell_volume 634.634739
_symmetry_space_group_name_H-M "P -1"
_symmetry_group_IT_number 2
_symmetry_cell_setting 'triclinic'
loop_
_space_group_symop_operation_xyz
x,y,z
-x,-y,-z
loop_
_atom_site_type_symbol
_atom_site_label
_atom_site_fract_x
_atom_site_fract_y
_atom_site_fract_z
Si Si1 0.485813 0.214451 0.294899
Si Si2 0.029876 0.651277 0.175834
Si Si3 0.999087 0.898953 0.179649
Si Si4 0.521395 0.950658 0.851328
Si Si5 0.355750 0.474886 0.224538
Si Si6 0.249793 0.503843 0.788811
Si Si7 0.977477 0.939734 0.692408
Si Si8 0.648138 0.205293 0.484189
O O1 0.313333 0.319930 0.335939
O O2 0.500616 0.162862 0.462960
O O3 0.439905 0.116095 0.265066
O O4 0.746534 0.286300 0.070290
O O5 0.928009 0.760312 0.242626
O O6 0.139616 0.551396 0.271705
O O7 0.827409 0.587643 0.231914
O O8 0.919686 0.965659 0.309406
O O9 0.268074 0.895159 0.065920
O O10 0.000000 0.000000 0.000000
O O11 0.564028 0.102367 0.703629
O O12 0.704583 0.909758 0.876471
O O13 0.539044 0.517341 0.215409
O O14 0.500000 0.500000 0.000000
O O15 0.334508 0.645502 0.597997
O O16 0.000000 0.500000 0.000000
O O17 0.097656 0.816897 0.686593
O O18 0.000000 0.000000 0.500000
#
# Coordination Sequence:
#
# PCOD9095909 Si02
#       8
#     2   2   2   2   2   2   2   2
#     4   9  17  31  52  88 125 166 212 258 319 378
#     4  10  20  36  55  90 127 164 216 274 319 384
#     4  11  24  43  64  94 132 171 214 265 335 386
#     4  10  21  36  59  94 127 164 209 267 325 381
#     4   9  17  30  50  87 123 167 212 268 317 379
#     4  11  19  32  60  91 126 170 220 266 318 392
#     4  10  22  40  64  97 125 167 215 267 321 386
#     4  10  20  35  60  94 128 164 215 262 322 384
#
# _framework density 25.211352000000002
#
# number of rings (size 3 to 8) (size 9 to 14) (size 15 to 20)
#    0.000    2.000    3.750    2.250    1.750    2.000 
#    2.250    0.000    0.000    3.750    0.000    0.000 
#    0.000    0.000    0.000    0.000    0.000    0.000 
#
# Total GULP energy -89378.785640 kJ/mol
# GULP energy per Si atom -5586.174102 kJ/mol
# Density = 2.515397 g / cm^3
# Si number density = 25.211352 Si / 1000 Ang^3
#
#
#
# Elastic Constant Matrix: (Units=GPa)
#
#
# Indices 1 2 3 4 5 6 
#
# 1 125.9517 46.8143 12.8564 -5.4552 6.5994 17.3456
# 2 46.8143 117.3999 36.2640 1.7471 19.1355 24.5748
# 3 12.8564 36.2640 58.2734 7.0281 10.4256 20.6824
# 4 -5.4552 1.7471 7.0281 31.7519 6.4000 4.4012
# 5 6.5994 19.1355 10.4256 6.4000 35.0153 -10.3946
# 6 17.3456 24.5748 20.6824 4.4012 -10.3946 47.4460
#
#
#
# Elastic Compliance Matrix: (Units=1/GPa)
#
#
# Indices 1 2 3 4 5 6 
#
# 1 0.009646 -0.003347 0.000913 0.002320 -0.001496 -0.002734
# 2 -0.003347 0.013666 -0.004662 0.001998 -0.007492 -0.005650
# 3 0.000913 -0.004662 0.025225 -0.002143 -0.007840 -0.010434
# 4 0.002320 0.001998 -0.002143 0.034953 -0.009117 -0.006188
# 5 -0.001496 -0.007492 -0.007840 -0.009117 0.042265 0.017951
# 6 -0.002734 -0.005650 -0.010434 -0.006188 0.017951 0.034057
#
#
# Mechanical properties :
#
#
# Convention : Reuss Voigt Hill
#
# Bulk Modulus (GPa) = 29.11589 54.83271 41.97430
# Shear Modulus (GPa) = 26.96126 36.55532 31.75829
#
# Velocity S-wave (km/s) = 3.27373 3.81196 3.55305
# Velocity P-wave (km/s) = 5.08562 6.41647 5.78942
#
# Compressibility (1/GPa) = 0.03434551
#
# Stress axis : x y z
#
# Youngs Moduli (GPa) = 103.67386 73.17179 39.64397
#
# Poissons Ratio (x) = 0.24488 -0.03619
# Poissons Ratio (y) = 0.34695 0.18481
# Poissons Ratio (z) = -0.09464 0.34111
#
# Static dielectric constant tensor:
#      x y z
#    x 2.156070 -0.061730 -0.061990 
#    y -0.061730 2.046710 0.022600 
#    z -0.061990 0.022600 2.129880 
# 
# From -- ./inp_files/392319.got.cif
#   From: 2010.05.17/outbox.cif.g08.bks.cpg/sg2_197_cif.got.tgz:392319.got - 2010.06.03 11:33:40.
