data_PCOD9095019
_publ_section_title
;
Structure prediction by ZEFSAII (Michael W. Deem and Ramdas Pophale) SiO2 
 PCOD9095019
Probable space group: P -1
;
_chemical_formula_sum "Si O2"
_cell_formula_units_Z 16
_cell_length_a 8.089331
_cell_length_b 21.560453
_cell_length_c 10.069985
_cell_angle_alpha 46.315231
_cell_angle_beta 135.410682
_cell_angle_gamma 135.324193
_cell_volume 804.205089
_symmetry_space_group_name_H-M "P -1"
_symmetry_group_IT_number 2
_symmetry_cell_setting 'triclinic'
loop_
_space_group_symop_operation_xyz
x,y,z
-x,-y,-z
loop_
_atom_site_type_symbol
_atom_site_label
_atom_site_fract_x
_atom_site_fract_y
_atom_site_fract_z
Si Si1 0.211324 0.277774 0.940284
Si Si2 0.415370 0.202888 0.543291
Si Si3 0.726871 0.279206 0.348461
Si Si4 0.417625 0.005530 0.794476
Si Si5 0.087806 0.870062 0.242578
Si Si6 0.935907 0.208388 0.161913
Si Si7 0.454081 0.228329 0.825426
Si Si8 0.706940 0.605400 0.433277
O O1 0.249932 0.368174 0.738276
O O2 0.022702 0.189400 0.870434
O O3 0.493479 0.277337 0.126487
O O4 0.080585 0.265556 0.027449
O O5 0.611660 0.269142 0.447253
O O6 0.346738 0.095267 0.617228
O O7 0.526877 0.219158 0.729569
O O8 0.162676 0.223344 0.372629
O O9 0.795002 0.188520 0.513556
O O10 0.010713 0.367803 0.378228
O O11 0.669222 0.034061 0.800821
O O12 0.196260 0.903795 0.781021
O O13 0.500000 0.000000 0.000000
O O14 0.822523 0.861333 0.170001
O O15 0.703390 0.232723 0.040351
O O16 0.399047 0.319420 0.685125
O O17 0.500000 0.500000 0.500000
#
# Coordination Sequence:
#
# PCOD9095019 Si02
#       8
#     2   2   2   2   2   2   2   2
#     4   9  17  34  56  76 101 142 177 211 262 319
#     4  10  20  35  54  80 109 144 181 215 257 305
#     4   8  17  34  56  75 104 139 177 211 256 323
#     4  11  18  34  56  76 110 146 189 219 243 302
#     4   9  19  32  50  78 109 144 179 214 263 298
#     4  11  20  34  56  79 107 145 183 218 256 306
#     4  10  20  35  53  76 109 138 169 223 276 313
#     4  10  22  38  58  81 104 133 173 219 274 328
#
# _framework density 19.895423999999998
#
# number of rings (size 3 to 8) (size 9 to 14) (size 15 to 20)
#    0.000    2.500    2.500    1.875    0.000    5.000 
#    0.000    3.125    0.000    3.000    0.000    0.000 
#    0.000    0.000    0.000    0.000    0.000    0.000 
#
# Total GULP energy -89175.386822 kJ/mol
# GULP energy per Si atom -5573.461676 kJ/mol
# Density = 1.985014 g / cm^3
# Si number density = 19.895424 Si / 1000 Ang^3
#
#
#
# Elastic Constant Matrix: (Units=GPa)
#
#
# Indices 1 2 3 4 5 6 
#
# 1 62.0889 17.1201 19.1930 -5.8190 13.5407 16.0520
# 2 17.1201 63.4844 23.2259 -8.6576 3.3372 28.4395
# 3 19.1930 23.2259 84.9879 18.4773 24.1459 21.4340
# 4 -5.8190 -8.6576 18.4773 27.1579 15.0785 1.4548
# 5 13.5407 3.3372 24.1459 15.0785 38.9050 4.2260
# 6 16.0520 28.4395 21.4340 1.4548 4.2260 28.0259
#
#
#
# Elastic Compliance Matrix: (Units=1/GPa)
#
#
# Indices 1 2 3 4 5 6 
#
# 1 0.023411 0.003643 -0.002892 0.014973 -0.010946 -0.014020
# 2 0.003643 0.034583 -0.004437 0.019644 -0.005402 -0.033992
# 3 -0.002892 -0.004437 0.019637 -0.012039 -0.005327 -0.007431
# 4 0.014973 0.019644 -0.012039 0.068850 -0.024017 -0.019256
# 5 -0.010946 -0.005402 -0.005327 -0.024017 0.041415 0.010827
# 6 -0.014020 -0.033992 -0.007431 -0.019256 0.010827 0.083256
#
#
# Mechanical properties :
#
#
# Convention : Reuss Voigt Hill
#
# Bulk Modulus (GPa) = 14.23314 36.62656 25.42985
# Shear Modulus (GPa) = 16.55937 28.88589 22.72263
#
# Velocity S-wave (km/s) = 2.88813 3.81450 3.38317
# Velocity P-wave (km/s) = 4.27682 6.15224 5.29817
#
# Compressibility (1/GPa) = 0.07025859
#
# Stress axis : x y z
#
# Youngs Moduli (GPa) = 42.71568 28.91555 50.92398
#
# Poissons Ratio (x) = -0.10534 0.14728
# Poissons Ratio (y) = -0.15561 0.22596
# Poissons Ratio (z) = 0.12354 0.12830
#
# Static dielectric constant tensor:
#      x y z
#    x 1.753410 0.020210 0.022460 
#    y 0.020210 1.674010 0.002530 
#    z 0.022460 0.002530 1.719440 
# 
# From -- ./inp_files/278321.got.cif
#   From: 2010.05.17/outbox.cif.g08.bks.cpg/sg2_140_cif.got.tgz:278321.got - 2010.06.03 11:33:40.
