data_PCOD9095608
_publ_section_title
;
Structure prediction by ZEFSAII (Michael W. Deem and Ramdas Pophale) SiO2 
 PCOD9095608
Probable space group: P -1
;
_chemical_formula_sum "Si O2"
_cell_formula_units_Z 12
_cell_length_a 8.079542
_cell_length_b 8.360595
_cell_length_c 13.262642
_cell_angle_alpha 111.566563
_cell_angle_beta 117.450462
_cell_angle_gamma 120.261209
_cell_volume 427.439635
_symmetry_space_group_name_H-M "P -1"
_symmetry_group_IT_number 2
_symmetry_cell_setting 'triclinic'
loop_
_space_group_symop_operation_xyz
x,y,z
-x,-y,-z
loop_
_atom_site_type_symbol
_atom_site_label
_atom_site_fract_x
_atom_site_fract_y
_atom_site_fract_z
Si Si1 0.183913 0.875173 0.281831
Si Si2 0.127627 0.091902 0.944167
Si Si3 0.733832 0.334393 0.174095
Si Si4 0.312522 0.255024 0.574054
Si Si5 0.632917 0.272645 0.816912
Si Si6 0.024643 0.762828 0.660811
O O1 0.455786 0.970692 0.323775
O O2 0.297598 0.102345 0.445579
O O3 0.000000 0.500000 0.000000
O O4 0.956593 0.804927 0.122271
O O5 0.501961 0.323455 0.115870
O O6 0.403746 0.596094 0.239182
O O7 0.976170 0.826275 0.768617
O O8 0.000000 0.000000 0.000000
O O9 0.988261 0.584657 0.221439
O O10 0.911312 0.386559 0.331387
O O11 0.500000 0.000000 0.000000
O O12 0.256356 0.391533 0.530564
O O13 0.000000 0.000000 0.500000
O O14 0.365534 0.090331 0.786579
#
# Coordination Sequence:
#
# PCOD9095608 Si02
#       6
#     2   2   2   2   2   2
#     4  11  22  38  65  96 127 176 218 262 331 392
#     4  10  20  35  58  93 130 169 216 268 320 383
#     4  10  20  37  58  91 133 169 215 270 315 378
#     4   9  21  42  64  91 130 172 215 268 327 391
#     4  11  21  38  67  97 125 167 218 270 323 385
#     4   9  20  40  60  88 131 169 207 270 325 379
#
# _framework density 28.074138000000001
#
# number of rings (size 3 to 8) (size 9 to 14) (size 15 to 20)
#    0.000    2.000    0.000    4.000    0.000    4.000 
#    0.000    4.167    0.000    4.000    0.000   14.000 
#    0.000    0.000    0.000    0.000    0.000    0.000 
#
# Total GULP energy -67253.992294 kJ/mol
# GULP energy per Si atom -5604.499358 kJ/mol
# Density = 2.801024 g / cm^3
# Si number density = 28.074138 Si / 1000 Ang^3
#
#
#
# Elastic Constant Matrix: (Units=GPa)
#
#
# Indices 1 2 3 4 5 6 
#
# 1 142.6997 69.4316 47.2672 -23.3544 1.4196 -24.7490
# 2 69.4316 223.9021 67.2254 -44.5508 24.9369 -41.2145
# 3 47.2672 67.2254 123.0079 -32.2893 19.3776 -3.9510
# 4 -23.3544 -44.5508 -32.2893 66.7895 -8.4170 10.6396
# 5 1.4196 24.9369 19.3776 -8.4170 61.2705 -16.4525
# 6 -24.7490 -41.2145 -3.9510 10.6396 -16.4525 74.6523
#
#
#
# Elastic Compliance Matrix: (Units=1/GPa)
#
#
# Indices 1 2 3 4 5 6 
#
# 1 0.009225 -0.001725 -0.002674 0.000671 0.002049 0.002320
# 2 -0.001725 0.006662 -0.002137 0.002289 -0.001026 0.002440
# 3 -0.002674 -0.002137 0.011568 0.003268 -0.002969 -0.002574
# 4 0.000671 0.002289 0.003268 0.018498 0.000317 -0.000907
# 5 0.002049 -0.001026 -0.002969 0.000317 0.018760 0.004045
# 6 0.002320 0.002440 -0.002574 -0.000907 0.004045 0.016397
#
#
# Mechanical properties :
#
#
# Convention : Reuss Voigt Hill
#
# Bulk Modulus (GPa) = 69.53279 95.27313 82.40296
# Shear Modulus (GPa) = 50.51749 60.92149 55.71949
#
# Velocity S-wave (km/s) = 4.24657 4.66340 4.45986
# Velocity P-wave (km/s) = 6.99041 7.93766 7.47904
#
# Compressibility (1/GPa) = 0.01438170
#
# Stress axis : x y z
#
# Youngs Moduli (GPa) = 108.40409 150.10855 86.44705
#
# Poissons Ratio (x) = 0.25900 0.23116
# Poissons Ratio (y) = 0.18705 0.18473
# Poissons Ratio (z) = 0.28987 0.32076
#
# Static dielectric constant tensor:
#      x y z
#    x 2.178820 0.001260 -0.030570 
#    y 0.001260 2.091650 0.019510 
#    z -0.030570 0.019510 2.428360 
# 
# From -- ./inp_files/166423.got.cif
#   From: 2010.05.17/outbox.cif.g08.bks.cpg/sg2_84_cif.got.tgz:166423.got - 2010.06.03 11:33:40.
