data_PCOD9095979
_publ_section_title
;
Structure prediction by ZEFSAII (Michael W. Deem and Ramdas Pophale) SiO2 
 PCOD9095979
Probable space group: P -1
;
_chemical_formula_sum "Si O2"
_cell_formula_units_Z 16
_cell_length_a 5.674675
_cell_length_b 7.853878
_cell_length_c 18.254678
_cell_angle_alpha 99.760302
_cell_angle_beta 115.036327
_cell_angle_gamma 117.790465
_cell_volume 579.808504
_symmetry_space_group_name_H-M "P -1"
_symmetry_group_IT_number 2
_symmetry_cell_setting 'triclinic'
loop_
_space_group_symop_operation_xyz
x,y,z
-x,-y,-z
loop_
_atom_site_type_symbol
_atom_site_label
_atom_site_fract_x
_atom_site_fract_y
_atom_site_fract_z
Si Si1 0.222800 0.414773 0.380575
Si Si2 0.256266 0.248163 0.020886
Si Si3 0.603751 0.272867 0.760863
Si Si4 0.820892 0.231345 0.643539
Si Si5 0.360436 0.764187 0.064486
Si Si6 0.562578 0.621172 0.730542
Si Si7 0.391203 0.788325 0.822055
Si Si8 0.089280 0.070979 0.433318
O O1 0.345230 0.660542 0.404690
O O2 0.429332 0.367449 0.354271
O O3 0.890966 0.280815 0.278362
O O4 0.177809 0.304793 0.443658
O O5 0.439320 0.274718 0.969981
O O6 0.024506 0.326875 0.000474
O O7 0.554819 0.351365 0.125550
O O8 0.000000 0.000000 0.000000
O O9 0.795556 0.224619 0.727252
O O10 0.610226 0.262431 0.847145
O O11 0.737255 0.517735 0.774968
O O12 0.242106 0.091291 0.669897
O O13 0.191802 0.421461 0.685320
O O14 0.706003 0.005022 0.579822
O O15 0.554329 0.025232 0.106974
O O16 0.662366 0.834165 0.800588
O O17 0.000000 0.000000 0.500000
#
# Coordination Sequence:
#
# PCOD9095979 Si02
#       8
#     2   2   2   2   2   2   2   2
#     4  10  21  39  66  92 126 177 218 265 345 399
#     4  10  23  37  58  99 135 170 225 293 333 397
#     4  10  22  42  63  89 130 171 216 277 337 404
#     4   9  22  42  61  92 132 168 217 278 327 410
#     4  11  23  37  65  95 130 176 225 282 348 394
#     4   9  21  38  63  88 123 173 219 267 330 407
#     4  10  20  35  61  89 124 165 221 270 328 396
#     4  11  24  40  67 100 127 164 221 274 340 412
#
# _framework density 27.595317999999999
#
# number of rings (size 3 to 8) (size 9 to 14) (size 15 to 20)
#    0.000    2.000    1.250    1.500   10.500    1.000 
#    0.000    6.875    0.000    0.000    0.000    0.000 
#    0.000    0.000    0.000    0.000    0.000    0.000 
#
# Total GULP energy -89203.335375 kJ/mol
# GULP energy per Si atom -5575.208461 kJ/mol
# Density = 2.753251 g / cm^3
# Si number density = 27.595318 Si / 1000 Ang^3
#
#
#
# Elastic Constant Matrix: (Units=GPa)
#
#
# Indices 1 2 3 4 5 6 
#
# 1 126.8237 37.4045 62.3303 -9.5859 -25.1066 -8.7748
# 2 37.4045 104.6873 55.2334 -17.8167 -10.2131 -8.3576
# 3 62.3303 55.2334 168.5367 -28.7464 -21.1031 -11.3873
# 4 -9.5859 -17.8167 -28.7464 60.7870 -3.8796 -5.4319
# 5 -25.1066 -10.2131 -21.1031 -3.8796 53.5843 10.1538
# 6 -8.7748 -8.3576 -11.3873 -5.4319 10.1538 32.4152
#
#
#
# Elastic Compliance Matrix: (Units=1/GPa)
#
#
# Indices 1 2 3 4 5 6 
#
# 1 0.010531 -0.001918 -0.002818 0.000010 0.003402 0.000302
# 2 -0.001918 0.012244 -0.002788 0.002153 0.000117 0.001982
# 3 -0.002818 -0.002788 0.008716 0.003102 0.001496 0.001631
# 4 0.000010 0.002153 0.003102 0.019063 0.002232 0.004143
# 5 0.003402 0.000117 0.001496 0.002232 0.021984 -0.005035
# 6 0.000302 0.001982 0.001631 0.004143 -0.005035 0.034287
#
#
# Mechanical properties :
#
#
# Convention : Reuss Voigt Hill
#
# Bulk Modulus (GPa) = 60.81336 78.88714 69.85025
# Shear Modulus (GPa) = 39.26093 45.69592 42.47842
#
# Velocity S-wave (km/s) = 3.77601 4.07373 3.92769
# Velocity P-wave (km/s) = 6.41065 7.12574 6.77763
#
# Compressibility (1/GPa) = 0.01644376
#
# Stress axis : x y z
#
# Youngs Moduli (GPa) = 94.95970 81.66980 114.73525
#
# Poissons Ratio (x) = 0.15666 0.32331
# Poissons Ratio (y) = 0.18215 0.31983
# Poissons Ratio (z) = 0.26758 0.22766
#
# Static dielectric constant tensor:
#      x y z
#    x 2.471780 -0.032050 0.084990 
#    y -0.032050 2.329600 0.136980 
#    z 0.084990 0.136980 2.253220 
# 
# From -- ./inp_files/480668.got.cif
#   From: 2010.05.17/outbox.cif.g08.bks.cpg/sg2_241_cif.got.tgz:480668.got - 2010.06.03 11:33:40.
