data_PCOD9095163
_publ_section_title
;
Structure prediction by ZEFSAII (Michael W. Deem and Ramdas Pophale) SiO2 
 PCOD9095163
Probable space group: P -1
;
_chemical_formula_sum "Si O2"
_cell_formula_units_Z 14
_cell_length_a 13.774984
_cell_length_b 9.939851
_cell_length_c 10.203422
_cell_angle_alpha 61.198250
_cell_angle_beta 59.013554
_cell_angle_gamma 36.711393
_cell_volume 709.429665
_symmetry_space_group_name_H-M "P -1"
_symmetry_group_IT_number 2
_symmetry_cell_setting 'triclinic'
loop_
_space_group_symop_operation_xyz
x,y,z
-x,-y,-z
loop_
_atom_site_type_symbol
_atom_site_label
_atom_site_fract_x
_atom_site_fract_y
_atom_site_fract_z
Si Si1 0.988455 0.370764 0.467614
Si Si2 0.517998 0.448577 0.725633
Si Si3 0.279743 0.437654 0.003752
Si Si4 0.741327 0.408641 0.772623
Si Si5 0.893159 0.683834 0.873086
Si Si6 0.761723 0.155694 0.457153
Si Si7 0.017098 0.107448 0.164989
O O1 0.999297 0.415211 0.289189
O O2 0.000000 0.500000 0.500000
O O3 0.828780 0.427695 0.592737
O O4 0.146006 0.098354 0.499806
O O5 0.430951 0.376087 0.859081
O O6 0.582534 0.480880 0.788650
O O7 0.671130 0.268824 0.604739
O O8 0.378234 0.683149 0.632754
O O9 0.108794 0.689002 0.947732
O O10 0.292224 0.457179 0.139724
O O11 0.260902 0.276161 0.064210
O O12 0.872562 0.143197 0.845860
O O13 0.866252 0.881152 0.854320
O O14 0.000000 0.500000 0.000000
O O15 0.898188 0.152109 0.338077
#
# Coordination Sequence:
#
# PCOD9095163 Si02
#       7
#     2   2   2   2   2   2   2
#     4  11  21  38  63  85 115 147 196 250 287 328
#     4  10  20  36  58  83 119 154 192 229 289 359
#     4  10  20  35  55  83 125 151 182 241 295 344
#     4  11  20  35  60  86 113 150 196 245 285 338
#     4  10  20  36  57  86 116 148 189 238 290 340
#     4   9  20  38  60  85 111 153 196 241 283 339
#     4   9  19  35  60  86 107 151 204 240 281 333
#
# _framework density 19.734161
#
# number of rings (size 3 to 8) (size 9 to 14) (size 15 to 20)
#    0.000    2.000    1.429    2.571    0.000    3.429 
#    0.000    3.571    0.000    0.000    0.000    0.000 
#    0.000    0.000    0.000    0.000    0.000    0.000 
#
# Total GULP energy -78164.522591 kJ/mol
# GULP energy per Si atom -5583.180185 kJ/mol
# Density = 1.968924 g / cm^3
# Si number density = 19.734161 Si / 1000 Ang^3
#
#
#
# Elastic Constant Matrix: (Units=GPa)
#
#
# Indices 1 2 3 4 5 6 
#
# 1 134.2555 26.5956 28.2787 -0.9706 -7.0182 21.2117
# 2 26.5956 47.1863 19.6204 -5.3139 -4.4612 10.3714
# 3 28.2787 19.6204 96.4803 -4.4059 4.4342 4.6583
# 4 -0.9706 -5.3139 -4.4059 20.3432 6.1276 4.5141
# 5 -7.0182 -4.4612 4.4342 6.1276 22.4525 -2.3532
# 6 21.2117 10.3714 4.6583 4.5141 -2.3532 26.1422
#
#
#
# Elastic Compliance Matrix: (Units=1/GPa)
#
#
# Indices 1 2 3 4 5 6 
#
# 1 0.009523 -0.003037 -0.001990 -0.000103 0.002170 -0.005954
# 2 -0.003037 0.027597 -0.004066 0.007423 0.002386 -0.008826
# 3 -0.001990 -0.004066 0.012104 0.002801 -0.004567 0.000177
# 4 -0.000103 0.007423 0.002801 0.060264 -0.017162 -0.015312
# 5 0.002170 0.002386 -0.004567 -0.017162 0.051878 0.005739
# 6 -0.005954 -0.008826 0.000177 -0.015312 0.005739 0.049714
#
#
# Mechanical properties :
#
#
# Convention : Reuss Voigt Hill
#
# Bulk Modulus (GPa) = 32.22103 47.43460 39.82782
# Shear Modulus (GPa) = 20.86688 27.34941 24.10815
#
# Velocity S-wave (km/s) = 3.25530 3.72680 3.49900
# Velocity P-wave (km/s) = 5.52198 6.52745 6.04566
#
# Compressibility (1/GPa) = 0.03103563
#
# Stress axis : x y z
#
# Youngs Moduli (GPa) = 105.01047 36.23590 82.61453
#
# Poissons Ratio (x) = 0.11006 0.16444
# Poissons Ratio (y) = 0.31896 0.33595
# Poissons Ratio (z) = 0.20902 0.14735
#
# Static dielectric constant tensor:
#      x y z
#    x 1.697880 -0.004780 -0.011520 
#    y -0.004780 1.667490 -0.020590 
#    z -0.011520 -0.020590 1.705520 
# 
# From -- ./inp_files/157461.got.cif
#   From: 2010.05.17/outbox.cif.g08.bks.cpg/sg2_79_cif.got.tgz:157461.got - 2010.06.03 11:33:40.
