data_PCOD9095199
_publ_section_title
;
Structure prediction by ZEFSAII (Michael W. Deem and Ramdas Pophale) SiO2 
 PCOD9095199
Probable space group: P -1
;
_chemical_formula_sum "Si O2"
_cell_formula_units_Z 14
_cell_length_a 13.210098
_cell_length_b 13.064937
_cell_length_c 6.087384
_cell_angle_alpha 99.982244
_cell_angle_beta 90.769645
_cell_angle_gamma 35.179420
_cell_volume 580.710358
_symmetry_space_group_name_H-M "P -1"
_symmetry_group_IT_number 2
_symmetry_cell_setting 'triclinic'
loop_
_space_group_symop_operation_xyz
x,y,z
-x,-y,-z
loop_
_atom_site_type_symbol
_atom_site_label
_atom_site_fract_x
_atom_site_fract_y
_atom_site_fract_z
Si Si1 0.525819 0.170954 0.118807
Si Si2 0.561802 0.301999 0.531242
Si Si3 0.755187 0.295440 0.192892
Si Si4 0.139718 0.236597 0.058425
Si Si5 0.229955 0.381153 0.870127
Si Si6 0.336794 0.173616 0.403572
Si Si7 0.890944 0.033825 0.703400
O O1 0.481971 0.295010 0.341029
O O2 0.445195 0.133905 0.198023
O O3 0.415233 0.270640 0.927300
O O4 0.738007 0.968047 0.056483
O O5 0.666162 0.297650 0.379759
O O6 0.401088 0.485873 0.741874
O O7 0.722110 0.119693 0.618590
O O8 0.800473 0.191168 0.935308
O O9 0.951572 0.162631 0.239981
O O10 0.195496 0.215784 0.304644
O O11 0.934922 0.399148 0.035338
O O12 0.188651 0.303682 0.954750
O O13 0.235072 0.346625 0.603379
O O14 0.500000 0.000000 0.500000
O O15 0.000000 0.000000 0.500000
#
# Coordination Sequence:
#
# PCOD9095199 Si02
#       7
#     2   2   2   2   2   2   2
#     4  11  22  35  52  85 111 141 182 232 273 323
#     4  10  21  35  56  83 114 144 184 225 277 328
#     4   9  19  38  59  81 108 150 182 221 275 334
#     4  10  20  35  56  76 104 144 189 225 274 325
#     4  10  20  36  55  77 107 145 183 229 274 328
#     4  11  18  36  58  74 107 148 185 227 274 325
#     4   9  18  36  61  82 106 144 185 221 272 337
#
# _framework density 24.108405999999999
#
# number of rings (size 3 to 8) (size 9 to 14) (size 15 to 20)
#    0.000    2.000    2.857    1.714    0.000    2.286 
#    0.000    4.286    0.000    0.000    0.000    0.000 
#    0.000    0.000    0.000    0.000    0.000    0.000 
#
# Total GULP energy -78031.396760 kJ/mol
# GULP energy per Si atom -5573.671197 kJ/mol
# Density = 2.405353 g / cm^3
# Si number density = 24.108406 Si / 1000 Ang^3
#
#
#
# Elastic Constant Matrix: (Units=GPa)
#
#
# Indices 1 2 3 4 5 6 
#
# 1 36.1744 28.5584 9.8670 -7.4545 -4.0838 -12.5115
# 2 28.5584 120.1015 26.2297 20.2210 -8.9175 -18.2765
# 3 9.8670 26.2297 84.8917 15.6678 2.9644 -10.5927
# 4 -7.4545 20.2210 15.6678 34.1635 1.1923 -2.2720
# 5 -4.0838 -8.9175 2.9644 1.1923 30.6993 -3.8982
# 6 -12.5115 -18.2765 -10.5927 -2.2720 -3.8982 24.2903
#
#
#
# Elastic Compliance Matrix: (Units=1/GPa)
#
#
# Indices 1 2 3 4 5 6 
#
# 1 0.047886 -0.010808 -0.003835 0.019592 0.005063 0.017506
# 2 -0.010808 0.013588 -0.000738 -0.009920 0.003469 0.003964
# 3 -0.003835 -0.000738 0.014069 -0.006618 -0.001477 0.002749
# 4 0.019592 -0.009920 -0.006618 0.042722 -0.000838 0.003603
# 5 0.005063 0.003469 -0.001477 -0.000838 0.035729 0.010230
# 6 0.017506 0.003964 0.002749 0.003603 0.010230 0.056346
#
#
# Mechanical properties :
#
#
# Convention : Reuss Voigt Hill
#
# Bulk Modulus (GPa) = 22.33005 41.16420 31.74712
# Shear Modulus (GPa) = 19.52902 29.59813 24.56358
#
# Velocity S-wave (km/s) = 2.84923 3.50767 3.19545
# Velocity P-wave (km/s) = 4.48404 5.78936 5.17800
#
# Compressibility (1/GPa) = 0.04478271
#
# Stress axis : x y z
#
# Youngs Moduli (GPa) = 20.88308 73.59170 71.07578
#
# Poissons Ratio (x) = 0.79536 0.27256
# Poissons Ratio (y) = 0.22570 0.05245
# Poissons Ratio (z) = 0.08008 0.05431
#
# Static dielectric constant tensor:
#      x y z
#    x 1.960940 -0.035340 -0.053990 
#    y -0.035340 2.033960 0.025080 
#    z -0.053990 0.025080 1.984100 
# 
# From -- ./inp_files/45875.got.cif
#   From: 2010.05.17/outbox.cif.g08.bks.cpg/sg2_23_cif.got.tgz:45875.got - 2010.06.03 11:33:40.
