data_PCOD9095907
_publ_section_title
;
Structure prediction by ZEFSAII (Michael W. Deem and Ramdas Pophale) SiO2 
 PCOD9095907
Probable space group: P -1
;
_chemical_formula_sum "Si O2"
_cell_formula_units_Z 16
_cell_length_a 12.956761
_cell_length_b 11.811229
_cell_length_c 12.301805
_cell_angle_alpha 145.688888
_cell_angle_beta 34.210849
_cell_angle_gamma 130.480470
_cell_volume 593.230269
_symmetry_space_group_name_H-M "P -1"
_symmetry_group_IT_number 2
_symmetry_cell_setting 'triclinic'
loop_
_space_group_symop_operation_xyz
x,y,z
-x,-y,-z
loop_
_atom_site_type_symbol
_atom_site_label
_atom_site_fract_x
_atom_site_fract_y
_atom_site_fract_z
Si Si1 0.459375 0.294467 0.311124
Si Si2 0.675300 0.419025 0.508554
Si Si3 0.903571 0.558604 0.887215
Si Si4 0.167021 0.875238 0.425297
Si Si5 0.113874 0.285024 0.750019
Si Si6 0.577182 0.015223 0.154233
Si Si7 0.709145 0.200255 0.511991
Si Si8 0.718365 0.808124 0.057554
O O1 0.500000 0.500000 0.500000
O O2 0.438429 0.374559 0.270445
O O3 0.262091 0.262086 0.507183
O O4 0.593494 0.104877 0.089202
O O5 0.590658 0.220822 0.377740
O O6 0.696600 0.394172 0.599191
O O7 0.881072 0.414140 0.278922
O O8 0.869211 0.330520 0.762719
O O9 0.812634 0.691307 0.170873
O O10 0.823280 0.629339 0.895290
O O11 0.160310 0.821174 0.515455
O O12 0.033354 0.070694 0.660061
O O13 0.374177 0.938808 0.278352
O O14 0.000000 0.500000 0.000000
O O15 0.722135 0.853579 0.961336
O O16 0.498860 0.194868 0.729660
O O17 0.772567 0.008585 0.229595
#
# Coordination Sequence:
#
# PCOD9095907 Si02
#       8
#     2   2   2   2   2   2   2   2
#     4   9  18  35  62  88 116 159 208 242 297 357
#     4  10  20  35  60  94 121 167 198 251 314 359
#     4  12  24  36  64  99 122 155 206 253 315 360
#     4  10  22  41  63  93 121 160 208 254 299 363
#     4  11  22  42  63  88 124 165 200 247 309 370
#     4   8  18  36  61  83 116 165 203 241 294 361
#     4   9  18  35  61  86 123 164 207 246 301 367
#     4   9  18  35  61  89 113 165 209 244 301 367
#
# _framework density 26.970976
#
# number of rings (size 3 to 8) (size 9 to 14) (size 15 to 20)
#    0.000    2.250    2.500    0.750    5.250    5.000 
#    0.000    0.000    2.750    6.750    0.000    0.000 
#    0.000    0.000    0.000    0.000    0.000    0.000 
#
# Total GULP energy -89443.401544 kJ/mol
# GULP energy per Si atom -5590.212597 kJ/mol
# Density = 2.690959 g / cm^3
# Si number density = 26.970976 Si / 1000 Ang^3
#
#
#
# Elastic Constant Matrix: (Units=GPa)
#
#
# Indices 1 2 3 4 5 6 
#
# 1 86.8071 54.1236 43.4620 7.8988 -7.4547 -24.0394
# 2 54.1236 126.1279 59.8079 29.9324 -18.9928 -12.2998
# 3 43.4620 59.8079 105.5826 32.2433 -14.8251 -1.8084
# 4 7.8988 29.9324 32.2433 52.4744 -6.1307 -24.8588
# 5 -7.4547 -18.9928 -14.8251 -6.1307 41.1898 9.9689
# 6 -24.0394 -12.2998 -1.8084 -24.8588 9.9689 64.9597
#
#
#
# Elastic Compliance Matrix: (Units=1/GPa)
#
#
# Indices 1 2 3 4 5 6 
#
# 1 0.022510 -0.007651 -0.008731 0.011386 -0.003700 0.011564
# 2 -0.007651 0.014188 -0.002341 -0.006619 0.004147 -0.003380
# 3 -0.008731 -0.002341 0.018609 -0.012326 0.004267 -0.008528
# 4 0.011386 -0.006619 -0.012326 0.036335 -0.004173 0.017162
# 5 -0.003700 0.004147 0.004267 -0.004173 0.027973 -0.006355
# 6 0.011564 -0.003380 -0.008528 0.017162 -0.006355 0.026339
#
#
# Mechanical properties :
#
#
# Convention : Reuss Voigt Hill
#
# Bulk Modulus (GPa) = 55.99134 70.36718 63.17926
# Shear Modulus (GPa) = 26.40561 42.46640 34.43601
#
# Velocity S-wave (km/s) = 3.13235 3.97233 3.57708
# Velocity P-wave (km/s) = 5.82126 6.86919 6.36682
#
# Compressibility (1/GPa) = 0.01785991
#
# Stress axis : x y z
#
# Youngs Moduli (GPa) = 44.42485 70.48347 53.73839
#
# Poissons Ratio (x) = 0.53928 0.46917
# Poissons Ratio (y) = 0.33990 0.12582
# Poissons Ratio (z) = 0.38786 0.16503
#
# Static dielectric constant tensor:
#      x y z
#    x 2.134230 -0.115600 -0.080780 
#    y -0.115600 2.015120 -0.038250 
#    z -0.080780 -0.038250 2.053070 
# 
# From -- ./inp_files/348353.got.cif
#   From: 2010.05.17/outbox.cif.g08.bks.cpg/sg2_175_cif.got.tgz:348353.got - 2010.06.03 11:33:40.
