data_PCOD9095513
_publ_section_title
;
Structure prediction by ZEFSAII (Michael W. Deem and Ramdas Pophale) SiO2 
 PCOD9095513
Probable space group: P -1
;
_chemical_formula_sum "Si O2"
_cell_formula_units_Z 16
_cell_length_a 22.271086
_cell_length_b 11.338752
_cell_length_c 8.348621
_cell_angle_alpha 72.090961
_cell_angle_beta 47.052972
_cell_angle_gamma 35.284278
_cell_volume 720.967501
_symmetry_space_group_name_H-M "P -1"
_symmetry_group_IT_number 2
_symmetry_cell_setting 'triclinic'
loop_
_space_group_symop_operation_xyz
x,y,z
-x,-y,-z
loop_
_atom_site_type_symbol
_atom_site_label
_atom_site_fract_x
_atom_site_fract_y
_atom_site_fract_z
Si Si1 0.400806 0.441129 0.679049
Si Si2 0.982861 0.383424 0.019652
Si Si3 0.833761 0.110180 0.626973
Si Si4 0.326071 0.292452 0.724540
Si Si5 0.737225 0.132700 0.130655
Si Si6 0.148967 0.153456 0.465283
Si Si7 0.804612 0.639556 0.728048
Si Si8 0.221460 0.576820 0.253698
O O1 0.339901 0.420910 0.671167
O O2 0.593232 0.221962 0.388884
O O3 0.301694 0.701093 0.751419
O O4 0.359790 0.438373 0.930024
O O5 0.069376 0.257559 0.741454
O O6 0.083533 0.161142 0.044125
O O7 0.000000 0.500000 0.000000
O O8 0.796606 0.586059 0.243089
O O9 0.781263 0.324146 0.634035
O O10 0.788201 0.067838 0.594127
O O11 0.742735 0.176871 0.922912
O O12 0.036763 0.840484 0.395393
O O13 0.500000 0.000000 0.500000
O O14 0.260465 0.325082 0.999161
O O15 0.254900 0.141052 0.276999
O O16 0.006854 0.367351 0.497655
O O17 0.758920 0.597113 0.696174
#
# Coordination Sequence:
#
# PCOD9095513 Si02
#       8
#     2   2   2   2   2   2   2   2
#     4   9  19  37  59  85 114 157 189 231 289 353
#     4  11  24  36  55  87 119 149 187 244 289 334
#     4   9  17  30  57  82 103 148 196 230 272 352
#     4  10  20  35  58  84 116 151 191 233 286 344
#     4  10  21  36  61  87 115 148 196 238 285 343
#     4   9  18  31  52  79 107 142 191 227 276 338
#     4   8  16  29  52  77 102 143 187 226 266 339
#     4   8  15  30  51  80 107 137 193 232 272 327
#
# _framework density 22.192402999999999
#
# number of rings (size 3 to 8) (size 9 to 14) (size 15 to 20)
#    0.000    2.750    0.000    1.500    8.750    0.500 
#    0.000    0.000    2.750    9.000    0.000    0.000 
#    0.000    0.000    0.000    0.000    0.000    0.000 
#
# Total GULP energy -89245.128625 kJ/mol
# GULP energy per Si atom -5577.820539 kJ/mol
# Density = 2.214189 g / cm^3
# Si number density = 22.192403 Si / 1000 Ang^3
#
#
#
# Elastic Constant Matrix: (Units=GPa)
#
#
# Indices 1 2 3 4 5 6 
#
# 1 185.1445 54.3806 35.1042 3.6530 1.4132 54.0286
# 2 54.3806 31.4466 7.2791 4.3134 -4.9598 18.6179
# 3 35.1042 7.2791 90.7656 3.7978 -9.9080 4.4590
# 4 3.6530 4.3134 3.7978 24.4983 5.0568 -0.8873
# 5 1.4132 -4.9598 -9.9080 5.0568 32.2378 -6.4246
# 6 54.0286 18.6179 4.4590 -0.8873 -6.4246 28.7526
#
#
#
# Elastic Compliance Matrix: (Units=1/GPa)
#
#
# Indices 1 2 3 4 5 6 
#
# 1 0.020374 -0.020169 -0.006353 0.002953 -0.011748 -0.026774
# 2 -0.020169 0.074901 0.004360 -0.014109 0.014262 -0.008525
# 3 -0.006353 0.004360 0.013637 -0.003139 0.007335 0.008542
# 4 0.002953 -0.014109 -0.003139 0.045480 -0.009741 0.003300
# 5 -0.011748 0.014262 0.007335 -0.009741 0.041637 0.020706
# 6 -0.026774 -0.008525 0.008542 0.003300 0.020706 0.094013
#
#
# Mechanical properties :
#
#
# Convention : Reuss Voigt Hill
#
# Bulk Modulus (GPa) = 15.48282 55.65385 35.56833
# Shear Modulus (GPa) = 14.04895 31.13725 22.59310
#
# Velocity S-wave (km/s) = 2.51878 3.74981 3.19416
# Velocity P-wave (km/s) = 3.93075 6.62423 5.44661
#
# Compressibility (1/GPa) = 0.06458772
#
# Stress axis : x y z
#
# Youngs Moduli (GPa) = 49.08126 13.35087 73.32843
#
# Poissons Ratio (x) = 0.26928 0.46586
# Poissons Ratio (y) = 0.98994 -0.31970
# Poissons Ratio (z) = 0.31182 -0.05821
#
# Static dielectric constant tensor:
#      x y z
#    x 1.851610 0.023940 -0.008120 
#    y 0.023940 1.865030 -0.050140 
#    z -0.008120 -0.050140 1.853720 
# 
# From -- ./inp_files/320310.got.cif
#   From: 2010.05.17/outbox.cif.g08.bks.cpg/sg2_161_cif.got.tgz:320310.got - 2010.06.03 11:33:40.
