data_PCOD9095828
_publ_section_title
;
Structure prediction by ZEFSAII (Michael W. Deem and Ramdas Pophale) SiO2 
 PCOD9095828
Probable space group: P -1
;
_chemical_formula_sum "Si O2"
_cell_formula_units_Z 16
_cell_length_a 9.449105
_cell_length_b 10.752384
_cell_length_c 14.404851
_cell_angle_alpha 137.091325
_cell_angle_beta 122.633935
_cell_angle_gamma 57.321646
_cell_volume 811.866790
_symmetry_space_group_name_H-M "P -1"
_symmetry_group_IT_number 2
_symmetry_cell_setting 'triclinic'
loop_
_space_group_symop_operation_xyz
x,y,z
-x,-y,-z
loop_
_atom_site_type_symbol
_atom_site_label
_atom_site_fract_x
_atom_site_fract_y
_atom_site_fract_z
Si Si1 0.320068 0.432204 0.165240
Si Si2 0.699556 0.193140 0.141033
Si Si3 0.881442 0.152181 0.684191
Si Si4 0.663391 0.672532 0.667527
Si Si5 0.054156 0.210001 0.593272
Si Si6 0.046143 0.640260 0.802516
Si Si7 0.072190 0.194144 0.956666
Si Si8 0.304176 0.732366 0.605368
O O1 0.499177 0.304998 0.117644
O O2 0.272657 0.656802 0.258305
O O3 0.322679 0.398947 0.259477
O O4 0.162034 0.348871 0.030059
O O5 0.821689 0.286192 0.173462
O O6 0.731318 0.211110 0.271121
O O7 0.768441 0.967645 0.030958
O O8 0.024226 0.194005 0.684038
O O9 0.966940 0.119621 0.798477
O O10 0.831792 0.971301 0.520667
O O11 0.468655 0.804389 0.666713
O O12 0.653571 0.495227 0.504087
O O13 0.846178 0.718934 0.738654
O O14 0.086224 0.412562 0.692655
O O15 0.863429 0.212074 0.486758
O O16 0.045544 0.714257 0.948090
#
# Coordination Sequence:
#
# PCOD9095828 Si02
#       8
#     2   2   2   2   2   2   2   2
#     4  10  20  36  58  87 113 146 193 240 278 327
#     4  11  22  35  58  87 118 150 184 235 289 339
#     4  11  20  37  62  86 110 149 194 240 275 332
#     4   8  16  30  55  79 113 138 183 229 280 324
#     4  10  20  35  60  88 113 144 195 236 280 333
#     4  10  21  38  56  86 119 151 183 234 288 342
#     4  11  21  38  61  84 110 152 198 231 280 334
#     4   9  15  32  52  85 108 141 182 233 272 327
#
# _framework density 19.707667000000001
#
# number of rings (size 3 to 8) (size 9 to 14) (size 15 to 20)
#    0.000    2.000    5.000    1.125    0.000    2.000 
#    0.000    1.250    0.000    1.500    0.000    0.000 
#    0.000    0.000    0.000    0.000    0.000    0.000 
#
# Total GULP energy -89086.962739 kJ/mol
# GULP energy per Si atom -5567.935171 kJ/mol
# Density = 1.966281 g / cm^3
# Si number density = 19.707667 Si / 1000 Ang^3
#
#
#
# Elastic Constant Matrix: (Units=GPa)
#
#
# Indices 1 2 3 4 5 6 
#
# 1 188.5427 63.4510 95.1616 -80.3376 -52.7011 19.4079
# 2 63.4510 91.5667 55.2303 -15.0313 -29.8213 -2.0652
# 3 95.1616 55.2303 145.6608 -60.6778 -57.3365 21.9295
# 4 -80.3376 -15.0313 -60.6778 119.8833 41.8096 -23.0156
# 5 -52.7011 -29.8213 -57.3365 41.8096 39.5948 -6.5856
# 6 19.4079 -2.0652 21.9295 -23.0156 -6.5856 19.0222
#
#
#
# Elastic Compliance Matrix: (Units=1/GPa)
#
#
# Indices 1 2 3 4 5 6 
#
# 1 0.010756 -0.004696 -0.001571 0.003716 0.003946 -0.003810
# 2 -0.004696 0.018634 -0.004115 -0.003512 0.007160 0.009789
# 3 -0.001571 -0.004115 0.020812 -0.003428 0.025549 -0.018139
# 4 0.003716 -0.003512 -0.003428 0.018414 -0.019564 0.015286
# 5 0.003946 0.007160 0.025549 -0.019564 0.089324 -0.025450
# 6 -0.003810 0.009789 -0.018139 0.015286 -0.025450 0.088115
#
#
# Mechanical properties :
#
#
# Convention : Reuss Voigt Hill
#
# Bulk Modulus (GPa) = 33.97200 94.82845 64.40023
# Shear Modulus (GPa) = 18.07450 49.82856 33.95153
#
# Velocity S-wave (km/s) = 3.03170 5.03376 4.15511
# Velocity P-wave (km/s) = 5.43418 9.05577 7.46784
#
# Compressibility (1/GPa) = 0.02943600
#
# Stress axis : x y z
#
# Youngs Moduli (GPa) = 92.97090 53.66591 48.04899
#
# Poissons Ratio (x) = 0.25203 0.07550
# Poissons Ratio (y) = 0.43662 0.19774
# Poissons Ratio (z) = 0.14609 0.22085
#
# Static dielectric constant tensor:
#      x y z
#    x 1.689150 -0.072980 -0.004530 
#    y -0.072980 1.787350 0.029010 
#    z -0.004530 0.029010 1.730390 
# 
# From -- ./inp_files/501027.got.cif
#   From: 2010.05.17/outbox.cif.g08.bks.cpg/sg2_251_cif.got.tgz:501027.got - 2010.06.03 11:33:40.
