data_PCOD9095574
_publ_section_title
;
Structure prediction by ZEFSAII (Michael W. Deem and Ramdas Pophale) SiO2 
 PCOD9095574
Probable space group: P -1
;
_chemical_formula_sum "Si O2"
_cell_formula_units_Z 14
_cell_length_a 11.220603
_cell_length_b 6.780812
_cell_length_c 11.669165
_cell_angle_alpha 68.568817
_cell_angle_beta 48.803518
_cell_angle_gamma 55.563023
_cell_volume 550.949518
_symmetry_space_group_name_H-M "P -1"
_symmetry_group_IT_number 2
_symmetry_cell_setting 'triclinic'
loop_
_space_group_symop_operation_xyz
x,y,z
-x,-y,-z
loop_
_atom_site_type_symbol
_atom_site_label
_atom_site_fract_x
_atom_site_fract_y
_atom_site_fract_z
Si Si1 0.656349 0.575616 0.698925
Si Si2 0.256764 0.095104 0.008112
Si Si3 0.018179 0.867778 0.298630
Si Si4 0.844299 0.960093 0.163875
Si Si5 0.665624 0.073908 0.614609
Si Si6 0.526580 0.702048 0.080061
Si Si7 0.492657 0.748026 0.549055
O O1 0.828425 0.370809 0.693466
O O2 0.649992 0.829334 0.668175
O O3 0.491250 0.538880 0.862217
O O4 0.650434 0.561067 0.566871
O O5 0.101447 0.040073 0.167335
O O6 0.435589 0.872480 0.993801
O O7 0.235680 0.116689 0.878708
O O8 0.285754 0.310776 0.998764
O O9 0.935333 0.801907 0.252804
O O10 0.863146 0.000762 0.460551
O O11 0.687851 0.189572 0.278024
O O12 0.000000 0.000000 0.000000
O O13 0.609867 0.166689 0.756865
O O14 0.532659 0.268346 0.565838
O O15 0.500000 0.000000 0.500000
#
# Coordination Sequence:
#
# PCOD9095574 Si02
#       7
#     2   2   2   2   2   2   2
#     4  10  20  35  58  89 113 144 193 233 279 337
#     4   9  18  35  54  80 114 150 184 226 282 332
#     4   9  19  35  60  85 112 150 189 233 284 334
#     4   9  17  34  58  80 110 150 185 226 281 333
#     4  10  20  37  58  83 115 150 186 233 287 334
#     4  10  21  36  58  84 116 150 188 235 278 335
#     4   9  18  33  56  81 109 145 185 228 277 330
#
# _framework density 25.410675000000001
#
# number of rings (size 3 to 8) (size 9 to 14) (size 15 to 20)
#    0.000    2.571    0.000    2.143    0.000    2.857 
#    0.000   25.714    0.000   17.143    0.000    0.000 
#    0.000    0.000    0.000    0.000    0.000    0.000 
#
# Total GULP energy -78192.100738 kJ/mol
# GULP energy per Si atom -5585.150053 kJ/mol
# Density = 2.535284 g / cm^3
# Si number density = 25.410675 Si / 1000 Ang^3
#
#
#
# Elastic Constant Matrix: (Units=GPa)
#
#
# Indices 1 2 3 4 5 6 
#
# 1 171.6244 47.5550 57.5001 -4.0582 30.1843 -13.9620
# 2 47.5550 67.9939 37.7504 -19.4881 12.9028 -3.7707
# 3 57.5001 37.7504 153.8203 5.9314 0.3893 -6.0008
# 4 -4.0582 -19.4881 5.9314 32.9054 2.7430 15.7953
# 5 30.1843 12.9028 0.3893 2.7430 62.6189 -15.5947
# 6 -13.9620 -3.7707 -6.0008 15.7953 -15.5947 45.7177
#
#
#
# Elastic Compliance Matrix: (Units=1/GPa)
#
#
# Indices 1 2 3 4 5 6 
#
# 1 0.008293 -0.004943 -0.001719 -0.002294 -0.002401 0.001873
# 2 -0.004943 0.029537 -0.006720 0.023851 -0.007374 -0.010711
# 3 -0.001719 -0.006720 0.009261 -0.008157 0.003550 0.004166
# 4 -0.002294 0.023851 -0.008157 0.058330 -0.012331 -0.024163
# 5 -0.002401 -0.007374 0.003550 -0.012331 0.021865 0.010843
# 6 0.001873 -0.010711 0.004166 -0.024163 0.010843 0.034155
#
#
# Mechanical properties :
#
#
# Convention : Reuss Voigt Hill
#
# Bulk Modulus (GPa) = 49.19885 75.44995 62.32440
# Shear Modulus (GPa) = 25.64346 44.95729 35.30037
#
# Velocity S-wave (km/s) = 3.18018 4.21078 3.73123
# Velocity P-wave (km/s) = 5.73482 7.30737 6.56833
#
# Compressibility (1/GPa) = 0.02032568
#
# Stress axis : x y z
#
# Youngs Moduli (GPa) = 120.58564 33.85593 107.97994
#
# Poissons Ratio (x) = 0.16737 0.18564
# Poissons Ratio (y) = 0.59611 0.72561
# Poissons Ratio (z) = 0.20731 0.22751
#
# Static dielectric constant tensor:
#      x y z
#    x 2.133310 0.053550 -0.019910 
#    y 0.053550 2.024660 -0.025320 
#    z -0.019910 -0.025320 1.978180 
# 
# From -- ./inp_files/416431.got.cif
#   From: 2010.05.17/outbox.cif.g08.bks.cpg/sg2_209_cif.got.tgz:416431.got - 2010.06.03 11:33:40.
