data_PCOD9095942
_publ_section_title
;
Structure prediction by ZEFSAII (Michael W. Deem and Ramdas Pophale) SiO2 
 PCOD9095942
Probable space group: P -1
;
_chemical_formula_sum "Si O2"
_cell_formula_units_Z 16
_cell_length_a 14.248067
_cell_length_b 10.106191
_cell_length_c 14.746812
_cell_angle_alpha 118.832304
_cell_angle_beta 144.350631
_cell_angle_gamma 86.408337
_cell_volume 828.672463
_symmetry_space_group_name_H-M "P -1"
_symmetry_group_IT_number 2
_symmetry_cell_setting 'triclinic'
loop_
_space_group_symop_operation_xyz
x,y,z
-x,-y,-z
loop_
_atom_site_type_symbol
_atom_site_label
_atom_site_fract_x
_atom_site_fract_y
_atom_site_fract_z
Si Si1 0.767121 0.477410 0.549307
Si Si2 0.434119 0.033176 0.554347
Si Si3 0.558165 0.459341 0.922310
Si Si4 0.542592 0.042065 0.154596
Si Si5 0.239354 0.138587 0.696123
Si Si6 0.762349 0.283171 0.056238
Si Si7 0.210831 0.605067 0.257302
Si Si8 0.472027 0.359427 0.623346
O O1 0.630764 0.257275 0.327112
O O2 0.807293 0.484409 0.690283
O O3 0.657526 0.572219 0.481011
O O4 0.995061 0.604264 0.725499
O O5 0.629675 0.171440 0.822284
O O6 0.339646 0.135612 0.482792
O O7 0.500000 0.000000 0.500000
O O8 0.284887 0.819647 0.409895
O O9 0.325077 0.258532 0.705682
O O10 0.714242 0.432003 0.082817
O O11 0.597523 0.475740 0.851670
O O12 0.615145 0.662762 0.062893
O O13 0.695211 0.996426 0.289651
O O14 0.334119 0.876244 0.992935
O O15 0.500000 0.000000 0.000000
O O16 0.000000 0.000000 0.500000
O O17 0.378463 0.615036 0.329969
O O18 0.000000 0.500000 0.000000
#
# Coordination Sequence:
#
# PCOD9095942 Si02
#       8
#     2   2   2   2   2   2   2   2
#     4  12  23  40  64  92 128 165 203 256 313 366
#     4   9  18  39  62  85 120 160 204 250 295 366
#     4   9  19  38  57  84 122 155 202 260 294 361
#     4  11  24  40  60  89 129 165 204 257 310 368
#     4  10  20  35  61  86 112 158 212 250 300 358
#     4  10  21  40  62  87 126 168 205 251 310 368
#     4  11  22  41  66  92 121 166 207 252 310 373
#     4  10  22  39  59  91 126 157 204 256 307 363
#
# _framework density 19.30799
#
# number of rings (size 3 to 8) (size 9 to 14) (size 15 to 20)
#    0.000    1.750    1.250    4.125    0.000    1.500 
#    2.250    3.125    0.000    0.000    0.000    0.000 
#    0.000    0.000    0.000    0.000    0.000    0.000 
#
# Total GULP energy -89108.845047 kJ/mol
# GULP energy per Si atom -5569.302815 kJ/mol
# Density = 1.926404 g / cm^3
# Si number density = 19.307990 Si / 1000 Ang^3
#
#
#
# Elastic Constant Matrix: (Units=GPa)
#
#
# Indices 1 2 3 4 5 6 
#
# 1 121.6985 53.4444 38.7451 -0.5133 9.5064 7.9524
# 2 53.4444 141.4006 55.3900 -3.6985 14.3070 -14.4800
# 3 38.7451 55.3900 62.1118 -3.0634 18.3252 -0.8752
# 4 -0.5133 -3.6985 -3.0634 16.8819 3.2533 -2.1677
# 5 9.5064 14.3070 18.3252 3.2533 44.1065 0.5418
# 6 7.9524 -14.4800 -0.8752 -2.1677 0.5418 44.8210
#
#
#
# Elastic Compliance Matrix: (Units=1/GPa)
#
#
# Indices 1 2 3 4 5 6 
#
# 1 0.011082 -0.002730 -0.004794 -0.001644 0.000647 -0.003029
# 2 -0.002730 0.012087 -0.009022 0.001428 0.000258 0.004279
# 3 -0.004794 -0.009022 0.029967 0.004873 -0.008836 -0.001137
# 4 -0.001644 0.001428 0.004873 0.062192 -0.006769 0.003938
# 5 0.000647 0.000258 -0.008836 -0.006769 0.026630 -0.000853
# 6 -0.003029 0.004279 -0.001137 0.003938 -0.000853 0.024409
#
#
# Mechanical properties :
#
#
# Convention : Reuss Voigt Hill
#
# Bulk Modulus (GPa) = 49.88375 68.92999 59.40687
# Shear Modulus (GPa) = 24.25526 33.00398 28.62962
#
# Velocity S-wave (km/s) = 3.54818 4.13891 3.85487
# Velocity P-wave (km/s) = 6.53284 7.65627 7.11676
#
# Compressibility (1/GPa) = 0.02004661
#
# Stress axis : x y z
#
# Youngs Moduli (GPa) = 90.23359 82.73115 33.36990
#
# Poissons Ratio (x) = 0.22583 0.15996
# Poissons Ratio (y) = 0.24631 0.30106
# Poissons Ratio (z) = 0.43254 0.74639
#
# Static dielectric constant tensor:
#      x y z
#    x 2.911230 0.681440 0.124140 
#    y 0.681440 2.119020 0.131000 
#    z 0.124140 0.131000 1.707560 
# 
# From -- ./inp_files/216851.got.cif
#   From: 2010.05.17/outbox.cif.g08.bks.cpg/sg2_109_cif.got.tgz:216851.got - 2010.06.03 11:33:40.
