data_PCOD9095954
_publ_section_title
;
Structure prediction by ZEFSAII (Michael W. Deem and Ramdas Pophale) SiO2 
 PCOD9095954
Probable space group: P -1
;
_chemical_formula_sum "Si O2"
_cell_formula_units_Z 14
_cell_length_a 8.123930
_cell_length_b 11.044588
_cell_length_c 17.409719
_cell_angle_alpha 31.526873
_cell_angle_beta 41.574562
_cell_angle_gamma 52.690094
_cell_volume 539.790547
_symmetry_space_group_name_H-M "P -1"
_symmetry_group_IT_number 2
_symmetry_cell_setting 'triclinic'
loop_
_space_group_symop_operation_xyz
x,y,z
-x,-y,-z
loop_
_atom_site_type_symbol
_atom_site_label
_atom_site_fract_x
_atom_site_fract_y
_atom_site_fract_z
Si Si1 0.363133 0.087691 0.893577
Si Si2 0.514112 0.169710 0.239761
Si Si3 0.224087 0.960303 0.579192
Si Si4 0.634394 0.729590 0.382349
Si Si5 0.133958 0.522109 0.759391
Si Si6 0.120173 0.682677 0.419296
Si Si7 0.377272 0.621758 0.070978
O O1 0.353809 0.170934 0.761812
O O2 0.186751 0.256817 0.905279
O O3 0.641085 0.167657 0.779560
O O4 0.321617 0.809580 0.052920
O O5 0.265446 0.053553 0.427622
O O6 0.547132 0.412921 0.142758
O O7 0.698756 0.964308 0.283949
O O8 0.487847 0.241196 0.121951
O O9 0.050448 0.132842 0.586553
O O10 0.500000 0.000000 0.500000
O O11 0.126710 0.692805 0.742921
O O12 0.375533 0.627591 0.568741
O O13 0.789668 0.507288 0.449998
O O14 0.881461 0.488707 0.816305
O O15 0.000000 0.500000 0.500000
#
# Coordination Sequence:
#
# PCOD9095954 Si02
#       7
#     2   2   2   2   2   2   2
#     4  10  21  38  59  92 126 155 200 248 303 360
#     4   9  21  37  59  87 128 150 203 241 299 350
#     4  11  24  40  64  87 117 160 213 251 291 355
#     4   9  20  37  59  92 119 155 206 252 294 349
#     4  10  20  35  61  87 120 156 202 246 295 351
#     4  11  22  38  65  86 117 156 205 256 300 350
#     4  10  21  36  61  91 130 158 189 245 309 362
#
# _framework density 25.935984000000001
#
# number of rings (size 3 to 8) (size 9 to 14) (size 15 to 20)
#    0.000    2.000    0.000    4.714   10.000    1.143 
#    0.000    0.714    6.286    1.714    0.000    0.000 
#    0.000    0.000    0.000    0.000    0.000    0.000 
#
# Total GULP energy -78087.981827 kJ/mol
# GULP energy per Si atom -5577.712988 kJ/mol
# Density = 2.587695 g / cm^3
# Si number density = 25.935984 Si / 1000 Ang^3
#
#
#
# Elastic Constant Matrix: (Units=GPa)
#
#
# Indices 1 2 3 4 5 6 
#
# 1 64.6458 51.0657 26.7016 -14.3077 -29.7975 2.5090
# 2 51.0657 259.5578 66.2330 -81.8558 -30.2735 -2.9763
# 3 26.7016 66.2330 77.9453 -28.9155 -27.8085 1.4721
# 4 -14.3077 -81.8558 -28.9155 76.0310 9.0898 -5.7017
# 5 -29.7975 -30.2735 -27.8085 9.0898 38.2231 -2.1728
# 6 2.5090 -2.9763 1.4721 -5.7017 -2.1728 26.3712
#
#
#
# Elastic Compliance Matrix: (Units=1/GPa)
#
#
# Indices 1 2 3 4 5 6 
#
# 1 0.026265 -0.003399 -0.000073 -0.001003 0.017876 -0.001622
# 2 -0.003399 0.007214 -0.002790 0.006301 -0.000315 0.002630
# 3 -0.000073 -0.002790 0.020814 0.003477 0.012065 0.000276
# 4 -0.001003 0.006301 0.003477 0.021233 0.001993 0.005367
# 5 0.017876 -0.000315 0.012065 0.001993 0.048266 0.001998
# 6 -0.001622 0.002630 0.000276 0.005367 0.001998 0.039681
#
#
# Mechanical properties :
#
#
# Convention : Reuss Voigt Hill
#
# Bulk Modulus (GPa) = 23.94142 76.68326 50.31234
# Shear Modulus (GPa) = 26.32688 45.33499 35.83094
#
# Velocity S-wave (km/s) = 3.18948 4.18539 3.72091
# Velocity P-wave (km/s) = 4.77647 7.27923 6.15638
#
# Compressibility (1/GPa) = 0.04176861
#
# Stress axis : x y z
#
# Youngs Moduli (GPa) = 38.07419 138.62412 48.04347
#
# Poissons Ratio (x) = 0.47113 0.00352
# Poissons Ratio (y) = 0.12940 0.13405
# Poissons Ratio (z) = 0.00279 0.38679
#
# Static dielectric constant tensor:
#      x y z
#    x 2.262780 0.008900 0.025180 
#    y 0.008900 2.126000 -0.037240 
#    z 0.025180 -0.037240 2.106070 
# 
# From -- ./inp_files/384267.got.cif
#   From: 2010.05.17/outbox.cif.g08.bks.cpg/sg2_193_cif.got.tgz:384267.got - 2010.06.03 11:33:40.
