data_PCOD9095471
_publ_section_title
;
Structure prediction by ZEFSAII (Michael W. Deem and Ramdas Pophale) SiO2 
 PCOD9095471
Probable space group: P -1
;
_chemical_formula_sum "Si O2"
_cell_formula_units_Z 16
_cell_length_a 14.915043
_cell_length_b 7.963594
_cell_length_c 8.815158
_cell_angle_alpha 131.529026
_cell_angle_beta 133.349781
_cell_angle_gamma 65.294820
_cell_volume 568.657079
_symmetry_space_group_name_H-M "P -1"
_symmetry_group_IT_number 2
_symmetry_cell_setting 'triclinic'
loop_
_space_group_symop_operation_xyz
x,y,z
-x,-y,-z
loop_
_atom_site_type_symbol
_atom_site_label
_atom_site_fract_x
_atom_site_fract_y
_atom_site_fract_z
Si Si1 0.829613 0.561162 0.781924
Si Si2 0.385328 0.798274 0.114711
Si Si3 0.389919 0.408275 0.649834
Si Si4 0.264606 0.256349 0.949590
Si Si5 0.123602 0.942836 0.993490
Si Si6 0.515673 0.148792 0.261320
Si Si7 0.098463 0.840998 0.585560
Si Si8 0.245703 0.046068 0.480274
O O1 0.685966 0.559904 0.568473
O O2 0.885882 0.363105 0.634479
O O3 0.882682 0.801233 0.920970
O O4 0.824241 0.578903 0.968091
O O5 0.471587 0.657653 0.237131
O O6 0.261314 0.851100 0.083698
O O7 0.456635 0.019439 0.262369
O O8 0.373586 0.632201 0.859111
O O9 0.321005 0.213336 0.553000
O O10 0.232590 0.205731 0.707543
O O11 0.223976 0.008907 0.827802
O O12 0.409674 0.316129 0.190324
O O13 0.122732 0.963859 0.190810
O O14 0.064892 0.793413 0.694826
O O15 0.662591 0.141267 0.466788
O O16 0.500000 0.000000 0.000000
O O17 0.000000 0.000000 0.500000
#
# Coordination Sequence:
#
# PCOD9095471 Si02
#       8
#     2   2   2   2   2   2   2   2
#     4  10  19  35  59  82 106 146 186 229 284 329
#     4  10  16  30  51  83 116 149 194 221 261 331
#     4   9  18  29  55  81 114 151 187 224 264 333
#     4  10  20  37  55  82 119 147 185 228 275 339
#     4  10  20  35  58  83 114 146 191 229 269 337
#     4   9  16  29  53  79 120 158 177 215 277 328
#     4  11  23  41  62  82 105 142 194 247 285 326
#     4   9  20  33  53  85 118 155 177 220 281 328
#
# _framework density 28.136462999999999
#
# number of rings (size 3 to 8) (size 9 to 14) (size 15 to 20)
#    0.000    2.250    3.750    0.000    1.750    3.500 
#    2.250    0.625    0.000    9.000    0.000    0.000 
#    0.000    0.000    0.000    0.000    0.000    0.000 
#
# Total GULP energy -89325.891454 kJ/mol
# GULP energy per Si atom -5582.868216 kJ/mol
# Density = 2.807242 g / cm^3
# Si number density = 28.136463 Si / 1000 Ang^3
#
#
#
# Elastic Constant Matrix: (Units=GPa)
#
#
# Indices 1 2 3 4 5 6 
#
# 1 66.3239 43.6729 56.0690 -2.3294 -41.9191 -10.4259
# 2 43.6729 112.7436 44.1127 5.6739 -20.2414 -2.2803
# 3 56.0690 44.1127 163.6744 -11.9922 -47.4941 -21.0030
# 4 -2.3294 5.6739 -11.9922 54.0710 -4.9412 -16.7914
# 5 -41.9191 -20.2414 -47.4941 -4.9412 59.0880 12.3124
# 6 -10.4259 -2.2803 -21.0030 -16.7914 12.3124 33.0775
#
#
#
# Elastic Compliance Matrix: (Units=1/GPa)
#
#
# Indices 1 2 3 4 5 6 
#
# 1 0.038560 -0.009982 -0.003664 0.005029 0.020572 0.004035
# 2 -0.009982 0.012943 -0.001935 -0.003810 -0.003678 -0.004048
# 3 -0.003664 -0.001935 0.010151 0.004511 0.004036 0.005945
# 4 0.005029 -0.003810 0.004511 0.025280 0.004831 0.015222
# 5 0.020572 -0.003678 0.004036 0.004831 0.034217 -0.001491
# 6 0.004035 -0.004048 0.005945 0.015222 -0.001491 0.043282
#
#
# Mechanical properties :
#
#
# Convention : Reuss Voigt Hill
#
# Bulk Modulus (GPa) = 32.79338 70.05011 51.42175
# Shear Modulus (GPa) = 24.30055 42.50646 33.40350
#
# Velocity S-wave (km/s) = 2.94201 3.89102 3.44931
# Velocity P-wave (km/s) = 4.81882 6.71843 5.84629
#
# Compressibility (1/GPa) = 0.03049396
#
# Stress axis : x y z
#
# Youngs Moduli (GPa) = 25.93337 77.26316 98.51668
#
# Poissons Ratio (x) = 0.77121 0.36092
# Poissons Ratio (y) = 0.25886 0.19060
# Poissons Ratio (z) = 0.09501 0.14948
#
# Static dielectric constant tensor:
#      x y z
#    x 2.331200 -0.013070 -0.002100 
#    y -0.013070 2.209000 0.015140 
#    z -0.002100 0.015140 2.386790 
# 
# From -- ./inp_files/328149.got.cif
#   From: 2010.05.17/outbox.cif.g08.bks.cpg/sg2_165_cif.got.tgz:328149.got - 2010.06.03 11:33:40.
