data_PCOD9095378
_publ_section_title
;
Structure prediction by ZEFSAII (Michael W. Deem and Ramdas Pophale) SiO2 
 PCOD9095378
Probable space group: P -1
;
_chemical_formula_sum "Si O2"
_cell_formula_units_Z 14
_cell_length_a 12.225726
_cell_length_b 13.285781
_cell_length_c 16.901990
_cell_angle_alpha 153.436609
_cell_angle_beta 141.961737
_cell_angle_gamma 47.253698
_cell_volume 753.189231
_symmetry_space_group_name_H-M "P -1"
_symmetry_group_IT_number 2
_symmetry_cell_setting 'triclinic'
loop_
_space_group_symop_operation_xyz
x,y,z
-x,-y,-z
loop_
_atom_site_type_symbol
_atom_site_label
_atom_site_fract_x
_atom_site_fract_y
_atom_site_fract_z
Si Si1 0.418611 0.193680 0.039820
Si Si2 0.361301 0.476270 0.717542
Si Si3 0.352226 0.453183 0.951125
Si Si4 0.791530 0.993995 0.361104
Si Si5 0.243771 0.196046 0.312337
Si Si6 0.876112 0.331645 0.144964
Si Si7 0.415859 0.585814 0.431947
O O1 0.575948 0.324514 0.168511
O O2 0.352927 0.376127 0.191896
O O3 0.270255 0.091109 0.821499
O O4 0.500000 0.000000 0.000000
O O5 0.272983 0.268453 0.470849
O O6 0.225956 0.559528 0.763886
O O7 0.546200 0.428545 0.832514
O O8 0.309183 0.192546 0.768292
O O9 0.177444 0.546709 0.880559
O O10 0.500000 0.500000 0.000000
O O11 0.728598 0.241268 0.511435
O O12 0.000000 0.000000 0.500000
O O13 0.424022 0.272562 0.423302
O O14 0.084306 0.329919 0.280619
O O15 0.196213 0.930746 0.088168
O O16 0.500000 0.500000 0.500000
#
# Coordination Sequence:
#
# PCOD9095378 Si02
#       7
#     2   2   2   2   2   2   2
#     4  10  20  37  60  87 116 161 199 235 298 360
#     4   9  19  35  55  82 114 150 190 239 284 351
#     4   9  19  37  60  79 115 155 189 231 297 345
#     4  11  24  40  61  89 122 154 200 253 294 348
#     4  10  21  35  57  85 113 147 199 238 289 345
#     4  10  20  35  57  84 117 148 190 246 285 344
#     4  11  22  37  63  83 117 161 196 240 299 353
#
# _framework density 18.587626
#
# number of rings (size 3 to 8) (size 9 to 14) (size 15 to 20)
#    0.000    2.000    1.429    3.000    2.000    1.143 
#    0.000    4.286    0.000    0.000    0.000    0.000 
#    0.000    0.000    0.000    0.000    0.000    0.000 
#
# Total GULP energy -78093.253124 kJ/mol
# GULP energy per Si atom -5578.089509 kJ/mol
# Density = 1.854532 g / cm^3
# Si number density = 18.587626 Si / 1000 Ang^3
#
#
#
# Elastic Constant Matrix: (Units=GPa)
#
#
# Indices 1 2 3 4 5 6 
#
# 1 57.3844 41.9825 41.8408 -4.6629 -17.0713 -10.4394
# 2 41.9825 125.6915 41.2899 -9.6327 -19.4133 -5.2413
# 3 41.8408 41.2899 109.9974 -10.7608 -24.2824 -14.2953
# 4 -4.6629 -9.6327 -10.7608 23.0350 -2.0684 -0.4783
# 5 -17.0713 -19.4133 -24.2824 -2.0684 25.7228 2.7131
# 6 -10.4394 -5.2413 -14.2953 -0.4783 2.7131 34.7827
#
#
#
# Elastic Compliance Matrix: (Units=1/GPa)
#
#
# Indices 1 2 3 4 5 6 
#
# 1 0.030429 -0.006360 -0.006458 0.001383 0.008899 0.004845
# 2 -0.006360 0.011130 -0.000664 0.003392 0.003905 -0.000762
# 3 -0.006458 -0.000664 0.014957 0.006325 0.009476 0.003457
# 4 0.001383 0.003392 0.006325 0.049305 0.013077 0.003183
# 5 0.008899 0.003905 0.009476 0.013077 0.057425 0.002854
# 6 0.004845 -0.000762 0.003457 0.003183 0.002854 0.031331
#
#
# Mechanical properties :
#
#
# Convention : Reuss Voigt Hill
#
# Bulk Modulus (GPa) = 33.83835 60.36665 47.10250
# Shear Modulus (GPa) = 21.60854 27.90546 24.75700
#
# Velocity S-wave (km/s) = 3.41328 3.87885 3.65349
# Velocity P-wave (km/s) = 5.81191 7.25314 6.57215
#
# Compressibility (1/GPa) = 0.02955227
#
# Stress axis : x y z
#
# Youngs Moduli (GPa) = 32.86359 89.85044 66.86011
#
# Poissons Ratio (x) = 0.57142 0.43177
# Poissons Ratio (y) = 0.20900 0.04438
# Poissons Ratio (z) = 0.21223 0.05964
#
# Static dielectric constant tensor:
#      x y z
#    x 1.662660 0.023990 0.005660 
#    y 0.023990 1.654600 -0.009450 
#    z 0.005660 -0.009450 1.651330 
# 
# From -- ./inp_files/179770.got.cif
#   From: 2010.05.17/outbox.cif.g08.bks.cpg/sg2_90_cif.got.tgz:179770.got - 2010.06.03 11:33:40.
