data_PCOD9095559
_publ_section_title
;
Structure prediction by ZEFSAII (Michael W. Deem and Ramdas Pophale) SiO2 
 PCOD9095559
Probable space group: P -1
;
_chemical_formula_sum "Si O2"
_cell_formula_units_Z 14
_cell_length_a 5.765493
_cell_length_b 15.126307
_cell_length_c 10.269958
_cell_angle_alpha 75.325055
_cell_angle_beta 133.513968
_cell_angle_gamma 85.898442
_cell_volume 588.461569
_symmetry_space_group_name_H-M "P -1"
_symmetry_group_IT_number 2
_symmetry_cell_setting 'triclinic'
loop_
_space_group_symop_operation_xyz
x,y,z
-x,-y,-z
loop_
_atom_site_type_symbol
_atom_site_label
_atom_site_fract_x
_atom_site_fract_y
_atom_site_fract_z
Si Si1 0.213589 0.745184 0.981400
Si Si2 0.870614 0.393512 0.807829
Si Si3 0.344335 0.689626 0.772244
Si Si4 0.650142 0.079078 0.978208
Si Si5 0.438621 0.941186 0.331467
Si Si6 0.550981 0.128833 0.358298
Si Si7 0.783525 0.429821 0.467597
O O1 0.199946 0.692181 0.860952
O O2 0.408720 0.821280 0.004666
O O3 0.838081 0.814101 0.854195
O O4 0.321732 0.670252 0.169145
O O5 0.906401 0.376130 0.673248
O O6 0.616392 0.503829 0.689990
O O7 0.245171 0.365856 0.027741
O O8 0.261685 0.802273 0.653151
O O9 0.204555 0.636750 0.627764
O O10 0.510590 0.109330 0.768427
O O11 0.049171 0.015278 0.154238
O O12 0.500000 0.000000 0.000000
O O13 0.466662 0.873299 0.491115
O O14 0.647204 0.015313 0.399480
O O15 0.000000 0.500000 0.500000
#
# Coordination Sequence:
#
# PCOD9095559 Si02
#       7
#     2   2   2   2   2   2   2
#     4  10  22  39  62  92 125 159 209 255 309 369
#     4  10  24  45  65  91 126 168 206 259 313 384
#     4  11  23  42  66  93 128 166 207 261 316 375
#     4  10  20  35  58  87 124 164 203 252 303 358
#     4   9  19  37  57  84 122 165 208 249 301 361
#     4   9  20  38  59  86 122 165 207 253 306 364
#     4  11  25  44  68  96 124 161 213 259 320 381
#
# _framework density 23.790845000000001
#
# number of rings (size 3 to 8) (size 9 to 14) (size 15 to 20)
#    0.000    2.000    0.000    2.143    2.000    9.143 
#    5.143    4.286    0.000    0.000    0.000    0.000 
#    0.000    0.000    0.000    0.000    0.000    0.000 
#
# Total GULP energy -78207.007677 kJ/mol
# GULP energy per Si atom -5586.214834 kJ/mol
# Density = 2.373670 g / cm^3
# Si number density = 23.790845 Si / 1000 Ang^3
#
#
#
# Elastic Constant Matrix: (Units=GPa)
#
#
# Indices 1 2 3 4 5 6 
#
# 1 65.2138 30.2761 18.5407 4.3962 -7.6330 14.6261
# 2 30.2761 104.4401 56.6957 27.1374 -30.5318 8.5507
# 3 18.5407 56.6957 123.2115 -0.8499 -26.7265 14.5582
# 4 4.3962 27.1374 -0.8499 36.1920 -6.0175 -1.5542
# 5 -7.6330 -30.5318 -26.7265 -6.0175 44.6317 -6.8510
# 6 14.6261 8.5507 14.5582 -1.5542 -6.8510 29.3826
#
#
#
# Elastic Compliance Matrix: (Units=1/GPa)
#
#
# Indices 1 2 3 4 5 6 
#
# 1 0.019677 -0.006219 0.000567 0.001645 -0.001641 -0.008562
# 2 -0.006219 0.021018 -0.007457 -0.013909 0.007223 0.001622
# 3 0.000567 -0.007457 0.012505 0.006138 0.002801 -0.003331
# 4 0.001645 -0.013909 0.006138 0.038083 -0.000088 0.002181
# 5 -0.001641 0.007223 0.002801 -0.000088 0.029372 0.004171
# 6 -0.008562 0.001622 -0.003331 0.002181 0.004171 0.040562
#
#
# Mechanical properties :
#
#
# Convention : Reuss Voigt Hill
#
# Bulk Modulus (GPa) = 37.05715 55.98783 46.52249
# Shear Modulus (GPa) = 25.45462 34.53145 29.99304
#
# Velocity S-wave (km/s) = 3.27453 3.81394 3.55448
# Velocity P-wave (km/s) = 5.46871 6.55586 6.03681
#
# Compressibility (1/GPa) = 0.02698534
#
# Stress axis : x y z
#
# Youngs Moduli (GPa) = 50.82036 47.57762 79.96600
#
# Poissons Ratio (x) = 0.29587 -0.04538
# Poissons Ratio (y) = 0.31603 0.59627
# Poissons Ratio (z) = -0.02884 0.35476
#
# Static dielectric constant tensor:
#      x y z
#    x 1.971050 0.042850 0.037230 
#    y 0.042850 1.925700 -0.009630 
#    z 0.037230 -0.009630 1.925360 
# 
# From -- ./inp_files/38326.got.cif
#   From: 2010.05.17/outbox.cif.g08.bks.cpg/sg2_20_cif.got.tgz:38326.got - 2010.06.03 11:33:40.
