data_PCOD9095294
_publ_section_title
;
Structure prediction by ZEFSAII (Michael W. Deem and Ramdas Pophale) SiO2 
 PCOD9095294
Probable space group: P -1
;
_chemical_formula_sum "Si O2"
_cell_formula_units_Z 14
_cell_length_a 7.760045
_cell_length_b 12.334922
_cell_length_c 7.744614
_cell_angle_alpha 113.160927
_cell_angle_beta 56.563610
_cell_angle_gamma 107.255912
_cell_volume 565.669895
_symmetry_space_group_name_H-M "P -1"
_symmetry_group_IT_number 2
_symmetry_cell_setting 'triclinic'
loop_
_space_group_symop_operation_xyz
x,y,z
-x,-y,-z
loop_
_atom_site_type_symbol
_atom_site_label
_atom_site_fract_x
_atom_site_fract_y
_atom_site_fract_z
Si Si1 0.265802 0.730018 0.451212
Si Si2 0.632703 0.139712 0.881046
Si Si3 0.891875 0.601179 0.402329
Si Si4 0.914852 0.802080 0.241689
Si Si5 0.466122 0.491500 0.264549
Si Si6 0.175601 0.404017 0.062056
Si Si7 0.500044 0.122047 0.310705
O O1 0.343547 0.777686 0.249283
O O2 0.393965 0.623219 0.372246
O O3 0.317887 0.830048 0.628856
O O4 0.028471 0.675289 0.521063
O O5 0.867517 0.119167 0.802172
O O6 0.510154 0.017194 0.809720
O O7 0.530035 0.181568 0.140932
O O8 0.939139 0.685746 0.269203
O O9 0.647916 0.575554 0.554416
O O10 0.983228 0.475649 0.258981
O O11 0.715447 0.856516 0.461851
O O12 0.873383 0.734297 0.041430
O O13 0.344907 0.421361 0.130317
O O14 0.707014 0.512622 0.102529
#
# Coordination Sequence:
#
# PCOD9095294 Si02
#       7
#     2   2   2   2   2   2   2
#     4  10  20  42  64  90 122 163 199 251 307 358
#     4  10  25  42  66  90 122 155 209 264 302 362
#     4  10  23  37  59  91 126 160 199 245 295 369
#     4  11  23  39  61  92 123 160 203 254 303 361
#     4  10  21  37  58  90 124 158 205 242 290 374
#     4  10  20  35  56  86 123 160 197 242 296 354
#     4  11  23  44  65  91 118 163 207 254 315 355
#
# _framework density 24.749417000000001
#
# number of rings (size 3 to 8) (size 9 to 14) (size 15 to 20)
#    0.000    1.714    1.429    3.000    4.000    5.143 
#    0.000    0.000    0.000    6.857    0.000    0.000 
#    0.000    0.000    0.000    0.000    0.000    0.000 
#
# Total GULP energy -78257.093615 kJ/mol
# GULP energy per Si atom -5589.792401 kJ/mol
# Density = 2.469309 g / cm^3
# Si number density = 24.749417 Si / 1000 Ang^3
#
#
#
# Elastic Constant Matrix: (Units=GPa)
#
#
# Indices 1 2 3 4 5 6 
#
# 1 70.7242 24.0409 13.6568 11.1296 7.7575 31.2081
# 2 24.0409 79.7502 37.5828 -17.3330 6.4979 20.3012
# 3 13.6568 37.5828 78.1226 -0.7221 0.5830 22.3477
# 4 11.1296 -17.3330 -0.7221 35.7623 5.2475 9.1682
# 5 7.7575 6.4979 0.5830 5.2475 34.6395 0.4901
# 6 31.2081 20.3012 22.3477 9.1682 0.4901 41.1780
#
#
#
# Elastic Compliance Matrix: (Units=1/GPa)
#
#
# Indices 1 2 3 4 5 6 
#
# 1 0.023434 -0.005424 0.002894 -0.005439 -0.003237 -0.015407
# 2 -0.005424 0.023453 -0.008368 0.015260 -0.005267 -0.006246
# 3 0.002894 -0.008368 0.018414 -0.002845 0.001148 -0.007442
# 4 -0.005439 0.015260 -0.002845 0.040902 -0.007639 -0.010874
# 5 -0.003237 -0.005267 0.001148 -0.007639 0.031638 0.005752
# 6 -0.015407 -0.006246 -0.007442 -0.010874 0.005752 0.045432
#
#
# Mechanical properties :
#
#
# Convention : Reuss Voigt Hill
#
# Bulk Modulus (GPa) = 22.98540 42.12865 32.55703
# Shear Modulus (GPa) = 22.77160 32.53705 27.65432
#
# Velocity S-wave (km/s) = 3.03658 3.62976 3.34634
# Velocity P-wave (km/s) = 4.64778 5.88438 5.30225
#
# Compressibility (1/GPa) = 0.04350587
#
# Stress axis : x y z
#
# Youngs Moduli (GPa) = 42.67290 42.63774 54.30702
#
# Poissons Ratio (x) = 0.23128 -0.15718
# Poissons Ratio (y) = 0.23147 0.45442
# Poissons Ratio (z) = -0.12351 0.35678
#
# Static dielectric constant tensor:
#      x y z
#    x 1.980190 0.007130 0.100020 
#    y 0.007130 1.947590 -0.038530 
#    z 0.100020 -0.038530 2.118730 
# 
# From -- ./inp_files/178338.got.cif
#   From: 2010.05.17/outbox.cif.g08.bks.cpg/sg2_90_cif.got.tgz:178338.got - 2010.06.03 11:33:40.
