data_PCOD9095439
_publ_section_title
;
Structure prediction by ZEFSAII (Michael W. Deem and Ramdas Pophale) SiO2 
 PCOD9095439
Probable space group: P -1
;
_chemical_formula_sum "Si O2"
_cell_formula_units_Z 16
_cell_length_a 8.627458
_cell_length_b 10.473980
_cell_length_c 14.908567
_cell_angle_alpha 40.248322
_cell_angle_beta 83.042884
_cell_angle_gamma 64.873359
_cell_volume 739.100045
_symmetry_space_group_name_H-M "P -1"
_symmetry_group_IT_number 2
_symmetry_cell_setting 'triclinic'
loop_
_space_group_symop_operation_xyz
x,y,z
-x,-y,-z
loop_
_atom_site_type_symbol
_atom_site_label
_atom_site_fract_x
_atom_site_fract_y
_atom_site_fract_z
Si Si1 0.354759 0.125012 0.073840
Si Si2 0.987432 0.134837 0.065974
Si Si3 0.809117 0.325270 0.785924
Si Si4 0.680161 0.465889 0.047132
Si Si5 0.584200 0.866210 0.470905
Si Si6 0.836569 0.050129 0.368521
Si Si7 0.558305 0.676146 0.212734
Si Si8 0.763316 0.139286 0.529575
O O1 0.515299 0.858986 0.197704
O O2 0.347640 0.286389 0.067038
O O3 0.366046 0.244229 0.916992
O O4 0.167336 0.131833 0.082672
O O5 0.911506 0.259876 0.908566
O O6 0.837179 0.291561 0.063737
O O7 0.048364 0.867382 0.190231
O O8 0.719321 0.592605 0.624816
O O9 0.637011 0.287370 0.823754
O O10 0.726812 0.323588 0.212330
O O11 0.500000 0.500000 0.000000
O O12 0.715769 0.957965 0.379459
O O13 0.406919 0.893378 0.415718
O O14 0.500000 0.000000 0.500000
O O15 0.047950 0.951995 0.380738
O O16 0.829074 0.014359 0.494718
O O17 0.678984 0.412785 0.376023
#
# Coordination Sequence:
#
# PCOD9095439 Si02
#       8
#     2   2   2   2   2   2   2   2
#     4  10  20  35  57  89 114 154 201 239 298 360
#     4  10  22  36  61  86 117 161 194 254 293 359
#     4   9  19  38  60  91 118 146 207 247 300 346
#     4  12  25  41  56  80 130 160 195 246 305 362
#     4   9  19  33  61  87 116 149 193 252 291 349
#     4  10  21  37  56  90 114 158 200 239 303 354
#     4   9  17  34  62  87 117 147 193 253 298 344
#     4   9  18  36  61  85 118 147 198 258 284 349
#
# _framework density 21.647950999999999
#
# number of rings (size 3 to 8) (size 9 to 14) (size 15 to 20)
#    0.000    2.250    1.250    1.125    5.250    2.000 
#    2.250    0.625    0.000    2.250    0.000    0.000 
#    0.000    0.000    0.000    0.000    0.000    0.000 
#
# Total GULP energy -89237.370221 kJ/mol
# GULP energy per Si atom -5577.335639 kJ/mol
# Density = 2.159868 g / cm^3
# Si number density = 21.647951 Si / 1000 Ang^3
#
#
#
# Elastic Constant Matrix: (Units=GPa)
#
#
# Indices 1 2 3 4 5 6 
#
# 1 118.9738 41.6805 42.0546 -22.7837 12.7615 9.0388
# 2 41.6805 113.5813 29.1751 -30.3738 0.4419 2.0419
# 3 42.0546 29.1751 60.3118 -29.1464 7.7175 11.0419
# 4 -22.7837 -30.3738 -29.1464 31.7289 1.0833 -2.7969
# 5 12.7615 0.4419 7.7175 1.0833 31.2049 -4.0930
# 6 9.0388 2.0419 11.0419 -2.7969 -4.0930 28.0884
#
#
#
# Elastic Compliance Matrix: (Units=1/GPa)
#
#
# Indices 1 2 3 4 5 6 
#
# 1 0.012140 -0.002711 -0.006144 0.000446 -0.003656 -0.001783
# 2 -0.002711 0.012455 0.000938 0.010889 0.000420 0.000744
# 3 -0.006144 0.000938 0.039178 0.031774 -0.009836 -0.011762
# 4 0.000446 0.010889 0.031774 0.071140 -0.011721 -0.008050
# 5 -0.003656 0.000420 -0.009836 -0.011721 0.037598 0.009324
# 6 -0.001783 0.000744 -0.011762 -0.008050 0.009324 0.041302
#
#
# Mechanical properties :
#
#
# Convention : Reuss Voigt Hill
#
# Bulk Modulus (GPa) = 20.85990 57.63192 39.24591
# Shear Modulus (GPa) = 20.35605 30.20155 25.27880
#
# Velocity S-wave (km/s) = 3.06979 3.73919 3.42090
# Velocity P-wave (km/s) = 4.71399 6.73217 5.81136
#
# Compressibility (1/GPa) = 0.04793886
#
# Stress axis : x y z
#
# Youngs Moduli (GPa) = 82.37455 80.28728 25.52447
#
# Poissons Ratio (x) = 0.21768 0.15681
# Poissons Ratio (y) = 0.22334 -0.02394
# Poissons Ratio (z) = 0.50608 -0.07529
#
# Static dielectric constant tensor:
#      x y z
#    x 1.795930 -0.021480 -0.011320 
#    y -0.021480 1.912410 -0.020960 
#    z -0.011320 -0.020960 1.799590 
# 
# From -- ./inp_files/259130.got.cif
#   From: 2010.05.17/outbox.cif.g08.bks.cpg/sg2_130_cif.got.tgz:259130.got - 2010.06.03 11:33:40.
