data_PCOD9095218
_publ_section_title
;
Structure prediction by ZEFSAII (Michael W. Deem and Ramdas Pophale) SiO2 
 PCOD9095218
Probable space group: P -1
;
_chemical_formula_sum "Si O2"
_cell_formula_units_Z 12
_cell_length_a 9.141223
_cell_length_b 7.587147
_cell_length_c 12.404783
_cell_angle_alpha 120.626585
_cell_angle_beta 83.471226
_cell_angle_gamma 53.939707
_cell_volume 481.220878
_symmetry_space_group_name_H-M "P -1"
_symmetry_group_IT_number 2
_symmetry_cell_setting 'triclinic'
loop_
_space_group_symop_operation_xyz
x,y,z
-x,-y,-z
loop_
_atom_site_type_symbol
_atom_site_label
_atom_site_fract_x
_atom_site_fract_y
_atom_site_fract_z
Si Si1 0.201473 0.260943 0.569369
Si Si2 0.708946 0.420814 0.243346
Si Si3 0.291226 0.084442 0.271902
Si Si4 0.001295 0.136033 0.688070
Si Si5 0.344443 0.485958 0.362861
Si Si6 0.785727 0.229224 0.942479
O O1 0.337931 0.315340 0.612506
O O2 0.281362 0.056905 0.392440
O O3 0.152317 0.166255 0.645238
O O4 0.958235 0.594694 0.650533
O O5 0.560772 0.399526 0.303002
O O6 0.681867 0.440462 0.122532
O O7 0.973420 0.109172 0.142553
O O8 0.411235 0.178866 0.277404
O O9 0.346265 0.827755 0.114962
O O10 0.807773 0.327798 0.673329
O O11 0.868356 0.289246 0.858102
O O12 0.169776 0.762253 0.552341
#
# Coordination Sequence:
#
# PCOD9095218 Si02
#       6
#     2   2   2   2   2   2
#     4   9  18  34  55  80 108 141 178 220 267 317
#     4  10  22  37  55  81 112 141 177 224 271 314
#     4   9  17  33  57  78 105 145 181 212 263 328
#     4  10  20  35  56  80 109 143 180 219 266 321
#     4  10  20  35  57  83 107 140 183 223 263 317
#     4  10  21  38  56  79 111 144 177 221 270 318
#
# _framework density 24.936575000000001
#
# number of rings (size 3 to 8) (size 9 to 14) (size 15 to 20)
#    0.000    2.333    0.000    5.000    0.000    5.333 
#    0.000    1.667    0.000    0.000    0.000    0.000 
#    0.000    0.000    0.000    0.000    0.000    0.000 
#
# Total GULP energy -67130.210873 kJ/mol
# GULP energy per Si atom -5594.184239 kJ/mol
# Density = 2.487982 g / cm^3
# Si number density = 24.936575 Si / 1000 Ang^3
#
#
#
# Elastic Constant Matrix: (Units=GPa)
#
#
# Indices 1 2 3 4 5 6 
#
# 1 198.1782 26.8165 55.7117 -16.6150 17.7759 36.6764
# 2 26.8165 55.0457 36.7569 -19.9958 1.8693 13.7766
# 3 55.7117 36.7569 141.7338 -5.7758 -1.3347 21.8954
# 4 -16.6150 -19.9958 -5.7758 44.3422 -1.7370 -2.1064
# 5 17.7759 1.8693 -1.3347 -1.7370 22.9443 -3.0558
# 6 36.6764 13.7766 21.8954 -2.1064 -3.0558 52.1025
#
#
#
# Elastic Compliance Matrix: (Units=1/GPa)
#
#
# Indices 1 2 3 4 5 6 
#
# 1 0.007176 -0.000079 -0.002095 0.001930 -0.006119 -0.004431
# 2 -0.000079 0.027465 -0.005978 0.011281 -0.002252 -0.004370
# 3 -0.002095 -0.005978 0.009499 -0.002192 0.002378 -0.000886
# 4 0.001930 0.011281 -0.002192 0.027937 -0.000738 -0.002334
# 5 -0.006119 -0.002252 0.002378 -0.000738 0.049493 0.006776
# 6 -0.004431 -0.004370 -0.000886 -0.002334 0.006776 0.024143
#
#
# Mechanical properties :
#
#
# Convention : Reuss Voigt Hill
#
# Bulk Modulus (GPa) = 35.92381 70.39198 53.15790
# Shear Modulus (GPa) = 29.18912 42.25596 35.72254
#
# Velocity S-wave (km/s) = 3.42502 4.12094 3.78899
# Velocity P-wave (km/s) = 5.48437 7.13671 6.36439
#
# Compressibility (1/GPa) = 0.02783669
#
# Stress axis : x y z
#
# Youngs Moduli (GPa) = 139.34713 36.40948 105.27365
#
# Poissons Ratio (x) = 0.00289 0.22051
# Poissons Ratio (y) = 0.01107 0.62932
# Poissons Ratio (z) = 0.29188 0.21765
#
# Static dielectric constant tensor:
#      x y z
#    x 1.980950 -0.026480 -0.017380 
#    y -0.026480 2.039430 0.031330 
#    z -0.017380 0.031330 1.967580 
# 
# From -- ./inp_files/153631.got.cif
#   From: 2010.05.17/outbox.cif.g08.bks.cpg/sg2_77_cif.got.tgz:153631.got - 2010.06.03 11:33:40.
