data_PCOD9095565
_publ_section_title
;
Structure prediction by ZEFSAII (Michael W. Deem and Ramdas Pophale) SiO2 
 PCOD9095565
Probable space group: P -1
;
_chemical_formula_sum "Si O2"
_cell_formula_units_Z 16
_cell_length_a 20.726397
_cell_length_b 8.328971
_cell_length_c 13.840595
_cell_angle_alpha 124.382093
_cell_angle_beta 20.840715
_cell_angle_gamma 123.636425
_cell_volume 698.741877
_symmetry_space_group_name_H-M "P -1"
_symmetry_group_IT_number 2
_symmetry_cell_setting 'triclinic'
loop_
_space_group_symop_operation_xyz
x,y,z
-x,-y,-z
loop_
_atom_site_type_symbol
_atom_site_label
_atom_site_fract_x
_atom_site_fract_y
_atom_site_fract_z
Si Si1 0.968803 0.788801 0.216856
Si Si2 0.284473 0.533800 0.646109
Si Si3 0.816760 0.060082 0.684738
Si Si4 0.751062 0.782443 0.260010
Si Si5 0.606622 0.818007 0.263257
Si Si6 0.184475 0.600931 0.331543
Si Si7 0.885219 0.121486 0.299747
Si Si8 0.225319 0.190025 0.174180
O O1 0.832445 0.606403 0.311273
O O2 0.883111 0.893453 0.463597
O O3 0.971776 0.954023 0.185645
O O4 0.160997 0.694894 0.919451
O O5 0.335261 0.390064 0.611773
O O6 0.457121 0.641586 0.389204
O O7 0.730542 0.231805 0.804374
O O8 0.008238 0.167311 0.491129
O O9 0.703776 0.951988 0.892614
O O10 0.694705 0.762702 0.221623
O O11 0.731966 0.993772 0.408255
O O12 0.969924 0.777924 0.943903
O O13 0.500000 0.000000 0.500000
O O14 0.738991 0.869514 0.006103
O O15 0.153719 0.721097 0.512510
O O16 0.287477 0.418630 0.161267
O O17 0.000000 0.500000 0.500000
#
# Coordination Sequence:
#
# PCOD9095565 Si02
#       8
#     2   2   2   2   2   2   2   2
#     4   9  18  37  61  88 117 146 194 251 295 352
#     4  10  21  35  60  88 114 156 197 240 298 360
#     4   9  18  36  59  87 116 148 198 245 293 348
#     4  10  20  35  58  88 116 156 196 244 292 352
#     4  12  24  42  55  79 125 158 195 247 302 353
#     4   9  17  33  57  88 119 149 190 247 289 348
#     4   9  18  34  60  91 120 146 195 244 298 343
#     4  10  21  36  58  87 112 157 198 241 297 356
#
# _framework density 22.898296999999999
#
# number of rings (size 3 to 8) (size 9 to 14) (size 15 to 20)
#    0.000    2.250    0.000    4.125    1.750    1.000 
#    9.000    0.625    0.000    2.250    0.000    0.000 
#    0.000    0.000    0.000    0.000    0.000    0.000 
#
# Total GULP energy -89222.127622 kJ/mol
# GULP energy per Si atom -5576.382976 kJ/mol
# Density = 2.284618 g / cm^3
# Si number density = 22.898297 Si / 1000 Ang^3
#
#
#
# Elastic Constant Matrix: (Units=GPa)
#
#
# Indices 1 2 3 4 5 6 
#
# 1 73.5563 35.6531 28.1298 -1.8888 36.3110 -8.9286
# 2 35.6531 141.5751 36.7609 3.0552 17.5520 -10.9036
# 3 28.1298 36.7609 42.1286 -8.6323 17.8499 -10.1508
# 4 -1.8888 3.0552 -8.6323 32.3439 2.2291 10.7180
# 5 36.3110 17.5520 17.8499 2.2291 26.2265 -7.2876
# 6 -8.9286 -10.9036 -10.1508 10.7180 -7.2876 35.9749
#
#
#
# Elastic Compliance Matrix: (Units=1/GPa)
#
#
# Indices 1 2 3 4 5 6 
#
# 1 0.047491 -0.004688 0.000819 0.009811 -0.065564 -0.005608
# 2 -0.004688 0.009989 -0.008988 -0.004812 0.006933 0.002166
# 3 0.000819 -0.008988 0.045810 0.014878 -0.027447 0.000412
# 4 0.009811 -0.004812 0.014878 0.042126 -0.027678 -0.012983
# 5 -0.065564 0.006933 -0.027447 -0.027678 0.149939 0.016704
# 6 -0.005608 0.002166 0.000412 -0.012983 0.016704 0.034430
#
#
# Mechanical properties :
#
#
# Convention : Reuss Voigt Hill
#
# Bulk Modulus (GPa) = 12.89044 50.92751 31.90898
# Shear Modulus (GPa) = 13.11115 29.35681 21.23398
#
# Velocity S-wave (km/s) = 2.39546 3.58446 3.04849
# Velocity P-wave (km/s) = 3.64591 6.27855 5.13385
#
# Compressibility (1/GPa) = 0.07757689
#
# Stress axis : x y z
#
# Youngs Moduli (GPa) = 21.05672 100.11340 21.82938
#
# Poissons Ratio (x) = 0.46929 -0.01788
# Poissons Ratio (y) = 0.09870 0.19619
# Poissons Ratio (z) = -0.01724 0.89977
#
# Static dielectric constant tensor:
#      x y z
#    x 1.765100 0.014150 -0.013980 
#    y 0.014150 1.892860 0.002330 
#    z -0.013980 0.002330 1.864080 
# 
# From -- ./inp_files/377968.got.cif
#   From: 2010.05.17/outbox.cif.g08.bks.cpg/sg2_189_cif.got.tgz:377968.got - 2010.06.03 11:33:40.
