data_PCOD9095853
_publ_section_title
;
Structure prediction by ZEFSAII (Michael W. Deem and Ramdas Pophale) SiO2 
 PCOD9095853
Probable space group: P -1
;
_chemical_formula_sum "Si O2"
_cell_formula_units_Z 16
_cell_length_a 8.851266
_cell_length_b 18.946716
_cell_length_c 12.780317
_cell_angle_alpha 37.239202
_cell_angle_beta 109.812587
_cell_angle_gamma 81.339290
_cell_volume 822.795025
_symmetry_space_group_name_H-M "P -1"
_symmetry_group_IT_number 2
_symmetry_cell_setting 'triclinic'
loop_
_space_group_symop_operation_xyz
x,y,z
-x,-y,-z
loop_
_atom_site_type_symbol
_atom_site_label
_atom_site_fract_x
_atom_site_fract_y
_atom_site_fract_z
Si Si1 0.767546 0.805564 0.281885
Si Si2 0.876374 0.268050 0.395043
Si Si3 0.387453 0.393941 0.185266
Si Si4 0.694045 0.295724 0.777162
Si Si5 0.189816 0.112256 0.009531
Si Si6 0.024498 0.966145 0.669121
Si Si7 0.476161 0.255928 0.591236
Si Si8 0.433112 0.936187 0.477647
O O1 0.741494 0.700977 0.462814
O O2 0.963760 0.780035 0.413327
O O3 0.825137 0.774844 0.209287
O O4 0.500000 0.000000 0.000000
O O5 0.636874 0.328567 0.301330
O O6 0.807679 0.417601 0.134184
O O7 0.015611 0.099141 0.559622
O O8 0.377388 0.383059 0.320556
O O9 0.395577 0.262672 0.285049
O O10 0.500000 0.500000 0.500000
O O11 0.591871 0.258201 0.714282
O O12 0.759643 0.211535 0.007539
O O13 0.937247 0.211392 0.880371
O O14 0.317331 0.936362 0.185434
O O15 0.361319 0.041774 0.230337
O O16 0.000000 0.000000 0.500000
O O17 0.795520 0.011957 0.594275
O O18 0.500000 0.000000 0.500000
#
# Coordination Sequence:
#
# PCOD9095853 Si02
#       8
#     2   2   2   2   2   2   2   2
#     4  10  20  35  60  90 114 154 202 252 300 355
#     4  10  20  38  60  85 120 155 209 249 299 365
#     4   9  20  37  62  90 113 159 206 253 297 360
#     4  11  23  39  60  90 123 159 204 253 305 366
#     4   9  19  39  62  84 115 163 199 241 302 365
#     4  10  22  37  57  84 119 163 195 242 304 361
#     4  10  20  36  62  88 119 153 209 247 303 357
#     4   9  19  37  59  86 118 155 193 239 307 367
#
# _framework density 19.445913000000001
#
# number of rings (size 3 to 8) (size 9 to 14) (size 15 to 20)
#    0.000    2.250    0.000    3.375    1.750    4.500 
#    6.750    0.625    0.000    0.000    0.000    0.000 
#    0.000    0.000    0.000    0.000    0.000    0.000 
#
# Total GULP energy -89168.355181 kJ/mol
# GULP energy per Si atom -5573.022199 kJ/mol
# Density = 1.940165 g / cm^3
# Si number density = 19.445913 Si / 1000 Ang^3
#
#
#
# Elastic Constant Matrix: (Units=GPa)
#
#
# Indices 1 2 3 4 5 6 
#
# 1 52.6299 35.1493 35.4338 9.4903 -19.6123 -3.9894
# 2 35.1493 106.3492 68.2137 24.2364 -12.7823 2.5451
# 3 35.4338 68.2137 123.3975 22.9151 -22.7702 2.7638
# 4 9.4903 24.2364 22.9151 27.3894 -11.7040 -7.8999
# 5 -19.6123 -12.7823 -22.7702 -11.7040 29.7295 13.8596
# 6 -3.9894 2.5451 2.7638 -7.8999 13.8596 31.1675
#
#
#
# Elastic Compliance Matrix: (Units=1/GPa)
#
#
# Indices 1 2 3 4 5 6 
#
# 1 0.031722 -0.008008 -0.002125 0.005355 0.018980 -0.002180
# 2 -0.008008 0.018208 -0.006834 -0.010752 -0.006008 -0.001960
# 3 -0.002125 -0.006834 0.014816 -0.003747 0.008141 -0.005598
# 4 0.005355 -0.010752 -0.003747 0.055926 0.013327 0.010145
# 5 0.018980 -0.006008 0.008141 0.013327 0.066176 -0.023851
# 6 -0.002180 -0.001960 -0.005598 0.010145 -0.023851 0.045640
#
#
# Mechanical properties :
#
#
# Convention : Reuss Voigt Hill
#
# Bulk Modulus (GPa) = 32.45588 62.21894 47.33741
# Shear Modulus (GPa) = 18.07066 27.22927 22.64997
#
# Velocity S-wave (km/s) = 3.05171 3.74606 3.41657
# Velocity P-wave (km/s) = 5.39850 7.12573 6.32139
#
# Compressibility (1/GPa) = 0.03081106
#
# Stress axis : x y z
#
# Youngs Moduli (GPa) = 31.52415 54.92016 67.49673
#
# Poissons Ratio (x) = 0.43979 0.14346
# Poissons Ratio (y) = 0.25244 0.46127
# Poissons Ratio (z) = 0.06700 0.37532
#
# Static dielectric constant tensor:
#      x y z
#    x 1.708220 0.018890 0.005290 
#    y 0.018890 1.793550 0.132560 
#    z 0.005290 0.132560 1.855940 
# 
# From -- ./inp_files/328799.got.cif
#   From: 2010.05.17/outbox.cif.g08.bks.cpg/sg2_165_cif.got.tgz:328799.got - 2010.06.03 11:33:40.
