data_PCOD9095348
_publ_section_title
;
Structure prediction by ZEFSAII (Michael W. Deem and Ramdas Pophale) SiO2 
 PCOD9095348
Probable space group: P -1
;
_chemical_formula_sum "Si O2"
_cell_formula_units_Z 16
_cell_length_a 11.817501
_cell_length_b 9.533612
_cell_length_c 11.956683
_cell_angle_alpha 120.541839
_cell_angle_beta 49.757233
_cell_angle_gamma 100.719522
_cell_volume 864.593877
_symmetry_space_group_name_H-M "P -1"
_symmetry_group_IT_number 2
_symmetry_cell_setting 'triclinic'
loop_
_space_group_symop_operation_xyz
x,y,z
-x,-y,-z
loop_
_atom_site_type_symbol
_atom_site_label
_atom_site_fract_x
_atom_site_fract_y
_atom_site_fract_z
Si Si1 0.545503 0.388798 0.636370
Si Si2 0.409804 0.214256 0.471187
Si Si3 0.080196 0.419065 0.302707
Si Si4 0.712921 0.918782 0.892413
Si Si5 0.329626 0.719946 0.839102
Si Si6 0.195763 0.543024 0.671343
Si Si7 0.344521 0.615929 0.188656
Si Si8 0.382997 0.949239 0.219329
O O1 0.469442 0.249680 0.569749
O O2 0.416438 0.561506 0.791797
O O3 0.677524 0.422184 0.483153
O O4 0.619988 0.345365 0.690278
O O5 0.540360 0.249362 0.317648
O O6 0.260666 0.356445 0.599152
O O7 0.386230 0.037509 0.372646
O O8 0.156968 0.227315 0.203316
O O9 0.211143 0.516810 0.229073
O O10 0.000000 0.500000 0.500000
O O11 0.960118 0.433374 0.285304
O O12 0.699752 0.917828 0.765931
O O13 0.553751 0.895212 0.038274
O O14 0.725187 0.106382 0.992264
O O15 0.202805 0.663358 0.821143
O O16 0.313040 0.788253 0.210986
O O17 0.500000 0.500000 0.000000
#
# Coordination Sequence:
#
# PCOD9095348 Si02
#       8
#     2   2   2   2   2   2   2   2
#     4   9  17  33  58  83 112 141 188 231 271 328
#     4   8  16  32  57  83 106 148 186 227 273 328
#     4  12  23  36  57  82 117 152 181 229 285 332
#     4  10  20  35  57  83 109 149 188 230 276 332
#     4   8  16  31  58  84 106 144 192 228 266 327
#     4   9  17  34  56  83 112 146 185 225 276 337
#     4  12  23  36  55  86 114 147 188 235 278 321
#     4  10  20  35  57  82 112 143 194 234 268 328
#
# _framework density 18.505799
#
# number of rings (size 3 to 8) (size 9 to 14) (size 15 to 20)
#    0.000    2.250    2.500    3.000    3.500    1.000 
#    0.000    2.500    0.000    6.750    0.000    0.000 
#    0.000    0.000    0.000    0.000    0.000    0.000 
#
# Total GULP energy -89228.852407 kJ/mol
# GULP energy per Si atom -5576.803275 kJ/mol
# Density = 1.846368 g / cm^3
# Si number density = 18.505799 Si / 1000 Ang^3
#
#
#
# Elastic Constant Matrix: (Units=GPa)
#
#
# Indices 1 2 3 4 5 6 
#
# 1 140.9909 35.5879 26.6572 10.0243 -4.6921 2.5855
# 2 35.5879 70.5411 21.7097 11.0751 -0.9900 12.7739
# 3 26.6572 21.7097 40.9923 10.3035 1.8342 12.3145
# 4 10.0243 11.0751 10.3035 19.8259 1.3259 3.6823
# 5 -4.6921 -0.9900 1.8342 1.3259 24.2073 1.8220
# 6 2.5855 12.7739 12.3145 3.6823 1.8220 24.8606
#
#
#
# Elastic Compliance Matrix: (Units=1/GPa)
#
#
# Indices 1 2 3 4 5 6 
#
# 1 0.008934 -0.003456 -0.004827 -0.000794 0.001757 0.003227
# 2 -0.003456 0.019455 -0.004757 -0.005516 0.001282 -0.006558
# 3 -0.004827 -0.004757 0.037129 -0.011524 -0.002291 -0.013571
# 4 -0.000794 -0.005516 -0.011524 0.060112 -0.002793 -0.000074
# 5 0.001757 0.001282 -0.002291 -0.002793 0.042209 -0.002386
# 6 0.003227 -0.006558 -0.013571 -0.000074 -0.002386 0.050166
#
#
# Mechanical properties :
#
#
# Convention : Reuss Voigt Hill
#
# Bulk Modulus (GPa) = 25.35684 46.71485 36.03585
# Shear Modulus (GPa) = 19.43774 25.01672 22.22723
#
# Velocity S-wave (km/s) = 3.24444 3.68072 3.46944
# Velocity P-wave (km/s) = 5.26944 6.58496 5.96359
#
# Compressibility (1/GPa) = 0.03943709
#
# Stress axis : x y z
#
# Youngs Moduli (GPa) = 111.93785 51.39982 26.93295
#
# Poissons Ratio (x) = 0.17765 0.13001
# Poissons Ratio (y) = 0.38689 0.12812
# Poissons Ratio (z) = 0.54036 0.24450
#
# Static dielectric constant tensor:
#      x y z
#    x 1.648270 0.003960 0.036850 
#    y 0.003960 1.638000 0.009690 
#    z 0.036850 0.009690 1.649780 
# 
# From -- ./inp_files/256929.got.cif
#   From: 2010.05.17/outbox.cif.g08.bks.cpg/sg2_129_cif.got.tgz:256929.got - 2010.06.03 11:33:40.
