data_PCOD9095643
_publ_section_title
;
Structure prediction by ZEFSAII (Michael W. Deem and Ramdas Pophale) SiO2 
 PCOD9095643
Probable space group: P -1
;
_chemical_formula_sum "Si O2"
_cell_formula_units_Z 16
_cell_length_a 17.034528
_cell_length_b 10.097373
_cell_length_c 10.486855
_cell_angle_alpha 124.816053
_cell_angle_beta 35.463000
_cell_angle_gamma 145.819595
_cell_volume 557.886817
_symmetry_space_group_name_H-M "P -1"
_symmetry_group_IT_number 2
_symmetry_cell_setting 'triclinic'
loop_
_space_group_symop_operation_xyz
x,y,z
-x,-y,-z
loop_
_atom_site_type_symbol
_atom_site_label
_atom_site_fract_x
_atom_site_fract_y
_atom_site_fract_z
Si Si1 0.145265 0.469829 0.531832
Si Si2 0.846159 0.657759 0.043397
Si Si3 0.923913 0.247640 0.455378
Si Si4 0.653931 0.206422 0.220191
Si Si5 0.244574 0.904208 0.725954
Si Si6 0.002371 0.093667 0.685414
Si Si7 0.568427 0.785969 0.023240
Si Si8 0.399422 0.281559 0.349649
O O1 0.980688 0.256876 0.530831
O O2 0.173772 0.688039 0.611063
O O3 0.075476 0.341061 0.688823
O O4 0.359774 0.582572 0.268775
O O5 0.923165 0.696025 0.817578
O O6 0.078424 0.897708 0.928439
O O7 0.786429 0.445918 0.090273
O O8 0.619411 0.533959 0.258665
O O9 0.000000 0.500000 0.500000
O O10 0.689506 0.964435 0.601626
O O11 0.743869 0.178422 0.201438
O O12 0.475168 0.143768 0.499322
O O13 0.589816 0.999723 0.098763
O O14 0.188701 0.199012 0.586849
O O15 0.754445 0.880158 0.914610
O O16 0.000000 0.000000 0.500000
O O17 0.558824 0.707681 0.850551
#
# Coordination Sequence:
#
# PCOD9095643 Si02
#       8
#     2   2   2   2   2   2   2   2
#     4  11  20  36  59  87 114 153 193 234 288 340
#     4  12  22  34  56  86 120 153 183 230 299 351
#     4  12  22  34  53  86 127 149 180 235 295 355
#     4  10  22  40  61  86 117 151 195 238 291 343
#     4  10  22  40  60  87 117 150 194 244 282 347
#     4  10  21  38  53  79 122 157 198 232 270 347
#     4  10  20  35  59  84 111 155 192 235 285 336
#     4  11  24  36  54  86 123 159 186 235 289 345
#
# _framework density 28.679655
#
# number of rings (size 3 to 8) (size 9 to 14) (size 15 to 20)
#    0.000    1.250    5.000    2.625    1.750    4.000 
#    0.000    0.000    0.000    3.000    0.000    8.750 
#    0.000    0.000    0.000    0.000    0.000    0.000 
#
# Total GULP energy -89409.505851 kJ/mol
# GULP energy per Si atom -5588.094116 kJ/mol
# Density = 2.861438 g / cm^3
# Si number density = 28.679655 Si / 1000 Ang^3
#
#
#
# Elastic Constant Matrix: (Units=GPa)
#
#
# Indices 1 2 3 4 5 6 
#
# 1 123.7963 10.2451 34.8077 -1.4461 -18.6225 11.0733
# 2 10.2451 61.7790 21.2930 -15.0542 0.7329 -5.4411
# 3 34.8077 21.2930 223.1861 -13.8161 -29.9313 10.3128
# 4 -1.4461 -15.0542 -13.8161 45.0753 2.0030 2.2383
# 5 -18.6225 0.7329 -29.9313 2.0030 65.0215 -14.4185
# 6 11.0733 -5.4411 10.3128 2.2383 -14.4185 37.7503
#
#
#
# Elastic Compliance Matrix: (Units=1/GPa)
#
#
# Indices 1 2 3 4 5 6 
#
# 1 0.008888 -0.001443 -0.000961 -0.000475 0.001720 -0.001867
# 2 -0.001443 0.018548 -0.001440 0.005603 -0.000828 0.002842
# 3 -0.000961 -0.001440 0.005118 0.001004 0.001922 -0.000649
# 4 -0.000475 0.005603 0.001004 0.024433 -0.000723 -0.001052
# 5 0.001720 -0.000828 0.001922 -0.000723 0.018074 0.005797
# 6 -0.001867 0.002842 -0.000649 -0.001052 0.005797 0.029901
#
#
# Mechanical properties :
#
#
# Convention : Reuss Voigt Hill
#
# Bulk Modulus (GPa) = 40.21764 60.16144 50.18954
# Shear Modulus (GPa) = 41.34356 52.39712 46.87034
#
# Velocity S-wave (km/s) = 3.80091 4.27895 4.04700
# Velocity P-wave (km/s) = 5.77201 6.74056 6.27500
#
# Compressibility (1/GPa) = 0.02486471
#
# Stress axis : x y z
#
# Youngs Moduli (GPa) = 112.51610 53.91503 195.40097
#
# Poissons Ratio (x) = 0.07782 0.18775
# Poissons Ratio (y) = 0.16240 0.28136
# Poissons Ratio (z) = 0.10811 0.07763
#
# Static dielectric constant tensor:
#      x y z
#    x 2.365600 0.013500 -0.044150 
#    y 0.013500 2.320540 0.032970 
#    z -0.044150 0.032970 2.222690 
# 
# From -- ./inp_files/457403.got.cif
#   From: 2010.05.17/outbox.cif.g08.bks.cpg/sg2_229_cif.got.tgz:457403.got - 2010.06.03 11:33:40.
