data_PCOD9095670
_publ_section_title
;
Structure prediction by ZEFSAII (Michael W. Deem and Ramdas Pophale) SiO2 
 PCOD9095670
Probable space group: P -1
;
_chemical_formula_sum "Si O2"
_cell_formula_units_Z 12
_cell_length_a 15.774732
_cell_length_b 7.530333
_cell_length_c 8.583242
_cell_angle_alpha 84.689826
_cell_angle_beta 56.334012
_cell_angle_gamma 125.689558
_cell_volume 543.284615
_symmetry_space_group_name_H-M "P -1"
_symmetry_group_IT_number 2
_symmetry_cell_setting 'triclinic'
loop_
_space_group_symop_operation_xyz
x,y,z
-x,-y,-z
loop_
_atom_site_type_symbol
_atom_site_label
_atom_site_fract_x
_atom_site_fract_y
_atom_site_fract_z
Si Si1 0.316682 0.786062 0.673273
Si Si2 0.972028 0.516741 0.846839
Si Si3 0.412503 0.260723 0.385920
Si Si4 0.824728 0.908210 0.563824
Si Si5 0.269774 0.330211 0.787291
Si Si6 0.992858 0.181307 0.695883
O O1 0.248040 0.499812 0.728177
O O2 0.500000 0.000000 0.500000
O O3 0.324314 0.953021 0.525576
O O4 0.219154 0.717197 0.930935
O O5 0.023782 0.426320 0.689482
O O6 0.055378 0.810162 0.686070
O O7 0.000000 0.500000 0.000000
O O8 0.340624 0.295981 0.587586
O O9 0.596654 0.485088 0.225492
O O10 0.350181 0.261893 0.289937
O O11 0.860558 0.750466 0.499638
O O12 0.879143 0.017933 0.674388
O O13 0.108297 0.037098 0.042301
#
# Coordination Sequence:
#
# PCOD9095670 Si02
#       6
#     2   2   2   2   2   2
#     4  10  20  35  59  86 111 140 188 240 280 325
#     4  12  22  38  62  85 110 149 193 238 281 328
#     4  10  21  37  60  86 109 148 191 237 279 327
#     4  11  24  39  56  84 120 153 187 228 284 344
#     4  10  20  37  61  84 112 144 192 238 277 330
#     4  11  24  39  56  84 119 154 187 229 284 339
#
# _framework density 22.087869000000001
#
# number of rings (size 3 to 8) (size 9 to 14) (size 15 to 20)
#    0.000    1.333    5.000    0.500    2.333    2.000 
#    0.000    0.000    0.000    2.000    0.000    0.000 
#    0.000    0.000    0.000    0.000    0.000    0.000 
#
# Total GULP energy -67024.757284 kJ/mol
# GULP energy per Si atom -5585.396440 kJ/mol
# Density = 2.203760 g / cm^3
# Si number density = 22.087869 Si / 1000 Ang^3
#
#
#
# Elastic Constant Matrix: (Units=GPa)
#
#
# Indices 1 2 3 4 5 6 
#
# 1 107.5938 36.7307 0.1541 10.1353 -2.1433 -9.5873
# 2 36.7307 80.1019 4.4766 13.3089 -7.3844 -10.8259
# 3 0.1541 4.4766 44.8647 -5.3639 -1.5582 -2.4132
# 4 10.1353 13.3089 -5.3639 30.0644 2.2158 -4.4136
# 5 -2.1433 -7.3844 -1.5582 2.2158 22.5724 3.9160
# 6 -9.5873 -10.8259 -2.4132 -4.4136 3.9160 34.2063
#
#
#
# Elastic Compliance Matrix: (Units=1/GPa)
#
#
# Indices 1 2 3 4 5 6 
#
# 1 0.011172 -0.004770 0.000341 -0.001322 -0.000615 0.001545
# 2 -0.004770 0.016592 -0.002068 -0.006122 0.005016 0.002404
# 3 0.000341 -0.002068 0.023213 0.005185 0.000149 0.001731
# 4 -0.001322 -0.006122 0.005185 0.038343 -0.006178 0.003712
# 5 -0.000615 0.005016 0.000149 -0.006178 0.047332 -0.004790
# 6 0.001545 0.002404 0.001731 0.003712 -0.004790 0.031578
#
#
# Mechanical properties :
#
#
# Convention : Reuss Voigt Hill
#
# Bulk Modulus (GPa) = 26.32732 35.03147 30.67939
# Shear Modulus (GPa) = 25.78865 30.11520 27.95193
#
# Velocity S-wave (km/s) = 3.42065 3.69647 3.56123
# Velocity P-wave (km/s) = 5.24846 5.84063 5.55245
#
# Compressibility (1/GPa) = 0.03798336
#
# Stress axis : x y z
#
# Youngs Moduli (GPa) = 89.50809 60.27142 43.08023
#
# Poissons Ratio (x) = 0.28751 -0.01471
# Poissons Ratio (y) = 0.42698 0.08907
# Poissons Ratio (z) = -0.03056 0.12462
#
# Static dielectric constant tensor:
#      x y z
#    x 1.933020 0.024690 -0.039800 
#    y 0.024690 1.818050 -0.009310 
#    z -0.039800 -0.009310 1.782720 
# 
# From -- ./inp_files/164269.got.cif
#   From: 2010.05.17/outbox.cif.g08.bks.cpg/sg2_83_cif.got.tgz:164269.got - 2010.06.03 11:33:40.
