data_PCOD9095011
_publ_section_title
;
Structure prediction by ZEFSAII (Michael W. Deem and Ramdas Pophale) SiO2 
 PCOD9095011
Probable space group: P -1
;
_chemical_formula_sum "Si O2"
_cell_formula_units_Z 16
_cell_length_a 27.058853
_cell_length_b 5.037197
_cell_length_c 17.491082
_cell_angle_alpha 107.543175
_cell_angle_beta 20.967228
_cell_angle_gamma 97.111483
_cell_volume 721.358748
_symmetry_space_group_name_H-M "P -1"
_symmetry_group_IT_number 2
_symmetry_cell_setting 'triclinic'
loop_
_space_group_symop_operation_xyz
x,y,z
-x,-y,-z
loop_
_atom_site_type_symbol
_atom_site_label
_atom_site_fract_x
_atom_site_fract_y
_atom_site_fract_z
Si Si1 0.361671 0.737865 0.167686
Si Si2 0.525760 0.719696 0.161607
Si Si3 0.284174 0.226753 0.435549
Si Si4 0.035494 0.755615 0.682756
Si Si5 0.245225 0.774426 0.634153
Si Si6 0.853041 0.429169 0.717605
Si Si7 0.994443 0.839168 0.098973
Si Si8 0.036290 0.805927 0.306883
O O1 0.207846 0.703970 0.407019
O O2 0.328369 0.080402 0.274955
O O3 0.500000 0.500000 0.000000
O O4 0.416257 0.617658 0.993600
O O5 0.410047 0.768131 0.403781
O O6 0.414413 0.984502 0.285265
O O7 0.690366 0.700360 0.944917
O O8 0.272545 0.557585 0.501055
O O9 0.113103 0.261724 0.703799
O O10 0.001807 0.889827 0.828723
O O11 0.017681 0.445245 0.666799
O O12 0.927191 0.029982 0.803379
O O13 0.103512 0.091000 0.833722
O O14 0.172594 0.660395 0.796927
O O15 0.838651 0.368731 0.822598
O O16 0.000000 0.500000 0.500000
O O17 0.904955 0.101713 0.569096
#
# Coordination Sequence:
#
# PCOD9095011 Si02
#       8
#     2   2   2   2   2   2   2   2
#     4   9  18  34  49  83 122 153 188 230 293 356
#     4  10  20  35  52  86 118 150 193 241 304 354
#     4   9  19  33  55  81 120 156 194 236 291 355
#     4  11  22  40  59  89 117 157 201 244 296 355
#     4  10  20  36  55  87 114 160 198 247 288 353
#     4  11  22  39  61  87 122 153 196 248 305 362
#     4   9  21  36  57  82 120 154 207 239 290 347
#     4  11  23  39  62  89 115 153 203 247 301 349
#
# _framework density 22.180367
#
# number of rings (size 3 to 8) (size 9 to 14) (size 15 to 20)
#    0.000    2.000    2.500    1.125    3.500    4.500 
#    0.000    0.000    0.000    1.500    0.000    0.000 
#    0.000    0.000    0.000    0.000    0.000    0.000 
#
# Total GULP energy -89162.445460 kJ/mol
# GULP energy per Si atom -5572.652841 kJ/mol
# Density = 2.212988 g / cm^3
# Si number density = 22.180367 Si / 1000 Ang^3
#
#
#
# Elastic Constant Matrix: (Units=GPa)
#
#
# Indices 1 2 3 4 5 6 
#
# 1 88.1485 22.4101 25.4169 7.3716 -8.4519 -3.3623
# 2 22.4101 85.0843 9.8529 -6.4482 -3.0575 7.3587
# 3 25.4169 9.8529 113.2346 -19.2359 -2.5288 0.1956
# 4 7.3716 -6.4482 -19.2359 21.3024 -0.1381 -0.3528
# 5 -8.4519 -3.0575 -2.5288 -0.1381 27.4585 5.1407
# 6 -3.3623 7.3587 0.1956 -0.3528 5.1407 33.4757
#
#
#
# Elastic Compliance Matrix: (Units=1/GPa)
#
#
# Indices 1 2 3 4 5 6 
#
# 1 0.015104 -0.004283 -0.004779 -0.010786 0.003329 0.001862
# 2 -0.004283 0.013598 0.000884 0.006344 0.000965 -0.003506
# 3 -0.004779 0.000884 0.011990 0.012737 -0.000093 -0.000596
# 4 -0.010786 0.006344 0.012737 0.064063 -0.000789 -0.001756
# 5 0.003329 0.000965 -0.000093 -0.000789 0.038627 -0.005817
# 6 0.001862 -0.003506 -0.000596 -0.001756 -0.005817 0.031708
#
#
# Mechanical properties :
#
#
# Convention : Reuss Voigt Hill
#
# Bulk Modulus (GPa) = 41.09460 44.64749 42.87104
# Shear Modulus (GPa) = 25.05540 31.69982 28.37761
#
# Velocity S-wave (km/s) = 3.36463 3.78456 3.58075
# Velocity P-wave (km/s) = 5.80190 6.26659 6.03871
#
# Compressibility (1/GPa) = 0.02433410
#
# Stress axis : x y z
#
# Youngs Moduli (GPa) = 66.20969 73.54216 83.40530
#
# Poissons Ratio (x) = 0.31502 0.39856
# Poissons Ratio (y) = 0.28361 -0.07370
# Poissons Ratio (z) = 0.31639 -0.06499
#
# Static dielectric constant tensor:
#      x y z
#    x 1.891910 -0.029270 -0.034630 
#    y -0.029270 1.916530 0.025980 
#    z -0.034630 0.025980 1.877530 
# 
# From -- ./inp_files/428063.got.cif
#   From: 2010.05.17/outbox.cif.g08.bks.cpg/sg2_215_cif.got.tgz:428063.got - 2010.06.03 11:33:40.
