data_PCOD9095248
_publ_section_title
;
Structure prediction by ZEFSAII (Michael W. Deem and Ramdas Pophale) SiO2 
 PCOD9095248
Probable space group: P -1
;
_chemical_formula_sum "Si O2"
_cell_formula_units_Z 15
_cell_length_a 8.439770
_cell_length_b 12.318539
_cell_length_c 6.320742
_cell_angle_alpha 77.488670
_cell_angle_beta 86.906188
_cell_angle_gamma 65.043356
_cell_volume 581.112731
_symmetry_space_group_name_H-M "P -1"
_symmetry_group_IT_number 2
_symmetry_cell_setting 'triclinic'
loop_
_space_group_symop_operation_xyz
x,y,z
-x,-y,-z
loop_
_atom_site_type_symbol
_atom_site_label
_atom_site_fract_x
_atom_site_fract_y
_atom_site_fract_z
Si Si1 0.385292 0.113715 0.104594
Si Si2 0.442248 0.695345 0.967553
Si Si3 0.165170 0.282532 0.717234
Si Si4 0.675848 0.602280 0.643852
Si Si5 0.244004 0.496978 0.731987
Si Si6 0.000000 0.500000 0.000000
Si Si7 0.152722 0.103851 0.483085
Si Si8 0.892560 0.088870 0.156685
O O1 0.475733 0.205995 0.073517
O O2 0.322700 0.087433 0.343524
O O3 0.216656 0.188028 0.941114
O O4 0.500000 0.000000 0.000000
O O5 0.491007 0.637955 0.752858
O O6 0.240970 0.779852 0.978779
O O7 0.563646 0.587303 0.160183
O O8 0.321110 0.293369 0.560971
O O9 0.115684 0.414804 0.783702
O O10 0.078507 0.228571 0.574737
O O11 0.741082 0.487742 0.523800
O O12 0.818923 0.580995 0.821968
O O13 0.112819 0.585993 0.869543
O O14 0.013678 0.104183 0.322364
O O15 0.199683 0.987745 0.683127
O O16 0.000000 0.000000 0.000000
#
# Coordination Sequence:
#
# PCOD9095248 Si02
#       8
#     2   2   2   2   2   1   2   2
#     4  11  20  31  53  77 105 140 184 230 266 317
#     4  10  19  34  52  76 106 140 185 221 269 315
#     4   9  19  32  50  78 106 137 181 216 267 319
#     4   9  18  31  52  80 110 138 167 222 270 331
#     4   8  18  30  51  79 109 135 166 216 270 328
#     4  10  16  30  50  86 118 132 160 212 290 334
#     4  11  22  37  51  72 110 146 189 227 270 308
#     4  11  25  38  51  74 109 153 193 232 264 310
#
# _framework density 25.812549000000001
#
# number of rings (size 3 to 8) (size 9 to 14) (size 15 to 20)
#    0.800    1.333    1.333    2.800    1.867    3.200 
#    0.000    0.000    0.000    0.000    0.000    7.467 
#    0.000    0.533    0.000    0.000    0.000    0.000 
#
# Total GULP energy -83500.804148 kJ/mol
# GULP energy per Si atom -5566.720277 kJ/mol
# Density = 2.575380 g / cm^3
# Si number density = 25.812549 Si / 1000 Ang^3
#
#
#
# Elastic Constant Matrix: (Units=GPa)
#
#
# Indices 1 2 3 4 5 6 
#
# 1 47.5842 44.8780 27.5674 7.7274 8.0984 2.3228
# 2 44.8780 119.8719 40.5956 27.3605 -1.8415 -7.8479
# 3 27.5674 40.5956 139.5822 21.4545 5.4779 -4.0009
# 4 7.7274 27.3605 21.4545 44.3260 0.6747 0.8357
# 5 8.0984 -1.8415 5.4779 0.6747 32.1583 -2.6292
# 6 2.3228 -7.8479 -4.0009 0.8357 -2.6292 57.2219
#
#
#
# Elastic Compliance Matrix: (Units=1/GPa)
#
#
# Indices 1 2 3 4 5 6 
#
# 1 0.037968 -0.014378 -0.003698 0.004282 -0.010196 -0.004303
# 2 -0.014378 0.015883 -0.000809 -0.007040 0.005064 0.003041
# 3 -0.003698 -0.000809 0.008635 -0.003041 -0.000468 0.000666
# 4 0.004282 -0.007040 -0.003041 0.027691 -0.001695 -0.001834
# 5 -0.010196 0.005064 -0.000468 -0.001695 0.034288 0.002676
# 6 -0.004303 0.003041 0.000666 -0.001834 0.002676 0.018264
#
#
# Mechanical properties :
#
#
# Convention : Reuss Voigt Hill
#
# Bulk Modulus (GPa) = 40.46155 59.23559 49.84857
# Shear Modulus (GPa) = 26.49170 39.67437 33.08304
#
# Velocity S-wave (km/s) = 3.20708 3.92474 3.58392
# Velocity P-wave (km/s) = 5.42430 6.59820 6.03984
#
# Compressibility (1/GPa) = 0.02471482
#
# Stress axis : x y z
#
# Youngs Moduli (GPa) = 26.33782 62.96092 115.81020
#
# Poissons Ratio (x) = 0.90524 0.42832
# Poissons Ratio (y) = 0.37868 0.09371
# Poissons Ratio (z) = 0.09741 0.05095
#
# Static dielectric constant tensor:
#      x y z
#    x 2.205070 0.037440 -0.042990 
#    y 0.037440 2.185930 0.028710 
#    z -0.042990 0.028710 2.128650 
# 
# From -- ./inp_files/41946.got.cif
#   From: 2010.05.17/outbox.cif.g08.bks.cpg/sg2_21_cif.got.tgz:41946.got - 2010.06.03 11:33:40.
