data_PCOD9095898
_publ_section_title
;
Structure prediction by ZEFSAII (Michael W. Deem and Ramdas Pophale) SiO2 
 PCOD9095898
Probable space group: P -1
;
_chemical_formula_sum "Si O2"
_cell_formula_units_Z 16
_cell_length_a 17.226338
_cell_length_b 11.796775
_cell_length_c 16.438212
_cell_angle_alpha 132.859620
_cell_angle_beta 153.832987
_cell_angle_gamma 67.183806
_cell_volume 782.642172
_symmetry_space_group_name_H-M "P -1"
_symmetry_group_IT_number 2
_symmetry_cell_setting 'triclinic'
loop_
_space_group_symop_operation_xyz
x,y,z
-x,-y,-z
loop_
_atom_site_type_symbol
_atom_site_label
_atom_site_fract_x
_atom_site_fract_y
_atom_site_fract_z
Si Si1 0.455777 0.313550 0.280187
Si Si2 0.339110 0.185545 0.803898
Si Si3 0.720914 0.023751 0.191687
Si Si4 0.381761 0.570944 0.250163
Si Si5 0.264539 0.479670 0.909293
Si Si6 0.735503 0.287455 0.121134
Si Si7 0.002550 0.803974 0.185795
Si Si8 0.579797 0.166420 0.454511
O O1 0.237984 0.255914 0.102627
O O2 0.356524 0.126001 0.031637
O O3 0.527034 0.504929 0.384974
O O4 0.631903 0.331540 0.516439
O O5 0.386936 0.394721 0.954336
O O6 0.246341 0.072380 0.748350
O O7 0.146765 0.025953 0.476026
O O8 0.570930 0.230096 0.015501
O O9 0.974286 0.266686 0.534767
O O10 0.500000 0.000000 0.000000
O O11 0.464858 0.773980 0.474187
O O12 0.358505 0.572052 0.133021
O O13 0.113139 0.372833 0.938081
O O14 0.323998 0.646150 0.981520
O O15 0.000000 0.500000 0.500000
O O16 0.657889 0.068489 0.915427
O O17 0.195676 0.818319 0.325690
#
# Coordination Sequence:
#
# PCOD9095898 Si02
#       8
#     2   2   2   2   2   2   2   2
#     4  10  20  35  60  93 126 153 204 259 306 352
#     4  11  19  39  61  91 118 157 201 255 311 364
#     4  12  20  34  63  96 125 153 205 263 308 355
#     4  10  21  37  61  90 124 162 201 254 307 369
#     4  12  21  40  60  91 125 160 203 248 315 372
#     4  11  26  41  60  89 121 164 204 257 310 365
#     4   9  19  35  60  93 117 157 199 253 310 351
#     4  11  22  40  59  89 127 163 209 246 309 369
#
# _framework density 20.443569
#
# number of rings (size 3 to 8) (size 9 to 14) (size 15 to 20)
#    0.750    0.500    3.750    4.500    0.000    0.500 
#    0.000    0.000    0.000    0.750    0.000    0.000 
#    0.000    0.000    0.000    0.000    0.000    0.000 
#
# Total GULP energy -89224.590124 kJ/mol
# GULP energy per Si atom -5576.536883 kJ/mol
# Density = 2.039704 g / cm^3
# Si number density = 20.443569 Si / 1000 Ang^3
#
#
#
# Elastic Constant Matrix: (Units=GPa)
#
#
# Indices 1 2 3 4 5 6 
#
# 1 92.3429 48.2047 31.5978 5.8763 -32.4195 -14.8307
# 2 48.2047 89.2833 1.7641 1.4769 -20.1533 -6.5263
# 3 31.5978 1.7641 43.7214 6.0258 -8.7775 -15.1929
# 4 5.8763 1.4769 6.0258 28.3850 -1.2132 -1.1195
# 5 -32.4195 -20.1533 -8.7775 -1.2132 26.7999 5.0434
# 6 -14.8307 -6.5263 -15.1929 -1.1195 5.0434 43.9616
#
#
#
# Elastic Compliance Matrix: (Units=1/GPa)
#
#
# Indices 1 2 3 4 5 6 
#
# 1 0.030400 -0.010841 -0.016663 -0.001198 0.023070 0.000210
# 2 -0.010841 0.017564 0.008173 -0.000240 0.002481 0.001484
# 3 -0.016663 0.008173 0.037607 -0.004762 -0.003580 0.008878
# 4 -0.001198 -0.000240 -0.004762 0.036404 -0.001352 -0.001003
# 5 0.023070 0.002481 -0.003580 -0.001352 0.065983 -0.000690
# 6 0.000210 0.001484 0.008878 -0.001003 -0.000690 0.026160
#
#
# Mechanical properties :
#
#
# Convention : Reuss Voigt Hill
#
# Bulk Modulus (GPa) = 21.31755 43.16453 32.24104
# Shear Modulus (GPa) = 18.62773 29.41470 24.02121
#
# Velocity S-wave (km/s) = 3.02185 3.79730 3.43155
# Velocity P-wave (km/s) = 4.75663 6.35498 5.61299
#
# Compressibility (1/GPa) = 0.04690970
#
# Stress axis : x y z
#
# Youngs Moduli (GPa) = 32.89519 56.93345 26.59050
#
# Poissons Ratio (x) = 0.61722 0.44307
# Poissons Ratio (y) = 0.35662 -0.21732
# Poissons Ratio (z) = 0.54813 -0.46531
#
# Static dielectric constant tensor:
#      x y z
#    x 1.695910 -0.021110 -0.000340 
#    y -0.021110 1.750410 -0.015740 
#    z -0.000340 -0.015740 1.797590 
# 
# From -- ./inp_files/531982.got.cif
#   From: 2010.05.17/outbox.cif.g08.bks.cpg/sg2_266_cif.got.tgz:531982.got - 2010.06.03 11:33:40.
