data_PCOD9095703
_publ_section_title
;
Structure prediction by ZEFSAII (Michael W. Deem and Ramdas Pophale) SiO2 
 PCOD9095703
Probable space group: P -1
;
_chemical_formula_sum "Si O2"
_cell_formula_units_Z 16
_cell_length_a 11.741527
_cell_length_b 20.800373
_cell_length_c 18.352373
_cell_angle_alpha 161.279854
_cell_angle_beta 148.032820
_cell_angle_gamma 32.105769
_cell_volume 736.112592
_symmetry_space_group_name_H-M "P -1"
_symmetry_group_IT_number 2
_symmetry_cell_setting 'triclinic'
loop_
_space_group_symop_operation_xyz
x,y,z
-x,-y,-z
loop_
_atom_site_type_symbol
_atom_site_label
_atom_site_fract_x
_atom_site_fract_y
_atom_site_fract_z
Si Si1 0.497028 0.730065 0.224708
Si Si2 0.378681 0.861683 0.062322
Si Si3 0.696053 0.147655 0.542227
Si Si4 0.729655 0.349947 0.370113
Si Si5 0.524692 0.228585 0.269819
Si Si6 0.801892 0.956409 0.697036
Si Si7 0.087332 0.777607 0.413218
Si Si8 0.741280 0.575900 0.052719
O O1 0.593832 0.851412 0.469357
O O2 0.675770 0.709221 0.233312
O O3 0.266844 0.864525 0.209240
O O4 0.500000 0.500000 0.000000
O O5 0.571909 0.688217 0.019705
O O6 0.487819 0.053123 0.310099
O O7 0.197541 0.940925 0.112874
O O8 0.310359 0.748706 0.834481
O O9 0.788289 0.209620 0.581480
O O10 0.685367 0.359281 0.805754
O O11 0.872920 0.971417 0.493827
O O12 0.560467 0.302409 0.286987
O O13 0.674009 0.600029 0.614135
O O14 0.976745 0.221648 0.387796
O O15 0.744054 0.212858 0.420595
O O16 0.500000 0.000000 0.000000
O O17 0.985889 0.581782 0.165053
#
# Coordination Sequence:
#
# PCOD9095703 Si02
#       8
#     2   2   2   2   2   2   2   2
#     4  10  21  38  61  89 121 155 198 251 305 360
#     4  10  21  39  61  90 124 159 202 247 299 363
#     4  10  20  35  60  89 120 158 198 248 302 355
#     4  11  24  41  62  86 120 164 205 249 303 361
#     4  11  25  42  60  86 121 161 206 255 303 358
#     4  10  22  40  62  91 122 159 202 248 302 363
#     4  10  21  36  57  86 118 155 202 250 300 357
#     4  10  20  35  59  88 119 156 199 249 302 355
#
# _framework density 21.735806
#
# number of rings (size 3 to 8) (size 9 to 14) (size 15 to 20)
#    0.000    1.750    0.000    3.750    0.000    9.000 
#    0.000    0.000    0.000    6.750    0.000    0.000 
#    0.000    0.000    0.000    0.000    0.000    0.000 
#
# Total GULP energy -89278.059499 kJ/mol
# GULP energy per Si atom -5579.878719 kJ/mol
# Density = 2.168633 g / cm^3
# Si number density = 21.735806 Si / 1000 Ang^3
#
#
#
# Elastic Constant Matrix: (Units=GPa)
#
#
# Indices 1 2 3 4 5 6 
#
# 1 62.2865 26.8463 27.1539 4.7746 -16.7513 2.0514
# 2 26.8463 94.0775 55.1582 6.2275 -10.7051 -1.1376
# 3 27.1539 55.1582 124.7496 26.0831 -15.8581 2.2298
# 4 4.7746 6.2275 26.0831 35.3093 12.2426 -5.7070
# 5 -16.7513 -10.7051 -15.8581 12.2426 42.4276 1.0817
# 6 2.0514 -1.1376 2.2298 -5.7070 1.0817 29.5502
#
#
#
# Elastic Compliance Matrix: (Units=1/GPa)
#
#
# Indices 1 2 3 4 5 6 
#
# 1 0.020949 -0.004494 -0.000327 -0.005256 0.008606 -0.002933
# 2 -0.004494 0.015590 -0.006995 0.003967 -0.001658 0.002267
# 3 -0.000327 -0.006995 0.014949 -0.013064 0.007569 -0.004175
# 4 -0.005256 0.003967 -0.013064 0.046627 -0.019698 0.011230
# 5 0.008606 -0.001658 0.007569 -0.019698 0.035223 -0.006326
# 6 -0.002933 0.002267 -0.004175 0.011230 -0.006326 0.036847
#
#
# Mechanical properties :
#
#
# Convention : Reuss Voigt Hill
#
# Bulk Modulus (GPa) = 35.90303 55.49229 45.69766
# Shear Modulus (GPa) = 24.61810 32.92111 28.76960
#
# Velocity S-wave (km/s) = 3.36907 3.89601 3.64208
# Velocity P-wave (km/s) = 5.62921 6.76937 6.22544
#
# Compressibility (1/GPa) = 0.02785280
#
# Stress axis : x y z
#
# Youngs Moduli (GPa) = 47.73566 64.14501 66.89626
#
# Poissons Ratio (x) = 0.28829 0.02189
# Poissons Ratio (y) = 0.21454 0.46797
# Poissons Ratio (z) = 0.01562 0.44873
#
# Static dielectric constant tensor:
#      x y z
#    x 1.847320 -0.013430 -0.021420 
#    y -0.013430 1.792290 0.024310 
#    z -0.021420 0.024310 1.836010 
# 
# From -- ./inp_files/84116.got.cif
#   From: 2010.05.17/outbox.cif.g08.bks.cpg/sg2_43_cif.got.tgz:84116.got - 2010.06.03 11:33:40.
