data_PCOD9095652
_publ_section_title
;
Structure prediction by ZEFSAII (Michael W. Deem and Ramdas Pophale) SiO2 
 PCOD9095652
Probable space group: P -1
;
_chemical_formula_sum "Si O2"
_cell_formula_units_Z 16
_cell_length_a 16.697011
_cell_length_b 10.899404
_cell_length_c 5.463908
_cell_angle_alpha 70.693758
_cell_angle_beta 62.204872
_cell_angle_gamma 45.373460
_cell_volume 626.028732
_symmetry_space_group_name_H-M "P -1"
_symmetry_group_IT_number 2
_symmetry_cell_setting 'triclinic'
loop_
_space_group_symop_operation_xyz
x,y,z
-x,-y,-z
loop_
_atom_site_type_symbol
_atom_site_label
_atom_site_fract_x
_atom_site_fract_y
_atom_site_fract_z
Si Si1 0.179361 0.689231 0.522133
Si Si2 0.558801 0.692464 0.691614
Si Si3 0.245660 0.979520 0.916419
Si Si4 0.158670 0.144764 0.435394
Si Si5 0.311872 0.170496 0.475393
Si Si6 0.776072 0.267962 0.067177
Si Si7 0.937234 0.457266 0.289822
Si Si8 0.465605 0.388873 0.720488
O O1 0.317550 0.509718 0.395157
O O2 0.172433 0.791637 0.694550
O O3 0.099524 0.640258 0.728567
O O4 0.140393 0.776147 0.251752
O O5 0.591513 0.807666 0.652025
O O6 0.507624 0.733194 0.460371
O O7 0.487272 0.694609 0.021560
O O8 0.153969 0.085561 0.748412
O O9 0.320198 0.043318 0.739975
O O10 0.293218 0.793740 0.893042
O O11 0.186743 0.034098 0.229126
O O12 0.275719 0.129759 0.304971
O O13 0.033652 0.332852 0.440904
O O14 0.187422 0.364021 0.569751
O O15 0.677315 0.473361 0.116940
O O16 0.000000 0.500000 0.000000
O O17 0.500000 0.500000 0.500000
#
# Coordination Sequence:
#
# PCOD9095652 Si02
#       8
#     2   2   2   2   2   2   2   2
#     4   9  21  34  55  78 102 145 179 219 269 310
#     4   9  19  33  55  82 109 131 171 220 262 318
#     4  10  21  35  54  74 106 145 186 208 263 322
#     4  10  21  33  51  81 101 142 188 218 265 302
#     4   9  21  32  56  78 105 140 180 218 268 305
#     4  10  20  40  55  76 109 141 179 212 259 334
#     4  11  19  36  55  78 110 137 182 242 272 295
#     4  10  20  35  59  85 106 133 169 217 272 313
#
# _framework density 25.557935000000001
#
# number of rings (size 3 to 8) (size 9 to 14) (size 15 to 20)
#    0.750    1.500    1.250    1.500    1.750    5.000 
#    0.000    3.750    0.000    1.500    0.000    0.000 
#    0.000    0.000    0.000    0.000    0.000    0.000 
#
# Total GULP energy -89230.707344 kJ/mol
# GULP energy per Si atom -5576.919209 kJ/mol
# Density = 2.549976 g / cm^3
# Si number density = 25.557935 Si / 1000 Ang^3
#
#
#
# Elastic Constant Matrix: (Units=GPa)
#
#
# Indices 1 2 3 4 5 6 
#
# 1 107.0452 31.3367 77.3695 7.6540 21.2254 24.3583
# 2 31.3367 64.4938 33.8698 8.6857 12.1752 17.7076
# 3 77.3695 33.8698 177.1948 7.4174 33.0679 28.2631
# 4 7.6540 8.6857 7.4174 29.8552 15.5767 1.4669
# 5 21.2254 12.1752 33.0679 15.5767 42.1682 10.9581
# 6 24.3583 17.7076 28.2631 1.4669 10.9581 43.0511
#
#
#
# Elastic Compliance Matrix: (Units=1/GPa)
#
#
# Indices 1 2 3 4 5 6 
#
# 1 0.015150 -0.003357 -0.005118 -0.000685 -0.001499 -0.003426
# 2 -0.003357 0.019852 -0.001298 -0.004296 -0.000073 -0.005249
# 3 -0.005118 -0.001298 0.009125 0.001844 -0.004502 -0.001478
# 4 -0.000685 -0.004296 0.001844 0.043000 -0.016715 0.003733
# 5 -0.001499 -0.000073 -0.004502 -0.016715 0.035392 -0.004605
# 6 -0.003426 -0.005249 -0.001478 0.003733 -0.004605 0.029340
#
#
# Mechanical properties :
#
#
# Convention : Reuss Voigt Hill
#
# Bulk Modulus (GPa) = 40.68427 70.43175 55.55801
# Shear Modulus (GPa) = 27.83976 36.75875 32.29925
#
# Velocity S-wave (km/s) = 3.30401 3.79654 3.55881
# Velocity P-wave (km/s) = 5.52343 6.84367 6.21869
#
# Compressibility (1/GPa) = 0.02457952
#
# Stress axis : x y z
#
# Youngs Moduli (GPa) = 66.00715 50.37329 109.58759
#
# Poissons Ratio (x) = 0.16912 0.56091
# Poissons Ratio (y) = 0.22160 0.14224
# Poissons Ratio (z) = 0.33785 0.06538
#
# Static dielectric constant tensor:
#      x y z
#    x 2.102220 -0.005580 0.025140 
#    y -0.005580 2.043410 -0.047120 
#    z 0.025140 -0.047120 2.068860 
# 
# From -- ./inp_files/108457.got.cif
#   From: 2010.05.17/outbox.cif.g08.bks.cpg/sg2_55_cif.got.tgz:108457.got - 2010.06.03 11:33:40.
