data_PCOD9095465
_publ_section_title
;
Structure prediction by ZEFSAII (Michael W. Deem and Ramdas Pophale) SiO2 
 PCOD9095465
Probable space group: P -1
;
_chemical_formula_sum "Si O2"
_cell_formula_units_Z 16
_cell_length_a 8.509969
_cell_length_b 17.307422
_cell_length_c 6.217362
_cell_angle_alpha 107.420237
_cell_angle_beta 104.769113
_cell_angle_gamma 109.438367
_cell_volume 757.257160
_symmetry_space_group_name_H-M "P -1"
_symmetry_group_IT_number 2
_symmetry_cell_setting 'triclinic'
loop_
_space_group_symop_operation_xyz
x,y,z
-x,-y,-z
loop_
_atom_site_type_symbol
_atom_site_label
_atom_site_fract_x
_atom_site_fract_y
_atom_site_fract_z
Si Si1 0.462297 0.111435 0.148070
Si Si2 0.770760 0.437300 0.779155
Si Si3 0.008852 0.361613 0.564759
Si Si4 0.705614 0.577278 0.628145
Si Si5 0.637382 0.059380 0.781668
Si Si6 0.434404 0.287247 0.265341
Si Si7 0.274145 0.671577 0.946148
Si Si8 0.192854 0.795409 0.346581
O O1 0.381577 0.183319 0.213061
O O2 0.649206 0.151182 0.382511
O O3 0.336367 0.011711 0.112215
O O4 0.531423 0.102589 0.926284
O O5 0.931370 0.419285 0.720976
O O6 0.795976 0.534611 0.790026
O O7 0.587264 0.357703 0.540968
O O8 0.757372 0.417914 0.009955
O O9 0.873066 0.334292 0.287574
O O10 0.973938 0.274807 0.628412
O O11 0.203671 0.411049 0.564188
O O12 0.500000 0.500000 0.500000
O O13 0.711313 0.673332 0.767672
O O14 0.808137 0.133568 0.772388
O O15 0.500000 0.000000 0.500000
O O16 0.539446 0.299022 0.088244
O O17 0.264458 0.736281 0.180865
#
# Coordination Sequence:
#
# PCOD9095465 Si02
#       8
#     2   2   2   2   2   2   2   2
#     4  10  16  30  51  83 110 138 169 213 268 311
#     4   9  19  35  55  74 100 140 182 229 262 304
#     4  10  19  33  55  75 101 144 182 223 265 307
#     4  10  22  37  52  75 108 143 181 222 270 317
#     4   9  18  26  50  86 114 130 167 219 262 312
#     4  10  18  33  53  75 109 143 171 215 271 321
#     4  10  17  31  55  74 101 137 183 224 260 307
#     4  10  16  31  53  79 105 136 176 220 262 306
#
# _framework density 21.128886999999999
#
# number of rings (size 3 to 8) (size 9 to 14) (size 15 to 20)
#    0.000    2.250    5.000    0.375    0.000    1.000 
#    0.000    7.500    0.000    0.750    0.000   12.250 
#    0.000    0.000    0.000    0.000    0.000    0.000 
#
# Total GULP energy -89169.378409 kJ/mol
# GULP energy per Si atom -5573.086151 kJ/mol
# Density = 2.108080 g / cm^3
# Si number density = 21.128887 Si / 1000 Ang^3
#
#
#
# Elastic Constant Matrix: (Units=GPa)
#
#
# Indices 1 2 3 4 5 6 
#
# 1 55.4419 45.8031 12.7667 -5.5876 -19.1692 2.9635
# 2 45.8031 191.1769 21.9782 -25.4192 -15.6483 -8.9573
# 3 12.7667 21.9782 73.4718 -9.1517 -10.7392 -4.4525
# 4 -5.5876 -25.4192 -9.1517 35.2065 2.8153 -18.4858
# 5 -19.1692 -15.6483 -10.7392 2.8153 18.1178 2.1399
# 6 2.9635 -8.9573 -4.4525 -18.4858 2.1399 28.3534
#
#
#
# Elastic Compliance Matrix: (Units=1/GPa)
#
#
# Indices 1 2 3 4 5 6 
#
# 1 0.037113 -0.008334 -0.001432 -0.012547 0.035246 -0.017577
# 2 -0.008334 0.008957 0.000337 0.011694 -0.004079 0.011686
# 3 -0.001432 0.000337 0.016036 0.007436 0.006282 0.007148
# 4 -0.012547 0.011694 0.007436 0.063482 -0.014377 0.048647
# 5 0.035246 -0.004079 0.006282 -0.014377 0.097366 -0.020708
# 6 -0.017577 0.011686 0.007148 0.048647 -0.020708 0.075200
#
#
# Mechanical properties :
#
#
# Convention : Reuss Voigt Hill
#
# Bulk Modulus (GPa) = 23.12188 53.46517 38.29353
# Shear Modulus (GPa) = 15.08623 32.30503 23.69563
#
# Velocity S-wave (km/s) = 2.67499 3.91442 3.35248
# Velocity P-wave (km/s) = 4.52855 6.76679 5.75749
#
# Compressibility (1/GPa) = 0.04324907
#
# Stress axis : x y z
#
# Youngs Moduli (GPa) = 26.94471 111.64173 62.35892
#
# Poissons Ratio (x) = 0.93041 0.08930
# Poissons Ratio (y) = 0.22455 -0.02104
# Poissons Ratio (z) = 0.03859 -0.03766
#
# Static dielectric constant tensor:
#      x y z
#    x 1.770670 -0.008000 0.042010 
#    y -0.008000 1.899670 0.001580 
#    z 0.042010 0.001580 1.803370 
# 
# From -- ./inp_files/45429.got.cif
#   From: 2010.05.17/outbox.cif.g08.bks.cpg/sg2_23_cif.got.tgz:45429.got - 2010.06.03 11:33:40.
