data_PCOD9095225
_publ_section_title
;
Structure prediction by ZEFSAII (Michael W. Deem and Ramdas Pophale) SiO2 
 PCOD9095225
Probable space group: P -1
;
_chemical_formula_sum "Si O2"
_cell_formula_units_Z 16
_cell_length_a 21.993970
_cell_length_b 8.061863
_cell_length_c 9.651566
_cell_angle_alpha 31.570616
_cell_angle_beta 119.912807
_cell_angle_gamma 119.145151
_cell_volume 769.297420
_symmetry_space_group_name_H-M "P -1"
_symmetry_group_IT_number 2
_symmetry_cell_setting 'triclinic'
loop_
_space_group_symop_operation_xyz
x,y,z
-x,-y,-z
loop_
_atom_site_type_symbol
_atom_site_label
_atom_site_fract_x
_atom_site_fract_y
_atom_site_fract_z
Si Si1 0.870270 0.964235 0.222457
Si Si2 0.071620 0.886361 0.100939
Si Si3 0.960379 0.409659 0.205076
Si Si4 0.374047 0.390933 0.568282
Si Si5 0.573949 0.240374 0.913588
Si Si6 0.121117 0.002218 0.364908
Si Si7 0.787094 0.558349 0.648161
Si Si8 0.503250 0.376508 0.246161
O O1 0.938894 0.132919 0.266005
O O2 0.826154 0.691834 0.457283
O O3 0.895189 0.903697 0.138623
O O4 0.818393 0.238538 0.954096
O O5 0.040070 0.541705 0.245849
O O6 0.123668 0.899192 0.281509
O O7 0.000000 0.000000 0.000000
O O8 0.916657 0.285755 0.380209
O O9 0.928684 0.716004 0.890255
O O10 0.409694 0.582126 0.339775
O O11 0.296609 0.485854 0.432179
O O12 0.424743 0.485556 0.689676
O O13 0.370775 0.007327 0.817093
O O14 0.560569 0.503205 0.824624
O O15 0.500000 0.000000 0.000000
O O16 0.190681 0.169772 0.402472
O O17 0.500000 0.000000 0.500000
O O18 0.500000 0.500000 0.000000
#
# Coordination Sequence:
#
# PCOD9095225 Si02
#       8
#     2   2   2   2   2   2   2   2
#     4  10  21  36  55  80 112 143 187 237 280 343
#     4  10  20  35  56  81 107 141 182 239 298 339
#     4   9  18  33  53  77 103 137 178 225 284 338
#     4  11  21  39  63  83 117 163 199 228 282 359
#     4  10  20  37  62  92 118 152 195 237 282 334
#     4   9  19  34  53  77 107 135 180 231 272 327
#     4  10  22  40  57  78 108 155 192 223 275 344
#     4  11  21  36  59  92 125 146 183 246 291 322
#
# _framework density 20.798199
#
# number of rings (size 3 to 8) (size 9 to 14) (size 15 to 20)
#    0.000    2.000    0.000    5.250    0.000    4.000 
#    0.000   11.250    0.000    0.000    0.000    0.000 
#    0.000    0.000    0.000    0.000    0.000    0.000 
#
# Total GULP energy -89385.396039 kJ/mol
# GULP energy per Si atom -5586.587252 kJ/mol
# Density = 2.075086 g / cm^3
# Si number density = 20.798199 Si / 1000 Ang^3
#
#
#
# Elastic Constant Matrix: (Units=GPa)
#
#
# Indices 1 2 3 4 5 6 
#
# 1 99.8201 50.3141 46.2424 19.1645 -0.7960 -5.0422
# 2 50.3141 86.6855 40.1292 15.6762 -7.5758 -10.9276
# 3 46.2424 40.1292 124.9345 9.8257 -8.4385 -6.7930
# 4 19.1645 15.6762 9.8257 44.1371 -15.9907 2.2124
# 5 -0.7960 -7.5758 -8.4385 -15.9907 38.7885 5.0052
# 6 -5.0422 -10.9276 -6.7930 2.2124 5.0052 28.9766
#
#
#
# Elastic Compliance Matrix: (Units=1/GPa)
#
#
# Indices 1 2 3 4 5 6 
#
# 1 0.016260 -0.007149 -0.003564 -0.005210 -0.004036 0.000393
# 2 -0.007149 0.018087 -0.002615 -0.002584 0.001110 0.004969
# 3 -0.003564 -0.002615 0.010247 0.000886 0.001960 0.000390
# 4 -0.005210 -0.002584 0.000886 0.030677 0.013036 -0.006268
# 5 -0.004036 0.001110 0.001960 0.013036 0.032547 -0.006441
# 6 0.000393 0.004969 0.000390 -0.006268 -0.006441 0.038136
#
#
# Mechanical properties :
#
#
# Convention : Reuss Voigt Hill
#
# Bulk Modulus (GPa) = 55.74544 64.97906 60.36225
# Shear Modulus (GPa) = 27.99727 34.03072 31.01399
#
# Velocity S-wave (km/s) = 3.67296 4.04943 3.86578
# Velocity P-wave (km/s) = 6.69692 7.29207 7.00082
#
# Compressibility (1/GPa) = 0.01793869
#
# Stress axis : x y z
#
# Youngs Moduli (GPa) = 61.49917 55.28866 97.58850
#
# Poissons Ratio (x) = 0.39527 0.34778
# Poissons Ratio (y) = 0.43967 0.25519
# Poissons Ratio (z) = 0.21916 0.14458
#
# Static dielectric constant tensor:
#      x y z
#    x 1.743480 -0.040030 0.039140 
#    y -0.040030 1.803720 -0.021260 
#    z 0.039140 -0.021260 1.776060 
# 
# From -- ./inp_files/351586.got.cif
#   From: 2010.05.17/outbox.cif.g08.bks.cpg/sg2_176_cif.got.tgz:351586.got - 2010.06.03 11:33:40.
