data_PCOD9095295
_publ_section_title
;
Structure prediction by ZEFSAII (Michael W. Deem and Ramdas Pophale) SiO2 
 PCOD9095295
Probable space group: P -1
;
_chemical_formula_sum "Si O2"
_cell_formula_units_Z 16
_cell_length_a 20.306261
_cell_length_b 22.382208
_cell_length_c 9.018449
_cell_angle_alpha 36.706302
_cell_angle_beta 152.658658
_cell_angle_gamma 159.881676
_cell_volume 633.785728
_symmetry_space_group_name_H-M "P -1"
_symmetry_group_IT_number 2
_symmetry_cell_setting 'triclinic'
loop_
_space_group_symop_operation_xyz
x,y,z
-x,-y,-z
loop_
_atom_site_type_symbol
_atom_site_label
_atom_site_fract_x
_atom_site_fract_y
_atom_site_fract_z
Si Si1 0.087448 0.156208 0.432658
Si Si2 0.853113 0.627749 0.550390
Si Si3 0.892882 0.246103 0.472780
Si Si4 0.642689 0.166370 0.698935
Si Si5 0.352842 0.710351 0.266069
Si Si6 0.022486 0.686540 0.163658
Si Si7 0.144122 0.047429 0.338647
Si Si8 0.505451 0.400018 0.549252
O O1 0.350378 0.332905 0.523627
O O2 0.932771 0.168061 0.061288
O O3 0.000000 0.000000 0.500000
O O4 0.049091 0.114706 0.612128
O O5 0.731568 0.448786 0.627235
O O6 0.638139 0.545710 0.397140
O O7 0.933588 0.714880 0.375867
O O8 0.123315 0.764053 0.902190
O O9 0.021548 0.347404 0.682993
O O10 0.629574 0.039607 0.402368
O O11 0.820121 0.306463 0.124274
O O12 0.644180 0.267942 0.596125
O O13 0.731859 0.226638 0.587561
O O14 0.629609 0.890528 0.393609
O O15 0.768743 0.504117 0.932628
O O16 0.298049 0.217647 0.404765
O O17 0.000000 0.000000 0.000000
#
# Coordination Sequence:
#
# PCOD9095295 Si02
#       8
#     2   2   2   2   2   2   2   2
#     4  10  22  43  63  85 121 161 203 260 313 365
#     4   9  19  38  59  86 124 160 204 252 297 357
#     4  11  21  35  59  90 122 165 204 247 307 366
#     4  10  20  35  56  86 123 162 199 251 308 354
#     4  10  20  39  60  89 127 159 200 257 303 359
#     4  11  23  40  60  89 127 162 205 255 312 376
#     4  10  22  41  66  92 120 162 210 253 301 363
#     4   9  21  41  61  87 123 161 200 255 312 356
#
# _framework density 25.245125000000002
#
# number of rings (size 3 to 8) (size 9 to 14) (size 15 to 20)
#    0.000    2.000    0.000    4.500    0.000    5.000 
#    0.000   17.500    0.000    0.000    0.000    0.000 
#    0.000    0.000    0.000    0.000    0.000    0.000 
#
# Total GULP energy -89258.496885 kJ/mol
# GULP energy per Si atom -5578.656055 kJ/mol
# Density = 2.518767 g / cm^3
# Si number density = 25.245125 Si / 1000 Ang^3
#
#
#
# Elastic Constant Matrix: (Units=GPa)
#
#
# Indices 1 2 3 4 5 6 
#
# 1 186.7375 63.4998 41.5662 7.4128 -15.1075 73.3353
# 2 63.4998 171.6548 27.2153 22.6501 -1.6351 15.8518
# 3 41.5662 27.2153 47.3878 6.5335 -14.8159 9.6660
# 4 7.4128 22.6501 6.5335 30.6897 -0.4571 5.0467
# 5 -15.1075 -1.6351 -14.8159 -0.4571 31.9712 -0.3127
# 6 73.3353 15.8518 9.6660 5.0467 -0.3127 61.0234
#
#
#
# Elastic Compliance Matrix: (Units=1/GPa)
#
#
# Indices 1 2 3 4 5 6 
#
# 1 0.014035 -0.003049 -0.006855 0.002868 0.003192 -0.015210
# 2 -0.003049 0.007713 -0.002236 -0.004908 -0.002129 0.002409
# 3 -0.006855 -0.002236 0.031615 -0.003947 0.011282 0.004196
# 4 0.002868 -0.004908 -0.003947 0.037109 -0.000239 -0.004617
# 5 0.003192 -0.002129 0.011282 -0.000239 0.037855 -0.004856
# 6 -0.015210 0.002409 0.004196 -0.004617 -0.004856 0.033733
#
#
# Mechanical properties :
#
#
# Convention : Reuss Voigt Hill
#
# Bulk Modulus (GPa) = 34.38321 74.48252 54.43286
# Shear Modulus (GPa) = 25.50575 42.97012 34.23794
#
# Velocity S-wave (km/s) = 3.18201 4.13015 3.68668
# Velocity P-wave (km/s) = 5.21052 7.23270 6.30323
#
# Compressibility (1/GPa) = 0.02908397
#
# Stress axis : x y z
#
# Youngs Moduli (GPa) = 71.24822 129.65613 31.63029
#
# Poissons Ratio (x) = 0.39527 0.21684
# Poissons Ratio (y) = 0.21721 0.07072
# Poissons Ratio (z) = 0.48843 0.28988
#
# Static dielectric constant tensor:
#      x y z
#    x 2.178530 0.009190 0.029990 
#    y 0.009190 2.028700 0.033030 
#    z 0.029990 0.033030 2.036620 
# 
# From -- ./inp_files/349998.got.cif
#   From: 2010.05.17/outbox.cif.g08.bks.cpg/sg2_175_cif.got.tgz:349998.got - 2010.06.03 11:33:40.
