data_PCOD9095306
_publ_section_title
;
Structure prediction by ZEFSAII (Michael W. Deem and Ramdas Pophale) SiO2 
 PCOD9095306
Probable space group: P -1
;
_chemical_formula_sum "Si O2"
_cell_formula_units_Z 14
_cell_length_a 9.829396
_cell_length_b 11.046862
_cell_length_c 8.834176
_cell_angle_alpha 102.393366
_cell_angle_beta 123.679412
_cell_angle_gamma 120.876528
_cell_volume 489.965124
_symmetry_space_group_name_H-M "P -1"
_symmetry_group_IT_number 2
_symmetry_cell_setting 'triclinic'
loop_
_space_group_symop_operation_xyz
x,y,z
-x,-y,-z
loop_
_atom_site_type_symbol
_atom_site_label
_atom_site_fract_x
_atom_site_fract_y
_atom_site_fract_z
Si Si1 0.432414 0.602569 0.093512
Si Si2 0.654801 0.704137 0.577548
Si Si3 0.933498 0.803109 0.316484
Si Si4 0.212958 0.734014 0.020568
Si Si5 0.853940 0.991955 0.175404
Si Si6 0.310324 0.737343 0.412446
Si Si7 0.274266 0.740089 0.725282
O O1 0.556495 0.625691 0.326134
O O2 0.640894 0.686807 0.123115
O O3 0.148346 0.380439 0.832721
O O4 0.406319 0.731807 0.126251
O O5 0.500000 0.500000 0.500000
O O6 0.551370 0.780666 0.577153
O O7 0.963860 0.855689 0.810962
O O8 0.072666 0.899709 0.588857
O O9 0.007538 0.948327 0.278308
O O10 0.250415 0.805397 0.886416
O O11 0.926251 0.503577 0.793787
O O12 0.275721 0.802242 0.255897
O O13 0.544322 0.820834 0.919290
O O14 0.309105 0.809366 0.591954
O O15 0.000000 0.500000 0.500000
#
# Coordination Sequence:
#
# PCOD9095306 Si02
#       7
#     2   2   2   2   2   2   2
#     4   9  17  33  57  85 114 159 195 242 303 353
#     4  10  22  36  53  85 125 158 195 253 304 351
#     4   9  18  31  56  90 116 145 201 252 296 352
#     4   9  17  36  59  83 115 154 210 233 290 368
#     4  10  20  35  56  90 120 154 207 245 293 372
#     4   9  20  34  57  87 115 159 198 242 297 353
#     4  10  20  35  60  89 113 159 204 242 297 358
#
# _framework density 28.573463
#
# number of rings (size 3 to 8) (size 9 to 14) (size 15 to 20)
#    0.000    2.571    1.429    0.000    4.000    1.714 
#    0.000    0.000    0.000   14.571    0.000    0.000 
#    0.000    0.000    0.000    0.000    0.000    0.000 
#
# Total GULP energy -77961.920008 kJ/mol
# GULP energy per Si atom -5568.708572 kJ/mol
# Density = 2.850843 g / cm^3
# Si number density = 28.573463 Si / 1000 Ang^3
#
#
#
# Elastic Constant Matrix: (Units=GPa)
#
#
# Indices 1 2 3 4 5 6 
#
# 1 109.6776 32.3844 47.4519 -6.1060 14.8343 38.0052
# 2 32.3844 93.8705 38.4915 -26.4071 0.2892 42.3822
# 3 47.4519 38.4915 181.1650 4.3947 6.8334 24.2686
# 4 -6.1060 -26.4071 4.3947 40.3768 15.6504 -0.6586
# 5 14.8343 0.2892 6.8334 15.6504 64.4067 6.5649
# 6 38.0052 42.3822 24.2686 -0.6586 6.5649 44.2364
#
#
#
# Elastic Compliance Matrix: (Units=1/GPa)
#
#
# Indices 1 2 3 4 5 6 
#
# 1 0.015160 0.004960 -0.002985 0.006881 -0.003284 -0.015549
# 2 0.004960 0.030573 -0.004123 0.021878 -0.003048 -0.030513
# 3 -0.002985 -0.004123 0.006908 -0.004136 0.000718 0.002557
# 4 0.006881 0.021878 -0.004136 0.043929 -0.009623 -0.022521
# 5 -0.003284 -0.003048 0.000718 -0.009623 0.018305 0.002489
# 6 -0.015549 -0.030513 0.002557 -0.022521 0.002489 0.063091
#
#
# Mechanical properties :
#
#
# Convention : Reuss Voigt Hill
#
# Bulk Modulus (GPa) = 20.68444 69.04097 44.86270
# Shear Modulus (GPa) = 25.20459 47.56299 36.38379
#
# Velocity S-wave (km/s) = 2.97324 4.08436 3.57226
# Velocity P-wave (km/s) = 4.36367 6.81599 5.72273
#
# Compressibility (1/GPa) = 0.04834552
#
# Stress axis : x y z
#
# Youngs Moduli (GPa) = 65.96403 32.70885 144.75023
#
# Poissons Ratio (x) = -0.16224 0.43203
# Poissons Ratio (y) = -0.32719 0.59683
# Poissons Ratio (z) = 0.19688 0.13487
#
# Static dielectric constant tensor:
#      x y z
#    x 2.324360 -0.347280 -0.060260 
#    y -0.347280 6.959300 0.731390 
#    z -0.060260 0.731390 2.345130 
# 
# From -- ./inp_files/185030.got.cif
#   From: 2010.05.17/outbox.cif.g08.bks.cpg/sg2_93_cif.got.tgz:185030.got - 2010.06.03 11:33:40.
