data_PCOD9095349
_publ_section_title
;
Structure prediction by ZEFSAII (Michael W. Deem and Ramdas Pophale) SiO2 
 PCOD9095349
Probable space group: P -1
;
_chemical_formula_sum "Si O2"
_cell_formula_units_Z 16
_cell_length_a 9.190562
_cell_length_b 5.803411
_cell_length_c 18.402044
_cell_angle_alpha 127.094144
_cell_angle_beta 74.871087
_cell_angle_gamma 120.842484
_cell_volume 670.506545
_symmetry_space_group_name_H-M "P -1"
_symmetry_group_IT_number 2
_symmetry_cell_setting 'triclinic'
loop_
_space_group_symop_operation_xyz
x,y,z
-x,-y,-z
loop_
_atom_site_type_symbol
_atom_site_label
_atom_site_fract_x
_atom_site_fract_y
_atom_site_fract_z
Si Si1 0.200972 0.296877 0.627992
Si Si2 0.436692 0.689435 0.789321
Si Si3 0.333468 0.928281 0.290460
Si Si4 0.106187 0.257138 0.363279
Si Si5 0.746682 0.915897 0.074339
Si Si6 0.990117 0.280737 0.232199
Si Si7 0.641313 0.014947 0.540292
Si Si8 0.550860 0.708420 0.928416
O O1 0.334828 0.383269 0.693118
O O2 0.134608 0.569231 0.693645
O O3 0.298307 0.258014 0.538039
O O4 0.037343 0.956817 0.601808
O O5 0.549328 0.653637 0.831809
O O6 0.545457 0.987852 0.777997
O O7 0.300166 0.785128 0.860491
O O8 0.415368 0.979763 0.368801
O O9 0.165655 0.586009 0.244306
O O10 0.265128 0.193251 0.343921
O O11 0.185783 0.644056 0.425975
O O12 0.029385 0.126616 0.268622
O O13 0.601802 0.604111 0.074813
O O14 0.908758 0.043723 0.129659
O O15 0.720554 0.806269 0.972617
O O16 0.500000 0.000000 0.500000
O O17 0.500000 0.000000 0.000000
#
# Coordination Sequence:
#
# PCOD9095349 Si02
#       8
#     2   2   2   2   2   2   2   2
#     4  10  21  36  56  81 107 145 193 233 271 326
#     4  10  20  35  57  82 112 145 181 228 279 327
#     4  10  23  39  54  81 115 146 185 230 277 333
#     4  10  21  37  57  78 109 150 189 232 276 323
#     4   9  18  35  60  84 109 141 184 226 269 328
#     4   9  20  37  57  81 110 147 186 227 274 327
#     4  11  24  38  55  80 112 149 188 233 283 327
#     4   9  18  33  57  87 112 139 178 226 273 324
#
# _framework density 23.862555
#
# number of rings (size 3 to 8) (size 9 to 14) (size 15 to 20)
#    0.000    2.250    0.000    1.875    0.000   13.500 
#    0.000    0.625    0.000    7.500    0.000    0.000 
#    0.000    0.000    0.000    0.000    0.000    0.000 
#
# Total GULP energy -89363.723665 kJ/mol
# GULP energy per Si atom -5585.232729 kJ/mol
# Density = 2.380824 g / cm^3
# Si number density = 23.862555 Si / 1000 Ang^3
#
#
#
# Elastic Constant Matrix: (Units=GPa)
#
#
# Indices 1 2 3 4 5 6 
#
# 1 78.2870 7.2957 44.4028 -9.6237 27.2061 -3.3832
# 2 7.2957 43.8861 6.4979 4.2365 4.7142 1.1551
# 3 44.4028 6.4979 96.6272 -4.7282 32.8928 -3.3018
# 4 -9.6237 4.2365 -4.7282 36.1762 -5.4569 8.9056
# 5 27.2061 4.7142 32.8928 -5.4569 50.0186 -3.6266
# 6 -3.3832 1.1551 -3.3018 8.9056 -3.6266 29.8942
#
#
#
# Elastic Compliance Matrix: (Units=1/GPa)
#
#
# Indices 1 2 3 4 5 6 
#
# 1 0.019024 -0.001950 -0.006584 0.003669 -0.005452 -0.000253
# 2 -0.001950 0.023655 -0.000439 -0.003464 -0.001281 -0.000307
# 3 -0.006584 -0.000439 0.015675 -0.000770 -0.006739 0.000415
# 4 0.003669 -0.003464 -0.000770 0.031301 0.001624 -0.008664
# 5 -0.005452 -0.001281 -0.006739 0.001624 0.027802 0.001577
# 6 -0.000253 -0.000307 0.000415 -0.008664 0.001577 0.036253
#
#
# Mechanical properties :
#
#
# Convention : Reuss Voigt Hill
#
# Bulk Modulus (GPa) = 24.74698 37.24370 30.99534
# Shear Modulus (GPa) = 27.00866 33.92474 30.46670
#
# Velocity S-wave (km/s) = 3.36794 3.77460 3.57705
# Velocity P-wave (km/s) = 5.05145 5.88543 5.48431
#
# Compressibility (1/GPa) = 0.04040896
#
# Stress axis : x y z
#
# Youngs Moduli (GPa) = 52.56387 42.27371 63.79672
#
# Poissons Ratio (x) = 0.08242 0.42006
# Poissons Ratio (y) = 0.10248 0.02800
# Poissons Ratio (z) = 0.34610 0.01856
#
# Static dielectric constant tensor:
#      x y z
#    x 1.930610 -0.012210 -0.000570 
#    y -0.012210 1.897830 -0.017300 
#    z -0.000570 -0.017300 1.981100 
# 
# From -- ./inp_files/43341.got.cif
#   From: 2010.05.17/outbox.cif.g08.bks.cpg/sg2_22_cif.got.tgz:43341.got - 2010.06.03 11:33:40.
