data_PCOD9095530
_publ_section_title
;
Structure prediction by ZEFSAII (Michael W. Deem and Ramdas Pophale) SiO2 
 PCOD9095530
Probable space group: P -1
;
_chemical_formula_sum "Si O2"
_cell_formula_units_Z 14
_cell_length_a 8.040368
_cell_length_b 6.907506
_cell_length_c 21.892858
_cell_angle_alpha 109.937890
_cell_angle_beta 136.366632
_cell_angle_gamma 99.189966
_cell_volume 614.644599
_symmetry_space_group_name_H-M "P -1"
_symmetry_group_IT_number 2
_symmetry_cell_setting 'triclinic'
loop_
_space_group_symop_operation_xyz
x,y,z
-x,-y,-z
loop_
_atom_site_type_symbol
_atom_site_label
_atom_site_fract_x
_atom_site_fract_y
_atom_site_fract_z
Si Si1 0.312011 0.902674 0.003384
Si Si2 0.865844 0.596604 0.409721
Si Si3 0.167938 0.117785 0.190756
Si Si4 0.160310 0.329702 0.459638
Si Si5 0.684783 0.467358 0.214590
Si Si6 0.874332 0.650784 0.678866
Si Si7 0.225051 0.483088 0.016327
O O1 0.963946 0.785022 0.881941
O O2 0.330608 0.688640 0.012972
O O3 0.500000 0.000000 0.000000
O O4 0.441425 0.142673 0.111508
O O5 0.536868 0.308140 0.306134
O O6 0.933389 0.771777 0.506247
O O7 0.791287 0.625205 0.323991
O O8 0.129883 0.563697 0.474686
O O9 0.072307 0.150952 0.234745
O O10 0.988169 0.815176 0.096415
O O11 0.504981 0.430181 0.554451
O O12 0.000524 0.204082 0.338129
O O13 0.516099 0.540848 0.135186
O O14 0.983522 0.491520 0.278116
O O15 0.000000 0.500000 0.000000
#
# Coordination Sequence:
#
# PCOD9095530 Si02
#       7
#     2   2   2   2   2   2   2
#     4  11  22  39  57  88 126 155 194 244 290 351
#     4   9  16  31  54  88 116 159 196 243 292 362
#     4  10  20  35  58  85 124 154 199 239 294 352
#     4   8  16  28  56  86 115 151 202 236 308 350
#     4  10  20  35  58  85 124 154 199 239 294 352
#     4   9  16  33  52  90 118 153 196 249 296 356
#     4  11  24  38  58  90 123 163 199 240 288 356
#
# _framework density 22.777391999999999
#
# number of rings (size 3 to 8) (size 9 to 14) (size 15 to 20)
#    0.000    2.286    1.429    1.714    0.000    4.571 
#    0.000    0.000    0.000    0.000    0.000  290.000 
#    0.000    0.000    0.000    0.000    0.000    0.000 
#
# Total GULP energy -78008.805454 kJ/mol
# GULP energy per Si atom -5572.057532 kJ/mol
# Density = 2.272555 g / cm^3
# Si number density = 22.777392 Si / 1000 Ang^3
#
#
#
# Elastic Constant Matrix: (Units=GPa)
#
#
# Indices 1 2 3 4 5 6 
#
# 1 109.5756 37.3691 32.7311 -13.6809 -11.5206 -17.4308
# 2 37.3691 114.7599 46.0913 -30.2066 -0.3319 -12.8138
# 3 32.7311 46.0913 99.4159 -35.6627 1.0284 -24.0827
# 4 -13.6809 -30.2066 -35.6627 30.1172 -9.9431 1.7013
# 5 -11.5206 -0.3319 1.0284 -9.9431 57.0636 -3.1891
# 6 -17.4308 -12.8138 -24.0827 1.7013 -3.1891 22.7310
#
#
#
# Elastic Compliance Matrix: (Units=1/GPa)
#
#
# Indices 1 2 3 4 5 6 
#
# 1 0.012064 -0.001765 0.001374 0.006108 0.004013 0.009818
# 2 -0.001765 0.013391 0.001175 0.014501 0.002603 0.006721
# 3 0.001374 0.001175 0.031204 0.039688 0.008481 0.032995
# 4 0.006108 0.014501 0.039688 0.101653 0.021124 0.050262
# 5 0.004013 0.002603 0.008481 0.021124 0.022724 0.015138
# 6 0.009818 0.006721 0.032995 0.050262 0.015138 0.088629
#
#
# Mechanical properties :
#
#
# Convention : Reuss Voigt Hill
#
# Bulk Modulus (GPa) = 17.17383 61.79271 39.48327
# Shear Modulus (GPa) = 17.39108 35.81968 26.60538
#
# Velocity S-wave (km/s) = 2.76619 3.96990 3.42140
# Velocity P-wave (km/s) = 4.21410 6.94272 5.74282
#
# Compressibility (1/GPa) = 0.05822812
#
# Stress axis : x y z
#
# Youngs Moduli (GPa) = 82.89250 74.67595 32.04764
#
# Poissons Ratio (x) = 0.13178 -0.04403
# Poissons Ratio (y) = 0.14628 -0.03767
# Poissons Ratio (z) = -0.11390 -0.08778
#
# Static dielectric constant tensor:
#      x y z
#    x 1.981310 0.083390 0.001700 
#    y 0.083390 1.864820 -0.017080 
#    z 0.001700 -0.017080 1.918910 
# 
# From -- ./inp_files/36743.got.cif
#   From: 2010.05.17/outbox.cif.g08.bks.cpg/sg2_19_cif.got.tgz:36743.got - 2010.06.03 11:33:40.
