data_PCOD9095364
_publ_section_title
;
Structure prediction by ZEFSAII (Michael W. Deem and Ramdas Pophale) SiO2 
 PCOD9095364
Probable space group: P -1
;
_chemical_formula_sum "Si O2"
_cell_formula_units_Z 16
_cell_length_a 16.351808
_cell_length_b 7.082135
_cell_length_c 9.073858
_cell_angle_alpha 108.151556
_cell_angle_beta 69.078416
_cell_angle_gamma 138.487726
_cell_volume 648.880194
_symmetry_space_group_name_H-M "P -1"
_symmetry_group_IT_number 2
_symmetry_cell_setting 'triclinic'
loop_
_space_group_symop_operation_xyz
x,y,z
-x,-y,-z
loop_
_atom_site_type_symbol
_atom_site_label
_atom_site_fract_x
_atom_site_fract_y
_atom_site_fract_z
Si Si1 0.684918 0.166109 0.125452
Si Si2 0.289595 0.586648 0.102480
Si Si3 0.336647 0.837934 0.426511
Si Si4 0.000732 0.847724 0.822784
Si Si5 0.066818 0.546539 0.819004
Si Si6 0.520940 0.303106 0.619355
Si Si7 0.034113 0.341301 0.502471
Si Si8 0.364806 0.295302 0.116597
O O1 0.809884 0.372342 0.192134
O O2 0.571544 0.919373 0.242997
O O3 0.661951 0.316314 0.071805
O O4 0.703266 0.015782 0.960664
O O5 0.362573 0.833033 0.237593
O O6 0.148130 0.438588 0.152744
O O7 0.295195 0.372776 0.110469
O O8 0.382133 0.720720 0.463879
O O9 0.186293 0.594703 0.477455
O O10 0.424142 0.156484 0.510763
O O11 0.019007 0.900601 0.644225
O O12 0.087127 0.799331 0.796739
O O13 0.000000 0.000000 0.000000
O O14 0.990100 0.288475 0.688013
O O15 0.000000 0.500000 0.000000
O O16 0.602857 0.613415 0.711316
O O17 0.000000 0.500000 0.500000
O O18 0.500000 0.500000 0.000000
#
# Coordination Sequence:
#
# PCOD9095364 Si02
#       8
#     2   2   2   2   2   2   2   2
#     4  11  20  35  59  84 117 154 193 245 292 346
#     4  10  20  35  57  83 114 149 196 238 293 353
#     4   9  17  33  55  81 110 149 195 234 290 357
#     4  10  20  36  58  85 114 153 198 242 293 355
#     4  11  20  35  57  86 117 151 202 241 292 356
#     4   9  18  33  56  82 110 150 195 237 291 348
#     4   9  19  34  57  84 113 155 193 239 298 354
#     4   9  20  34  53  84 112 146 193 242 291 344
#
# _framework density 24.657865999999999
#
# number of rings (size 3 to 8) (size 9 to 14) (size 15 to 20)
#    0.000    2.250    2.500    0.750    0.000    4.500 
#    0.000    1.250    0.000    4.500    0.000    0.000 
#    0.000    0.000    0.000    0.000    0.000    0.000 
#
# Total GULP energy -89133.296100 kJ/mol
# GULP energy per Si atom -5570.831006 kJ/mol
# Density = 2.460174 g / cm^3
# Si number density = 24.657866 Si / 1000 Ang^3
#
#
#
# Elastic Constant Matrix: (Units=GPa)
#
#
# Indices 1 2 3 4 5 6 
#
# 1 82.3858 16.2659 21.4178 1.0211 9.4645 9.8329
# 2 16.2659 26.4666 24.3711 21.6697 10.4156 4.0817
# 3 21.4178 24.3711 167.2036 48.2694 21.3013 2.1950
# 4 1.0211 21.6697 48.2694 47.7144 12.3411 -6.2990
# 5 9.4645 10.4156 21.3013 12.3411 39.4574 4.8869
# 6 9.8329 4.0817 2.1950 -6.2990 4.8869 35.1768
#
#
#
# Elastic Compliance Matrix: (Units=1/GPa)
#
#
# Indices 1 2 3 4 5 6 
#
# 1 0.015591 -0.013689 -0.002228 0.008384 -0.001431 -0.000931
# 2 -0.013689 0.079252 0.001956 -0.037787 -0.005450 -0.011501
# 3 -0.002228 0.001956 0.009032 -0.009793 -0.001584 -0.001701
# 4 0.008384 -0.037787 -0.009793 0.050518 -0.004069 0.012263
# 5 -0.001431 -0.005450 -0.001584 -0.004069 0.029715 -0.003726
# 6 -0.000931 -0.011501 -0.001701 0.012263 -0.003726 0.032842
#
#
# Mechanical properties :
#
#
# Convention : Reuss Voigt Hill
#
# Bulk Modulus (GPa) = 13.16581 44.46283 28.81432
# Shear Modulus (GPa) = 18.50550 38.73648 28.62099
#
# Velocity S-wave (km/s) = 2.74248 3.96783 3.41064
# Velocity P-wave (km/s) = 3.92164 6.25001 5.21737
#
# Compressibility (1/GPa) = 0.07595429
#
# Stress axis : x y z
#
# Youngs Moduli (GPa) = 64.13810 12.61795 110.71491
#
# Poissons Ratio (x) = 0.17272 0.24665
# Poissons Ratio (y) = 0.87796 -0.21653
# Poissons Ratio (z) = 0.14289 -0.02468
#
# Static dielectric constant tensor:
#      x y z
#    x 1.959520 -0.063650 0.013310 
#    y -0.063650 1.914680 0.027340 
#    z 0.013310 0.027340 2.142820 
# 
# From -- ./inp_files/215797.got.cif
#   From: 2010.05.17/outbox.cif.g08.bks.cpg/sg2_108_cif.got.tgz:215797.got - 2010.06.03 11:33:40.
