data_PCOD9095795
_publ_section_title
;
Structure prediction by ZEFSAII (Michael W. Deem and Ramdas Pophale) SiO2 
 PCOD9095795
Probable space group: P -1
;
_chemical_formula_sum "Si O2"
_cell_formula_units_Z 16
_cell_length_a 8.699293
_cell_length_b 8.882038
_cell_length_c 11.561618
_cell_angle_alpha 76.366264
_cell_angle_beta 89.440005
_cell_angle_gamma 65.380636
_cell_volume 785.281653
_symmetry_space_group_name_H-M "P -1"
_symmetry_group_IT_number 2
_symmetry_cell_setting 'triclinic'
loop_
_space_group_symop_operation_xyz
x,y,z
-x,-y,-z
loop_
_atom_site_type_symbol
_atom_site_label
_atom_site_fract_x
_atom_site_fract_y
_atom_site_fract_z
Si Si1 0.512317 0.386554 0.351410
Si Si2 0.997318 0.334008 0.898441
Si Si3 0.270050 0.446138 0.546125
Si Si4 0.468465 0.604361 0.102444
Si Si5 0.148557 0.589184 0.872839
Si Si6 0.967429 0.724977 0.356161
Si Si7 0.804185 0.029096 0.022504
Si Si8 0.193155 0.895255 0.725645
O O1 0.390767 0.362745 0.450701
O O2 0.621600 0.479430 0.391854
O O3 0.418358 0.505399 0.221395
O O4 0.641226 0.206673 0.331584
O O5 0.019063 0.508379 0.864709
O O6 0.967957 0.296591 0.773391
O O7 0.168618 0.165639 0.965603
O O8 0.866156 0.361651 0.999441
O O9 0.192664 0.325496 0.627682
O O10 0.108542 0.602934 0.464355
O O11 0.666881 0.556594 0.134287
O O12 0.500000 0.500000 0.000000
O O13 0.341000 0.805389 0.066907
O O14 0.112830 0.759881 0.770518
O O15 0.918707 0.919609 0.356417
O O16 0.763859 0.069425 0.150673
O O17 0.000000 0.000000 0.000000
#
# Coordination Sequence:
#
# PCOD9095795 Si02
#       8
#     2   2   2   2   2   2   2   2
#     4  10  22  39  61  84 119 155 195 245 290 346
#     4  10  21  35  59  83 127 150 189 246 287 360
#     4  10  23  41  58  86 115 159 204 240 288 339
#     4  11  20  34  62  87 117 153 188 238 298 360
#     4  10  20  36  54  91 121 155 187 237 306 350
#     4  10  22  37  62  84 112 160 200 244 285 344
#     4  11  20  34  56  91 116 149 192 231 293 361
#     4  10  20  35  60  85 117 150 192 247 286 350
#
# _framework density 20.374855
#
# number of rings (size 3 to 8) (size 9 to 14) (size 15 to 20)
#    0.000    1.750    3.750    1.500    5.250    1.500 
#    0.000    0.000    0.000    1.500    0.000    0.000 
#    0.000    0.000    0.000    0.000    0.000    0.000 
#
# Total GULP energy -89151.935153 kJ/mol
# GULP energy per Si atom -5571.995947 kJ/mol
# Density = 2.032848 g / cm^3
# Si number density = 20.374855 Si / 1000 Ang^3
#
#
#
# Elastic Constant Matrix: (Units=GPa)
#
#
# Indices 1 2 3 4 5 6 
#
# 1 61.9232 37.8048 14.4622 -2.6495 -26.9896 -7.6540
# 2 37.8048 149.6125 36.8336 -14.3829 -17.4065 -16.2610
# 3 14.4622 36.8336 77.0536 5.9364 -19.4779 -16.7549
# 4 -2.6495 -14.3829 5.9364 33.0122 -6.9297 -9.2890
# 5 -26.9896 -17.4065 -19.4779 -6.9297 26.9767 8.8374
# 6 -7.6540 -16.2610 -16.7549 -9.2890 8.8374 25.5746
#
#
#
# Elastic Compliance Matrix: (Units=1/GPa)
#
#
# Indices 1 2 3 4 5 6 
#
# 1 0.034123 -0.004760 0.004509 0.007551 0.036133 0.000397
# 2 -0.004760 0.009654 -0.003370 0.005576 -0.001148 0.004928
# 3 0.004509 -0.003370 0.018653 0.000327 0.013652 0.006828
# 4 0.007551 0.005576 0.000327 0.041076 0.017005 0.015062
# 5 0.036133 -0.001148 0.013652 0.017005 0.088462 -0.005363
# 6 0.000397 0.004928 0.006828 0.015062 -0.005363 0.054151
#
#
# Mechanical properties :
#
#
# Convention : Reuss Voigt Hill
#
# Bulk Modulus (GPa) = 18.11929 51.86561 34.99245
# Shear Modulus (GPa) = 18.39885 30.41196 24.40541
#
# Velocity S-wave (km/s) = 3.00828 3.86764 3.46471
# Velocity P-wave (km/s) = 4.58024 6.74209 5.76344
#
# Compressibility (1/GPa) = 0.05518981
#
# Stress axis : x y z
#
# Youngs Moduli (GPa) = 29.30603 103.57985 53.61034
#
# Poissons Ratio (x) = 0.49299 -0.24174
# Poissons Ratio (y) = 0.13948 0.18066
# Poissons Ratio (z) = -0.13214 0.34904
#
# Static dielectric constant tensor:
#      x y z
#    x 1.782950 0.008270 0.002150 
#    y 0.008270 1.750020 -0.007710 
#    z 0.002150 -0.007710 1.768750 
# 
# From -- ./inp_files/378718.got.cif
#   From: 2010.05.17/outbox.cif.g08.bks.cpg/sg2_190_cif.got.tgz:378718.got - 2010.06.03 11:33:40.
