data_PCOD9095369
_publ_section_title
;
Structure prediction by ZEFSAII (Michael W. Deem and Ramdas Pophale) SiO2 
 PCOD9095369
Probable space group: P -1
;
_chemical_formula_sum "Si O2"
_cell_formula_units_Z 14
_cell_length_a 11.032556
_cell_length_b 8.664488
_cell_length_c 10.359577
_cell_angle_alpha 138.702240
_cell_angle_beta 116.051224
_cell_angle_gamma 69.662942
_cell_volume 586.902650
_symmetry_space_group_name_H-M "P -1"
_symmetry_group_IT_number 2
_symmetry_cell_setting 'triclinic'
loop_
_space_group_symop_operation_xyz
x,y,z
-x,-y,-z
loop_
_atom_site_type_symbol
_atom_site_label
_atom_site_fract_x
_atom_site_fract_y
_atom_site_fract_z
Si Si1 0.364123 0.158213 0.754752
Si Si2 0.796458 0.055404 0.219844
Si Si3 0.463990 0.741870 0.872187
Si Si4 0.913493 0.435477 0.634765
Si Si5 0.679109 0.343491 0.675158
Si Si6 0.789703 0.403762 0.051828
Si Si7 0.848985 0.917427 0.883196
O O1 0.259237 0.088863 0.777049
O O2 0.072534 0.802184 0.591002
O O3 0.378261 0.917710 0.531676
O O4 0.300101 0.383425 0.794956
O O5 0.688559 0.256595 0.247956
O O6 0.506087 0.760493 0.053627
O O7 0.814129 0.892906 0.002521
O O8 0.557547 0.536315 0.725610
O O9 0.500000 0.000000 0.000000
O O10 0.799485 0.372211 0.646516
O O11 0.852738 0.658109 0.666589
O O12 0.055456 0.516181 0.809173
O O13 0.744088 0.383790 0.870100
O O14 0.771305 0.142752 0.932910
O O15 0.000000 0.000000 0.000000
#
# Coordination Sequence:
#
# PCOD9095369 Si02
#       7
#     2   2   2   2   2   2   2
#     4   9  20  36  58  82 109 141 176 224 271 316
#     4  10  21  36  57  82 106 140 182 222 268 315
#     4   9  18  34  56  82 110 136 177 227 265 315
#     4  10  21  35  57  82 108 142 180 222 267 320
#     4  10  20  35  57  84 108 141 179 219 273 317
#     4  10  21  35  53  80 112 144 177 221 267 319
#     4  10  22  37  54  77 110 147 181 218 264 320
#
# _framework density 23.854042
#
# number of rings (size 3 to 8) (size 9 to 14) (size 15 to 20)
#    0.000    2.286    0.000    3.000    0.000   15.429 
#    0.000    2.857    0.000    5.143    0.000    0.000 
#    0.000    0.000    0.000    0.000    0.000    0.000 
#
# Total GULP energy -78122.228449 kJ/mol
# GULP energy per Si atom -5580.159175 kJ/mol
# Density = 2.379975 g / cm^3
# Si number density = 23.854042 Si / 1000 Ang^3
#
#
#
# Elastic Constant Matrix: (Units=GPa)
#
#
# Indices 1 2 3 4 5 6 
#
# 1 53.0520 1.3737 3.1077 4.4700 1.8206 -9.7070
# 2 1.3737 77.5464 27.1972 25.2006 -1.5518 -15.5345
# 3 3.1077 27.1972 101.7083 26.3474 13.0043 -9.6439
# 4 4.4700 25.2006 26.3474 36.7958 -6.2066 -3.5283
# 5 1.8206 -1.5518 13.0043 -6.2066 24.9374 10.1464
# 6 -9.7070 -15.5345 -9.6439 -3.5283 10.1464 25.7185
#
#
#
# Elastic Compliance Matrix: (Units=1/GPa)
#
#
# Indices 1 2 3 4 5 6 
#
# 1 0.022506 0.004035 0.003359 -0.008359 -0.011576 0.015612
# 2 0.004035 0.020501 0.001284 -0.015610 -0.010192 0.016267
# 3 0.003359 0.001284 0.016949 -0.015212 -0.018294 0.013529
# 4 -0.008359 -0.015610 -0.015212 0.052639 0.029989 -0.022897
# 5 -0.011576 -0.010192 -0.018294 0.029989 0.074707 -0.042745
# 6 0.015612 0.016267 0.013529 -0.022897 -0.042745 0.073396
#
#
# Mechanical properties :
#
#
# Convention : Reuss Voigt Hill
#
# Bulk Modulus (GPa) = 12.93448 32.85154 22.89301
# Shear Modulus (GPa) = 18.57957 30.86554 24.72256
#
# Velocity S-wave (km/s) = 2.79388 3.60103 3.22282
# Velocity P-wave (km/s) = 3.98018 5.57599 4.84425
#
# Compressibility (1/GPa) = 0.07731271
#
# Stress axis : x y z
#
# Youngs Moduli (GPa) = 44.43212 48.77731 59.00171
#
# Poissons Ratio (x) = -0.19684 -0.19818
# Poissons Ratio (y) = -0.17930 -0.07575
# Poissons Ratio (z) = -0.14924 -0.06262
#
# Static dielectric constant tensor:
#      x y z
#    x 1.945450 0.002830 -0.028170 
#    y 0.002830 1.955610 -0.005170 
#    z -0.028170 -0.005170 1.958850 
# 
# From -- ./inp_files/418637.got.cif
#   From: 2010.05.17/outbox.cif.g08.bks.cpg/sg2_210_cif.got.tgz:418637.got - 2010.06.03 11:33:40.
