data_PCOD9095986
_publ_section_title
;
Structure prediction by ZEFSAII (Michael W. Deem and Ramdas Pophale) SiO2 
 PCOD9095986
Probable space group: P -1
;
_chemical_formula_sum "Si O2"
_cell_formula_units_Z 14
_cell_length_a 8.095927
_cell_length_b 6.825571
_cell_length_c 14.416717
_cell_angle_alpha 66.714789
_cell_angle_beta 118.122658
_cell_angle_gamma 95.006460
_cell_volume 640.533108
_symmetry_space_group_name_H-M "P -1"
_symmetry_group_IT_number 2
_symmetry_cell_setting 'triclinic'
loop_
_space_group_symop_operation_xyz
x,y,z
-x,-y,-z
loop_
_atom_site_type_symbol
_atom_site_label
_atom_site_fract_x
_atom_site_fract_y
_atom_site_fract_z
Si Si1 0.974226 0.636536 0.562976
Si Si2 0.189759 0.551983 0.989240
Si Si3 0.777165 0.964594 0.046161
Si Si4 0.439657 0.134116 0.812501
Si Si5 0.021689 0.577469 0.203582
Si Si6 0.585595 0.580769 0.757758
Si Si7 0.289821 0.956208 0.622686
O O1 0.978495 0.470852 0.679490
O O2 0.000000 0.500000 0.500000
O O3 0.135876 0.791742 0.595448
O O4 0.786438 0.810854 0.482785
O O5 0.154243 0.505657 0.881657
O O6 0.202880 0.799791 0.958539
O O7 0.361998 0.433187 0.116039
O O8 0.000000 0.500000 0.000000
O O9 0.668840 0.856875 0.120146
O O10 0.980402 0.827002 0.117816
O O11 0.642634 0.998679 0.914882
O O12 0.472036 0.376333 0.746870
O O13 0.328058 0.016505 0.728156
O O14 0.217940 0.467991 0.235254
O O15 0.477984 0.813430 0.663084
#
# Coordination Sequence:
#
# PCOD9095986 Si02
#       7
#     2   2   2   2   2   2   2
#     4  11  25  43  63  85 112 155 208 252 290 344
#     4   9  20  36  57  92 126 154 190 231 291 358
#     4  10  20  35  61  90 122 159 194 239 293 351
#     4  10  21  38  60  90 121 156 199 241 293 353
#     4  11  22  38  61  89 122 158 197 239 294 354
#     4  10  22  37  60  92 123 154 190 241 298 358
#     4  11  22  41  63  81 116 156 195 252 299 337
#
# _framework density 21.856794000000001
#
# number of rings (size 3 to 8) (size 9 to 14) (size 15 to 20)
#    0.000    1.714    0.000    4.286    0.000    9.143 
#    0.000    8.571    0.000    0.000    0.000    0.000 
#    0.000    0.000    0.000    0.000    0.000    0.000 
#
# Total GULP energy -78151.529091 kJ/mol
# GULP energy per Si atom -5582.252078 kJ/mol
# Density = 2.180705 g / cm^3
# Si number density = 21.856794 Si / 1000 Ang^3
#
#
#
# Elastic Constant Matrix: (Units=GPa)
#
#
# Indices 1 2 3 4 5 6 
#
# 1 43.0941 27.2221 26.8974 -3.8530 15.9265 -12.1122
# 2 27.2221 122.6865 58.7994 11.4474 -2.2489 -7.7165
# 3 26.8974 58.7994 131.3221 -4.5708 9.9574 -19.1792
# 4 -3.8530 11.4474 -4.5708 53.7730 -10.9314 14.0696
# 5 15.9265 -2.2489 9.9574 -10.9314 22.2539 -7.7385
# 6 -12.1122 -7.7165 -19.1792 14.0696 -7.7385 34.1063
#
#
#
# Elastic Compliance Matrix: (Units=1/GPa)
#
#
# Indices 1 2 3 4 5 6 
#
# 1 0.041970 -0.008278 -0.001808 -0.003071 -0.029263 0.006643
# 2 -0.008278 0.012534 -0.004615 -0.001967 0.008287 -0.000007
# 3 -0.001808 -0.004615 0.010795 0.000282 -0.002584 0.003682
# 4 -0.003071 -0.001967 0.000282 0.023155 0.010256 -0.008602
# 5 -0.029263 0.008287 -0.002584 0.010256 0.073794 0.002542
# 6 0.006643 -0.000007 0.003682 -0.008602 0.002542 0.037873
#
#
# Mechanical properties :
#
#
# Convention : Reuss Voigt Hill
#
# Bulk Modulus (GPa) = 27.85659 58.10452 42.98055
# Shear Modulus (GPa) = 20.70497 34.30556 27.50527
#
# Velocity S-wave (km/s) = 3.08117 3.96607 3.55129
# Velocity P-wave (km/s) = 5.04290 6.90035 6.04341
#
# Compressibility (1/GPa) = 0.03589815
#
# Stress axis : x y z
#
# Youngs Moduli (GPa) = 23.82663 79.78143 92.63789
#
# Poissons Ratio (x) = 0.66044 0.16746
# Poissons Ratio (y) = 0.19724 0.42748
# Poissons Ratio (z) = 0.04307 0.36815
#
# Static dielectric constant tensor:
#      x y z
#    x 1.859460 -0.042620 0.058200 
#    y -0.042620 1.818260 -0.007370 
#    z 0.058200 -0.007370 1.835520 
# 
# From -- ./inp_files/46704.got.cif
#   From: 2010.05.17/outbox.cif.g08.bks.cpg/sg2_24_cif.got.tgz:46704.got - 2010.06.03 11:33:40.
