data_PCOD9095555
_publ_section_title
;
Structure prediction by ZEFSAII (Michael W. Deem and Ramdas Pophale) SiO2 
 PCOD9095555
Probable space group: P -1
;
_chemical_formula_sum "Si O2"
_cell_formula_units_Z 12
_cell_length_a 7.552876
_cell_length_b 9.822984
_cell_length_c 9.616975
_cell_angle_alpha 46.079616
_cell_angle_beta 66.791608
_cell_angle_gamma 86.717898
_cell_volume 446.473773
_symmetry_space_group_name_H-M "P -1"
_symmetry_group_IT_number 2
_symmetry_cell_setting 'triclinic'
loop_
_space_group_symop_operation_xyz
x,y,z
-x,-y,-z
loop_
_atom_site_type_symbol
_atom_site_label
_atom_site_fract_x
_atom_site_fract_y
_atom_site_fract_z
Si Si1 0.246254 0.046155 0.329950
Si Si2 0.206454 0.667515 0.768911
Si Si3 0.377676 0.748320 0.137253
Si Si4 0.086595 0.929669 0.803035
Si Si5 0.602580 0.610887 0.748978
Si Si6 0.726470 0.867751 0.143917
O O1 0.443986 0.136798 0.108920
O O2 0.063316 0.072664 0.277602
O O3 0.282476 0.173395 0.372673
O O4 0.200083 0.813411 0.541836
O O5 0.400079 0.599411 0.734887
O O6 0.237677 0.812611 0.791296
O O7 0.000000 0.500000 0.000000
O O8 0.251555 0.902159 0.075234
O O9 0.281838 0.525327 0.264578
O O10 0.504560 0.745548 0.240872
O O11 0.908394 0.814666 0.049865
O O12 0.224422 0.117611 0.717879
O O13 0.500000 0.500000 0.000000
#
# Coordination Sequence:
#
# PCOD9095555 Si02
#       6
#     2   2   2   2   2   2
#     4  10  21  37  59  90 121 152 194 247 298 349
#     4  12  23  37  60  88 120 154 196 252 301 343
#     4   9  18  37  62  87 118 156 199 235 290 354
#     4  10  20  35  58  87 120 155 192 235 299 355
#     4  10  20  36  59  88 117 150 192 243 297 349
#     4   9  18  34  61  86 118 161 192 234 287 357
#
# _framework density 26.877279999999999
#
# number of rings (size 3 to 8) (size 9 to 14) (size 15 to 20)
#    0.000    2.000    0.000    6.000    0.000    0.000 
#    0.000    0.000    0.000   52.000    0.000    0.000 
#    0.000    0.000    0.000    0.000    0.000    0.000 
#
# Total GULP energy -67048.499097 kJ/mol
# GULP energy per Si atom -5587.374925 kJ/mol
# Density = 2.681611 g / cm^3
# Si number density = 26.877280 Si / 1000 Ang^3
#
#
#
# Elastic Constant Matrix: (Units=GPa)
#
#
# Indices 1 2 3 4 5 6 
#
# 1 90.5045 6.8230 14.6165 10.7248 13.8147 22.5261
# 2 6.8230 120.5347 11.1396 4.1758 17.5376 16.7114
# 3 14.6165 11.1396 83.0368 -18.0874 1.7784 19.7597
# 4 10.7248 4.1758 -18.0874 38.9197 8.0678 4.5964
# 5 13.8147 17.5376 1.7784 8.0678 46.1427 7.4382
# 6 22.5261 16.7114 19.7597 4.5964 7.4382 54.0633
#
#
#
# Elastic Compliance Matrix: (Units=1/GPa)
#
#
# Indices 1 2 3 4 5 6 
#
# 1 0.013259 0.000564 -0.002135 -0.003630 -0.002786 -0.004227
# 2 0.000564 0.009135 -0.000853 -0.000615 -0.003135 -0.002263
# 3 -0.002135 -0.000853 0.015678 0.008652 -0.000304 -0.005271
# 4 -0.003630 -0.000615 0.008652 0.032045 -0.004031 -0.003630
# 5 -0.002786 -0.003135 -0.000304 -0.004031 0.024542 -0.000793
# 6 -0.004227 -0.002263 -0.005271 -0.003630 -0.000793 0.023302
#
#
# Mechanical properties :
#
#
# Convention : Reuss Voigt Hill
#
# Bulk Modulus (GPa) = 30.09853 39.91492 35.00672
# Shear Modulus (GPa) = 37.34627 45.25827 41.30227
#
# Velocity S-wave (km/s) = 3.73166 4.10797 3.92433
# Velocity P-wave (km/s) = 5.45801 6.11421 5.79541
#
# Compressibility (1/GPa) = 0.03322421
#
# Stress axis : x y z
#
# Youngs Moduli (GPa) = 75.42219 109.47472 63.78229
#
# Poissons Ratio (x) = -0.06172 0.13615
# Poissons Ratio (y) = -0.04252 0.05440
# Poissons Ratio (z) = 0.16100 0.09336
#
# Static dielectric constant tensor:
#      x y z
#    x 2.575950 0.007430 -0.136690 
#    y 0.007430 2.185050 0.027900 
#    z -0.136690 0.027900 2.239670 
# 
# From -- ./inp_files/386538.got.cif
#   From: 2010.05.17/outbox.cif.g08.bks.cpg/sg2_194_cif.got.tgz:386538.got - 2010.06.03 11:33:40.
