data_PCOD9095334
_publ_section_title
;
Structure prediction by ZEFSAII (Michael W. Deem and Ramdas Pophale) SiO2 
 PCOD9095334
Probable space group: P -1
;
_chemical_formula_sum "Si O2"
_cell_formula_units_Z 16
_cell_length_a 9.494483
_cell_length_b 6.454563
_cell_length_c 19.873592
_cell_angle_alpha 101.875782
_cell_angle_beta 127.212108
_cell_angle_gamma 53.365507
_cell_volume 755.076722
_symmetry_space_group_name_H-M "P -1"
_symmetry_group_IT_number 2
_symmetry_cell_setting 'triclinic'
loop_
_space_group_symop_operation_xyz
x,y,z
-x,-y,-z
loop_
_atom_site_type_symbol
_atom_site_label
_atom_site_fract_x
_atom_site_fract_y
_atom_site_fract_z
Si Si1 0.429184 0.270333 0.409151
Si Si2 0.691321 0.485959 0.744911
Si Si3 0.562414 0.734792 0.345767
Si Si4 0.443689 0.005432 0.873138
Si Si5 0.647882 0.573557 0.015496
Si Si6 0.210053 0.634768 0.491484
Si Si7 0.743993 0.922688 0.311362
Si Si8 0.896882 0.666005 0.913473
O O1 0.275771 0.494550 0.323200
O O2 0.316239 0.381681 0.455530
O O3 0.653291 0.248481 0.473025
O O4 0.474203 0.001574 0.379586
O O5 0.641067 0.276776 0.728772
O O6 0.856426 0.497354 0.840190
O O7 0.455803 0.771468 0.710900
O O8 0.740135 0.484972 0.427465
O O9 0.674538 0.748909 0.312798
O O10 0.364306 0.228698 0.920424
O O11 0.254701 0.093120 0.769793
O O12 0.657216 0.929301 0.884987
O O13 0.534872 0.739815 0.924763
O O14 0.907329 0.332314 0.060794
O O15 0.500000 0.500000 0.000000
O O16 0.960208 0.839156 0.408264
O O17 0.000000 0.500000 0.000000
#
# Coordination Sequence:
#
# PCOD9095334 Si02
#       8
#     2   2   2   2   2   2   2   2
#     4   9  20  36  55  80 115 154 196 243 293 347
#     4   9  20  37  56  81 115 149 197 240 297 354
#     4  10  20  36  56  83 113 152 202 246 282 361
#     4   9  21  40  57  89 125 154 198 247 300 358
#     4  10  21  39  65  90 119 154 201 248 296 364
#     4  10  20  35  57  80 116 158 193 243 297 343
#     4  10  21  35  57  82 117 152 195 243 294 350
#     4   9  19  38  64  84 120 162 189 242 307 352
#
# _framework density 21.189897999999999
#
# number of rings (size 3 to 8) (size 9 to 14) (size 15 to 20)
#    0.000    2.500    0.000    0.750    1.750    9.000 
#    0.000   10.000    0.000    0.000    0.000    0.000 
#    0.000    0.000    0.000    0.000    0.000    0.000 
#
# Total GULP energy -89254.093988 kJ/mol
# GULP energy per Si atom -5578.380874 kJ/mol
# Density = 2.114167 g / cm^3
# Si number density = 21.189898 Si / 1000 Ang^3
#
#
#
# Elastic Constant Matrix: (Units=GPa)
#
#
# Indices 1 2 3 4 5 6 
#
# 1 93.9428 20.4495 39.0085 -7.0155 6.0887 2.4319
# 2 20.4495 35.1451 7.2003 -5.6885 8.6175 6.8977
# 3 39.0085 7.2003 122.5673 5.3345 -4.9937 3.2382
# 4 -7.0155 -5.6885 5.3345 13.6850 -6.8040 5.8927
# 5 6.0887 8.6175 -4.9937 -6.8040 36.9017 -0.7547
# 6 2.4319 6.8977 3.2382 5.8927 -0.7547 23.0363
#
#
#
# Elastic Compliance Matrix: (Units=1/GPa)
#
#
# Indices 1 2 3 4 5 6 
#
# 1 0.014397 -0.006121 -0.004510 0.006777 -0.000323 -0.000798
# 2 -0.006121 0.039500 -0.000949 0.017761 -0.005391 -0.015768
# 3 -0.004510 -0.000949 0.009950 -0.006472 0.001140 0.001054
# 4 0.006777 0.017761 -0.006472 0.106615 0.012862 -0.031975
# 5 -0.000323 -0.005391 0.001140 0.012862 0.030921 -0.000789
# 6 -0.000798 -0.015768 0.001054 -0.031975 -0.000789 0.056220
#
#
# Mechanical properties :
#
#
# Convention : Reuss Voigt Hill
#
# Bulk Modulus (GPa) = 24.57609 42.77465 33.67537
# Shear Modulus (GPa) = 16.98802 27.05773 22.02287
#
# Velocity S-wave (km/s) = 2.83451 3.57727 3.22733
# Velocity P-wave (km/s) = 4.72608 6.10677 5.46024
#
# Compressibility (1/GPa) = 0.04068996
#
# Stress axis : x y z
#
# Youngs Moduli (GPa) = 69.45712 25.31634 100.50229
#
# Poissons Ratio (x) = 0.15495 0.45323
# Poissons Ratio (y) = 0.42512 0.09533
# Poissons Ratio (z) = 0.31323 0.02401
#
# Static dielectric constant tensor:
#      x y z
#    x 1.822750 -0.021100 -0.001540 
#    y -0.021100 1.776550 0.004570 
#    z -0.001540 0.004570 1.791620 
# 
# From -- ./inp_files/206654.got.cif
#   From: 2010.05.17/outbox.cif.g08.bks.cpg/sg2_104_cif.got.tgz:206654.got - 2010.06.03 11:33:40.
