data_PCOD9095855
_publ_section_title
;
Structure prediction by ZEFSAII (Michael W. Deem and Ramdas Pophale) SiO2 
 PCOD9095855
Probable space group: P -1
;
_chemical_formula_sum "Si O2"
_cell_formula_units_Z 14
_cell_length_a 9.031410
_cell_length_b 18.220094
_cell_length_c 11.393461
_cell_angle_alpha 24.798421
_cell_angle_beta 96.726978
_cell_angle_gamma 112.827552
_cell_volume 575.405700
_symmetry_space_group_name_H-M "P -1"
_symmetry_group_IT_number 2
_symmetry_cell_setting 'triclinic'
loop_
_space_group_symop_operation_xyz
x,y,z
-x,-y,-z
loop_
_atom_site_type_symbol
_atom_site_label
_atom_site_fract_x
_atom_site_fract_y
_atom_site_fract_z
Si Si1 0.600783 0.806003 0.943896
Si Si2 0.655464 0.349320 0.467916
Si Si3 0.154040 0.776649 0.486960
Si Si4 0.348572 0.265679 0.194478
Si Si5 0.778140 0.583783 0.384723
Si Si6 0.788891 0.672626 0.695709
Si Si7 0.801364 0.011465 0.055940
O O1 0.721793 0.736807 0.113925
O O2 0.368187 0.578089 0.284104
O O3 0.662627 0.869834 0.720775
O O4 0.662979 0.030374 0.690800
O O5 0.811565 0.370330 0.370190
O O6 0.718514 0.412214 0.518676
O O7 0.427177 0.099317 0.787294
O O8 0.651382 0.545623 0.141144
O O9 0.953888 0.655441 0.718802
O O10 0.159352 0.926228 0.167006
O O11 0.188371 0.171778 0.419622
O O12 0.566919 0.412028 0.062443
O O13 0.011449 0.758240 0.190262
O O14 0.790261 0.800917 0.397658
#
# Coordination Sequence:
#
# PCOD9095855 Si02
#       7
#     2   2   2   2   2   2   2
#     4  10  20  35  60  90 116 148 203 244 281 348
#     4  10  23  40  57  89 127 151 188 244 299 349
#     4  12  22  36  60  93 120 150 190 249 301 339
#     4   9  21  42  61  82 116 158 203 239 281 353
#     4  10  20  37  59  88 118 157 192 238 294 345
#     4  10  21  38  64  85 112 159 204 239 284 343
#     4  11  21  38  62  87 122 153 194 242 291 351
#
# _framework density 24.330659000000001
#
# number of rings (size 3 to 8) (size 9 to 14) (size 15 to 20)
#    0.000    1.714    2.857    1.714    2.000    1.714 
#    2.571    0.000    0.000    2.571    0.000    0.000 
#    0.000    0.000    0.000    0.000    0.000    0.000 
#
# Total GULP energy -78226.430369 kJ/mol
# GULP energy per Si atom -5587.602169 kJ/mol
# Density = 2.427528 g / cm^3
# Si number density = 24.330659 Si / 1000 Ang^3
#
#
#
# Elastic Constant Matrix: (Units=GPa)
#
#
# Indices 1 2 3 4 5 6 
#
# 1 88.4512 28.0338 31.0404 -5.6368 -26.3183 -16.6959
# 2 28.0338 137.8217 19.7015 -12.2618 -11.0127 -23.6152
# 3 31.0404 19.7015 33.4600 -8.4867 -20.5751 -0.8354
# 4 -5.6368 -12.2618 -8.4867 34.7307 -3.5449 -4.9779
# 5 -26.3183 -11.0127 -20.5751 -3.5449 32.6260 1.2683
# 6 -16.6959 -23.6152 -0.8354 -4.9779 1.2683 36.7138
#
#
#
# Elastic Compliance Matrix: (Units=1/GPa)
#
#
# Indices 1 2 3 4 5 6 
#
# 1 0.019988 0.000145 -0.013020 0.002193 0.007853 0.008913
# 2 0.000145 0.009254 -0.004148 0.003261 0.000733 0.006341
# 3 -0.013020 -0.004148 0.068836 0.015793 0.033458 -0.006037
# 4 0.002193 0.003261 0.015793 0.036979 0.016540 0.007897
# 5 0.007853 0.000733 0.033458 0.016540 0.059937 0.004976
# 6 0.008913 0.006341 -0.006037 0.007897 0.004976 0.036131
#
#
# Mechanical properties :
#
#
# Convention : Reuss Voigt Hill
#
# Bulk Modulus (GPa) = 15.61675 46.36492 30.99083
# Shear Modulus (GPa) = 17.45115 32.87792 25.16453
#
# Velocity S-wave (km/s) = 2.68106 3.67999 3.21950
# Velocity P-wave (km/s) = 4.00207 6.09540 5.15609
#
# Compressibility (1/GPa) = 0.06403382
#
# Stress axis : x y z
#
# Youngs Moduli (GPa) = 50.03110 108.05759 14.52724
#
# Poissons Ratio (x) = -0.01571 0.18914
# Poissons Ratio (y) = -0.00727 0.06025
# Poissons Ratio (z) = 0.65140 0.44817
#
# Static dielectric constant tensor:
#      x y z
#    x 1.942790 -0.006470 -0.021180 
#    y -0.006470 1.974140 0.023730 
#    z -0.021180 0.023730 1.986680 
# 
# From -- ./inp_files/170167.got.cif
#   From: 2010.05.17/outbox.cif.g08.bks.cpg/sg2_86_cif.got.tgz:170167.got - 2010.06.03 11:33:40.
