data_PCOD9095926
_publ_section_title
;
Structure prediction by ZEFSAII (Michael W. Deem and Ramdas Pophale) SiO2 
 PCOD9095926
Probable space group: P -1
;
_chemical_formula_sum "Si O2"
_cell_formula_units_Z 12
_cell_length_a 8.643563
_cell_length_b 12.214834
_cell_length_c 9.855608
_cell_angle_alpha 93.867832
_cell_angle_beta 63.014682
_cell_angle_gamma 45.702340
_cell_volume 529.612752
_symmetry_space_group_name_H-M "P -1"
_symmetry_group_IT_number 2
_symmetry_cell_setting 'triclinic'
loop_
_space_group_symop_operation_xyz
x,y,z
-x,-y,-z
loop_
_atom_site_type_symbol
_atom_site_label
_atom_site_fract_x
_atom_site_fract_y
_atom_site_fract_z
Si Si1 0.758179 0.672895 0.434772
Si Si2 0.281559 0.574275 0.214365
Si Si3 0.206595 0.031446 0.167380
Si Si4 0.775364 0.739994 0.739595
Si Si5 0.905835 0.957633 0.346870
Si Si6 0.890076 0.182085 0.040555
O O1 0.695403 0.733625 0.623171
O O2 0.455322 0.845294 0.482220
O O3 0.028217 0.615936 0.282262
O O4 0.903496 0.476927 0.362087
O O5 0.530701 0.389426 0.197494
O O6 0.500000 0.500000 0.000000
O O7 0.097821 0.777587 0.351367
O O8 0.236005 0.123145 0.254356
O O9 0.051042 0.003607 0.286665
O O10 0.023899 0.169144 0.118714
O O11 0.530722 0.831876 0.957612
O O12 0.964995 0.869208 0.168142
O O13 0.000000 0.000000 0.000000
#
# Coordination Sequence:
#
# PCOD9095926 Si02
#       6
#     2   2   2   2   2   2
#     4  11  21  36  58  91 112 148 195 243 282 329
#     4  10  21  36  59  83 116 153 192 230 288 347
#     4  10  20  39  59  87 114 156 186 235 288 340
#     4  10  22  35  61  87 118 145 196 240 280 337
#     4  10  20  35  61  83 117 150 191 233 285 344
#     4   9  17  33  59  85 108 151 190 226 276 343
#
# _framework density 22.658062999999999
#
# number of rings (size 3 to 8) (size 9 to 14) (size 15 to 20)
#    0.000    2.000    1.667    3.500    7.000    0.667 
#    0.000    0.833    3.667    4.000    0.000    0.000 
#    0.000    0.000    0.000    0.000    0.000    0.000 
#
# Total GULP energy -66960.387999 kJ/mol
# GULP energy per Si atom -5580.032333 kJ/mol
# Density = 2.260649 g / cm^3
# Si number density = 22.658063 Si / 1000 Ang^3
#
#
#
# Elastic Constant Matrix: (Units=GPa)
#
#
# Indices 1 2 3 4 5 6 
#
# 1 59.0336 23.5558 44.9865 22.5072 -9.5713 14.5953
# 2 23.5558 93.4345 54.3986 43.7963 -13.1518 2.7763
# 3 44.9865 54.3986 118.4240 26.8742 -25.7663 5.6118
# 4 22.5072 43.7963 26.8742 54.0060 -7.2786 -10.6663
# 5 -9.5713 -13.1518 -25.7663 -7.2786 38.5572 6.6250
# 6 14.5953 2.7763 5.6118 -10.6663 6.6250 25.8749
#
#
#
# Elastic Compliance Matrix: (Units=1/GPa)
#
#
# Indices 1 2 3 4 5 6 
#
# 1 0.040542 0.010127 -0.011182 -0.025257 0.007078 -0.033754
# 2 0.010127 0.024931 -0.008371 -0.023116 0.004003 -0.017126
# 3 -0.011182 -0.008371 0.016445 0.004846 0.005549 0.004216
# 4 -0.025257 -0.023116 0.004846 0.052053 -0.007814 0.039134
# 5 0.007078 0.004003 0.005549 -0.007814 0.034321 -0.017634
# 6 -0.033754 -0.017126 0.004216 0.039134 -0.017634 0.079258
#
#
# Mechanical properties :
#
#
# Convention : Reuss Voigt Hill
#
# Bulk Modulus (GPa) = 15.85626 57.41931 36.63779
# Shear Modulus (GPa) = 17.39603 33.55104 25.47353
#
# Velocity S-wave (km/s) = 2.77386 3.85223 3.35663
# Velocity P-wave (km/s) = 4.15600 6.72183 5.58817
#
# Compressibility (1/GPa) = 0.06306658
#
# Stress axis : x y z
#
# Youngs Moduli (GPa) = 24.66588 40.11125 60.80816
#
# Poissons Ratio (x) = -0.40622 0.67995
# Poissons Ratio (y) = -0.24980 0.50903
# Poissons Ratio (z) = 0.27581 0.33577
#
# Static dielectric constant tensor:
#      x y z
#    x 1.865990 -0.045470 0.015480 
#    y -0.045470 1.956350 -0.034140 
#    z 0.015480 -0.034140 1.890000 
# 
# From -- ./inp_files/144410.got.cif
#   From: 2010.05.17/outbox.cif.g08.bks.cpg/sg2_73_cif.got.tgz:144410.got - 2010.06.03 11:33:40.
