data_PCOD9095843
_publ_section_title
;
Structure prediction by ZEFSAII (Michael W. Deem and Ramdas Pophale) SiO2 
 PCOD9095843
Probable space group: P -1
;
_chemical_formula_sum "Si O2"
_cell_formula_units_Z 14
_cell_length_a 9.453120
_cell_length_b 12.019242
_cell_length_c 27.610003
_cell_angle_alpha 152.764494
_cell_angle_beta 29.936026
_cell_angle_gamma 142.569496
_cell_volume 712.610632
_symmetry_space_group_name_H-M "P -1"
_symmetry_group_IT_number 2
_symmetry_cell_setting 'triclinic'
loop_
_space_group_symop_operation_xyz
x,y,z
-x,-y,-z
loop_
_atom_site_type_symbol
_atom_site_label
_atom_site_fract_x
_atom_site_fract_y
_atom_site_fract_z
Si Si1 0.341980 0.289364 0.787657
Si Si2 0.627249 0.826324 0.934449
Si Si3 0.262782 0.881175 0.733216
Si Si4 0.861020 0.384821 0.429824
Si Si5 0.782301 0.055470 0.819873
Si Si6 0.594285 0.933400 0.500445
Si Si7 0.821001 0.932308 0.651455
O O1 0.490920 0.554550 0.856793
O O2 0.029031 0.261973 0.845222
O O3 0.299689 0.131692 0.788204
O O4 0.530604 0.147916 0.639480
O O5 0.966290 0.853439 0.839101
O O6 0.506555 0.902679 0.051310
O O7 0.500000 0.000000 0.000000
O O8 0.239890 0.674988 0.618263
O O9 0.533573 0.879539 0.686329
O O10 0.602874 0.296771 0.508706
O O11 0.941946 0.670058 0.522459
O O12 0.102383 0.202136 0.297605
O O13 0.768070 0.048936 0.764036
O O14 0.500000 0.000000 0.500000
O O15 0.928353 0.906908 0.388973
#
# Coordination Sequence:
#
# PCOD9095843 Si02
#       7
#     2   2   2   2   2   2   2
#     4  10  22  40  62  89 118 150 212 241 284 370
#     4  12  22  40  68  84 114 163 208 242 292 350
#     4  10  24  40  59  93 118 163 193 241 311 341
#     4  10  21  38  61  92 119 156 203 235 295 365
#     4  10  22  38  61  94 113 158 206 245 289 350
#     4  10  20  35  60  89 118 157 190 236 308 339
#     4  12  22  39  61  89 133 146 194 256 295 357
#
# _framework density 19.646072
#
# number of rings (size 3 to 8) (size 9 to 14) (size 15 to 20)
#    0.000    1.714    5.714    2.143    0.000    4.000 
#    0.000    0.714    0.000    0.000    0.000    0.000 
#    0.000    0.000    0.000    0.000    0.000    0.000 
#
# Total GULP energy -78210.356759 kJ/mol
# GULP energy per Si atom -5586.454054 kJ/mol
# Density = 1.960136 g / cm^3
# Si number density = 19.646072 Si / 1000 Ang^3
#
#
#
# Elastic Constant Matrix: (Units=GPa)
#
#
# Indices 1 2 3 4 5 6 
#
# 1 86.5334 27.1567 46.2441 -28.2995 6.1421 13.4481
# 2 27.1567 100.9525 61.0598 -13.8029 11.2788 3.7201
# 3 46.2441 61.0598 67.8283 -34.4210 11.9320 2.4103
# 4 -28.2995 -13.8029 -34.4210 47.3467 -1.5952 1.4876
# 5 6.1421 11.2788 11.9320 -1.5952 18.7568 -11.6171
# 6 13.4481 3.7201 2.4103 1.4876 -11.6171 18.8241
#
#
#
# Elastic Compliance Matrix: (Units=1/GPa)
#
#
# Indices 1 2 3 4 5 6 
#
# 1 0.027008 0.007464 -0.016672 0.006475 -0.022718 -0.033167
# 2 0.007464 0.030184 -0.040432 -0.015963 0.001229 -0.004100
# 3 -0.016672 -0.040432 0.091992 0.044470 -0.035794 -0.017482
# 4 0.006475 -0.015963 0.044470 0.052481 -0.037803 -0.034642
# 5 -0.022718 0.001229 -0.035794 -0.037803 0.152419 0.117622
# 6 -0.033167 -0.004100 -0.017482 -0.034642 0.117622 0.155194
#
#
# Mechanical properties :
#
#
# Convention : Reuss Voigt Hill
#
# Bulk Modulus (GPa) = 20.03829 58.24838 39.14334
# Shear Modulus (GPa) = 7.99753 25.04242 16.51998
#
# Velocity S-wave (km/s) = 2.01981 3.57414 2.90294
# Velocity P-wave (km/s) = 3.95744 6.83709 5.58602
#
# Compressibility (1/GPa) = 0.04990445
#
# Stress axis : x y z
#
# Youngs Moduli (GPa) = 37.02618 33.13034 10.87050
#
# Poissons Ratio (x) = -0.24729 0.18123
# Poissons Ratio (y) = -0.27637 0.43952
# Poissons Ratio (z) = 0.61729 1.33953
#
# Static dielectric constant tensor:
#      x y z
#    x 1.677760 -0.002530 -0.006590 
#    y -0.002530 1.698100 -0.012620 
#    z -0.006590 -0.012620 1.701180 
# 
# From -- ./inp_files/435340.got.cif
#   From: 2010.05.17/outbox.cif.g08.bks.cpg/sg2_218_cif.got.tgz:435340.got - 2010.06.03 11:33:40.
