data_PCOD9095816
_publ_section_title
;
Structure prediction by ZEFSAII (Michael W. Deem and Ramdas Pophale) SiO2 
 PCOD9095816
Probable space group: P -1
;
_chemical_formula_sum "Si O2"
_cell_formula_units_Z 16
_cell_length_a 11.570567
_cell_length_b 12.361974
_cell_length_c 13.477981
_cell_angle_alpha 77.052810
_cell_angle_beta 120.347438
_cell_angle_gamma 50.242886
_cell_volume 723.214869
_symmetry_space_group_name_H-M "P -1"
_symmetry_group_IT_number 2
_symmetry_cell_setting 'triclinic'
loop_
_space_group_symop_operation_xyz
x,y,z
-x,-y,-z
loop_
_atom_site_type_symbol
_atom_site_label
_atom_site_fract_x
_atom_site_fract_y
_atom_site_fract_z
Si Si1 0.641324 0.194932 0.370590
Si Si2 0.075940 0.794549 0.818370
Si Si3 0.368729 0.084309 0.082688
Si Si4 0.813836 0.627916 0.763331
Si Si5 0.879756 0.253441 0.471037
Si Si6 0.586153 0.596964 0.103769
Si Si7 0.803258 0.898699 0.181626
Si Si8 0.408985 0.969744 0.333406
O O1 0.344766 0.351846 0.244760
O O2 0.648854 0.322388 0.342519
O O3 0.876183 0.991241 0.601915
O O4 0.800279 0.029655 0.374381
O O5 0.232610 0.571238 0.881980
O O6 0.860147 0.916178 0.786815
O O7 0.315464 0.709211 0.966427
O O8 0.164053 0.340518 0.973630
O O9 0.152146 0.178150 0.894000
O O10 0.654765 0.912443 0.180560
O O11 0.470656 0.939059 0.251273
O O12 0.707333 0.823787 0.721690
O O13 0.679658 0.732267 0.571664
O O14 0.786489 0.421933 0.322988
O O15 0.924968 0.254956 0.603742
O O16 0.447477 0.820082 0.995062
#
# Coordination Sequence:
#
# PCOD9095816 Si02
#       8
#     2   2   2   2   2   2   2   2
#     4   9  18  34  59  90 120 142 186 245 287 341
#     4   9  18  34  59  90 120 142 186 245 287 341
#     4  11  25  40  60  82 115 161 193 235 282 348
#     4  10  21  38  61  90 118 146 187 241 295 340
#     4  10  20  35  60  87 115 153 188 235 292 335
#     4  10  20  35  60  87 115 153 188 235 292 335
#     4  11  24  42  56  82 119 152 203 236 274 345
#     4  10  21  38  61  90 118 146 187 241 295 340
#
# _framework density 22.123436999999999
#
# number of rings (size 3 to 8) (size 9 to 14) (size 15 to 20)
#    0.000    2.000    1.250    1.875    3.500    4.000 
#    0.000    3.750    0.000    0.000    0.000    0.000 
#    0.000    0.000    0.000    0.000    0.000    0.000 
#
# Total GULP energy -89445.467890 kJ/mol
# GULP energy per Si atom -5590.341743 kJ/mol
# Density = 2.207308 g / cm^3
# Si number density = 22.123437 Si / 1000 Ang^3
#
#
#
# Elastic Constant Matrix: (Units=GPa)
#
#
# Indices 1 2 3 4 5 6 
#
# 1 78.6267 7.0411 12.5126 8.4079 -21.9093 -8.6551
# 2 7.0411 31.7456 15.7752 19.0626 -13.5449 5.2227
# 3 12.5126 15.7752 66.4757 19.6994 -13.9406 -3.7935
# 4 8.4079 19.0626 19.6994 30.1911 -3.0608 -1.2841
# 5 -21.9093 -13.5449 -13.9406 -3.0608 30.0076 2.5083
# 6 -8.6551 5.2227 -3.7935 -1.2841 2.5083 18.9291
#
#
#
# Elastic Compliance Matrix: (Units=1/GPa)
#
#
# Indices 1 2 3 4 5 6 
#
# 1 0.017359 0.005613 0.000836 -0.007277 0.014508 0.004140
# 2 0.005613 0.081392 0.001233 -0.051049 0.038561 -0.028216
# 3 0.000836 0.001233 0.020626 -0.013449 0.009206 0.002043
# 4 -0.007277 -0.051049 -0.013449 0.073987 -0.028465 0.016853
# 5 0.014508 0.038561 0.009206 -0.028465 0.063745 -0.012539
# 6 0.004140 -0.028216 0.002043 0.016853 -0.012539 0.065721
#
#
# Mechanical properties :
#
#
# Convention : Reuss Voigt Hill
#
# Bulk Modulus (GPa) = 7.42170 27.50063 17.46116
# Shear Modulus (GPa) = 14.18923 25.26015 19.72469
#
# Velocity S-wave (km/s) = 2.53527 3.38269 2.98916
# Velocity P-wave (km/s) = 3.45428 5.26444 4.45233
#
# Compressibility (1/GPa) = 0.13474003
#
# Stress axis : x y z
#
# Youngs Moduli (GPa) = 57.60641 12.28628 48.48252
#
# Poissons Ratio (x) = -0.06896 -0.04051
# Poissons Ratio (y) = -0.32335 -0.05977
# Poissons Ratio (z) = -0.04814 -0.01515
#
# Static dielectric constant tensor:
#      x y z
#    x 1.809220 0.004210 0.003410 
#    y 0.004210 1.823900 0.022730 
#    z 0.003410 0.022730 1.843330 
# 
# From -- ./inp_files/425397.got.cif
#   From: 2010.05.17/outbox.cif.g08.bks.cpg/sg2_213_cif.got.tgz:425397.got - 2010.06.03 11:33:40.
