data_PCOD9095268
_publ_section_title
;
Structure prediction by ZEFSAII (Michael W. Deem and Ramdas Pophale) SiO2 
 PCOD9095268
Probable space group: P -1
;
_chemical_formula_sum "Si O2"
_cell_formula_units_Z 16
_cell_length_a 9.380014
_cell_length_b 7.548259
_cell_length_c 11.583433
_cell_angle_alpha 81.427595
_cell_angle_beta 126.326464
_cell_angle_gamma 77.694307
_cell_volume 604.793107
_symmetry_space_group_name_H-M "P -1"
_symmetry_group_IT_number 2
_symmetry_cell_setting 'triclinic'
loop_
_space_group_symop_operation_xyz
x,y,z
-x,-y,-z
loop_
_atom_site_type_symbol
_atom_site_label
_atom_site_fract_x
_atom_site_fract_y
_atom_site_fract_z
Si Si1 0.104344 0.160985 0.945830
Si Si2 0.805565 0.982245 0.364522
Si Si3 0.886455 0.607740 0.282562
Si Si4 0.517146 0.313519 0.446803
Si Si5 0.215341 0.780713 0.875363
Si Si6 0.531054 0.542886 0.216982
Si Si7 0.288490 0.870677 0.232272
Si Si8 0.182441 0.237237 0.396981
O O1 0.136491 0.320631 0.868231
O O2 0.170731 0.966136 0.919272
O O3 0.881777 0.209590 0.858370
O O4 0.218625 0.084279 0.125196
O O5 0.719710 0.930243 0.445007
O O6 0.704948 0.157774 0.210225
O O7 0.865901 0.792425 0.331214
O O8 0.000000 0.000000 0.500000
O O9 0.724039 0.532424 0.249910
O O10 0.907285 0.561308 0.592343
O O11 0.500000 0.500000 0.500000
O O12 0.555258 0.366461 0.331707
O O13 0.326539 0.272206 0.374568
O O14 0.672676 0.143656 0.611833
O O15 0.011110 0.770800 0.749303
O O16 0.364941 0.603020 0.034715
O O17 0.462360 0.728640 0.253580
#
# Coordination Sequence:
#
# PCOD9095268 Si02
#       8
#     2   2   2   2   2   2   2   2
#     4   9  19  37  61  84 112 148 188 236 289 343
#     4   9  19  35  55  83 113 142 183 237 285 334
#     4  11  21  34  60  88 111 152 196 229 282 347
#     4  10  20  35  56  83 115 147 189 242 284 333
#     4   9  21  38  56  82 118 152 189 240 291 333
#     4  10  21  35  55  85 120 151 190 243 286 333
#     4   9  18  35  57  81 111 146 188 235 283 337
#     4  11  22  37  59  84 114 155 195 231 284 346
#
# _framework density 26.455328999999999
#
# number of rings (size 3 to 8) (size 9 to 14) (size 15 to 20)
#    0.000    2.250    0.000    3.375    0.000    8.500 
#    0.000    0.625    0.000    6.000    0.000    0.875 
#    0.000    0.000    0.000    0.000    0.000    0.000 
#
# Total GULP energy -89640.311670 kJ/mol
# GULP energy per Si atom -5602.519479 kJ/mol
# Density = 2.639512 g / cm^3
# Si number density = 26.455329 Si / 1000 Ang^3
#
#
#
# Elastic Constant Matrix: (Units=GPa)
#
#
# Indices 1 2 3 4 5 6 
#
# 1 147.7347 40.2071 67.5411 -26.7059 -18.1664 38.5044
# 2 40.2071 115.7584 70.9627 -20.2937 -14.6818 29.3023
# 3 67.5411 70.9627 207.1014 -47.1878 -24.4032 33.4509
# 4 -26.7059 -20.2937 -47.1878 56.1092 8.6599 -20.4338
# 5 -18.1664 -14.6818 -24.4032 8.6599 45.9030 -8.8051
# 6 38.5044 29.3023 33.4509 -20.4338 -8.8051 50.1092
#
#
#
# Elastic Compliance Matrix: (Units=1/GPa)
#
#
# Indices 1 2 3 4 5 6 
#
# 1 0.009357 -0.000602 -0.001671 0.000718 0.001496 -0.005167
# 2 -0.000602 0.011966 -0.003147 -0.000380 0.001146 -0.004388
# 3 -0.001671 -0.003147 0.007592 0.004229 0.001582 0.000058
# 4 0.000718 -0.000380 0.004229 0.024093 -0.000884 0.006517
# 5 0.001496 0.001146 0.001582 -0.000884 0.023937 0.000970
# 6 -0.005167 -0.004388 0.000058 0.006517 0.000970 0.029281
#
#
# Mechanical properties :
#
#
# Convention : Reuss Voigt Hill
#
# Bulk Modulus (GPa) = 55.32169 92.00181 73.66175
# Shear Modulus (GPa) = 40.62004 49.88319 45.25162
#
# Velocity S-wave (km/s) = 3.92269 4.34702 4.14030
# Velocity P-wave (km/s) = 6.43999 7.74901 7.12463
#
# Compressibility (1/GPa) = 0.01807609
#
# Stress axis : x y z
#
# Youngs Moduli (GPa) = 106.87146 83.56841 131.71559
#
# Poissons Ratio (x) = 0.05034 0.22007
# Poissons Ratio (y) = 0.06437 0.41445
# Poissons Ratio (z) = 0.17856 0.26295
#
# Static dielectric constant tensor:
#      x y z
#    x 2.033060 -0.063110 -0.029520 
#    y -0.063110 2.107560 -0.029640 
#    z -0.029520 -0.029640 2.092420 
# 
# From -- ./inp_files/196160.got.cif
#   From: 2010.05.17/outbox.cif.g08.bks.cpg/sg2_99_cif.got.tgz:196160.got - 2010.06.03 11:33:40.
