data_PCOD9095385
_publ_section_title
;
Structure prediction by ZEFSAII (Michael W. Deem and Ramdas Pophale) SiO2 
 PCOD9095385
Probable space group: P -1
;
_chemical_formula_sum "Si O2"
_cell_formula_units_Z 16
_cell_length_a 19.508924
_cell_length_b 8.762289
_cell_length_c 12.391416
_cell_angle_alpha 40.218408
_cell_angle_beta 29.968344
_cell_angle_gamma 56.947584
_cell_volume 637.428176
_symmetry_space_group_name_H-M "P -1"
_symmetry_group_IT_number 2
_symmetry_cell_setting 'triclinic'
loop_
_space_group_symop_operation_xyz
x,y,z
-x,-y,-z
loop_
_atom_site_type_symbol
_atom_site_label
_atom_site_fract_x
_atom_site_fract_y
_atom_site_fract_z
Si Si1 0.021503 0.283884 0.768943
Si Si2 0.265538 0.174006 0.416599
Si Si3 0.584469 0.576147 0.233801
Si Si4 0.447761 0.726844 0.158823
Si Si5 0.003065 0.296617 0.020614
Si Si6 0.397699 0.935057 0.546954
Si Si7 0.197070 0.966142 0.976098
Si Si8 0.300476 0.908623 0.091206
O O1 0.004745 0.408084 0.836697
O O2 0.911739 0.249701 0.838209
O O3 0.185255 0.366817 0.452274
O O4 0.000000 0.000000 0.000000
O O5 0.298690 0.042134 0.548524
O O6 0.416937 0.292579 0.084531
O O7 0.147374 0.949613 0.631397
O O8 0.500000 0.500000 0.500000
O O9 0.652140 0.369313 0.220211
O O10 0.693516 0.858274 0.962779
O O11 0.450097 0.552888 0.348800
O O12 0.317863 0.710405 0.263788
O O13 0.500000 0.000000 0.000000
O O14 0.135168 0.193401 0.919451
O O15 0.000000 0.500000 0.000000
O O16 0.357999 0.017336 0.674533
O O17 0.548083 0.026426 0.221510
O O18 0.189772 0.890391 0.152911
#
# Coordination Sequence:
#
# PCOD9095385 Si02
#       8
#     2   2   2   2   2   2   2   2
#     4   8  15  31  49  76 110 144 183 226 268 321
#     4   9  16  32  56  78 111 151 182 221 283 328
#     4   9  19  33  52  80 107 146 184 226 268 330
#     4   9  18  35  54  78 115 149 180 222 288 335
#     4  10  19  31  53  86 113 144 194 240 267 315
#     4  10  16  30  51  78 112 141 183 228 269 325
#     4  10  17  30  49  78 114 147 185 225 271 331
#     4   9  19  29  51  80 108 151 181 219 278 330
#
# _framework density 25.100867999999998
#
# number of rings (size 3 to 8) (size 9 to 14) (size 15 to 20)
#    0.000    3.000    3.750    1.125    1.750    0.000 
#    0.000    0.625    0.000   18.000    0.000    0.000 
#    0.000    0.000    0.000    0.000    0.000    0.375 
#
# Total GULP energy -89204.210536 kJ/mol
# GULP energy per Si atom -5575.263159 kJ/mol
# Density = 2.504374 g / cm^3
# Si number density = 25.100868 Si / 1000 Ang^3
#
#
#
# Elastic Constant Matrix: (Units=GPa)
#
#
# Indices 1 2 3 4 5 6 
#
# 1 200.0895 40.1768 16.2567 -14.2196 31.4147 9.8534
# 2 40.1768 111.0309 0.9696 9.2203 13.0807 14.3786
# 3 16.2567 0.9696 23.4774 -0.8941 7.1849 -0.0460
# 4 -14.2196 9.2203 -0.8941 20.1294 0.1012 1.7607
# 5 31.4147 13.0807 7.1849 0.1012 37.3652 -1.3174
# 6 9.8534 14.3786 -0.0460 1.7607 -1.3174 44.0235
#
#
#
# Elastic Compliance Matrix: (Units=1/GPa)
#
#
# Indices 1 2 3 4 5 6 
#
# 1 0.006881 -0.002276 -0.003086 0.005891 -0.004452 -0.001169
# 2 -0.002276 0.010989 0.001588 -0.006306 -0.002323 -0.002895
# 3 -0.003086 0.001588 0.046762 -0.000799 -0.006949 0.000045
# 4 0.005891 -0.006306 -0.000799 0.056848 -0.002802 -0.001617
# 5 -0.004452 -0.002323 -0.006949 -0.002802 0.032763 0.002841
# 6 -0.001169 -0.002895 0.000045 -0.001617 0.002841 0.024072
#
#
# Mechanical properties :
#
#
# Convention : Reuss Voigt Hill
#
# Bulk Modulus (GPa) = 17.51874 49.93378 33.72626
# Shear Modulus (GPa) = 24.40324 38.78328 31.59326
#
# Velocity S-wave (km/s) = 3.12141 3.93504 3.55160
# Velocity P-wave (km/s) = 4.47050 6.37044 5.50308
#
# Compressibility (1/GPa) = 0.05708173
#
# Stress axis : x y z
#
# Youngs Moduli (GPa) = 145.33489 91.00341 21.38499
#
# Poissons Ratio (x) = 0.20714 0.06599
# Poissons Ratio (y) = 0.33081 -0.03395
# Poissons Ratio (z) = 0.44850 -0.14447
#
# Static dielectric constant tensor:
#      x y z
#    x 1.682060 -0.080040 0.166750 
#    y -0.080040 2.008040 -0.013260 
#    z 0.166750 -0.013260 2.016170 
# 
# From -- ./inp_files/460345.got.cif
#   From: 2010.05.17/outbox.cif.g08.bks.cpg/sg2_231_cif.got.tgz:460345.got - 2010.06.03 11:33:40.
