data_PCOD9095526
_publ_section_title
;
Structure prediction by ZEFSAII (Michael W. Deem and Ramdas Pophale) SiO2 
 PCOD9095526
Probable space group: P -1
;
_chemical_formula_sum "Si O2"
_cell_formula_units_Z 16
_cell_length_a 17.308132
_cell_length_b 9.620670
_cell_length_c 8.623420
_cell_angle_alpha 82.604016
_cell_angle_beta 141.739746
_cell_angle_gamma 69.097546
_cell_volume 587.623568
_symmetry_space_group_name_H-M "P -1"
_symmetry_group_IT_number 2
_symmetry_cell_setting 'triclinic'
loop_
_space_group_symop_operation_xyz
x,y,z
-x,-y,-z
loop_
_atom_site_type_symbol
_atom_site_label
_atom_site_fract_x
_atom_site_fract_y
_atom_site_fract_z
Si Si1 0.203798 0.949279 0.561062
Si Si2 0.003301 0.858740 0.327824
Si Si3 0.020624 0.669562 0.667779
Si Si4 0.313569 0.264408 0.517201
Si Si5 0.874187 0.318415 0.782142
Si Si6 0.307069 0.662555 0.260116
Si Si7 0.493169 0.823991 0.842680
Si Si8 0.381955 0.238757 0.295142
O O1 0.166437 0.128955 0.564099
O O2 0.144288 0.871046 0.589765
O O3 0.389346 0.787614 0.777064
O O4 0.042051 0.091185 0.155946
O O5 0.977687 0.753732 0.417063
O O6 0.101151 0.714836 0.353119
O O7 0.801512 0.099409 0.949540
O O8 0.172948 0.660127 0.965350
O O9 0.153480 0.423150 0.915082
O O10 0.129737 0.517170 0.192122
O O11 0.425287 0.239892 0.546618
O O12 0.338483 0.079586 0.545240
O O13 0.376073 0.232000 0.800619
O O14 0.692269 0.395144 0.555337
O O15 0.500000 0.500000 0.500000
O O16 0.574565 0.726377 0.812434
O O17 0.500000 0.000000 0.500000
#
# Coordination Sequence:
#
# PCOD9095526 Si02
#       8
#     2   2   2   2   2   2   2   2
#     4  10  20  39  57  90 119 156 201 248 307 365
#     4  10  21  38  60  88 124 161 202 250 307 371
#     4  10  20  39  58  83 123 158 197 249 311 355
#     4  10  20  42  61  88 122 163 200 258 308 358
#     4  10  20  38  58  80 127 155 199 249 303 362
#     4  10  20  35  58  85 117 158 200 242 306 362
#     4  10  23  37  67  87 120 159 211 251 307 364
#     4  10  20  40  63  86 121 160 202 253 303 361
#
# _framework density 27.228318999999999
#
# number of rings (size 3 to 8) (size 9 to 14) (size 15 to 20)
#    0.000    2.250    2.500    3.750    0.000    4.500 
#    2.250    1.875    0.000    3.000    0.000    0.000 
#    0.000    0.000    0.000    0.000    0.000    0.000 
#
# Total GULP energy -89144.612720 kJ/mol
# GULP energy per Si atom -5571.538295 kJ/mol
# Density = 2.716635 g / cm^3
# Si number density = 27.228319 Si / 1000 Ang^3
#
#
#
# Elastic Constant Matrix: (Units=GPa)
#
#
# Indices 1 2 3 4 5 6 
#
# 1 145.9565 37.7921 29.4696 10.8027 -2.4816 -54.8104
# 2 37.7921 126.6182 29.9253 -22.5453 1.8327 -26.5005
# 3 29.4696 29.9253 34.4613 -11.9431 -15.9514 -3.1515
# 4 10.8027 -22.5453 -11.9431 29.9452 3.0073 0.1940
# 5 -2.4816 1.8327 -15.9514 3.0073 39.9388 -3.6508
# 6 -54.8104 -26.5005 -3.1515 0.1940 -3.6508 54.0933
#
#
#
# Elastic Compliance Matrix: (Units=1/GPa)
#
#
# Indices 1 2 3 4 5 6 
#
# 1 0.019162 0.001002 -0.023270 -0.015020 -0.005351 0.018244
# 2 0.001002 0.012653 -0.011952 0.004870 -0.005096 0.006156
# 3 -0.023270 -0.011952 0.079351 0.028529 0.026533 -0.023123
# 4 -0.015020 0.004870 0.028529 0.053406 0.005210 -0.011012
# 5 -0.005351 -0.005096 0.026533 0.005210 0.034775 -0.004044
# 6 0.018244 0.006156 -0.023123 -0.011012 -0.004044 0.038408
#
#
# Mechanical properties :
#
#
# Convention : Reuss Voigt Hill
#
# Bulk Modulus (GPa) = 23.40588 55.71222 39.55905
# Shear Modulus (GPa) = 15.60367 38.78539 27.19453
#
# Velocity S-wave (km/s) = 2.39648 3.77828 3.16374
# Velocity P-wave (km/s) = 4.03389 6.28804 5.28260
#
# Compressibility (1/GPa) = 0.04272430
#
# Stress axis : x y z
#
# Youngs Moduli (GPa) = 52.18593 79.03352 12.60226
#
# Poissons Ratio (x) = -0.07917 0.29326
# Poissons Ratio (y) = -0.05227 0.15062
# Poissons Ratio (z) = 1.21438 0.94462
#
# Static dielectric constant tensor:
#      x y z
#    x 2.230320 0.028800 -0.010700 
#    y 0.028800 2.236110 0.041270 
#    z -0.010700 0.041270 2.199060 
# 
# From -- ./inp_files/328622.got.cif
#   From: 2010.05.17/outbox.cif.g08.bks.cpg/sg2_165_cif.got.tgz:328622.got - 2010.06.03 11:33:40.
