data_PCOD9095743
_publ_section_title
;
Structure prediction by ZEFSAII (Michael W. Deem and Ramdas Pophale) SiO2 
 PCOD9095743
Probable space group: P -1
;
_chemical_formula_sum "Si O2"
_cell_formula_units_Z 14
_cell_length_a 20.200159
_cell_length_b 8.115412
_cell_length_c 5.408229
_cell_angle_alpha 81.313756
_cell_angle_beta 86.416034
_cell_angle_gamma 35.325008
_cell_volume 503.889644
_symmetry_space_group_name_H-M "P -1"
_symmetry_group_IT_number 2
_symmetry_cell_setting 'triclinic'
loop_
_space_group_symop_operation_xyz
x,y,z
-x,-y,-z
loop_
_atom_site_type_symbol
_atom_site_label
_atom_site_fract_x
_atom_site_fract_y
_atom_site_fract_z
Si Si1 0.900921 0.858169 0.784096
Si Si2 0.514178 0.615235 0.161688
Si Si3 0.657830 0.780280 0.055963
Si Si4 0.325119 0.798407 0.400874
Si Si5 0.118438 0.528961 0.966917
Si Si6 0.628716 0.668106 0.587909
Si Si7 0.934094 0.979367 0.246976
O O1 0.805583 0.915034 0.725504
O O2 0.893098 0.989157 0.511830
O O3 0.876875 0.006628 0.012335
O O4 0.039810 0.550432 0.847532
O O5 0.412440 0.773347 0.347050
O O6 0.641455 0.329541 0.302244
O O7 0.500000 0.500000 0.000000
O O8 0.470719 0.879953 0.010609
O O9 0.748117 0.746460 0.063574
O O10 0.679365 0.620271 0.322132
O O11 0.681910 0.648743 0.815886
O O12 0.364429 0.543512 0.321307
O O13 0.080435 0.791865 0.811174
O O14 0.067755 0.655520 0.228258
O O15 0.500000 0.000000 0.500000
#
# Coordination Sequence:
#
# PCOD9095743 Si02
#       7
#     2   2   2   2   2   2   2
#     4  10  20  35  59  91 123 166 213 257 314 390
#     4  11  27  46  67  91 136 182 222 266 338 398
#     4  12  26  43  70 102 137 171 215 284 329 386
#     4  11  25  43  67  96 131 179 222 272 328 399
#     4   9  21  34  61  92 132 163 209 259 335 382
#     4  12  25  43  69 103 134 166 228 279 329 380
#     4   9  19  33  58  94 131 161 205 261 330 386
#
# _framework density 27.783863
#
# number of rings (size 3 to 8) (size 9 to 14) (size 15 to 20)
#    0.857    0.571    1.429    3.429    8.000    0.000 
#    0.000    0.714    0.000    1.714    0.000    0.000 
#    0.000    0.000    0.000    0.000    0.000    0.000 
#
# Total GULP energy -78194.022669 kJ/mol
# GULP energy per Si atom -5585.287334 kJ/mol
# Density = 2.772063 g / cm^3
# Si number density = 27.783863 Si / 1000 Ang^3
#
#
#
# Elastic Constant Matrix: (Units=GPa)
#
#
# Indices 1 2 3 4 5 6 
#
# 1 134.4203 -6.3250 42.3960 -2.1005 -4.1546 -7.9158
# 2 -6.3250 79.5914 12.1159 -29.3865 15.6782 -0.7323
# 3 42.3960 12.1159 161.9248 5.3139 7.6644 -11.7205
# 4 -2.1005 -29.3865 5.3139 32.3994 -6.3552 16.5144
# 5 -4.1546 15.6782 7.6644 -6.3552 56.5939 -14.3680
# 6 -7.9158 -0.7323 -11.7205 16.5144 -14.3680 48.6962
#
#
#
# Elastic Compliance Matrix: (Units=1/GPa)
#
#
# Indices 1 2 3 4 5 6 
#
# 1 0.008377 0.001933 -0.002461 0.002813 0.000745 0.000064
# 2 0.001933 0.024572 -0.003794 0.027662 -0.005929 -0.011360
# 3 -0.002461 -0.003794 0.007587 -0.006700 0.000016 0.003646
# 4 0.002813 0.027662 -0.006700 0.069358 -0.005318 -0.025830
# 5 0.000745 -0.005929 0.000016 -0.005318 0.020792 0.007974
# 6 0.000064 -0.011360 0.003646 -0.025830 0.007974 0.032365
#
#
# Mechanical properties :
#
#
# Convention : Reuss Voigt Hill
#
# Bulk Modulus (GPa) = 31.35588 52.47892 41.91740
# Shear Modulus (GPa) = 27.42330 49.38787 38.40558
#
# Velocity S-wave (km/s) = 3.14510 4.22070 3.72196
# Velocity P-wave (km/s) = 4.94965 6.53312 5.79572
#
# Compressibility (1/GPa) = 0.03189195
#
# Stress axis : x y z
#
# Youngs Moduli (GPa) = 119.37087 40.69683 131.80506
#
# Poissons Ratio (x) = -0.07866 0.32436
# Poissons Ratio (y) = -0.23073 0.50007
# Poissons Ratio (z) = 0.29376 0.15441
#
# Static dielectric constant tensor:
#      x y z
#    x 2.299650 -0.089250 -0.070450 
#    y -0.089250 2.205810 -0.036830 
#    z -0.070450 -0.036830 2.194190 
# 
# From -- ./inp_files/116165.got.cif
#   From: 2010.05.17/outbox.cif.g08.bks.cpg/sg2_59_cif.got.tgz:116165.got - 2010.06.03 11:33:40.
