data_PCOD9095077
_publ_section_title
;
Structure prediction by ZEFSAII (Michael W. Deem and Ramdas Pophale) SiO2 
 PCOD9095077
Probable space group: P -1
;
_chemical_formula_sum "Si O2"
_cell_formula_units_Z 16
_cell_length_a 8.388570
_cell_length_b 8.030762
_cell_length_c 14.642030
_cell_angle_alpha 93.020837
_cell_angle_beta 52.159147
_cell_angle_gamma 103.826189
_cell_volume 750.701539
_symmetry_space_group_name_H-M "P -1"
_symmetry_group_IT_number 2
_symmetry_cell_setting 'triclinic'
loop_
_space_group_symop_operation_xyz
x,y,z
-x,-y,-z
loop_
_atom_site_type_symbol
_atom_site_label
_atom_site_fract_x
_atom_site_fract_y
_atom_site_fract_z
Si Si1 0.353792 0.358431 0.742864
Si Si2 0.867861 0.809257 0.515504
Si Si3 0.509911 0.146236 0.253590
Si Si4 0.749536 0.347774 0.335850
Si Si5 0.213741 0.499169 0.168665
Si Si6 0.648582 0.435514 0.076802
Si Si7 0.401911 0.158943 0.563360
Si Si8 0.730965 0.259957 0.683536
O O1 0.292759 0.488569 0.696965
O O2 0.274570 0.411907 0.870175
O O3 0.303818 0.180587 0.696641
O O4 0.593097 0.368743 0.685033
O O5 0.678521 0.765455 0.652138
O O6 0.762195 0.824166 0.455694
O O7 0.043502 0.708752 0.441177
O O8 0.000000 0.000000 0.500000
O O9 0.661967 0.194547 0.288885
O O10 0.627077 0.252880 0.129559
O O11 0.401063 0.942448 0.277037
O O12 0.607687 0.315242 0.474816
O O13 0.991961 0.373386 0.270575
O O14 0.415864 0.434590 0.123028
O O15 0.237283 0.674641 0.222082
O O16 0.212830 0.530647 0.061537
O O17 0.500000 0.000000 0.500000
#
# Coordination Sequence:
#
# PCOD9095077 Si02
#       8
#     2   2   2   2   2   2   2   2
#     4  10  20  35  54  80 111 146 180 222 274 328
#     4   9  18  33  52  80 111 142 176 218 273 325
#     4   9  19  36  56  81 112 145 182 230 277 325
#     4  10  21  36  56  82 113 145 182 223 278 334
#     4  10  21  38  58  81 107 146 189 231 276 328
#     4   9  21  38  57  78 109 144 187 232 275 329
#     4  11  21  35  56  84 117 145 180 229 276 329
#     4  10  20  36  58  81 113 148 187 230 273 324
#
# _framework density 21.313395
#
# number of rings (size 3 to 8) (size 9 to 14) (size 15 to 20)
#    0.000    2.250    0.000    3.375    0.000    7.500 
#    0.000    8.750    0.000   12.750    0.000    0.000 
#    0.000    0.000    0.000    0.000    0.000    0.000 
#
# Total GULP energy -89138.245896 kJ/mol
# GULP energy per Si atom -5571.140368 kJ/mol
# Density = 2.126489 g / cm^3
# Si number density = 21.313395 Si / 1000 Ang^3
#
#
#
# Elastic Constant Matrix: (Units=GPa)
#
#
# Indices 1 2 3 4 5 6 
#
# 1 33.8280 9.3794 11.5259 3.0605 2.2528 9.6305
# 2 9.3794 83.8785 15.9013 14.6613 6.1725 12.6475
# 3 11.5259 15.9013 55.7751 13.8084 19.2712 15.4970
# 4 3.0605 14.6613 13.8084 24.9783 4.8256 3.6291
# 5 2.2528 6.1725 19.2712 4.8256 38.2340 3.0055
# 6 9.6305 12.6475 15.4970 3.6291 3.0055 35.5994
#
#
#
# Elastic Compliance Matrix: (Units=1/GPa)
#
#
# Indices 1 2 3 4 5 6 
#
# 1 0.033543 -0.002024 -0.005261 0.000621 0.001415 -0.006248
# 2 -0.002024 0.014061 -0.000692 -0.007006 -0.000652 -0.003377
# 3 -0.005261 -0.000692 0.028444 -0.011141 -0.011835 -0.008578
# 4 0.000621 -0.007006 -0.011141 0.049881 0.000252 0.002065
# 5 0.001415 -0.000652 -0.011835 0.000252 0.031931 0.002279
# 6 -0.006248 -0.003377 -0.008578 0.002065 0.002279 0.034312
#
#
# Mechanical properties :
#
#
# Convention : Reuss Voigt Hill
#
# Bulk Modulus (GPa) = 16.64071 27.45499 22.04785
# Shear Modulus (GPa) = 21.91447 28.87401 25.39424
#
# Velocity S-wave (km/s) = 3.21004 3.68467 3.45551
# Velocity P-wave (km/s) = 4.64367 5.56883 5.12716
#
# Compressibility (1/GPa) = 0.06009358
#
# Stress axis : x y z
#
# Youngs Moduli (GPa) = 29.81212 71.11642 35.15621
#
# Poissons Ratio (x) = 0.14395 0.18497
# Poissons Ratio (y) = 0.06034 0.02434
# Poissons Ratio (z) = 0.15685 0.04924
#
# Static dielectric constant tensor:
#      x y z
#    x 1.765150 0.020340 0.002020 
#    y 0.020340 1.822310 0.029610 
#    z 0.002020 0.029610 1.785250 
# 
# From -- ./inp_files/214508.got.cif
#   From: 2010.05.17/outbox.cif.g08.bks.cpg/sg2_108_cif.got.tgz:214508.got - 2010.06.03 11:33:40.
