data_PCOD9095312
_publ_section_title
;
Structure prediction by ZEFSAII (Michael W. Deem and Ramdas Pophale) SiO2 
 PCOD9095312
Probable space group: P -1
;
_chemical_formula_sum "Si O2"
_cell_formula_units_Z 16
_cell_length_a 9.609317
_cell_length_b 12.036768
_cell_length_c 21.959551
_cell_angle_alpha 154.495693
_cell_angle_beta 46.562077
_cell_angle_gamma 142.027592
_cell_volume 670.154989
_symmetry_space_group_name_H-M "P -1"
_symmetry_group_IT_number 2
_symmetry_cell_setting 'triclinic'
loop_
_space_group_symop_operation_xyz
x,y,z
-x,-y,-z
loop_
_atom_site_type_symbol
_atom_site_label
_atom_site_fract_x
_atom_site_fract_y
_atom_site_fract_z
Si Si1 0.815182 0.502531 0.638059
Si Si2 0.648905 0.384278 0.756099
Si Si3 0.672763 0.273509 0.429793
Si Si4 0.413379 0.208592 0.316014
Si Si5 0.731452 0.569111 0.154429
Si Si6 0.046541 0.114130 0.637685
Si Si7 0.812813 0.064813 0.878786
Si Si8 0.904250 0.511494 0.305310
O O1 0.679149 0.301549 0.636937
O O2 0.725726 0.359355 0.528038
O O3 0.080347 0.615291 0.616552
O O4 0.795773 0.799612 0.793198
O O5 0.495083 0.522393 0.858732
O O6 0.907540 0.575523 0.795761
O O7 0.506774 0.086542 0.693650
O O8 0.575810 0.470291 0.529723
O O9 0.657856 0.267265 0.284940
O O10 0.201121 0.984547 0.311187
O O11 0.341991 0.080251 0.205986
O O12 0.795990 0.794645 0.304544
O O13 0.933384 0.743742 0.130859
O O14 0.747448 0.291727 0.038071
O O15 0.133403 0.389993 0.700949
O O16 0.009999 0.825764 0.468093
#
# Coordination Sequence:
#
# PCOD9095312 Si02
#       8
#     2   2   2   2   2   2   2   2
#     4  10  21  34  58  89 121 152 192 250 307 349
#     4  12  24  35  59  92 124 154 196 256 302 353
#     4  10  20  35  56  91 122 150 194 250 303 350
#     4  10  21  40  64  86 122 165 199 243 298 367
#     4  10  22  40  68  89 117 160 206 255 302 348
#     4  10  22  40  62  88 121 165 198 246 299 364
#     4   9  20  43  65  89 117 158 211 251 296 359
#     4  11  24  37  57  93 127 159 198 240 305 367
#
# _framework density 23.875074000000001
#
# number of rings (size 3 to 8) (size 9 to 14) (size 15 to 20)
#    0.000    1.750    1.250    3.000    8.750    1.500 
#    0.000    0.625    0.000    2.250    0.000    0.000 
#    0.000    0.000    0.000    0.000    0.000    0.000 
#
# Total GULP energy -89515.006004 kJ/mol
# GULP energy per Si atom -5594.687875 kJ/mol
# Density = 2.382073 g / cm^3
# Si number density = 23.875074 Si / 1000 Ang^3
#
#
#
# Elastic Constant Matrix: (Units=GPa)
#
#
# Indices 1 2 3 4 5 6 
#
# 1 94.2850 29.5031 4.3447 -5.2910 -19.7006 33.9395
# 2 29.5031 89.3727 5.1220 -3.4380 -7.6851 9.4422
# 3 4.3447 5.1220 38.1274 -3.1810 -13.0900 3.8300
# 4 -5.2910 -3.4380 -3.1810 12.5557 -2.1493 -1.0181
# 5 -19.7006 -7.6851 -13.0900 -2.1493 17.0145 -9.4625
# 6 33.9395 9.4422 3.8300 -1.0181 -9.4625 44.0065
#
#
#
# Elastic Compliance Matrix: (Units=1/GPa)
#
#
# Indices 1 2 3 4 5 6 
#
# 1 0.021365 -0.003689 0.009232 0.013936 0.026059 -0.010563
# 2 -0.003689 0.012590 -0.000647 0.002030 0.001489 0.000567
# 3 0.009232 -0.000647 0.043025 0.022498 0.046187 -0.000274
# 4 0.013936 0.002030 0.022498 0.099663 0.046484 -0.000841
# 5 0.026059 0.001489 0.046187 0.046484 0.134065 0.005465
# 6 -0.010563 0.000567 -0.000274 -0.000841 0.005465 0.031929
#
#
# Mechanical properties :
#
#
# Convention : Reuss Voigt Hill
#
# Bulk Modulus (GPa) = 11.52470 33.30274 22.41372
# Shear Modulus (GPa) = 13.82100 26.90301 20.36200
#
# Velocity S-wave (km/s) = 2.40862 3.36046 2.92354
# Velocity P-wave (km/s) = 3.54582 5.38850 4.56118
#
# Compressibility (1/GPa) = 0.08677015
#
# Stress axis : x y z
#
# Youngs Moduli (GPa) = 46.80648 79.42703 23.24257
#
# Poissons Ratio (x) = 0.29300 -0.21457
# Poissons Ratio (y) = 0.17266 0.01504
# Poissons Ratio (z) = -0.43210 0.05141
#
# Static dielectric constant tensor:
#      x y z
#    x 1.924250 0.018340 0.000170 
#    y 0.018340 1.897620 -0.003320 
#    z 0.000170 -0.003320 1.925780 
# 
# From -- ./inp_files/427570.got.cif
#   From: 2010.05.17/outbox.cif.g08.bks.cpg/sg2_214_cif.got.tgz:427570.got - 2010.06.03 11:33:40.
