data_PCOD9095906
_publ_section_title
;
Structure prediction by ZEFSAII (Michael W. Deem and Ramdas Pophale) SiO2 
 PCOD9095906
Probable space group: P -1
;
_chemical_formula_sum "Si O2"
_cell_formula_units_Z 14
_cell_length_a 10.896772
_cell_length_b 8.437061
_cell_length_c 8.235274
_cell_angle_alpha 129.950291
_cell_angle_beta 111.677154
_cell_angle_gamma 77.551512
_cell_volume 539.117418
_symmetry_space_group_name_H-M "P -1"
_symmetry_group_IT_number 2
_symmetry_cell_setting 'triclinic'
loop_
_space_group_symop_operation_xyz
x,y,z
-x,-y,-z
loop_
_atom_site_type_symbol
_atom_site_label
_atom_site_fract_x
_atom_site_fract_y
_atom_site_fract_z
Si Si1 0.693198 0.203791 0.160873
Si Si2 0.782942 0.834161 0.446213
Si Si3 0.566437 0.738488 0.773528
Si Si4 0.763427 0.286185 0.887626
Si Si5 0.945425 0.078099 0.349772
Si Si6 0.179615 0.324601 0.993459
Si Si7 0.487465 0.244984 0.610121
O O1 0.556776 0.317116 0.205829
O O2 0.810894 0.200791 0.348806
O O3 0.767215 0.250080 0.057879
O O4 0.628939 0.971001 0.972423
O O5 0.766230 0.795590 0.220352
O O6 0.661420 0.710137 0.383577
O O7 0.776045 0.072635 0.655963
O O8 0.928160 0.780305 0.545692
O O9 0.503895 0.730925 0.561395
O O10 0.700941 0.620058 0.790792
O O11 0.611276 0.350943 0.829186
O O12 0.858493 0.461732 0.969613
O O13 0.916771 0.856207 0.100081
O O14 0.000000 0.000000 0.500000
O O15 0.500000 0.000000 0.500000
#
# Coordination Sequence:
#
# PCOD9095906 Si02
#       7
#     2   2   2   2   2   2   2
#     4  10  20  36  63  92 121 165 206 246 311 367
#     4  10  21  41  64  85 130 163 199 257 300 364
#     4  10  20  36  63  89 126 162 203 255 302 369
#     4  11  23  39  63  96 125 157 204 260 308 358
#     4   9  21  39  65  89 118 170 209 241 307 370
#     4  10  23  41  63  93 123 163 208 246 312 367
#     4  10  20  35  60  94 121 159 203 251 315 354
#
# _framework density 25.968368999999999
#
# number of rings (size 3 to 8) (size 9 to 14) (size 15 to 20)
#    0.000    2.000    2.857    0.857   14.000    4.000 
#    0.000    2.857    0.000    0.000    0.000    0.000 
#    0.000    0.000    0.000    0.000    0.000    0.000 
#
# Total GULP energy -78113.747947 kJ/mol
# GULP energy per Si atom -5579.553425 kJ/mol
# Density = 2.590926 g / cm^3
# Si number density = 25.968369 Si / 1000 Ang^3
#
#
#
# Elastic Constant Matrix: (Units=GPa)
#
#
# Indices 1 2 3 4 5 6 
#
# 1 92.5387 3.8143 30.3040 -2.2940 34.8201 -1.0548
# 2 3.8143 62.9642 21.2866 1.5373 3.3138 7.4159
# 3 30.3040 21.2866 94.9667 -10.3601 21.1097 -7.0130
# 4 -2.2940 1.5373 -10.3601 43.3760 -1.8678 6.8091
# 5 34.8201 3.3138 21.1097 -1.8678 49.2768 0.8462
# 6 -1.0548 7.4159 -7.0130 6.8091 0.8462 39.0226
#
#
#
# Elastic Compliance Matrix: (Units=1/GPa)
#
#
# Indices 1 2 3 4 5 6 
#
# 1 0.015365 0.000565 -0.002914 -0.000327 -0.009660 0.000051
# 2 0.000565 0.017922 -0.004713 -0.001075 0.000444 -0.004060
# 3 -0.002914 -0.004713 0.013800 0.002704 -0.003483 0.002901
# 4 -0.000327 -0.001075 0.002704 0.024285 0.000127 -0.003559
# 5 -0.009660 0.000444 -0.003483 0.000127 0.028614 -0.001614
# 6 0.000051 -0.004060 0.002901 -0.003559 -0.001614 0.027576
#
#
# Mechanical properties :
#
#
# Convention : Reuss Voigt Hill
#
# Bulk Modulus (GPa) = 30.33836 40.14215 35.24026
# Shear Modulus (GPa) = 32.74951 39.33938 36.04445
#
# Velocity S-wave (km/s) = 3.55509 3.89639 3.72965
# Velocity P-wave (km/s) = 5.34413 5.97780 5.66983
#
# Compressibility (1/GPa) = 0.03296157
#
# Stress axis : x y z
#
# Youngs Moduli (GPa) = 65.08490 55.79647 72.46544
#
# Poissons Ratio (x) = -0.03152 0.21118
# Poissons Ratio (y) = -0.03676 0.34154
# Poissons Ratio (z) = 0.18967 0.26298
#
# Static dielectric constant tensor:
#      x y z
#    x 2.208740 -0.003530 0.008450 
#    y -0.003530 2.187110 0.076560 
#    z 0.008450 0.076560 1.995230 
# 
# From -- ./inp_files/241163.got.cif
#   From: 2010.05.17/outbox.cif.g08.bks.cpg/sg2_121_cif.got.tgz:241163.got - 2010.06.03 11:33:40.
