data_PCOD9095354
_publ_section_title
;
Structure prediction by ZEFSAII (Michael W. Deem and Ramdas Pophale) SiO2 
 PCOD9095354
Probable space group: P -1
;
_chemical_formula_sum "Si O2"
_cell_formula_units_Z 16
_cell_length_a 18.994499
_cell_length_b 5.815579
_cell_length_c 17.954820
_cell_angle_alpha 67.569022
_cell_angle_beta 153.569868
_cell_angle_gamma 97.124119
_cell_volume 692.459001
_symmetry_space_group_name_H-M "P -1"
_symmetry_group_IT_number 2
_symmetry_cell_setting 'triclinic'
loop_
_space_group_symop_operation_xyz
x,y,z
-x,-y,-z
loop_
_atom_site_type_symbol
_atom_site_label
_atom_site_fract_x
_atom_site_fract_y
_atom_site_fract_z
Si Si1 0.081020 0.352511 0.711052
Si Si2 0.849300 0.278160 0.369919
Si Si3 0.726690 0.633341 0.776160
Si Si4 0.437377 0.801366 0.179625
Si Si5 0.933371 0.940413 0.867332
Si Si6 0.710510 0.160851 0.496761
Si Si7 0.239717 0.078874 0.577849
Si Si8 0.508249 0.872682 0.399729
O O1 0.203579 0.456938 0.768997
O O2 0.954593 0.320917 0.533493
O O3 0.934001 0.612038 0.594921
O O4 0.231098 0.048157 0.928935
O O5 0.715177 0.175295 0.287740
O O6 0.000000 0.000000 0.500000
O O7 0.820045 0.799274 0.807764
O O8 0.637851 0.805560 0.746067
O O9 0.580873 0.679056 0.567476
O O10 0.886607 0.301305 0.976598
O O11 0.524507 0.475833 0.269568
O O12 0.585448 0.890108 0.281006
O O13 0.439922 0.779962 0.275105
O O14 0.814270 0.191649 0.663145
O O15 0.000000 0.000000 0.000000
O O16 0.668592 0.915209 0.513234
O O17 0.814204 0.031254 0.533951
#
# Coordination Sequence:
#
# PCOD9095354 Si02
#       8
#     2   2   2   2   2   2   2   2
#     4  10  22  41  67  92 122 161 204 249 303 367
#     4   9  20  42  66  92 123 159 202 249 301 367
#     4   9  19  37  57  80 112 158 202 246 302 353
#     4  11  23  39  61  93 125 159 206 252 304 363
#     4  10  20  35  57  82 115 157 203 245 299 356
#     4  10  22  38  57  86 125 155 198 253 303 359
#     4  10  22  42  62  88 127 162 200 253 304 360
#     4   9  20  38  57  81 119 154 200 255 298 356
#
# _framework density 23.106061
#
# number of rings (size 3 to 8) (size 9 to 14) (size 15 to 20)
#    0.000    2.250    0.000    1.500    1.750    6.500 
#    4.500   12.500    0.000    0.000    0.000    0.000 
#    0.000    0.000    0.000    0.000    0.000    0.000 
#
# Total GULP energy -89246.399173 kJ/mol
# GULP energy per Si atom -5577.899948 kJ/mol
# Density = 2.305347 g / cm^3
# Si number density = 23.106061 Si / 1000 Ang^3
#
#
#
# Elastic Constant Matrix: (Units=GPa)
#
#
# Indices 1 2 3 4 5 6 
#
# 1 96.4634 26.7276 10.3421 -4.1268 12.4812 -18.9630
# 2 26.7276 78.0672 22.0782 0.2900 -5.2949 -23.5345
# 3 10.3421 22.0782 89.4736 -17.8898 -6.7102 -23.6457
# 4 -4.1268 0.2900 -17.8898 20.9601 5.2644 3.9043
# 5 12.4812 -5.2949 -6.7102 5.2644 21.6406 6.4274
# 6 -18.9630 -23.5345 -23.6457 3.9043 6.4274 50.6225
#
#
#
# Elastic Compliance Matrix: (Units=1/GPa)
#
#
# Indices 1 2 3 4 5 6 
#
# 1 0.014231 -0.004552 0.001005 0.005812 -0.011831 0.004738
# 2 -0.004552 0.017066 -0.003334 -0.006302 0.005995 0.004397
# 3 0.001005 -0.003334 0.015819 0.013063 -0.001263 0.005368
# 4 0.005812 -0.006302 0.013063 0.063917 -0.017164 0.002598
# 5 -0.011831 0.005995 -0.001263 -0.017164 0.060849 -0.008637
# 6 0.004738 0.004397 0.005368 0.002598 -0.008637 0.026977
#
#
# Mechanical properties :
#
#
# Convention : Reuss Voigt Hill
#
# Bulk Modulus (GPa) = 29.98068 42.47778 36.22923
# Shear Modulus (GPa) = 22.34757 32.30173 27.32465
#
# Velocity S-wave (km/s) = 3.11332 3.74301 3.44259
# Velocity P-wave (km/s) = 5.09186 6.09130 5.61386
#
# Compressibility (1/GPa) = 0.03335481
#
# Stress axis : x y z
#
# Youngs Moduli (GPa) = 70.26951 58.59528 63.21608
#
# Poissons Ratio (x) = 0.26674 -0.06355
# Poissons Ratio (y) = 0.31988 0.21074
# Poissons Ratio (z) = -0.07064 0.19533
#
# Static dielectric constant tensor:
#      x y z
#    x 1.922970 0.038230 -0.002550 
#    y 0.038230 1.929860 0.058890 
#    z -0.002550 0.058890 1.879680 
# 
# From -- ./inp_files/104515.got.cif
#   From: 2010.05.17/outbox.cif.g08.bks.cpg/sg2_53_cif.got.tgz:104515.got - 2010.06.03 11:33:40.
