data_PCOD9095556
_publ_section_title
;
Structure prediction by ZEFSAII (Michael W. Deem and Ramdas Pophale) SiO2 
 PCOD9095556
Probable space group: P -1
;
_chemical_formula_sum "Si O2"
_cell_formula_units_Z 16
_cell_length_a 10.174439
_cell_length_b 13.934727
_cell_length_c 19.761875
_cell_angle_alpha 23.558444
_cell_angle_beta 135.252002
_cell_angle_gamma 125.065276
_cell_volume 758.651064
_symmetry_space_group_name_H-M "P -1"
_symmetry_group_IT_number 2
_symmetry_cell_setting 'triclinic'
loop_
_space_group_symop_operation_xyz
x,y,z
-x,-y,-z
loop_
_atom_site_type_symbol
_atom_site_label
_atom_site_fract_x
_atom_site_fract_y
_atom_site_fract_z
Si Si1 0.953761 0.244116 0.133833
Si Si2 0.615752 0.691290 0.460343
Si Si3 0.207172 0.701023 0.329859
Si Si4 0.022056 0.868938 0.293791
Si Si5 0.039816 0.107526 0.516303
Si Si6 0.486015 0.750951 0.062246
Si Si7 0.626602 0.202336 0.865309
Si Si8 0.885056 0.514956 0.299265
O O1 0.011217 0.072722 0.330608
O O2 0.063349 0.097006 0.203765
O O3 0.725354 0.264283 0.027189
O O4 0.000000 0.500000 0.000000
O O5 0.385160 0.815711 0.302695
O O6 0.694867 0.567626 0.496758
O O7 0.667975 0.435806 0.690500
O O8 0.738948 0.876200 0.408288
O O9 0.990470 0.738484 0.195781
O O10 0.163668 0.750291 0.361286
O O11 0.023805 0.665446 0.485479
O O12 0.816803 0.004267 0.095078
O O13 0.000000 0.000000 0.500000
O O14 0.927215 0.378015 0.331043
O O15 0.500531 0.677450 0.194073
O O16 0.659228 0.593174 0.182447
O O17 0.521799 0.023893 0.902590
#
# Coordination Sequence:
#
# PCOD9095556 Si02
#       8
#     2   2   2   2   2   2   2   2
#     4  10  24  44  64  88 116 158 208 253 289 347
#     4  10  23  36  58  88 125 160 194 241 304 368
#     4  10  20  35  58  87 121 155 191 243 304 364
#     4  10  20  36  61  88 120 153 200 248 294 349
#     4  10  24  45  63  81 121 166 204 241 300 358
#     4  10  21  36  63  89 123 151 199 252 297 348
#     4  10  21  33  59  95 121 157 190 245 309 357
#     4  10  20  39  60  91 117 158 196 252 296 355
#
# _framework density 21.090064999999999
#
# number of rings (size 3 to 8) (size 9 to 14) (size 15 to 20)
#    0.000    2.000    1.250    1.125   14.000    0.500 
#    2.250    1.875    0.000    0.000    0.000    0.000 
#    0.000    0.000    0.000    0.000    0.000    0.000 
#
# Total GULP energy -89083.929092 kJ/mol
# GULP energy per Si atom -5567.745568 kJ/mol
# Density = 2.104206 g / cm^3
# Si number density = 21.090065 Si / 1000 Ang^3
#
#
#
# Elastic Constant Matrix: (Units=GPa)
#
#
# Indices 1 2 3 4 5 6 
#
# 1 130.1692 55.1401 11.5107 -3.9728 14.5647 -33.4850
# 2 55.1401 153.1463 6.1669 -18.0691 1.6834 -28.4781
# 3 11.5107 6.1669 43.7996 2.1833 -5.5990 -7.3425
# 4 -3.9728 -18.0691 2.1833 17.7020 11.3599 2.3112
# 5 14.5647 1.6834 -5.5990 11.3599 33.8721 -9.4822
# 6 -33.4850 -28.4781 -7.3425 2.3112 -9.4822 30.4348
#
#
#
# Elastic Compliance Matrix: (Units=1/GPa)
#
#
# Indices 1 2 3 4 5 6 
#
# 1 0.011479 -0.002182 -0.001604 0.001227 -0.002930 0.009195
# 2 -0.002182 0.009414 -0.000518 0.009345 -0.001303 0.005168
# 3 -0.001604 -0.000518 0.027059 -0.013213 0.012159 0.009070
# 4 0.001227 0.009345 -0.013213 0.093939 -0.038065 -0.012087
# 5 -0.002930 -0.001303 0.012159 -0.038065 0.050406 0.017086
# 6 0.009195 0.005168 0.009070 -0.012087 0.017086 0.056239
#
#
# Mechanical properties :
#
#
# Convention : Reuss Voigt Hill
#
# Bulk Modulus (GPa) = 25.41626 52.52783 38.97205
# Shear Modulus (GPa) = 18.50084 33.35493 25.92789
#
# Velocity S-wave (km/s) = 2.96502 3.98118 3.51007
# Velocity P-wave (km/s) = 4.87845 6.78923 5.91155
#
# Compressibility (1/GPa) = 0.03934489
#
# Stress axis : x y z
#
# Youngs Moduli (GPa) = 87.11652 106.22599 36.95624
#
# Poissons Ratio (x) = 0.23174 0.05927
# Poissons Ratio (y) = 0.19005 0.01915
# Poissons Ratio (z) = 0.13972 0.05504
#
# Static dielectric constant tensor:
#      x y z
#    x 1.815780 0.002370 0.014420 
#    y 0.002370 1.794270 0.073270 
#    z 0.014420 0.073270 1.908820 
# 
# From -- ./inp_files/405410.got.cif
#   From: 2010.05.17/outbox.cif.g08.bks.cpg/sg2_203_cif.got.tgz:405410.got - 2010.06.03 11:33:40.
