data_PCOD9095821
_publ_section_title
;
Structure prediction by ZEFSAII (Michael W. Deem and Ramdas Pophale) SiO2 
 PCOD9095821
Probable space group: P -1
;
_chemical_formula_sum "Si O2"
_cell_formula_units_Z 15
_cell_length_a 14.310638
_cell_length_b 10.810388
_cell_length_c 9.302977
_cell_angle_alpha 102.649018
_cell_angle_beta 121.844296
_cell_angle_gamma 34.234045
_cell_volume 612.636151
_symmetry_space_group_name_H-M "P -1"
_symmetry_group_IT_number 2
_symmetry_cell_setting 'triclinic'
loop_
_space_group_symop_operation_xyz
x,y,z
-x,-y,-z
loop_
_atom_site_type_symbol
_atom_site_label
_atom_site_fract_x
_atom_site_fract_y
_atom_site_fract_z
Si Si1 0.000000 0.000000 0.500000
Si Si2 0.691767 0.836148 0.434253
Si Si3 0.710993 0.868570 0.962135
Si Si4 0.638949 0.510024 0.952421
Si Si5 0.785047 0.945241 0.333366
Si Si6 0.554735 0.551208 0.216317
Si Si7 0.666772 0.644411 0.564411
Si Si8 0.063635 0.626015 0.011633
O O1 0.240766 0.743760 0.690596
O O2 0.953854 0.891087 0.453591
O O3 0.839346 0.788831 0.459894
O O4 0.781632 0.639095 0.560092
O O5 0.535403 0.919775 0.215391
O O6 0.529098 0.085787 0.455452
O O7 0.830852 0.614548 0.998286
O O8 0.757412 0.897177 0.151046
O O9 0.819023 0.840258 0.910770
O O10 0.638594 0.357581 0.897838
O O11 0.862666 0.351118 0.046271
O O12 0.455520 0.756639 0.766274
O O13 0.566562 0.602762 0.082506
O O14 0.581575 0.618170 0.387602
O O15 0.823753 0.441188 0.764846
#
# Coordination Sequence:
#
# PCOD9095821 Si02
#       8
#     1   2   2   2   2   2   2   2
#     4  10  24  42  56  90 124 148 210 260 288 356
#     4  10  21  37  61  94 123 156 204 249 298 373
#     4  10  20  35  60  87 122 156 200 245 307 351
#     4  10  21  40  63  87 120 161 216 235 299 372
#     4  11  20  40  62  89 119 168 197 254 298 362
#     4  10  22  40  64  86 120 167 204 253 294 366
#     4  10  20  38  60  93 123 156 198 253 308 353
#     4  10  21  38  55  94 123 156 195 259 298 363
#
# _framework density 24.484352000000001
#
# number of rings (size 3 to 8) (size 9 to 14) (size 15 to 20)
#    0.000    1.867    2.667    2.000    1.867    0.533 
#   12.000    1.333    0.000    5.600    0.000    0.000 
#    0.000    0.000    0.000    0.000    0.000    0.000 
#
# Total GULP energy -83680.188899 kJ/mol
# GULP energy per Si atom -5578.679260 kJ/mol
# Density = 2.442862 g / cm^3
# Si number density = 24.484352 Si / 1000 Ang^3
#
#
#
# Elastic Constant Matrix: (Units=GPa)
#
#
# Indices 1 2 3 4 5 6 
#
# 1 205.7730 25.5811 47.7324 31.0341 10.7569 10.6641
# 2 25.5811 21.3959 11.6177 6.0481 -0.9214 6.1812
# 3 47.7324 11.6177 71.1506 20.2229 16.4929 13.5925
# 4 31.0341 6.0481 20.2229 35.9137 10.8428 8.3598
# 5 10.7569 -0.9214 16.4929 10.8428 34.7737 -1.1412
# 6 10.6641 6.1812 13.5925 8.3598 -1.1412 25.4076
#
#
#
# Elastic Compliance Matrix: (Units=1/GPa)
#
#
# Indices 1 2 3 4 5 6 
#
# 1 0.006703 -0.005822 -0.002840 -0.003607 0.000287 0.001322
# 2 -0.005822 0.059739 -0.005082 -0.002071 0.006164 -0.008413
# 3 -0.002840 -0.005082 0.021508 -0.004421 -0.008341 -0.007998
# 4 -0.003607 -0.002071 -0.004421 0.038598 -0.009164 -0.008729
# 5 0.000287 0.006164 -0.008341 -0.009164 0.035890 0.007469
# 6 0.001322 -0.008413 -0.007998 -0.008729 0.007469 0.048336
#
#
# Mechanical properties :
#
#
# Convention : Reuss Voigt Hill
#
# Bulk Modulus (GPa) = 16.53923 52.02022 34.27973
# Shear Modulus (GPa) = 19.34873 33.44488 26.39681
#
# Velocity S-wave (km/s) = 2.81419 3.69991 3.28702
# Velocity P-wave (km/s) = 4.16284 6.28847 5.33264
#
# Compressibility (1/GPa) = 0.06046229
#
# Stress axis : x y z
#
# Youngs Moduli (GPa) = 149.19387 16.73951 46.49501
#
# Poissons Ratio (x) = 0.09745 0.13205
# Poissons Ratio (y) = 0.86856 0.23628
# Poissons Ratio (z) = 0.42371 0.08507
#
# Static dielectric constant tensor:
#      x y z
#    x 1.949960 -0.041580 -0.013330 
#    y -0.041580 1.973800 0.006290 
#    z -0.013330 0.006290 1.917730 
# 
# From -- ./inp_files/305405.got.cif
#   From: 2010.05.17/outbox.cif.g08.bks.cpg/sg2_153_cif.got.tgz:305405.got - 2010.06.03 11:33:40.
