data_PCOD9095298
_publ_section_title
;
Structure prediction by ZEFSAII (Michael W. Deem and Ramdas Pophale) SiO2 
 PCOD9095298
Probable space group: P -1
;
_chemical_formula_sum "Si O2"
_cell_formula_units_Z 14
_cell_length_a 11.843351
_cell_length_b 10.653681
_cell_length_c 12.451157
_cell_angle_alpha 52.468134
_cell_angle_beta 144.491993
_cell_angle_gamma 127.588055
_cell_volume 701.068235
_symmetry_space_group_name_H-M "P -1"
_symmetry_group_IT_number 2
_symmetry_cell_setting 'triclinic'
loop_
_space_group_symop_operation_xyz
x,y,z
-x,-y,-z
loop_
_atom_site_type_symbol
_atom_site_label
_atom_site_fract_x
_atom_site_fract_y
_atom_site_fract_z
Si Si1 0.051395 0.974450 0.870762
Si Si2 0.494271 0.089788 0.061090
Si Si3 0.111140 0.962797 0.499185
Si Si4 0.614219 0.468683 0.994394
Si Si5 0.797899 0.112939 0.757755
Si Si6 0.484487 0.761726 0.666551
Si Si7 0.112433 0.632259 0.600401
O O1 0.085023 0.855897 0.055461
O O2 0.914110 0.930492 0.680699
O O3 0.961399 0.107888 0.794803
O O4 0.274575 0.037211 0.967443
O O5 0.663004 0.037402 0.291850
O O6 0.538567 0.286149 0.985597
O O7 0.500000 0.000000 0.000000
O O8 0.012549 0.774825 0.485239
O O9 0.000000 0.000000 0.500000
O O10 0.584588 0.610210 0.820119
O O11 0.500000 0.500000 0.000000
O O12 0.835351 0.467668 0.205958
O O13 0.646265 0.219057 0.548955
O O14 0.651966 0.927490 0.735785
O O15 0.318976 0.725627 0.652114
O O16 0.000000 0.500000 0.500000
#
# Coordination Sequence:
#
# PCOD9095298 Si02
#       7
#     2   2   2   2   2   2   2
#     4  11  22  37  60  87 123 159 207 236 308 350
#     4  11  23  40  63  93 123 156 194 251 317 359
#     4  11  22  37  58  95 121 151 198 247 304 365
#     4   9  20  34  57  88 121 147 193 258 299 346
#     4  10  22  36  57  86 121 169 199 250 277 369
#     4  10  20  35  56  87 122 154 205 244 303 340
#     4  10  21  33  57  90 122 150 191 256 313 349
#
# _framework density 19.969526999999999
#
# number of rings (size 3 to 8) (size 9 to 14) (size 15 to 20)
#    0.000    1.714    2.857    2.571    8.000    0.000 
#    0.000    0.000    0.000    1.714    3.714    0.000 
#    0.000    0.000    0.000    0.000    0.000    0.000 
#
# Total GULP energy -78034.675182 kJ/mol
# GULP energy per Si atom -5573.905370 kJ/mol
# Density = 1.992408 g / cm^3
# Si number density = 19.969527 Si / 1000 Ang^3
#
#
#
# Elastic Constant Matrix: (Units=GPa)
#
#
# Indices 1 2 3 4 5 6 
#
# 1 89.5867 41.9991 39.0671 7.1425 2.2935 -12.8934
# 2 41.9991 86.0264 38.7086 -2.9192 -1.8548 -26.2274
# 3 39.0671 38.7086 177.9934 -11.8316 -21.6908 -3.6325
# 4 7.1425 -2.9192 -11.8316 32.9542 -0.3658 -2.8348
# 5 2.2935 -1.8548 -21.6908 -0.3658 36.3317 8.3547
# 6 -12.8934 -26.2274 -3.6325 -2.8348 8.3547 22.7046
#
#
#
# Elastic Compliance Matrix: (Units=1/GPa)
#
#
# Indices 1 2 3 4 5 6 
#
# 1 0.016122 -0.006042 -0.002953 -0.004920 -0.003703 0.002452
# 2 -0.006042 0.024911 -0.004106 0.004360 -0.007163 0.027869
# 3 -0.002953 -0.004106 0.007966 0.002590 0.006410 -0.007181
# 4 -0.004920 0.004360 0.002590 0.033295 0.000926 0.006473
# 5 -0.003703 -0.007163 0.006410 0.000926 0.036435 -0.022643
# 6 0.002452 0.027869 -0.007181 0.006473 -0.022643 0.085621
#
#
# Mechanical properties :
#
#
# Convention : Reuss Voigt Hill
#
# Bulk Modulus (GPa) = 43.86122 65.90623 54.88372
# Shear Modulus (GPa) = 20.99504 33.98689 27.49096
#
# Velocity S-wave (km/s) = 3.24598 4.12993 3.71434
# Velocity P-wave (km/s) = 6.00502 7.47107 6.77780
#
# Compressibility (1/GPa) = 0.02279919
#
# Stress axis : x y z
#
# Youngs Moduli (GPa) = 62.02533 40.14211 125.53383
#
# Poissons Ratio (x) = 0.24252 0.37070
# Poissons Ratio (y) = 0.37473 0.51542
# Poissons Ratio (z) = 0.18316 0.16482
#
# Static dielectric constant tensor:
#      x y z
#    x 1.712700 0.026630 -0.019460 
#    y 0.026630 1.751420 -0.006570 
#    z -0.019460 -0.006570 1.821580 
# 
# From -- ./inp_files/416742.got.cif
#   From: 2010.05.17/outbox.cif.g08.bks.cpg/sg2_209_cif.got.tgz:416742.got - 2010.06.03 11:33:40.
