data_PCOD9095047
_publ_section_title
;
Structure prediction by ZEFSAII (Michael W. Deem and Ramdas Pophale) SiO2 
 PCOD9095047
Probable space group: P -1
;
_chemical_formula_sum "Si O2"
_cell_formula_units_Z 15
_cell_length_a 4.991374
_cell_length_b 21.196690
_cell_length_c 11.077468
_cell_angle_alpha 144.951890
_cell_angle_beta 118.244455
_cell_angle_gamma 77.862006
_cell_volume 555.361987
_symmetry_space_group_name_H-M "P -1"
_symmetry_group_IT_number 2
_symmetry_cell_setting 'triclinic'
loop_
_space_group_symop_operation_xyz
x,y,z
-x,-y,-z
loop_
_atom_site_type_symbol
_atom_site_label
_atom_site_fract_x
_atom_site_fract_y
_atom_site_fract_z
Si Si1 0.649050 0.765919 0.085099
Si Si2 0.122706 0.752946 0.570486
Si Si3 0.095341 0.634873 0.906916
Si Si4 0.367942 0.418160 0.953615
Si Si5 0.100151 0.924378 0.637795
Si Si6 0.000000 0.500000 0.500000
Si Si7 0.608425 0.038130 0.722005
Si Si8 0.374033 0.360351 0.494217
O O1 0.350101 0.644987 0.861767
O O2 0.932101 0.730325 0.032134
O O3 0.812916 0.832268 0.348157
O O4 0.482436 0.845128 0.106364
O O5 0.162401 0.875384 0.703780
O O6 0.435866 0.725505 0.634721
O O7 0.860754 0.709380 0.553864
O O8 0.980335 0.669537 0.292457
O O9 0.363661 0.645092 0.079554
O O10 0.892311 0.502682 0.627281
O O11 0.384332 0.510772 0.206295
O O12 0.500000 0.500000 0.000000
O O13 0.398925 0.959135 0.662157
O O14 0.963048 0.030430 0.794057
O O15 0.179786 0.400192 0.413216
O O16 0.500000 0.000000 0.500000
#
# Coordination Sequence:
#
# PCOD9095047 Si02
#       8
#     2   2   2   2   2   1   2   2
#     4  11  21  35  57  86 118 157 197 226 299 353
#     4  11  21  35  58  89 115 153 193 231 305 357
#     4  11  23  37  59  84 114 161 195 250 279 346
#     4   9  20  34  53  80 117 147 190 233 291 351
#     4  11  20  33  58  87 130 152 187 237 294 367
#     4  10  26  46  60  84 118 156 214 252 292 316
#     4  10  20  35  53  86 126 163 183 231 292 369
#     4  10  23  38  58  80 115 157 199 246 285 347
#
# _framework density 27.009408000000001
#
# number of rings (size 3 to 8) (size 9 to 14) (size 15 to 20)
#    0.000    1.600    1.333    5.200    3.733    8.533 
#    0.000    0.000    0.000    0.000    0.000   18.667 
#    0.000    0.000    0.000    0.000    0.000    0.000 
#
# Total GULP energy -83564.579638 kJ/mol
# GULP energy per Si atom -5570.971976 kJ/mol
# Density = 2.694793 g / cm^3
# Si number density = 27.009408 Si / 1000 Ang^3
#
#
#
# Elastic Constant Matrix: (Units=GPa)
#
#
# Indices 1 2 3 4 5 6 
#
# 1 140.1490 52.2661 24.1273 15.4421 -11.5066 -15.2643
# 2 52.2661 143.1986 26.1670 36.4207 -13.1801 -27.8991
# 3 24.1273 26.1670 58.0955 3.8949 -6.9632 -11.4062
# 4 15.4421 36.4207 3.8949 32.1558 -6.6246 -7.5496
# 5 -11.5066 -13.1801 -6.9632 -6.6246 30.3722 13.2996
# 6 -15.2643 -27.8991 -11.4062 -7.5496 13.2996 48.1713
#
#
#
# Elastic Compliance Matrix: (Units=1/GPa)
#
#
# Indices 1 2 3 4 5 6 
#
# 1 0.008638 -0.002325 -0.002247 -0.000873 0.001413 0.000331
# 2 -0.002325 0.011937 -0.002962 -0.011247 -0.000522 0.003857
# 3 -0.002247 -0.002962 0.019964 0.002966 0.002135 0.002175
# 4 -0.000873 -0.011247 0.002966 0.044898 0.005513 -0.000573
# 5 0.001413 -0.000522 0.002135 0.005513 0.038974 -0.009245
# 6 0.000331 0.003857 0.002175 -0.000573 -0.009245 0.026076
#
#
# Mechanical properties :
#
#
# Convention : Reuss Voigt Hill
#
# Bulk Modulus (GPa) = 39.26159 60.72932 49.99546
# Shear Modulus (GPa) = 28.72798 38.06538 33.39668
#
# Velocity S-wave (km/s) = 3.26487 3.75819 3.52018
# Velocity P-wave (km/s) = 5.36473 6.43158 5.92223
#
# Compressibility (1/GPa) = 0.02547018
#
# Stress axis : x y z
#
# Youngs Moduli (GPa) = 115.77326 83.77130 50.08895
#
# Poissons Ratio (x) = 0.19480 0.11255
# Poissons Ratio (y) = 0.26922 0.14838
# Poissons Ratio (z) = 0.26013 0.24815
#
# Static dielectric constant tensor:
#      x y z
#    x 2.087430 0.082680 0.044820 
#    y 0.082680 2.030170 -0.300860 
#    z 0.044820 -0.300860 3.516440 
# 
# From -- ./inp_files/485844.got.cif
#   From: 2010.05.17/outbox.cif.g08.bks.cpg/sg2_243_cif.got.tgz:485844.got - 2010.06.03 11:33:40.
