data_PCOD9095827
_publ_section_title
;
Structure prediction by ZEFSAII (Michael W. Deem and Ramdas Pophale) SiO2 
 PCOD9095827
Probable space group: P -1
;
_chemical_formula_sum "Si O2"
_cell_formula_units_Z 16
_cell_length_a 6.480827
_cell_length_b 6.899187
_cell_length_c 14.786032
_cell_angle_alpha 115.886946
_cell_angle_beta 82.567498
_cell_angle_gamma 81.825732
_cell_volume 574.973679
_symmetry_space_group_name_H-M "P -1"
_symmetry_group_IT_number 2
_symmetry_cell_setting 'triclinic'
loop_
_space_group_symop_operation_xyz
x,y,z
-x,-y,-z
loop_
_atom_site_type_symbol
_atom_site_label
_atom_site_fract_x
_atom_site_fract_y
_atom_site_fract_z
Si Si1 0.613673 0.089694 0.429128
Si Si2 0.528932 0.518723 0.728820
Si Si3 0.241885 0.836722 0.928270
Si Si4 0.090550 0.425760 0.078823
Si Si5 0.708831 0.898717 0.715539
Si Si6 0.480764 0.173194 0.922341
Si Si7 0.974863 0.305521 0.674215
Si Si8 0.833655 0.383598 0.385384
O O1 0.827996 0.900191 0.365674
O O2 0.500000 0.000000 0.500000
O O3 0.433247 0.119849 0.367522
O O4 0.705356 0.314032 0.463322
O O5 0.382352 0.594565 0.839689
O O6 0.659278 0.711495 0.748213
O O7 0.348658 0.554613 0.668841
O O8 0.724260 0.303053 0.671295
O O9 0.010205 0.785341 0.935412
O O10 0.310951 0.011309 0.891380
O O11 0.332571 0.898452 0.030284
O O12 0.040874 0.571515 0.201580
O O13 0.000000 0.500000 0.000000
O O14 0.336078 0.376987 0.024522
O O15 0.963885 0.825470 0.680098
O O16 0.607410 0.134217 0.814351
O O17 0.047201 0.418441 0.601078
#
# Coordination Sequence:
#
# PCOD9095827 Si02
#       8
#     2   2   2   2   2   2   2   2
#     4  11  26  47  71 102 132 166 224 287 349 420
#     4   9  18  39  65  93 130 177 228 266 324 397
#     4  10  20  35  60  87 128 177 225 268 314 380
#     4  12  24  37  56  95 140 178 228 275 325 391
#     4   9  21  40  66  98 134 173 225 273 335 401
#     4  10  21  37  61  94 127 175 230 269 311 391
#     4  11  23  43  69  98 135 179 225 278 337 406
#     4  10  22  44  72  95 133 180 216 280 344 397
#
# _framework density 27.827363999999999
#
# number of rings (size 3 to 8) (size 9 to 14) (size 15 to 20)
#    0.000    1.750    2.500    1.125    1.750    6.500 
#    2.250    5.625    0.000    0.000    0.000    0.000 
#    0.000    0.000    0.000    0.000    0.000    0.000 
#
# Total GULP energy -89206.987879 kJ/mol
# GULP energy per Si atom -5575.436742 kJ/mol
# Density = 2.776403 g / cm^3
# Si number density = 27.827364 Si / 1000 Ang^3
#
#
#
# Elastic Constant Matrix: (Units=GPa)
#
#
# Indices 1 2 3 4 5 6 
#
# 1 199.2808 53.6280 62.0176 -5.2030 -24.2036 -35.7850
# 2 53.6280 85.6043 37.2760 -8.5301 -15.0003 -8.5895
# 3 62.0176 37.2760 90.4681 -14.5443 -16.8577 -12.1554
# 4 -5.2030 -8.5301 -14.5443 37.6367 -3.6787 -10.1530
# 5 -24.2036 -15.0003 -16.8577 -3.6787 51.7277 -1.1872
# 6 -35.7850 -8.5895 -12.1554 -10.1530 -1.1872 69.6941
#
#
#
# Elastic Compliance Matrix: (Units=1/GPa)
#
#
# Indices 1 2 3 4 5 6 
#
# 1 0.007516 -0.002645 -0.003309 0.000143 0.001750 0.003007
# 2 -0.002645 0.015623 -0.003878 0.001946 0.002172 0.000212
# 3 -0.003309 -0.003878 0.016684 0.005869 0.003219 0.001642
# 4 0.000143 0.001946 0.005869 0.031396 0.004914 0.005994
# 5 0.001750 0.002172 0.003219 0.004914 0.022244 0.002823
# 6 0.003007 0.000212 0.001642 0.005994 0.002823 0.017126
#
#
# Mechanical properties :
#
#
# Convention : Reuss Voigt Hill
#
# Bulk Modulus (GPa) = 49.60669 75.68847 62.64758
# Shear Modulus (GPa) = 36.50338 46.64049 41.57193
#
# Velocity S-wave (km/s) = 3.62578 4.09842 3.86932
# Velocity P-wave (km/s) = 5.94926 7.04659 6.52104
#
# Compressibility (1/GPa) = 0.02015857
#
# Stress axis : x y z
#
# Youngs Moduli (GPa) = 133.05116 64.00827 59.93651
#
# Poissons Ratio (x) = 0.16928 0.19836
# Poissons Ratio (y) = 0.35188 0.23244
# Poissons Ratio (z) = 0.44033 0.24823
#
# Static dielectric constant tensor:
#      x y z
#    x 2.202180 -0.071910 -0.036600 
#    y -0.071910 2.402220 0.098010 
#    z -0.036600 0.098010 2.222310 
# 
# From -- ./inp_files/480725.got.cif
#   From: 2010.05.17/outbox.cif.g08.bks.cpg/sg2_241_cif.got.tgz:480725.got - 2010.06.03 11:33:40.
