data_PCOD9095350
_publ_section_title
;
Structure prediction by ZEFSAII (Michael W. Deem and Ramdas Pophale) SiO2 
 PCOD9095350
Probable space group: P -1
;
_chemical_formula_sum "Si O2"
_cell_formula_units_Z 16
_cell_length_a 9.013375
_cell_length_b 9.355449
_cell_length_c 14.633605
_cell_angle_alpha 92.633156
_cell_angle_beta 131.894609
_cell_angle_gamma 113.792053
_cell_volume 744.976945
_symmetry_space_group_name_H-M "P -1"
_symmetry_group_IT_number 2
_symmetry_cell_setting 'triclinic'
loop_
_space_group_symop_operation_xyz
x,y,z
-x,-y,-z
loop_
_atom_site_type_symbol
_atom_site_label
_atom_site_fract_x
_atom_site_fract_y
_atom_site_fract_z
Si Si1 0.148203 0.276834 0.610145
Si Si2 0.065719 0.889295 0.745901
Si Si3 0.870253 0.178511 0.934993
Si Si4 0.693156 0.491161 0.138782
Si Si5 0.757630 0.860812 0.008717
Si Si6 0.412948 0.376152 0.549558
Si Si7 0.042302 0.431435 0.179730
Si Si8 0.662915 0.970475 0.318038
O O1 0.198174 0.374092 0.728614
O O2 0.284190 0.406381 0.581997
O O3 0.267434 0.168036 0.655647
O O4 0.860908 0.136264 0.466286
O O5 0.020213 0.727871 0.782208
O O6 0.811459 0.814779 0.585312
O O7 0.142970 0.047159 0.849790
O O8 0.274871 0.957165 0.758362
O O9 0.619285 0.116753 0.780554
O O10 0.090624 0.213135 0.964741
O O11 0.957641 0.340566 0.043349
O O12 0.805396 0.012923 0.965535
O O13 0.895334 0.504990 0.158008
O O14 0.500000 0.500000 0.000000
O O15 0.526496 0.295648 0.107084
O O16 0.500000 0.500000 0.500000
O O17 0.667155 0.420498 0.692156
#
# Coordination Sequence:
#
# PCOD9095350 Si02
#       8
#     2   2   2   2   2   2   2   2
#     4  10  22  38  58  83 113 147 187 229 276 337
#     4   9  18  36  58  80 110 148 184 231 279 326
#     4  10  20  36  58  82 110 149 189 234 276 324
#     4  12  24  37  55  83 118 150 184 232 277 327
#     4  10  21  35  55  83 112 144 192 233 273 329
#     4   9  19  37  58  82 112 145 182 229 280 327
#     4  10  20  35  57  82 112 149 191 227 275 333
#     4  10  20  38  59  80 109 147 186 226 281 334
#
# _framework density 21.477174999999999
#
# number of rings (size 3 to 8) (size 9 to 14) (size 15 to 20)
#    0.000    2.000    0.000    3.750    0.000    5.000 
#    0.000   12.500    0.000    6.000    0.000    0.000 
#    0.000    0.000    0.000    0.000    0.000    0.000 
#
# Total GULP energy -89399.904298 kJ/mol
# GULP energy per Si atom -5587.494019 kJ/mol
# Density = 2.142829 g / cm^3
# Si number density = 21.477175 Si / 1000 Ang^3
#
#
#
# Elastic Constant Matrix: (Units=GPa)
#
#
# Indices 1 2 3 4 5 6 
#
# 1 103.1600 20.4169 78.5605 10.3776 1.9638 -25.8161
# 2 20.4169 57.4830 20.1623 -1.6922 -10.6297 5.5982
# 3 78.5605 20.1623 146.6885 9.8751 -5.3133 -30.4309
# 4 10.3776 -1.6922 9.8751 19.7867 -3.2865 -4.9781
# 5 1.9638 -10.6297 -5.3133 -3.2865 47.8511 3.6695
# 6 -25.8161 5.5982 -30.4309 -4.9781 3.6695 22.8528
#
#
#
# Elastic Compliance Matrix: (Units=1/GPa)
#
#
# Indices 1 2 3 4 5 6 
#
# 1 0.021001 -0.007836 -0.006567 -0.005055 -0.004951 0.016593
# 2 -0.007836 0.024677 -0.003256 0.004141 0.007221 -0.019490
# 3 -0.006567 -0.003256 0.013020 -0.000655 0.000138 0.010551
# 4 -0.005055 0.004141 -0.000655 0.055582 0.004583 0.003775
# 5 -0.004951 0.007221 0.000138 0.004583 0.023802 -0.010002
# 6 0.016593 -0.019490 0.010551 0.003775 -0.010002 0.083755
#
#
# Mechanical properties :
#
#
# Convention : Reuss Voigt Hill
#
# Bulk Modulus (GPa) = 42.77152 60.62344 51.69748
# Shear Modulus (GPa) = 18.87168 30.64424 24.75796
#
# Velocity S-wave (km/s) = 2.96748 3.78144 3.39891
# Velocity P-wave (km/s) = 5.63022 6.88142 6.28702
#
# Compressibility (1/GPa) = 0.02338004
#
# Stress axis : x y z
#
# Youngs Moduli (GPa) = 47.61757 40.52386 76.80754
#
# Poissons Ratio (x) = 0.31755 0.50439
# Poissons Ratio (y) = 0.37313 0.25005
# Poissons Ratio (z) = 0.31270 0.13193
#
# Static dielectric constant tensor:
#      x y z
#    x 1.747270 0.053780 -0.006760 
#    y 0.053780 1.862730 -0.043830 
#    z -0.006760 -0.043830 1.757820 
# 
# From -- ./inp_files/242887.got.cif
#   From: 2010.05.17/outbox.cif.g08.bks.cpg/sg2_122_cif.got.tgz:242887.got - 2010.06.03 11:33:40.
