data_PCOD9095631
_publ_section_title
;
Structure prediction by ZEFSAII (Michael W. Deem and Ramdas Pophale) SiO2 
 PCOD9095631
Probable space group: P -1
;
_chemical_formula_sum "Si O2"
_cell_formula_units_Z 14
_cell_length_a 11.717779
_cell_length_b 7.392522
_cell_length_c 13.915351
_cell_angle_alpha 76.815643
_cell_angle_beta 148.365072
_cell_angle_gamma 87.457137
_cell_volume 544.280107
_symmetry_space_group_name_H-M "P -1"
_symmetry_group_IT_number 2
_symmetry_cell_setting 'triclinic'
loop_
_space_group_symop_operation_xyz
x,y,z
-x,-y,-z
loop_
_atom_site_type_symbol
_atom_site_label
_atom_site_fract_x
_atom_site_fract_y
_atom_site_fract_z
Si Si1 0.922255 0.716579 0.052343
Si Si2 0.294218 0.293939 0.292085
Si Si3 0.873627 0.452894 0.221946
Si Si4 0.522757 0.658507 0.126733
Si Si5 0.187288 0.783070 0.534177
Si Si6 0.148125 0.961958 0.273618
Si Si7 0.273104 0.093243 0.673335
O O1 0.904163 0.604423 0.149764
O O2 0.162722 0.538274 0.192091
O O3 0.962301 0.915106 0.082592
O O4 0.710446 0.752107 0.819420
O O5 0.430225 0.819235 0.457908
O O6 0.869878 0.808431 0.769192
O O7 0.707619 0.584689 0.177155
O O8 0.127007 0.270544 0.467086
O O9 0.725323 0.339247 0.084153
O O10 0.656828 0.467390 0.321161
O O11 0.508734 0.869112 0.134162
O O12 0.146118 0.879698 0.388529
O O13 0.927751 0.855914 0.392908
O O14 0.327623 0.873523 0.693198
#
# Coordination Sequence:
#
# PCOD9095631 Si02
#       7
#     2   2   2   2   2   2   2
#     4  11  21  39  59  80 110 146 180 229 277 317
#     4  10  24  38  56  84 108 138 192 230 268 330
#     4  10  20  35  59  83 110 146 185 216 269 333
#     4  10  20  37  55  83 117 144 176 224 266 321
#     4  10  20  35  59  83 110 146 185 216 269 333
#     4  11  21  39  59  80 110 146 180 229 277 317
#     4  10  20  37  55  83 117 144 176 224 266 321
#
# _framework density 25.722051
#
# number of rings (size 3 to 8) (size 9 to 14) (size 15 to 20)
#    0.000    1.714    0.000    6.000    0.000    0.000 
#    0.000   24.286    0.000    0.000    0.000    0.000 
#    0.000    0.000    0.000    0.000    0.000    0.000 
#
# Total GULP energy -78515.950305 kJ/mol
# GULP energy per Si atom -5608.282165 kJ/mol
# Density = 2.566351 g / cm^3
# Si number density = 25.722051 Si / 1000 Ang^3
#
#
#
# Elastic Constant Matrix: (Units=GPa)
#
#
# Indices 1 2 3 4 5 6 
#
# 1 85.6163 18.3704 24.0564 -2.6750 -23.7496 17.8481
# 2 18.3704 116.7572 21.8646 38.9837 7.7709 13.7102
# 3 24.0564 21.8646 44.9159 2.4250 -4.3199 5.8643
# 4 -2.6750 38.9837 2.4250 49.1009 12.4771 -0.2482
# 5 -23.7496 7.7709 -4.3199 12.4771 37.3222 -21.7584
# 6 17.8481 13.7102 5.8643 -0.2482 -21.7584 26.7249
#
#
#
# Elastic Compliance Matrix: (Units=1/GPa)
#
#
# Indices 1 2 3 4 5 6 
#
# 1 0.017017 -0.002060 -0.007091 0.000391 0.009909 -0.000681
# 2 -0.002060 0.015202 -0.004976 -0.009580 -0.009535 -0.013183
# 3 -0.007091 -0.004976 0.028218 0.002338 -0.000647 0.000591
# 4 0.000391 -0.009580 0.002338 0.030297 -0.009587 -0.003384
# 5 0.009909 -0.009535 -0.000647 -0.009587 0.070884 0.056038
# 6 -0.000681 -0.013183 0.000591 -0.003384 0.056038 0.090099
#
#
# Mechanical properties :
#
#
# Convention : Reuss Voigt Hill
#
# Bulk Modulus (GPa) = 31.07041 41.76359 36.41700
# Shear Modulus (GPa) = 17.20003 34.82945 26.01474
#
# Velocity S-wave (km/s) = 2.58871 3.68376 3.18367
# Velocity P-wave (km/s) = 4.58702 5.86218 5.26336
#
# Compressibility (1/GPa) = 0.03218496
#
# Stress axis : x y z
#
# Youngs Moduli (GPa) = 58.76384 65.78176 35.43842
#
# Poissons Ratio (x) = 0.13550 0.25128
# Poissons Ratio (y) = 0.12104 0.17632
# Poissons Ratio (z) = 0.41668 0.32730
#
# Static dielectric constant tensor:
#      x y z
#    x 2.025830 0.002130 -0.006210 
#    y 0.002130 1.979860 0.013440 
#    z -0.006210 0.013440 1.996380 
# 
# From -- ./inp_files/526528.got.cif
#   From: 2010.05.17/outbox.cif.g08.bks.cpg/sg2_264_cif.got.tgz:526528.got - 2010.06.03 11:33:40.
