data_PCOD9095981
_publ_section_title
;
Structure prediction by ZEFSAII (Michael W. Deem and Ramdas Pophale) SiO2 
 PCOD9095981
Probable space group: P -1
;
_chemical_formula_sum "Si O2"
_cell_formula_units_Z 14
_cell_length_a 5.286740
_cell_length_b 14.529021
_cell_length_c 11.186181
_cell_angle_alpha 60.976045
_cell_angle_beta 115.821697
_cell_angle_gamma 119.971216
_cell_volume 629.325812
_symmetry_space_group_name_H-M "P -1"
_symmetry_group_IT_number 2
_symmetry_cell_setting 'triclinic'
loop_
_space_group_symop_operation_xyz
x,y,z
-x,-y,-z
loop_
_atom_site_type_symbol
_atom_site_label
_atom_site_fract_x
_atom_site_fract_y
_atom_site_fract_z
Si Si1 0.291569 0.368189 0.029923
Si Si2 0.165227 0.416539 0.472255
Si Si3 0.351673 0.024291 0.072839
Si Si4 0.885801 0.185927 0.463054
Si Si5 0.962308 0.362324 0.717837
Si Si6 0.513338 0.843827 0.366859
Si Si7 0.724886 0.236993 0.155315
O O1 0.521071 0.302777 0.122227
O O2 0.035937 0.321334 0.108502
O O3 0.500000 0.500000 0.000000
O O4 0.115958 0.343796 0.881481
O O5 0.500000 0.500000 0.500000
O O6 0.083932 0.320985 0.416911
O O7 0.111521 0.353132 0.628210
O O8 0.000688 0.505226 0.359294
O O9 0.531631 0.152381 0.067831
O O10 0.405962 0.939458 0.232412
O O11 0.500000 0.000000 0.000000
O O12 0.000000 0.000000 0.000000
O O13 0.127758 0.128209 0.578155
O O14 0.626899 0.174424 0.515574
O O15 0.769456 0.161040 0.320595
O O16 0.634749 0.266721 0.681163
#
# Coordination Sequence:
#
# PCOD9095981 Si02
#       7
#     2   2   2   2   2   2   2
#     4  12  27  44  69 100 140 183 224 274 343 418
#     4  10  20  35  61  89 129 170 213 276 327 389
#     4  12  26  47  73 101 136 178 232 284 343 400
#     4  11  24  41  65  98 134 171 227 272 343 399
#     4  10  22  37  60  94 127 171 224 271 332 395
#     4  11  23  41  67  97 128 176 224 279 327 401
#     4  12  27  46  69  99 140 181 223 290 338 401
#
# _framework density 22.246030999999999
#
# number of rings (size 3 to 8) (size 9 to 14) (size 15 to 20)
#    0.000    0.857    1.429    5.571    4.000    2.286 
#    0.000    0.000    0.000    0.000    0.000    0.000 
#    0.000    0.000    0.000    0.000    0.000    0.000 
#
# Total GULP energy -78195.809092 kJ/mol
# GULP energy per Si atom -5585.414935 kJ/mol
# Density = 2.219540 g / cm^3
# Si number density = 22.246031 Si / 1000 Ang^3
#
#
#
# Elastic Constant Matrix: (Units=GPa)
#
#
# Indices 1 2 3 4 5 6 
#
# 1 110.1218 15.2332 33.9040 7.2038 17.1855 -0.0092
# 2 15.2332 63.7514 -2.3969 8.9546 1.0698 3.3414
# 3 33.9040 -2.3969 107.7084 5.9520 2.8347 -5.1725
# 4 7.2038 8.9546 5.9520 31.1560 -2.0173 1.5898
# 5 17.1855 1.0698 2.8347 -2.0173 29.2687 -9.0889
# 6 -0.0092 3.3414 -5.1725 1.5898 -9.0889 17.0310
#
#
#
# Elastic Compliance Matrix: (Units=1/GPa)
#
#
# Indices 1 2 3 4 5 6 
#
# 1 0.011947 -0.002370 -0.003741 -0.001648 -0.008196 -0.004885
# 2 -0.002370 0.017089 0.001252 -0.004493 -0.000548 -0.002847
# 3 -0.003741 0.001252 0.010729 -0.001617 0.002376 0.004430
# 4 -0.001648 -0.004493 -0.001617 0.034347 0.003333 -0.001038
# 5 -0.008196 -0.000548 0.002376 0.003333 0.046936 0.025562
# 6 -0.004885 -0.002847 0.004430 -0.001038 0.025562 0.074356
#
#
# Mechanical properties :
#
#
# Convention : Reuss Voigt Hill
#
# Bulk Modulus (GPa) = 33.28113 41.67358 37.47735
# Shear Modulus (GPa) = 23.24086 31.14722 27.19404
#
# Velocity S-wave (km/s) = 3.23572 3.74588 3.50011
# Velocity P-wave (km/s) = 5.38078 6.12230 5.76348
#
# Compressibility (1/GPa) = 0.03004706
#
# Stress axis : x y z
#
# Youngs Moduli (GPa) = 83.70223 58.51756 93.20178
#
# Poissons Ratio (x) = 0.13871 0.34869
# Poissons Ratio (y) = 0.19840 -0.11673
# Poissons Ratio (z) = 0.31315 -0.07329
#
# Static dielectric constant tensor:
#      x y z
#    x 1.762710 -0.071380 -0.089540 
#    y -0.071380 1.827040 -0.138830 
#    z -0.089540 -0.138830 1.734970 
# 
# From -- ./inp_files/366843.got.cif
#   From: 2010.05.17/outbox.cif.g08.bks.cpg/sg2_184_cif.got.tgz:366843.got - 2010.06.03 11:33:40.
