data_PCOD9095587
_publ_section_title
;
Structure prediction by ZEFSAII (Michael W. Deem and Ramdas Pophale) SiO2 
 PCOD9095587
Probable space group: P -1
;
_chemical_formula_sum "Si O2"
_cell_formula_units_Z 16
_cell_length_a 9.059846
_cell_length_b 10.395828
_cell_length_c 14.216194
_cell_angle_alpha 76.337677
_cell_angle_beta 145.147865
_cell_angle_gamma 115.623738
_cell_volume 671.351779
_symmetry_space_group_name_H-M "P -1"
_symmetry_group_IT_number 2
_symmetry_cell_setting 'triclinic'
loop_
_space_group_symop_operation_xyz
x,y,z
-x,-y,-z
loop_
_atom_site_type_symbol
_atom_site_label
_atom_site_fract_x
_atom_site_fract_y
_atom_site_fract_z
Si Si1 0.262681 0.730905 0.259535
Si Si2 0.791326 0.854660 0.619467
Si Si3 0.941844 0.607030 0.747606
Si Si4 0.699305 0.367896 0.894965
Si Si5 0.244555 0.338848 0.883143
Si Si6 0.177510 0.825219 0.672421
Si Si7 0.906317 0.626423 0.399040
Si Si8 0.316617 0.052469 0.965734
O O1 0.494773 0.847125 0.429530
O O2 0.215779 0.565544 0.291827
O O3 0.000000 0.500000 0.000000
O O4 0.945607 0.714419 0.113368
O O5 0.742745 0.689281 0.647565
O O6 0.993171 0.891953 0.624022
O O7 0.985289 0.948545 0.789530
O O8 0.078060 0.670736 0.706314
O O9 0.193928 0.669885 0.945443
O O10 0.634413 0.251616 0.797100
O O11 0.430917 0.408570 0.755839
O O12 0.051486 0.347010 0.694523
O O13 0.328619 0.210198 0.923842
O O14 0.500000 0.500000 0.000000
O O15 0.081939 0.772469 0.526846
O O16 0.510886 0.922677 0.850370
O O17 0.000000 0.500000 0.500000
O O18 0.500000 0.000000 0.000000
#
# Coordination Sequence:
#
# PCOD9095587 Si02
#       8
#     2   2   2   2   2   2   2   2
#     4  11  20  37  60  90 129 161 209 267 311 377
#     4   9  20  36  63  87 121 169 209 249 317 380
#     4   9  18  33  61  91 120 163 209 253 309 373
#     4  10  20  35  58  89 126 169 211 258 317 381
#     4  12  26  41  65  97 130 164 212 265 321 372
#     4   9  19  37  59  87 120 160 211 253 307 369
#     4  12  23  37  61  96 132 164 211 268 317 373
#     4  10  21  42  65  89 125 175 205 258 319 386
#
# _framework density 23.832514
#
# number of rings (size 3 to 8) (size 9 to 14) (size 15 to 20)
#    0.750    1.000    1.250    4.875    0.000    2.500 
#    0.000    3.750    0.000    1.500    0.000    0.000 
#    0.000    0.000    0.000    0.000    0.000    0.000 
#
# Total GULP energy -89173.662994 kJ/mol
# GULP energy per Si atom -5573.353937 kJ/mol
# Density = 2.377827 g / cm^3
# Si number density = 23.832514 Si / 1000 Ang^3
#
#
#
# Elastic Constant Matrix: (Units=GPa)
#
#
# Indices 1 2 3 4 5 6 
#
# 1 55.9360 5.8203 30.4813 -2.9525 1.5745 -8.9085
# 2 5.8203 76.5888 13.5177 1.6151 3.1267 -16.2971
# 3 30.4813 13.5177 159.3570 34.9474 8.5202 -8.3623
# 4 -2.9525 1.6151 34.9474 40.3152 -3.7222 5.5764
# 5 1.5745 3.1267 8.5202 -3.7222 32.7897 -0.9644
# 6 -8.9085 -16.2971 -8.3623 5.5764 -0.9644 18.7346
#
#
#
# Elastic Compliance Matrix: (Units=1/GPa)
#
#
# Indices 1 2 3 4 5 6 
#
# 1 0.021947 0.000625 -0.005020 0.005015 0.000975 0.007297
# 2 0.000625 0.016393 0.000003 -0.002870 -0.001469 0.015337
# 3 -0.005020 0.000003 0.009819 -0.009841 -0.003288 0.004758
# 4 0.005015 -0.002870 -0.009841 0.036478 0.006289 -0.015039
# 5 0.000975 -0.001469 -0.003288 0.006289 0.032085 -0.002502
# 6 0.007297 0.015337 0.004758 -0.015039 -0.002502 0.076660
#
#
# Mechanical properties :
#
#
# Convention : Reuss Voigt Hill
#
# Bulk Modulus (GPa) = 25.39677 43.50226 34.44951
# Shear Modulus (GPa) = 23.22429 34.50539 28.86484
#
# Velocity S-wave (km/s) = 3.12505 3.80916 3.48394
# Velocity P-wave (km/s) = 4.86834 6.13508 5.53805
#
# Compressibility (1/GPa) = 0.03937509
#
# Stress axis : x y z
#
# Youngs Moduli (GPa) = 45.56336 61.00226 101.84578
#
# Poissons Ratio (x) = -0.03815 0.51126
# Poissons Ratio (y) = -0.02849 -0.00027
# Poissons Ratio (z) = 0.22873 -0.00016
#
# Static dielectric constant tensor:
#      x y z
#    x 2.012510 0.004600 0.024400 
#    y 0.004600 1.938430 -0.009060 
#    z 0.024400 -0.009060 1.972500 
# 
# From -- ./inp_files/517910.got.cif
#   From: 2010.05.17/outbox.cif.g08.bks.cpg/sg2_259_cif.got.tgz:517910.got - 2010.06.03 11:33:40.
