data_PCOD9095070
_publ_section_title
;
Structure prediction by ZEFSAII (Michael W. Deem and Ramdas Pophale) SiO2 
 PCOD9095070
Probable space group: P -1
;
_chemical_formula_sum "Si O2"
_cell_formula_units_Z 16
_cell_length_a 8.296041
_cell_length_b 18.969972
_cell_length_c 15.820805
_cell_angle_alpha 158.090668
_cell_angle_beta 120.748432
_cell_angle_gamma 50.398947
_cell_volume 687.466163
_symmetry_space_group_name_H-M "P -1"
_symmetry_group_IT_number 2
_symmetry_cell_setting 'triclinic'
loop_
_space_group_symop_operation_xyz
x,y,z
-x,-y,-z
loop_
_atom_site_type_symbol
_atom_site_label
_atom_site_fract_x
_atom_site_fract_y
_atom_site_fract_z
Si Si1 0.946109 0.947482 0.616613
Si Si2 0.643600 0.169910 0.519461
Si Si3 0.735761 0.809760 0.259109
Si Si4 0.782839 0.427326 0.143656
Si Si5 0.238069 0.734616 0.604035
Si Si6 0.884895 0.772274 0.861193
Si Si7 0.270927 0.543486 0.583342
Si Si8 0.211262 0.554364 0.030453
O O1 0.152724 0.934140 0.606079
O O2 0.056010 0.776800 0.532775
O O3 0.811459 0.893835 0.454162
O O4 0.804559 0.189531 0.885637
O O5 0.426298 0.369579 0.643717
O O6 0.596711 0.999043 0.365643
O O7 0.725716 0.270125 0.726708
O O8 0.658663 0.655919 0.108794
O O9 0.958112 0.655559 0.095988
O O10 0.755984 0.492388 0.110783
O O11 0.010553 0.366551 0.179474
O O12 0.206527 0.671211 0.618941
O O13 0.477196 0.542189 0.426868
O O14 0.230255 0.968801 0.867310
O O15 0.750713 0.672779 0.672273
O O16 0.098262 0.698179 0.778290
#
# Coordination Sequence:
#
# PCOD9095070 Si02
#       8
#     2   2   2   2   2   2   2   2
#     4  10  20  37  56  81 112 142 181 227 269 317
#     4  11  20  38  54  77 115 148 179 227 266 313
#     4  10  20  35  57  76 112 150 179 225 270 310
#     4  11  21  35  58  82 108 145 186 221 269 325
#     4  10  21  37  62  85 110 146 186 225 278 340
#     4  10  22  38  59  85 116 142 181 236 276 331
#     4  10  21  40  60  84 111 147 181 226 289 336
#     4  10  20  35  54  79 107 148 188 219 267 321
#
# _framework density 23.273873999999999
#
# number of rings (size 3 to 8) (size 9 to 14) (size 15 to 20)
#    0.000    1.750    2.500    2.625    1.750    0.500 
#    0.000    0.000    0.000    0.000    0.000    0.000 
#    0.000    0.000    0.000    0.000    0.000    0.000 
#
# Total GULP energy -89429.362120 kJ/mol
# GULP energy per Si atom -5589.335133 kJ/mol
# Density = 2.322090 g / cm^3
# Si number density = 23.273874 Si / 1000 Ang^3
#
#
#
# Elastic Constant Matrix: (Units=GPa)
#
#
# Indices 1 2 3 4 5 6 
#
# 1 31.1559 27.8501 7.5554 15.2484 -7.3627 13.4209
# 2 27.8501 70.2916 25.4565 27.1400 -13.5205 13.0086
# 3 7.5554 25.4565 56.4829 19.6339 -3.9409 1.2328
# 4 15.2484 27.1400 19.6339 37.8806 3.0214 2.5655
# 5 -7.3627 -13.5205 -3.9409 3.0214 23.2791 8.9058
# 6 13.4209 13.0086 1.2328 2.5655 8.9058 35.9635
#
#
#
# Elastic Compliance Matrix: (Units=1/GPa)
#
#
# Indices 1 2 3 4 5 6 
#
# 1 0.073072 -0.008123 0.006653 -0.027724 0.035080 -0.031268
# 2 -0.008123 0.034008 -0.005607 -0.019175 0.023939 -0.013638
# 3 0.006653 -0.005607 0.023609 -0.011177 0.004942 -0.001690
# 4 -0.027724 -0.019175 -0.011177 0.058581 -0.038176 0.022940
# 5 0.035080 0.023939 0.004942 -0.038176 0.089578 -0.041379
# 6 -0.031268 -0.013638 -0.001690 0.022940 -0.041379 0.053076
#
#
# Mechanical properties :
#
#
# Convention : Reuss Voigt Hill
#
# Bulk Modulus (GPa) = 8.58112 31.07272 19.82692
# Shear Modulus (GPa) = 12.98967 25.89587 19.44277
#
# Velocity S-wave (km/s) = 2.36502 3.33927 2.89345
# Velocity P-wave (km/s) = 3.33958 5.31484 4.43849
#
# Compressibility (1/GPa) = 0.11653494
#
# Stress axis : x y z
#
# Youngs Moduli (GPa) = 13.68516 29.40521 42.35752
#
# Poissons Ratio (x) = 0.23885 -0.28182
# Poissons Ratio (y) = 0.11116 0.23751
# Poissons Ratio (z) = -0.09105 0.16488
#
# Static dielectric constant tensor:
#      x y z
#    x 1.888060 -0.001280 0.003630 
#    y -0.001280 1.883160 0.025250 
#    z 0.003630 0.025250 1.880280 
# 
# From -- ./inp_files/218001.got.cif
#   From: 2010.05.17/outbox.cif.g08.bks.cpg/sg2_110_cif.got.tgz:218001.got - 2010.06.03 11:33:40.
