data_PCOD9095713
_publ_section_title
;
Structure prediction by ZEFSAII (Michael W. Deem and Ramdas Pophale) SiO2 
 PCOD9095713
Probable space group: P -1
;
_chemical_formula_sum "Si O2"
_cell_formula_units_Z 16
_cell_length_a 11.738160
_cell_length_b 12.996355
_cell_length_c 8.355053
_cell_angle_alpha 54.746423
_cell_angle_beta 59.181289
_cell_angle_gamma 42.231204
_cell_volume 691.143039
_symmetry_space_group_name_H-M "P -1"
_symmetry_group_IT_number 2
_symmetry_cell_setting 'triclinic'
loop_
_space_group_symop_operation_xyz
x,y,z
-x,-y,-z
loop_
_atom_site_type_symbol
_atom_site_label
_atom_site_fract_x
_atom_site_fract_y
_atom_site_fract_z
Si Si1 0.681894 0.344824 0.581032
Si Si2 0.329212 0.155581 0.674189
Si Si3 0.003380 0.676875 0.671085
Si Si4 0.205228 0.787916 0.702794
Si Si5 0.695788 0.012190 0.459832
Si Si6 0.038981 0.250758 0.000775
Si Si7 0.537244 0.574473 0.048557
Si Si8 0.811661 0.572814 0.713496
O O1 0.500000 0.500000 0.500000
O O2 0.772413 0.201571 0.511834
O O3 0.624996 0.317755 0.814019
O O4 0.812635 0.384002 0.467803
O O5 0.526879 0.073072 0.623350
O O6 0.232093 0.164849 0.890671
O O7 0.234424 0.335065 0.503809
O O8 0.313439 0.057390 0.637405
O O9 0.921231 0.607586 0.703709
O O10 0.867408 0.868424 0.556638
O O11 0.003004 0.660602 0.877227
O O12 0.290814 0.846375 0.689289
O O13 0.311851 0.594231 0.819776
O O14 0.019395 0.858055 0.835092
O O15 0.926426 0.378255 0.821045
O O16 0.500000 0.500000 0.000000
O O17 0.628740 0.646679 0.858559
#
# Coordination Sequence:
#
# PCOD9095713 Si02
#       8
#     2   2   2   2   2   2   2   2
#     4   9  20  38  58  84 114 147 187 238 294 338
#     4  10  22  39  58  82 119 156 193 237 285 345
#     4  10  22  39  60  86 119 152 193 241 286 348
#     4   9  20  38  57  81 115 149 188 234 285 345
#     4  10  22  40  56  80 119 160 193 230 285 346
#     4  10  21  36  59  88 111 147 197 246 292 332
#     4  10  20  35  59  89 115 145 191 240 288 338
#     4  10  21  38  59  87 119 150 191 243 293 340
#
# _framework density 23.150054999999998
#
# number of rings (size 3 to 8) (size 9 to 14) (size 15 to 20)
#    0.000    2.250    0.000    2.250    0.000   11.000 
#    0.000    7.500    0.000    0.000    0.000    0.000 
#    0.000    0.000    0.000    0.000    0.000    0.000 
#
# Total GULP energy -89298.733348 kJ/mol
# GULP energy per Si atom -5581.170834 kJ/mol
# Density = 2.309736 g / cm^3
# Si number density = 23.150055 Si / 1000 Ang^3
#
#
#
# Elastic Constant Matrix: (Units=GPa)
#
#
# Indices 1 2 3 4 5 6 
#
# 1 121.7167 26.4515 42.5423 18.4548 -34.5430 -17.1409
# 2 26.4515 55.2612 40.3977 10.3872 -15.9594 -14.8656
# 3 42.5423 40.3977 124.3441 48.9884 -34.7652 -13.2137
# 4 18.4548 10.3872 48.9884 39.0927 -15.6795 -8.0494
# 5 -34.5430 -15.9594 -34.7652 -15.6795 39.3952 1.9792
# 6 -17.1409 -14.8656 -13.2137 -8.0494 1.9792 31.4865
#
#
#
# Elastic Compliance Matrix: (Units=1/GPa)
#
#
# Indices 1 2 3 4 5 6 
#
# 1 0.012054 -0.001242 -0.000681 0.000300 0.009324 0.005180
# 2 -0.001242 0.028685 -0.010389 0.010157 0.004864 0.010798
# 3 -0.000681 -0.010389 0.021857 -0.022501 0.005637 -0.002210
# 4 0.000300 0.010157 -0.022501 0.055273 0.006054 0.009265
# 5 0.009324 0.004864 0.005637 0.006054 0.042482 0.008616
# 6 0.005180 0.010798 -0.002210 0.009265 0.008616 0.040577
#
#
# Mechanical properties :
#
#
# Convention : Reuss Voigt Hill
#
# Bulk Modulus (GPa) = 26.33510 57.78943 42.06227
# Shear Modulus (GPa) = 20.98993 34.79025 27.89009
#
# Velocity S-wave (km/s) = 3.01440 3.88082 3.47472
# Velocity P-wave (km/s) = 4.84933 6.71552 5.85723
#
# Compressibility (1/GPa) = 0.03797213
#
# Stress axis : x y z
#
# Youngs Moduli (GPa) = 82.95962 34.86126 45.75248
#
# Poissons Ratio (x) = 0.04329 0.03117
# Poissons Ratio (y) = 0.10301 0.47531
# Poissons Ratio (z) = 0.05652 0.36217
#
# Static dielectric constant tensor:
#      x y z
#    x 1.867180 -0.036850 0.005800 
#    y -0.036850 1.952290 -0.015250 
#    z 0.005800 -0.015250 1.958080 
# 
# From -- ./inp_files/215532.got.cif
#   From: 2010.05.17/outbox.cif.g08.bks.cpg/sg2_108_cif.got.tgz:215532.got - 2010.06.03 11:33:40.
