data_PCOD9095255
_publ_section_title
;
Structure prediction by ZEFSAII (Michael W. Deem and Ramdas Pophale) SiO2 
 PCOD9095255
Probable space group: P -1
;
_chemical_formula_sum "Si O2"
_cell_formula_units_Z 12
_cell_length_a 8.186538
_cell_length_b 12.092080
_cell_length_c 10.434359
_cell_angle_alpha 140.562378
_cell_angle_beta 49.445962
_cell_angle_gamma 115.471257
_cell_volume 492.948486
_symmetry_space_group_name_H-M "P -1"
_symmetry_group_IT_number 2
_symmetry_cell_setting 'triclinic'
loop_
_space_group_symop_operation_xyz
x,y,z
-x,-y,-z
loop_
_atom_site_type_symbol
_atom_site_label
_atom_site_fract_x
_atom_site_fract_y
_atom_site_fract_z
Si Si1 0.653503 0.863019 0.040296
Si Si2 0.434937 0.661394 0.582026
Si Si3 0.519066 0.202461 0.562311
Si Si4 0.983355 0.578859 0.722882
Si Si5 0.760752 0.079490 0.577410
Si Si6 0.167120 0.208166 0.396386
O O1 0.393715 0.856795 0.165891
O O2 0.668703 0.048652 0.266247
O O3 0.774527 0.847485 0.829328
O O4 0.761640 0.710046 0.943854
O O5 0.500000 0.500000 0.500000
O O6 0.491484 0.630082 0.374133
O O7 0.176078 0.693599 0.751589
O O8 0.598278 0.793200 0.659638
O O9 0.643447 0.199775 0.628603
O O10 0.702371 0.884471 0.399153
O O11 0.036720 0.408830 0.634508
O O12 0.000000 0.500000 0.500000
O O13 0.010521 0.098995 0.456558
#
# Coordination Sequence:
#
# PCOD9095255 Si02
#       6
#     2   2   2   2   2   2
#     4   9  19  36  58  87 108 148 191 237 270 322
#     4  10  21  36  56  83 116 151 183 225 287 342
#     4   9  19  38  56  87 111 144 196 233 272 325
#     4   9  18  34  58  81 105 147 190 226 268 325
#     4   9  20  37  58  88 109 144 195 235 274 320
#     4  10  20  35  56  82 119 152 176 226 289 338
#
# _framework density 24.343313999999999
#
# number of rings (size 3 to 8) (size 9 to 14) (size 15 to 20)
#    1.000    1.667    0.000    2.000    0.000    4.667 
#    0.000    1.667    0.000   12.000    0.000    0.000 
#    0.000    0.000    0.000    0.000    0.000    0.000 
#
# Total GULP energy -66857.880476 kJ/mol
# GULP energy per Si atom -5571.490040 kJ/mol
# Density = 2.428791 g / cm^3
# Si number density = 24.343314 Si / 1000 Ang^3
#
#
#
# Elastic Constant Matrix: (Units=GPa)
#
#
# Indices 1 2 3 4 5 6 
#
# 1 74.4418 30.6532 25.9608 -0.3369 -32.6088 14.6802
# 2 30.6532 130.3363 37.1078 -25.9083 -14.5314 3.3119
# 3 25.9608 37.1078 88.3194 -16.5987 -21.7486 15.6452
# 4 -0.3369 -25.9083 -16.5987 29.3655 2.6103 -12.3752
# 5 -32.6088 -14.5314 -21.7486 2.6103 29.7906 -11.7916
# 6 14.6802 3.3119 15.6452 -12.3752 -11.7916 55.5535
#
#
#
# Elastic Compliance Matrix: (Units=1/GPa)
#
#
# Indices 1 2 3 4 5 6 
#
# 1 0.028376 -0.004975 -0.000358 -0.007993 0.027902 -0.002959
# 2 -0.004975 0.011277 -0.002245 0.010109 -0.001172 0.003278
# 3 -0.000358 -0.002245 0.015902 0.005758 0.009218 -0.001011
# 4 -0.007993 0.010109 0.005758 0.050863 0.000403 0.011304
# 5 0.027902 -0.001172 0.009218 0.000403 0.072434 0.005565
# 6 -0.002959 0.003278 -0.001011 0.011304 0.005565 0.022571
#
#
# Mechanical properties :
#
#
# Convention : Reuss Voigt Hill
#
# Bulk Modulus (GPa) = 24.75268 53.39346 39.07307
# Shear Modulus (GPa) = 21.73474 36.23362 28.98418
#
# Velocity S-wave (km/s) = 2.99129 3.86222 3.45431
# Velocity P-wave (km/s) = 4.70326 6.47071 5.65645
#
# Compressibility (1/GPa) = 0.04039967
#
# Stress axis : x y z
#
# Youngs Moduli (GPa) = 35.24081 88.67517 62.88412
#
# Poissons Ratio (x) = 0.44112 0.02252
# Poissons Ratio (y) = 0.17531 0.14119
# Poissons Ratio (z) = 0.01262 0.19910
#
# Static dielectric constant tensor:
#      x y z
#    x 1.990710 -0.068620 -0.011450 
#    y -0.068620 2.109160 0.020400 
#    z -0.011450 0.020400 1.956580 
# 
# From -- ./inp_files/246950.got.cif
#   From: 2010.05.17/outbox.cif.g08.bks.cpg/sg2_124_cif.got.tgz:246950.got - 2010.06.03 11:33:40.
