data_PCOD9095174
_publ_section_title
;
Structure prediction by ZEFSAII (Michael W. Deem and Ramdas Pophale) SiO2 
 PCOD9095174
Probable space group: P -1
;
_chemical_formula_sum "Si O2"
_cell_formula_units_Z 16
_cell_length_a 9.625193
_cell_length_b 13.086003
_cell_length_c 8.089465
_cell_angle_alpha 136.594272
_cell_angle_beta 107.314703
_cell_angle_gamma 79.958615
_cell_volume 667.064773
_symmetry_space_group_name_H-M "P -1"
_symmetry_group_IT_number 2
_symmetry_cell_setting 'triclinic'
loop_
_space_group_symop_operation_xyz
x,y,z
-x,-y,-z
loop_
_atom_site_type_symbol
_atom_site_label
_atom_site_fract_x
_atom_site_fract_y
_atom_site_fract_z
Si Si1 0.095096 0.205424 0.787310
Si Si2 0.808979 0.057080 0.973094
Si Si3 0.516769 0.991147 0.195379
Si Si4 0.188053 0.889919 0.571911
Si Si5 0.895408 0.367254 0.377720
Si Si6 0.624242 0.537670 0.382692
Si Si7 0.624240 0.670585 0.879461
Si Si8 0.151178 0.254939 0.499891
O O1 0.170374 0.202486 0.630217
O O2 0.925589 0.216174 0.697268
O O3 0.121998 0.051680 0.708459
O O4 0.199812 0.333569 0.059090
O O5 0.645708 0.011396 0.798247
O O6 0.876504 0.898409 0.793383
O O7 0.800561 0.111093 0.225115
O O8 0.877496 0.207175 0.088010
O O9 0.645370 0.112526 0.432245
O O10 0.579440 0.836324 0.089446
O O11 0.500000 0.000000 0.000000
O O12 0.733706 0.424347 0.374139
O O13 0.000000 0.500000 0.500000
O O14 0.999235 0.335455 0.533187
O O15 0.582179 0.643262 0.641439
O O16 0.474028 0.443617 0.177186
O O17 0.718212 0.637440 0.401489
#
# Coordination Sequence:
#
# PCOD9095174 Si02
#       8
#     2   2   2   2   2   2   2   2
#     4  10  20  35  55  84 121 150 185 236 296 338
#     4  11  19  37  64  87 110 150 201 236 276 336
#     4   9  17  31  58  86 108 140 191 243 273 319
#     4   9  19  34  54  84 116 146 187 239 281 332
#     4  10  21  36  57  88 118 145 190 246 282 330
#     4  10  21  39  62  84 112 150 202 234 282 336
#     4  10  20  38  60  82 114 155 188 240 286 341
#     4  11  22  36  60  88 114 153 190 235 288 344
#
# _framework density 23.985675000000001
#
# number of rings (size 3 to 8) (size 9 to 14) (size 15 to 20)
#    0.000    2.000    2.500    2.625    0.000    0.500 
#    2.250    3.125    0.000    0.000    0.000    0.000 
#    0.000    0.000    0.000    0.000    0.000    0.000 
#
# Total GULP energy -89074.709123 kJ/mol
# GULP energy per Si atom -5567.169320 kJ/mol
# Density = 2.393108 g / cm^3
# Si number density = 23.985675 Si / 1000 Ang^3
#
#
#
# Elastic Constant Matrix: (Units=GPa)
#
#
# Indices 1 2 3 4 5 6 
#
# 1 72.9860 16.8214 29.8772 9.4200 43.5676 -4.4761
# 2 16.8214 56.7019 22.2263 10.6990 11.9028 3.5520
# 3 29.8772 22.2263 74.0475 10.0126 49.3896 5.6585
# 4 9.4200 10.6990 10.0126 23.4398 5.1855 5.9168
# 5 43.5676 11.9028 49.3896 5.1855 54.7255 7.6446
# 6 -4.4761 3.5520 5.6585 5.9168 7.6446 35.1550
#
#
#
# Elastic Compliance Matrix: (Units=1/GPa)
#
#
# Indices 1 2 3 4 5 6 
#
# 1 0.037785 -0.007097 0.017890 -0.013252 -0.045491 0.014771
# 2 -0.007097 0.022576 -0.010357 -0.004667 0.010965 -0.003116
# 3 0.017890 -0.010357 0.046423 -0.012801 -0.054036 0.009757
# 4 -0.013252 -0.004667 -0.012801 0.054404 0.019723 -0.012601
# 5 -0.045491 0.010965 -0.054036 0.019723 0.102323 -0.023773
# 6 0.014771 -0.003116 0.009757 -0.012601 -0.023773 0.036361
#
#
# Mechanical properties :
#
#
# Convention : Reuss Voigt Hill
#
# Bulk Modulus (GPa) = 9.28898 37.95391 23.62144
# Shear Modulus (GPa) = 14.93053 31.65141 23.29097
#
# Velocity S-wave (km/s) = 2.49766 3.63657 3.11953
# Velocity P-wave (km/s) = 3.49268 5.78712 4.77962
#
# Compressibility (1/GPa) = 0.10765445
#
# Stress axis : x y z
#
# Youngs Moduli (GPa) = 26.46582 44.29579 21.54121
#
# Poissons Ratio (x) = 0.31439 -0.38538
# Poissons Ratio (y) = 0.18784 0.22310
# Poissons Ratio (z) = -0.47348 0.45877
#
# Static dielectric constant tensor:
#      x y z
#    x 2.077450 0.015360 0.109940 
#    y 0.015360 1.996110 0.009480 
#    z 0.109940 0.009480 1.994270 
# 
# From -- ./inp_files/260772.got.cif
#   From: 2010.05.17/outbox.cif.g08.bks.cpg/sg2_131_cif.got.tgz:260772.got - 2010.06.03 11:33:40.
