data_PCOD9095673
_publ_section_title
;
Structure prediction by ZEFSAII (Michael W. Deem and Ramdas Pophale) SiO2 
 PCOD9095673
Probable space group: P -1
;
_chemical_formula_sum "Si O2"
_cell_formula_units_Z 16
_cell_length_a 19.679694
_cell_length_b 9.534329
_cell_length_c 5.323059
_cell_angle_alpha 85.536931
_cell_angle_beta 58.773526
_cell_angle_gamma 110.848289
_cell_volume 753.934631
_symmetry_space_group_name_H-M "P -1"
_symmetry_group_IT_number 2
_symmetry_cell_setting 'triclinic'
loop_
_space_group_symop_operation_xyz
x,y,z
-x,-y,-z
loop_
_atom_site_type_symbol
_atom_site_label
_atom_site_fract_x
_atom_site_fract_y
_atom_site_fract_z
Si Si1 0.795971 0.306692 0.691266
Si Si2 0.376063 0.754271 0.240080
Si Si3 0.685164 0.833307 0.419073
Si Si4 0.566639 0.621509 0.057796
Si Si5 0.839858 0.163565 0.125038
Si Si6 0.620287 0.485995 0.367338
Si Si7 0.449376 0.059793 0.393898
Si Si8 0.978038 0.571309 0.282391
O O1 0.697864 0.284026 0.825490
O O2 0.816479 0.217559 0.429797
O O3 0.870478 0.492632 0.505874
O O4 0.808049 0.237767 0.943741
O O5 0.346098 0.620384 0.531158
O O6 0.397265 0.917137 0.318579
O O7 0.470627 0.794420 0.924340
O O8 0.666004 0.661252 0.381901
O O9 0.625087 0.894576 0.368434
O O10 0.784601 0.974351 0.228462
O O11 0.635455 0.789048 0.790011
O O12 0.626083 0.541460 0.062356
O O13 0.489281 0.618303 0.388128
O O14 0.500000 0.500000 0.000000
O O15 0.948310 0.244349 0.887113
O O16 0.500000 0.000000 0.500000
O O17 0.000000 0.500000 0.500000
O O18 0.000000 0.500000 0.000000
#
# Coordination Sequence:
#
# PCOD9095673 Si02
#       8
#     2   2   2   2   2   2   2   2
#     4  10  20  37  56  86 115 146 180 234 282 340
#     4  11  23  36  51  79 108 147 185 225 285 329
#     4  11  21  35  53  78 108 144 186 229 276 324
#     4   9  20  36  51  69  97 144 191 226 260 316
#     4  10  20  35  59  86 114 143 184 232 283 335
#     4  10  22  35  55  71 103 148 193 228 270 330
#     4  11  24  34  52  76 110 142 180 231 281 325
#     4   8  16  32  56  82 111 142 179 223 282 336
#
# _framework density 21.221997999999999
#
# number of rings (size 3 to 8) (size 9 to 14) (size 15 to 20)
#    0.000    2.000    2.500    0.750    7.000    0.000 
#    0.000    0.000    0.000    0.750    0.000    0.875 
#    0.000    0.000    0.000    0.000    0.000    0.000 
#
# Total GULP energy -89187.463901 kJ/mol
# GULP energy per Si atom -5574.216494 kJ/mol
# Density = 2.117370 g / cm^3
# Si number density = 21.221998 Si / 1000 Ang^3
#
#
#
# Elastic Constant Matrix: (Units=GPa)
#
#
# Indices 1 2 3 4 5 6 
#
# 1 74.0659 30.5959 16.0040 -15.7445 4.5010 21.7244
# 2 30.5959 105.8870 27.7093 -33.8072 -12.2707 22.8402
# 3 16.0040 27.7093 70.1095 -21.6960 6.3446 16.3500
# 4 -15.7445 -33.8072 -21.6960 43.2398 17.0671 -6.0291
# 5 4.5010 -12.2707 6.3446 17.0671 44.3931 -14.3399
# 6 21.7244 22.8402 16.3500 -6.0291 -14.3399 36.0644
#
#
#
# Elastic Compliance Matrix: (Units=1/GPa)
#
#
# Indices 1 2 3 4 5 6 
#
# 1 0.021626 -0.001401 0.004683 0.012026 -0.013574 -0.017650
# 2 -0.001401 0.014674 -0.000204 0.010731 -0.002316 -0.007484
# 3 0.004683 -0.000204 0.024302 0.017817 -0.016431 -0.017264
# 4 0.012026 0.010731 0.017817 0.052879 -0.029164 -0.024874
# 5 -0.013574 -0.002316 -0.016431 -0.029164 0.046777 0.030816
# 6 -0.017650 -0.007484 -0.017264 -0.024874 0.030816 0.059021
#
#
# Mechanical properties :
#
#
# Convention : Reuss Voigt Hill
#
# Bulk Modulus (GPa) = 14.97932 44.29787 29.63860
# Shear Modulus (GPa) = 21.24255 36.45634 28.84945
#
# Velocity S-wave (km/s) = 3.16724 4.14920 3.69102
# Velocity P-wave (km/s) = 4.52205 6.62370 5.67108
#
# Compressibility (1/GPa) = 0.06675871
#
# Stress axis : x y z
#
# Youngs Moduli (GPa) = 46.23968 68.14594 41.14922
#
# Poissons Ratio (x) = 0.09545 -0.19270
# Poissons Ratio (y) = 0.06476 0.00840
# Poissons Ratio (z) = -0.21654 0.01392
#
# Static dielectric constant tensor:
#      x y z
#    x 1.802760 -0.016260 0.037560 
#    y -0.016260 1.834320 0.045250 
#    z 0.037560 0.045250 1.894260 
# 
# From -- ./inp_files/116013.got.cif
#   From: 2010.05.17/outbox.cif.g08.bks.cpg/sg2_59_cif.got.tgz:116013.got - 2010.06.03 11:33:40.
