data_PCOD9095419
_publ_section_title
;
Structure prediction by ZEFSAII (Michael W. Deem and Ramdas Pophale) SiO2 
 PCOD9095419
Probable space group: P -1
;
_chemical_formula_sum "Si O2"
_cell_formula_units_Z 16
_cell_length_a 8.420027
_cell_length_b 16.302587
_cell_length_c 11.235152
_cell_angle_alpha 125.638865
_cell_angle_beta 116.957649
_cell_angle_gamma 28.721478
_cell_volume 595.714780
_symmetry_space_group_name_H-M "P -1"
_symmetry_group_IT_number 2
_symmetry_cell_setting 'triclinic'
loop_
_space_group_symop_operation_xyz
x,y,z
-x,-y,-z
loop_
_atom_site_type_symbol
_atom_site_label
_atom_site_fract_x
_atom_site_fract_y
_atom_site_fract_z
Si Si1 0.829898 0.609758 0.269961
Si Si2 0.653142 0.041119 0.443730
Si Si3 0.624489 0.496874 0.420533
Si Si4 0.243332 0.869202 0.648602
Si Si5 0.127773 0.631604 0.961814
Si Si6 0.946672 0.333828 0.761567
Si Si7 0.949191 0.844217 0.871619
Si Si8 0.263092 0.876019 0.103879
O O1 0.681320 0.748870 0.441883
O O2 0.893369 0.463749 0.197789
O O3 0.541640 0.737863 0.180492
O O4 0.093477 0.549987 0.237185
O O5 0.699627 0.052486 0.332194
O O6 0.946871 0.956255 0.546952
O O7 0.728520 0.887323 0.355576
O O8 0.500000 0.500000 0.500000
O O9 0.566619 0.642505 0.551779
O O10 0.361068 0.593561 0.308381
O O11 0.955489 0.285438 0.303276
O O12 0.089051 0.949685 0.795360
O O13 0.911369 0.810636 0.958358
O O14 0.500000 0.500000 0.000000
O O15 0.017078 0.663072 0.084933
O O16 0.252695 0.777579 0.944622
O O17 0.699586 0.043954 0.897642
#
# Coordination Sequence:
#
# PCOD9095419 Si02
#       8
#     2   2   2   2   2   2   2   2
#     4  11  22  39  60  88 124 156 195 242 304 358
#     4   9  19  32  57  86 117 145 193 241 288 345
#     4  11  20  35  57  87 113 152 195 241 287 350
#     4   9  17  31  56  85 110 146 193 242 282 335
#     4  12  22  38  63  91 116 154 208 249 284 346
#     4  11  23  38  61  89 119 157 194 245 301 352
#     4  11  21  35  58  89 115 149 200 250 287 337
#     4  10  20  35  57  87 118 151 191 246 298 347
#
# _framework density 26.858491999999998
#
# number of rings (size 3 to 8) (size 9 to 14) (size 15 to 20)
#    0.000    1.500    3.750    2.250    3.500    0.000 
#    0.000    0.625    2.750    1.500    0.000    0.000 
#    0.000    0.000    0.000    0.000    0.000    0.000 
#
# Total GULP energy -89543.091067 kJ/mol
# GULP energy per Si atom -5596.443192 kJ/mol
# Density = 2.679736 g / cm^3
# Si number density = 26.858492 Si / 1000 Ang^3
#
#
#
# Elastic Constant Matrix: (Units=GPa)
#
#
# Indices 1 2 3 4 5 6 
#
# 1 88.8536 25.6851 32.6001 6.6142 3.5935 17.4982
# 2 25.6851 83.5089 25.2604 1.6875 0.0659 35.7049
# 3 32.6001 25.2604 129.1447 -0.3373 7.1065 -2.1687
# 4 6.6142 1.6875 -0.3373 44.0605 10.9735 -0.5228
# 5 3.5935 0.0659 7.1065 10.9735 42.6091 1.5450
# 6 17.4982 35.7049 -2.1687 -0.5228 1.5450 46.7090
#
#
#
# Elastic Compliance Matrix: (Units=1/GPa)
#
#
# Indices 1 2 3 4 5 6 
#
# 1 0.013876 -0.001368 -0.003318 -0.002130 0.000091 -0.004333
# 2 -0.001368 0.020039 -0.003917 -0.001165 0.001584 -0.015052
# 3 -0.003318 -0.003917 0.009529 0.001223 -0.001791 0.004753
# 4 -0.002130 -0.001165 0.001223 0.024707 -0.006467 0.002236
# 5 0.000091 0.001584 -0.001791 -0.006467 0.025504 -0.002244
# 6 -0.004333 -0.015052 0.004753 0.002236 -0.002244 0.034858
#
#
# Mechanical properties :
#
#
# Convention : Reuss Voigt Hill
#
# Bulk Modulus (GPa) = 38.11664 52.06650 45.09157
# Shear Modulus (GPa) = 32.36974 41.20652 36.78813
#
# Velocity S-wave (km/s) = 3.47536 3.92115 3.70496
# Velocity P-wave (km/s) = 5.50696 6.31887 5.92683
#
# Compressibility (1/GPa) = 0.02623526
#
# Stress axis : x y z
#
# Youngs Moduli (GPa) = 72.06828 49.90389 104.94727
#
# Poissons Ratio (x) = 0.06829 0.34825
# Poissons Ratio (y) = 0.09862 0.41108
# Poissons Ratio (z) = 0.23915 0.19547
#
# Static dielectric constant tensor:
#      x y z
#    x 2.104490 -0.094650 -0.010240 
#    y -0.094650 2.150450 0.033750 
#    z -0.010240 0.033750 2.079960 
# 
# From -- ./inp_files/245148.got.cif
#   From: 2010.05.17/outbox.cif.g08.bks.cpg/sg2_123_cif.got.tgz:245148.got - 2010.06.03 11:33:40.
