data_PCOD9095602
_publ_section_title
;
Structure prediction by ZEFSAII (Michael W. Deem and Ramdas Pophale) SiO2 
 PCOD9095602
Probable space group: P -1
;
_chemical_formula_sum "Si O2"
_cell_formula_units_Z 16
_cell_length_a 15.326448
_cell_length_b 15.889137
_cell_length_c 17.586918
_cell_angle_alpha 38.358327
_cell_angle_beta 44.717492
_cell_angle_gamma 18.639737
_cell_volume 838.056220
_symmetry_space_group_name_H-M "P -1"
_symmetry_group_IT_number 2
_symmetry_cell_setting 'triclinic'
loop_
_space_group_symop_operation_xyz
x,y,z
-x,-y,-z
loop_
_atom_site_type_symbol
_atom_site_label
_atom_site_fract_x
_atom_site_fract_y
_atom_site_fract_z
Si Si1 0.189611 0.235224 0.352966
Si Si2 0.559964 0.845845 0.258953
Si Si3 0.698033 0.734378 0.005406
Si Si4 0.987441 0.711718 0.423837
Si Si5 0.287604 0.583728 0.579049
Si Si6 0.379442 0.071768 0.604935
Si Si7 0.802083 0.249620 0.649472
Si Si8 0.770944 0.349027 0.265753
O O1 0.876244 0.568413 0.284177
O O2 0.186902 0.141087 0.495108
O O3 0.367736 0.000347 0.340530
O O4 0.371147 0.184800 0.308028
O O5 0.568794 0.703704 0.301427
O O6 0.415888 0.108343 0.117342
O O7 0.701940 0.570051 0.130985
O O8 0.000000 0.500000 0.000000
O O9 0.500000 0.000000 0.000000
O O10 0.187111 0.384380 0.530357
O O11 0.136649 0.706883 0.351142
O O12 0.809248 0.870461 0.344716
O O13 0.500000 0.500000 0.500000
O O14 0.161913 0.706118 0.485360
O O15 0.117901 0.762692 0.635906
O O16 0.500000 0.000000 0.500000
O O17 0.501080 0.478772 0.683621
O O18 0.017305 0.918202 0.736933
#
# Coordination Sequence:
#
# PCOD9095602 Si02
#       8
#     2   2   2   2   2   2   2   2
#     4  11  21  36  55  89 123 145 198 236 297 353
#     4  12  24  37  61  85 112 165 198 253 295 339
#     4  12  25  44  63  80 113 158 220 259 291 331
#     4  10  20  35  58  91 130 160 184 233 300 374
#     4  10  22  35  56  82 120 151 199 233 300 347
#     4   9  19  34  59  88 131 155 187 228 296 375
#     4  11  23  36  59  85 124 155 191 237 299 363
#     4  11  25  40  55  83 116 162 203 247 289 346
#
# _framework density 19.091799000000002
#
# number of rings (size 3 to 8) (size 9 to 14) (size 15 to 20)
#    0.000    1.250    3.750    1.875    8.750    0.000 
#    0.000    0.000    0.000    0.000    0.000    5.250 
#    0.000    0.000    0.000    0.000    0.000    0.000 
#
# Total GULP energy -89243.141809 kJ/mol
# GULP energy per Si atom -5577.696363 kJ/mol
# Density = 1.904835 g / cm^3
# Si number density = 19.091799 Si / 1000 Ang^3
#
#
#
# Elastic Constant Matrix: (Units=GPa)
#
#
# Indices 1 2 3 4 5 6 
#
# 1 122.9591 24.5807 24.0200 -8.4190 -0.2619 -12.2945
# 2 24.5807 89.7790 -7.4773 -11.1981 9.7174 -1.0253
# 3 24.0200 -7.4773 63.9639 -10.1316 -6.5102 -9.0456
# 4 -8.4190 -11.1981 -10.1316 20.0593 -1.2809 3.5028
# 5 -0.2619 9.7174 -6.5102 -1.2809 17.4682 -7.5029
# 6 -12.2945 -1.0253 -9.0456 3.5028 -7.5029 36.0431
#
#
#
# Elastic Compliance Matrix: (Units=1/GPa)
#
#
# Indices 1 2 3 4 5 6 
#
# 1 0.009703 -0.003064 -0.003392 0.000288 0.001772 0.002712
# 2 -0.003064 0.013957 0.003030 0.007958 -0.007008 -0.002120
# 3 -0.003392 0.003030 0.020478 0.010316 0.008751 0.004887
# 4 0.000288 0.007958 0.010316 0.060217 0.002828 -0.002350
# 5 0.001772 -0.007008 0.008751 0.002828 0.072085 0.017332
# 6 0.002712 -0.002120 0.004887 -0.002350 0.017332 0.033672
#
#
# Mechanical properties :
#
#
# Convention : Reuss Voigt Hill
#
# Bulk Modulus (GPa) = 26.82137 39.88319 33.35228
# Shear Modulus (GPa) = 21.79674 30.41937 26.10805
#
# Velocity S-wave (km/s) = 3.38254 3.99597 3.70199
# Velocity P-wave (km/s) = 5.41614 6.49815 5.98166
#
# Compressibility (1/GPa) = 0.03728370
#
# Stress axis : x y z
#
# Youngs Moduli (GPa) = 103.06503 71.65094 48.83361
#
# Poissons Ratio (x) = 0.21953 0.16566
# Poissons Ratio (y) = 0.31578 -0.14795
# Poissons Ratio (z) = 0.34963 -0.21707
#
# Static dielectric constant tensor:
#      x y z
#    x 1.760730 -0.021410 0.025100 
#    y -0.021410 1.726730 -0.018180 
#    z 0.025100 -0.018180 1.683650 
# 
# From -- ./inp_files/574021.got.cif
#   From: 2010.05.17/outbox.cif.g08.bks.cpg/sg2_288_cif.got.tgz:574021.got - 2010.06.03 11:33:40.
