data_PCOD9095142
_publ_section_title
;
Structure prediction by ZEFSAII (Michael W. Deem and Ramdas Pophale) SiO2 
 PCOD9095142
Probable space group: P -1
;
_chemical_formula_sum "Si O2"
_cell_formula_units_Z 12
_cell_length_a 19.068287
_cell_length_b 5.180273
_cell_length_c 4.986467
_cell_angle_alpha 96.938529
_cell_angle_beta 60.428179
_cell_angle_gamma 95.801419
_cell_volume 424.768089
_symmetry_space_group_name_H-M "P -1"
_symmetry_group_IT_number 2
_symmetry_cell_setting 'triclinic'
loop_
_space_group_symop_operation_xyz
x,y,z
-x,-y,-z
loop_
_atom_site_type_symbol
_atom_site_label
_atom_site_fract_x
_atom_site_fract_y
_atom_site_fract_z
Si Si1 0.093076 0.183957 0.718598
Si Si2 0.744676 0.565056 0.512921
Si Si3 0.415971 0.576993 0.058507
Si Si4 0.067609 0.729519 0.123582
Si Si5 0.407558 0.886895 0.606994
Si Si6 0.234808 0.788742 0.072449
O O1 0.188622 0.220561 0.495750
O O2 0.079542 0.433837 0.972567
O O3 0.076502 0.915104 0.869622
O O4 0.026646 0.239329 0.622530
O O5 0.653185 0.627854 0.742162
O O6 0.754286 0.458378 0.183311
O O7 0.757908 0.323745 0.658387
O O8 0.402365 0.832030 0.294696
O O9 0.500000 0.500000 0.000000
O O10 0.410990 0.632369 0.762292
O O11 0.140611 0.834420 0.188177
O O12 0.315470 0.967962 0.864832
O O13 0.500000 0.000000 0.500000
#
# Coordination Sequence:
#
# PCOD9095142 Si02
#       6
#     2   2   2   2   2   2
#     4   9  18  35  59  87 119 156 198 244 296 354
#     4   9  19  36  56  81 116 156 197 243 296 354
#     4  10  20  35  55  81 114 150 193 242 294 351
#     4   9  18  35  59  87 119 156 198 244 296 354
#     4  10  20  35  55  81 114 150 193 242 294 351
#     4   9  19  36  56  81 116 156 197 243 296 354
#
# _framework density 28.250713999999999
#
# number of rings (size 3 to 8) (size 9 to 14) (size 15 to 20)
#    0.000    2.667    0.000    1.000    0.000    2.000 
#    0.000   13.333    0.000   18.000    0.000    0.000 
#    0.000    0.000    0.000    0.000    0.000    0.000 
#
# Total GULP energy -67049.659716 kJ/mol
# GULP energy per Si atom -5587.471643 kJ/mol
# Density = 2.818641 g / cm^3
# Si number density = 28.250714 Si / 1000 Ang^3
#
#
#
# Elastic Constant Matrix: (Units=GPa)
#
#
# Indices 1 2 3 4 5 6 
#
# 1 257.8840 25.5268 44.6837 3.3164 -38.0191 26.3951
# 2 25.5268 92.4789 19.1337 -4.5714 0.4581 20.3844
# 3 44.6837 19.1337 62.4995 -13.6288 -11.9456 -9.7053
# 4 3.3164 -4.5714 -13.6288 23.4918 15.4005 5.6859
# 5 -38.0191 0.4581 -11.9456 15.4005 68.0283 -5.8815
# 6 26.3951 20.3844 -9.7053 5.6859 -5.8815 61.1145
#
#
#
# Elastic Compliance Matrix: (Units=1/GPa)
#
#
# Indices 1 2 3 4 5 6 
#
# 1 0.005485 -0.000329 -0.004666 -0.005118 0.003216 -0.002215
# 2 -0.000329 0.013164 -0.004447 0.002744 -0.002143 -0.005416
# 3 -0.004666 -0.004447 0.024320 0.012885 -0.000697 0.006095
# 4 -0.005118 0.002744 0.012885 0.062074 -0.015004 -0.003878
# 5 0.003216 -0.002143 -0.000697 -0.015004 0.020005 0.002536
# 6 -0.002215 -0.005416 0.006095 -0.003878 0.002536 0.020699
#
#
# Mechanical properties :
#
#
# Convention : Reuss Voigt Hill
#
# Bulk Modulus (GPa) = 41.51928 65.72788 53.62358
# Shear Modulus (GPa) = 28.95838 52.09479 40.52659
#
# Velocity S-wave (km/s) = 3.20511 4.29886 3.79163
# Velocity P-wave (km/s) = 5.33157 6.92508 6.17990
#
# Compressibility (1/GPa) = 0.02408520
#
# Stress axis : x y z
#
# Youngs Moduli (GPa) = 182.30293 75.96212 41.11763
#
# Poissons Ratio (x) = 0.02502 0.19186
# Poissons Ratio (y) = 0.06006 0.18285
# Poissons Ratio (z) = 0.85065 0.33780
#
# Static dielectric constant tensor:
#      x y z
#    x 2.264940 -0.013490 -0.207830 
#    y -0.013490 2.314860 0.166790 
#    z -0.207830 0.166790 2.250250 
# 
# From -- ./inp_files/5489.got.cif
#   From: 2010.05.17/outbox.cif.g08.bks.cpg/sg2_3_cif.got.tgz:5489.got - 2010.06.03 11:33:40.
