data_PCOD9095987
_publ_section_title
;
Structure prediction by ZEFSAII (Michael W. Deem and Ramdas Pophale) SiO2 
 PCOD9095987
Probable space group: P -1
;
_chemical_formula_sum "Si O2"
_cell_formula_units_Z 14
_cell_length_a 11.577064
_cell_length_b 7.573607
_cell_length_c 11.053268
_cell_angle_alpha 37.630284
_cell_angle_beta 116.326944
_cell_angle_gamma 115.884560
_cell_volume 523.866995
_symmetry_space_group_name_H-M "P -1"
_symmetry_group_IT_number 2
_symmetry_cell_setting 'triclinic'
loop_
_space_group_symop_operation_xyz
x,y,z
-x,-y,-z
loop_
_atom_site_type_symbol
_atom_site_label
_atom_site_fract_x
_atom_site_fract_y
_atom_site_fract_z
Si Si1 0.639504 0.230216 0.115410
Si Si2 0.292747 0.436900 0.267160
Si Si3 0.558424 0.286523 0.447754
Si Si4 0.137610 0.139548 0.542986
Si Si5 0.104846 0.235466 0.760583
Si Si6 0.361295 0.247060 0.983012
Si Si7 0.822439 0.131931 0.635294
O O1 0.748416 0.059248 0.311393
O O2 0.643284 0.537133 0.021972
O O3 0.677505 0.297201 0.957265
O O4 0.487928 0.085912 0.139373
O O5 0.435356 0.379514 0.407535
O O6 0.193399 0.427712 0.336077
O O7 0.224156 0.162485 0.301608
O O8 0.599049 0.543066 0.229280
O O9 0.694223 0.208167 0.602807
O O10 0.500000 0.000000 0.500000
O O11 0.124380 0.177091 0.659042
O O12 0.000000 0.000000 0.500000
O O13 0.213974 0.114831 0.954903
O O14 0.133825 0.591398 0.585453
O O15 0.953784 0.118485 0.777708
#
# Coordination Sequence:
#
# PCOD9095987 Si02
#       7
#     2   2   2   2   2   2   2
#     4  10  22  40  65  90 121 157 211 249 293 366
#     4  10  20  39  62  91 116 160 210 247 294 361
#     4   8  14  28  58  85 111 145 199 246 282 342
#     4  12  24  39  62  89 126 169 190 244 318 366
#     4  10  20  35  61  90 124 162 200 244 307 366
#     4   9  19  38  61  89 118 160 202 257 296 342
#     4   9  17  34  58  87 117 155 203 247 290 349
#
# _framework density 26.724340999999999
#
# number of rings (size 3 to 8) (size 9 to 14) (size 15 to 20)
#    0.000    2.286    1.429    2.571    2.000    2.286 
#    0.000    8.571    0.000    0.000    0.000    0.000 
#    0.000    0.000    0.000    0.000    0.000    0.000 
#
# Total GULP energy -78355.179544 kJ/mol
# GULP energy per Si atom -5596.798539 kJ/mol
# Density = 2.666352 g / cm^3
# Si number density = 26.724341 Si / 1000 Ang^3
#
#
#
# Elastic Constant Matrix: (Units=GPa)
#
#
# Indices 1 2 3 4 5 6 
#
# 1 195.0518 56.2378 62.7901 25.7669 2.6912 52.1369
# 2 56.2378 119.1718 35.0807 20.8121 17.4139 25.2384
# 3 62.7901 35.0807 106.6977 18.8166 18.1462 23.3381
# 4 25.7669 20.8121 18.8166 41.0618 7.4516 17.2419
# 5 2.6912 17.4139 18.1462 7.4516 57.0147 16.9549
# 6 52.1369 25.2384 23.3381 17.2419 16.9549 44.2554
#
#
#
# Elastic Compliance Matrix: (Units=1/GPa)
#
#
# Indices 1 2 3 4 5 6 
#
# 1 0.009307 -0.001946 -0.003433 0.000015 0.004108 -0.009624
# 2 -0.001946 0.010735 -0.001270 -0.002713 -0.002035 -0.001323
# 3 -0.003433 -0.001270 0.012755 -0.002580 -0.003261 0.000297
# 4 0.000015 -0.002713 -0.002580 0.030703 0.000377 -0.009216
# 5 0.004108 -0.002035 -0.003261 0.000377 0.022100 -0.010573
# 6 -0.009624 -0.001323 0.000297 -0.009216 -0.010573 0.042173
#
#
# Mechanical properties :
#
#
# Convention : Reuss Voigt Hill
#
# Bulk Modulus (GPa) = 51.29029 81.01541 66.15285
# Shear Modulus (GPa) = 33.88213 46.25389 40.06801
#
# Velocity S-wave (km/s) = 3.56453 4.16478 3.87629
# Velocity P-wave (km/s) = 6.01458 7.31493 6.69639
#
# Compressibility (1/GPa) = 0.01949687
#
# Stress axis : x y z
#
# Youngs Moduli (GPa) = 107.44727 93.15478 78.40098
#
# Poissons Ratio (x) = 0.18128 0.26918
# Poissons Ratio (y) = 0.20910 0.09960
# Poissons Ratio (z) = 0.36891 0.11835
#
# Static dielectric constant tensor:
#      x y z
#    x 2.095880 -0.012550 0.001810 
#    y -0.012550 2.091340 -0.008780 
#    z 0.001810 -0.008780 2.151270 
# 
# From -- ./inp_files/254840.got.cif
#   From: 2010.05.17/outbox.cif.g08.bks.cpg/sg2_128_cif.got.tgz:254840.got - 2010.06.03 11:33:40.
