data_PCOD9095260
_publ_section_title
;
Structure prediction by ZEFSAII (Michael W. Deem and Ramdas Pophale) SiO2 
 PCOD9095260
Probable space group: P -1
;
_chemical_formula_sum "Si O2"
_cell_formula_units_Z 16
_cell_length_a 14.687719
_cell_length_b 11.726188
_cell_length_c 8.846544
_cell_angle_alpha 37.798894
_cell_angle_beta 69.294554
_cell_angle_gamma 70.675516
_cell_volume 869.978530
_symmetry_space_group_name_H-M "P -1"
_symmetry_group_IT_number 2
_symmetry_cell_setting 'triclinic'
loop_
_space_group_symop_operation_xyz
x,y,z
-x,-y,-z
loop_
_atom_site_type_symbol
_atom_site_label
_atom_site_fract_x
_atom_site_fract_y
_atom_site_fract_z
Si Si1 0.535197 0.821953 0.369231
Si Si2 0.102462 0.818399 0.770323
Si Si3 0.079911 0.483573 0.341482
Si Si4 0.580210 0.462576 0.123603
Si Si5 0.436355 0.212781 0.959477
Si Si6 0.288201 0.311541 0.373324
Si Si7 0.754044 0.909306 0.663475
Si Si8 0.038269 0.233715 0.349381
O O1 0.441290 0.736841 0.588557
O O2 0.629093 0.753422 0.486252
O O3 0.515696 0.045387 0.139290
O O4 0.547983 0.750348 0.264724
O O5 0.047900 0.726969 0.759762
O O6 0.205560 0.887656 0.583651
O O7 0.039151 0.017205 0.629928
O O8 0.103437 0.683194 0.052626
O O9 0.182863 0.371358 0.442503
O O10 0.037496 0.370058 0.346875
O O11 0.000000 0.500000 0.500000
O O12 0.500000 0.500000 0.000000
O O13 0.561694 0.610998 0.115759
O O14 0.678099 0.515149 0.928110
O O15 0.331749 0.129640 0.132923
O O16 0.278360 0.150577 0.422471
O O17 0.853432 0.774792 0.780282
#
# Coordination Sequence:
#
# PCOD9095260 Si02
#       8
#     2   2   2   2   2   2   2   2
#     4  10  21  36  55  80 114 139 173 229 269 316
#     4   9  18  36  59  76 105 145 180 220 259 319
#     4  11  22  35  55  82 112 140 175 226 270 317
#     4   9  19  35  59  76 105 144 179 217 258 320
#     4  10  20  35  56  83 108 138 180 221 274 309
#     4   9  20  38  51  82 108 144 183 215 265 319
#     4   8  17  34  56  80 104 142 180 218 255 323
#     4   8  18  37  57  81 104 140 186 217 263 312
#
# _framework density 18.391259000000002
#
# number of rings (size 3 to 8) (size 9 to 14) (size 15 to 20)
#    0.750    2.000    0.000    0.750    1.750    6.000 
#    2.250    1.250    5.500    0.000    0.000    0.000 
#    0.000    0.000    0.000    0.000    0.000    0.000 
#
# Total GULP energy -89072.053819 kJ/mol
# GULP energy per Si atom -5567.003364 kJ/mol
# Density = 1.834940 g / cm^3
# Si number density = 18.391259 Si / 1000 Ang^3
#
#
#
# Elastic Constant Matrix: (Units=GPa)
#
#
# Indices 1 2 3 4 5 6 
#
# 1 92.2092 21.2690 37.9462 11.3459 -5.9859 1.0967
# 2 21.2690 31.8453 8.9120 7.4900 -4.0136 -9.5630
# 3 37.9462 8.9120 67.4536 9.9851 1.5404 -0.8234
# 4 11.3459 7.4900 9.9851 19.8006 -4.5139 -10.1956
# 5 -5.9859 -4.0136 1.5404 -4.5139 22.2116 0.3905
# 6 1.0967 -9.5630 -0.8234 -10.1956 0.3905 21.7842
#
#
#
# Elastic Compliance Matrix: (Units=1/GPa)
#
#
# Indices 1 2 3 4 5 6 
#
# 1 0.017381 -0.010323 -0.007668 -0.006094 0.002263 -0.008589
# 2 -0.010323 0.044961 -0.000099 0.000669 0.005125 0.020475
# 3 -0.007668 -0.000099 0.020497 -0.008517 -0.005188 -0.002776
# 4 -0.006094 0.000669 -0.008517 0.080934 0.014851 0.037891
# 5 0.002263 0.005125 -0.005188 0.014851 0.049795 0.007998
# 6 -0.008589 0.020475 -0.002776 0.037891 0.007998 0.072811
#
#
# Mechanical properties :
#
#
# Convention : Reuss Voigt Hill
#
# Bulk Modulus (GPa) = 21.43228 36.41807 28.92518
# Shear Modulus (GPa) = 14.78800 20.98467 17.88634
#
# Velocity S-wave (km/s) = 2.83870 3.38155 3.12195
# Velocity P-wave (km/s) = 4.73531 5.92380 5.36258
#
# Compressibility (1/GPa) = 0.04665858
#
# Stress axis : x y z
#
# Youngs Moduli (GPa) = 57.53572 22.24137 48.78742
#
# Poissons Ratio (x) = 0.22960 0.37410
# Poissons Ratio (y) = 0.59394 0.00484
# Poissons Ratio (z) = 0.44118 0.00220
#
# Static dielectric constant tensor:
#      x y z
#    x 1.643660 -0.008090 -0.013630 
#    y -0.008090 1.617870 -0.033580 
#    z -0.013630 -0.033580 1.649970 
# 
# From -- ./inp_files/302081.got.cif
#   From: 2010.05.17/outbox.cif.g08.bks.cpg/sg2_152_cif.got.tgz:302081.got - 2010.06.03 11:33:40.
