data_PCOD9095147
_publ_section_title
;
Structure prediction by ZEFSAII (Michael W. Deem and Ramdas Pophale) SiO2 
 PCOD9095147
Probable space group: P -1
;
_chemical_formula_sum "Si O2"
_cell_formula_units_Z 15
_cell_length_a 14.653731
_cell_length_b 7.005707
_cell_length_c 14.003617
_cell_angle_alpha 93.828192
_cell_angle_beta 141.559376
_cell_angle_gamma 112.231174
_cell_volume 641.860488
_symmetry_space_group_name_H-M "P -1"
_symmetry_group_IT_number 2
_symmetry_cell_setting 'triclinic'
loop_
_space_group_symop_operation_xyz
x,y,z
-x,-y,-z
loop_
_atom_site_type_symbol
_atom_site_label
_atom_site_fract_x
_atom_site_fract_y
_atom_site_fract_z
Si Si1 0.176158 0.548865 0.046168
Si Si2 0.858620 0.606968 0.381971
Si Si3 0.280350 0.114310 0.786136
Si Si4 0.407516 0.144046 0.301945
Si Si5 0.558386 0.807924 0.884631
Si Si6 0.300010 0.646236 0.951603
Si Si7 0.000000 0.000000 0.000000
Si Si8 0.845228 0.568288 0.768987
O O1 0.248034 0.515169 0.007886
O O2 0.143752 0.375397 0.103020
O O3 0.335710 0.855889 0.223116
O O4 0.970435 0.485785 0.857871
O O5 0.788951 0.765781 0.326551
O O6 0.674149 0.348885 0.281322
O O7 0.853832 0.541083 0.265427
O O8 0.083834 0.799972 0.614651
O O9 0.478460 0.203871 0.903398
O O10 0.349543 0.232640 0.954100
O O11 0.443641 0.255678 0.228117
O O12 0.621227 0.350324 0.539111
O O13 0.228083 0.095753 0.203830
O O14 0.691512 0.120805 0.011543
O O15 0.975960 0.871968 0.863667
#
# Coordination Sequence:
#
# PCOD9095147 Si02
#       8
#     2   2   2   2   2   2   1   2
#     4   9  21  37  58  83 108 144 187 229 272 324
#     4  10  21  36  55  78 108 147 181 219 272 329
#     4  10  21  37  54  79 112 144 181 222 270 326
#     4  10  21  38  58  82 111 146 183 225 276 325
#     4  10  21  35  56  81 108 141 180 227 270 318
#     4  10  20  35  55  82 109 138 181 228 271 319
#     4  10  22  36  54  84 112 140 184 224 268 326
#     4  10  20  39  59  80 113 146 181 228 275 324
#
# _framework density 23.369565000000001
#
# number of rings (size 3 to 8) (size 9 to 14) (size 15 to 20)
#    0.000    2.133    0.000    4.000    0.000    9.600 
#    0.000    4.000    0.000    0.000    0.000    0.000 
#    0.000    0.000    0.000    0.000    0.000    0.000 
#
# Total GULP energy -83617.348330 kJ/mol
# GULP energy per Si atom -5574.489889 kJ/mol
# Density = 2.331638 g / cm^3
# Si number density = 23.369565 Si / 1000 Ang^3
#
#
#
# Elastic Constant Matrix: (Units=GPa)
#
#
# Indices 1 2 3 4 5 6 
#
# 1 102.5862 18.6738 49.9801 -12.1122 -9.0236 18.2424
# 2 18.6738 54.1035 21.1147 -1.2028 1.2155 4.0774
# 3 49.9801 21.1147 216.7605 13.5866 2.5086 6.4936
# 4 -12.1122 -1.2028 13.5866 31.9095 -3.2440 0.5119
# 5 -9.0236 1.2155 2.5086 -3.2440 14.1006 -1.1197
# 6 18.2424 4.0774 6.4936 0.5119 -1.1197 40.6050
#
#
#
# Elastic Compliance Matrix: (Units=1/GPa)
#
#
# Indices 1 2 3 4 5 6 
#
# 1 0.015288 -0.003490 -0.003694 0.008583 0.012264 -0.005697
# 2 -0.003490 0.020214 -0.001076 -0.000498 -0.003930 -0.000392
# 3 -0.003694 -0.001076 0.005872 -0.004389 -0.004265 0.000767
# 4 0.008583 -0.000498 -0.004389 0.038003 0.014807 -0.003175
# 5 0.012264 -0.003930 -0.004265 0.014807 0.083086 -0.002329
# 6 -0.005697 -0.000392 0.000767 -0.003175 -0.002329 0.027080
#
#
# Mechanical properties :
#
#
# Convention : Reuss Voigt Hill
#
# Bulk Modulus (GPa) = 40.23635 61.44304 50.83969
# Shear Modulus (GPa) = 23.32649 36.23513 29.78081
#
# Velocity S-wave (km/s) = 3.16279 3.94194 3.57367
# Velocity P-wave (km/s) = 5.53104 6.86058 6.23137
#
# Compressibility (1/GPa) = 0.02485315
#
# Stress axis : x y z
#
# Youngs Moduli (GPa) = 65.40912 49.46972 170.31379
#
# Poissons Ratio (x) = 0.17267 0.62921
# Poissons Ratio (y) = 0.22830 0.18323
# Poissons Ratio (z) = 0.24165 0.05322
#
# Static dielectric constant tensor:
#      x y z
#    x 1.895100 0.004560 -0.022560 
#    y 0.004560 2.387250 0.164210 
#    z -0.022560 0.164210 1.894270 
# 
# From -- ./inp_files/502661.got.cif
#   From: 2010.05.17/outbox.cif.g08.bks.cpg/sg2_252_cif.got.tgz:502661.got - 2010.06.03 11:33:40.
