data_PCOD9095451
_publ_section_title
;
Structure prediction by ZEFSAII (Michael W. Deem and Ramdas Pophale) SiO2 
 PCOD9095451
Probable space group: P -1
;
_chemical_formula_sum "Si O2"
_cell_formula_units_Z 14
_cell_length_a 11.994137
_cell_length_b 5.433137
_cell_length_c 13.307074
_cell_angle_alpha 72.313398
_cell_angle_beta 63.999615
_cell_angle_gamma 57.168940
_cell_volume 652.393417
_symmetry_space_group_name_H-M "P -1"
_symmetry_group_IT_number 2
_symmetry_cell_setting 'triclinic'
loop_
_space_group_symop_operation_xyz
x,y,z
-x,-y,-z
loop_
_atom_site_type_symbol
_atom_site_label
_atom_site_fract_x
_atom_site_fract_y
_atom_site_fract_z
Si Si1 0.876260 0.595235 0.176366
Si Si2 0.228020 0.351354 0.353277
Si Si3 0.704196 0.387540 0.366019
Si Si4 0.877052 0.940248 0.948940
Si Si5 0.044736 0.104329 0.569917
Si Si6 0.460952 0.293339 0.416973
Si Si7 0.836822 0.580246 0.843328
O O1 0.732458 0.636266 0.275265
O O2 0.958111 0.295892 0.113126
O O3 0.993911 0.537534 0.221589
O O4 0.856968 0.860147 0.079904
O O5 0.146199 0.234612 0.474099
O O6 0.368318 0.311195 0.355839
O O7 0.245789 0.247850 0.244607
O O8 0.106148 0.686186 0.348549
O O9 0.601506 0.321049 0.346673
O O10 0.638408 0.456696 0.495191
O O11 0.860368 0.130361 0.356835
O O12 0.800687 0.809158 0.921146
O O13 0.829593 0.282052 0.908702
O O14 0.000000 0.000000 0.500000
O O15 0.500000 0.000000 0.500000
#
# Coordination Sequence:
#
# PCOD9095451 Si02
#       7
#     2   2   2   2   2   2   2
#     4   9  20  34  60  89 118 157 196 253 309 359
#     4  11  23  34  59  86 119 158 200 254 307 355
#     4  11  22  39  60  83 123 162 205 243 301 367
#     4   9  20  36  59  93 124 146 197 260 311 361
#     4  11  21  35  57  87 115 150 204 256 299 362
#     4  11  24  41  53  84 124 168 204 240 291 378
#     4  10  20  35  57  91 119 153 192 251 311 355
#
# _framework density 21.459444999999999
#
# number of rings (size 3 to 8) (size 9 to 14) (size 15 to 20)
#    0.857    0.857    2.857    2.143    4.000    1.143 
#    0.000    0.000    0.000    1.714    0.000    0.000 
#    0.000    0.000    0.000    0.000    0.000    0.000 
#
# Total GULP energy -78055.593144 kJ/mol
# GULP energy per Si atom -5575.399510 kJ/mol
# Density = 2.141060 g / cm^3
# Si number density = 21.459445 Si / 1000 Ang^3
#
#
#
# Elastic Constant Matrix: (Units=GPa)
#
#
# Indices 1 2 3 4 5 6 
#
# 1 174.5530 20.8920 57.7600 -12.0209 22.3820 8.2041
# 2 20.8920 47.5195 -8.8154 -10.7209 -0.4755 4.0999
# 3 57.7600 -8.8154 80.3636 -14.8595 3.0927 -0.3666
# 4 -12.0209 -10.7209 -14.8595 18.4651 7.8773 2.4288
# 5 22.3820 -0.4755 3.0927 7.8773 32.1141 -4.0806
# 6 8.2041 4.0999 -0.3666 2.4288 -4.0806 26.3745
#
#
#
# Elastic Compliance Matrix: (Units=1/GPa)
#
#
# Indices 1 2 3 4 5 6 
#
# 1 0.009874 -0.005219 -0.007230 0.001013 -0.006960 -0.003531
# 2 -0.005219 0.032839 0.012907 0.029135 -0.005127 -0.006778
# 3 -0.007230 0.012907 0.023450 0.023193 -0.002975 -0.002027
# 4 0.001013 0.029135 0.023193 0.106115 -0.030962 -0.019084
# 5 -0.006960 -0.005127 -0.002975 -0.030962 0.045421 0.012799
# 6 -0.003531 -0.006778 -0.002027 -0.019084 0.012799 0.043777
#
#
# Mechanical properties :
#
#
# Convention : Reuss Voigt Hill
#
# Bulk Modulus (GPa) = 14.90796 49.12325 32.01560
# Shear Modulus (GPa) = 17.67278 30.89738 24.28508
#
# Velocity S-wave (km/s) = 2.87286 3.79859 3.36768
# Velocity P-wave (km/s) = 4.23869 6.49461 5.48391
#
# Compressibility (1/GPa) = 0.06707828
#
# Stress axis : x y z
#
# Youngs Moduli (GPa) = 101.27291 30.45116 42.64452
#
# Poissons Ratio (x) = 0.15892 0.30834
# Poissons Ratio (y) = 0.52854 -0.55040
# Poissons Ratio (z) = 0.73224 -0.39303
#
# Static dielectric constant tensor:
#      x y z
#    x 1.818060 0.035920 0.011740 
#    y 0.035920 1.929050 0.024530 
#    z 0.011740 0.024530 1.881210 
# 
# From -- ./inp_files/74912.got.cif
#   From: 2010.05.17/outbox.cif.g08.bks.cpg/sg2_38_cif.got.tgz:74912.got - 2010.06.03 11:33:40.
