data_PCOD9095519
_publ_section_title
;
Structure prediction by ZEFSAII (Michael W. Deem and Ramdas Pophale) SiO2 
 PCOD9095519
Probable space group: P -1
;
_chemical_formula_sum "Si O2"
_cell_formula_units_Z 12
_cell_length_a 8.845337
_cell_length_b 12.695564
_cell_length_c 13.786242
_cell_angle_alpha 53.457532
_cell_angle_beta 106.835195
_cell_angle_gamma 149.343120
_cell_volume 532.431377
_symmetry_space_group_name_H-M "P -1"
_symmetry_group_IT_number 2
_symmetry_cell_setting 'triclinic'
loop_
_space_group_symop_operation_xyz
x,y,z
-x,-y,-z
loop_
_atom_site_type_symbol
_atom_site_label
_atom_site_fract_x
_atom_site_fract_y
_atom_site_fract_z
Si Si1 0.755326 0.397722 0.582297
Si Si2 0.028729 0.845252 0.635589
Si Si3 0.801081 0.729905 0.850572
Si Si4 0.647345 0.091788 0.114559
Si Si5 0.133901 0.622463 0.798052
Si Si6 0.154404 0.963608 0.378225
O O1 0.381577 0.138877 0.601356
O O2 0.000000 0.500000 0.500000
O O3 0.927687 0.665765 0.482187
O O4 0.695231 0.253421 0.740839
O O5 0.049916 0.704425 0.697890
O O6 0.062995 0.933670 0.488352
O O7 0.720569 0.643051 0.768341
O O8 0.054993 0.800093 0.888543
O O9 0.939104 0.982012 0.736249
O O10 0.500000 0.500000 0.000000
O O11 0.682996 0.207240 0.155717
O O12 0.775723 0.279606 0.948302
O O13 0.434278 0.769627 0.711675
#
# Coordination Sequence:
#
# PCOD9095519 Si02
#       6
#     2   2   2   2   2   2
#     4  10  20  35  58  85 114 146 189 234 282 330
#     4  10  23  36  57  90 116 140 196 235 272 340
#     4  10  20  36  59  84 112 157 188 221 287 342
#     4   9  18  34  53  86 112 143 194 229 268 344
#     4   9  17  32  58  78 112 149 182 230 280 323
#     4  12  20  36  64  82 113 154 184 232 290 327
#
# _framework density 22.538115999999999
#
# number of rings (size 3 to 8) (size 9 to 14) (size 15 to 20)
#    0.000    2.333    5.000    1.000    0.000    2.667 
#    0.000    0.833    3.667    5.000    0.000    0.000 
#    0.000    0.000    0.000    0.000    0.000    0.000 
#
# Total GULP energy -66890.243733 kJ/mol
# GULP energy per Si atom -5574.186978 kJ/mol
# Density = 2.248682 g / cm^3
# Si number density = 22.538116 Si / 1000 Ang^3
#
#
#
# Elastic Constant Matrix: (Units=GPa)
#
#
# Indices 1 2 3 4 5 6 
#
# 1 96.3710 8.3280 48.4811 6.8892 -14.5617 -22.1702
# 2 8.3280 44.8343 37.0712 -5.5657 1.1082 -19.3802
# 3 48.4811 37.0712 189.2297 15.4015 2.0347 -11.7463
# 4 6.8892 -5.5657 15.4015 38.0366 -8.2044 5.8601
# 5 -14.5617 1.1082 2.0347 -8.2044 61.7270 4.8941
# 6 -22.1702 -19.3802 -11.7463 5.8601 4.8941 25.6470
#
#
#
# Elastic Compliance Matrix: (Units=1/GPa)
#
#
# Indices 1 2 3 4 5 6 
#
# 1 0.016858 0.008617 -0.004651 -0.002388 0.002145 0.019090
# 2 0.008617 0.043983 -0.008777 0.002630 -0.000992 0.036253
# 3 -0.004651 -0.008777 0.008079 -0.003025 -0.001129 -0.006046
# 4 -0.002388 0.002630 -0.003025 0.030694 0.004306 -0.009297
# 5 0.002145 -0.000992 -0.001129 0.004306 0.017632 -0.003762
# 6 0.019090 0.036253 -0.006046 -0.009297 -0.003762 0.082961
#
#
# Mechanical properties :
#
#
# Convention : Reuss Voigt Hill
#
# Bulk Modulus (GPa) = 16.86416 57.57729 37.22072
# Shear Modulus (GPa) = 21.77748 40.85241 31.31495
#
# Velocity S-wave (km/s) = 3.11183 4.26207 3.73154
# Velocity P-wave (km/s) = 4.51775 7.05850 5.92590
#
# Compressibility (1/GPa) = 0.05929735
#
# Stress axis : x y z
#
# Youngs Moduli (GPa) = 59.31869 22.73601 123.78288
#
# Poissons Ratio (x) = -0.19591 0.57569
# Poissons Ratio (y) = -0.51113 1.08646
# Poissons Ratio (z) = 0.27588 0.19956
#
# Static dielectric constant tensor:
#      x y z
#    x 1.842590 -0.047350 0.009470 
#    y -0.047350 1.965990 -0.036420 
#    z 0.009470 -0.036420 2.012470 
# 
# From -- ./inp_files/151027.got.cif
#   From: 2010.05.17/outbox.cif.g08.bks.cpg/sg2_76_cif.got.tgz:151027.got - 2010.06.03 11:33:40.
