data_PCOD9095727
_publ_section_title
;
Structure prediction by ZEFSAII (Michael W. Deem and Ramdas Pophale) SiO2 
 PCOD9095727
Probable space group: P -1
;
_chemical_formula_sum "Si O2"
_cell_formula_units_Z 16
_cell_length_a 15.372380
_cell_length_b 14.068689
_cell_length_c 12.250254
_cell_angle_alpha 149.929796
_cell_angle_beta 132.006284
_cell_angle_gamma 36.776805
_cell_volume 792.226401
_symmetry_space_group_name_H-M "P -1"
_symmetry_group_IT_number 2
_symmetry_cell_setting 'triclinic'
loop_
_space_group_symop_operation_xyz
x,y,z
-x,-y,-z
loop_
_atom_site_type_symbol
_atom_site_label
_atom_site_fract_x
_atom_site_fract_y
_atom_site_fract_z
Si Si1 0.288032 0.577593 0.143489
Si Si2 0.562495 0.129253 0.232560
Si Si3 0.997343 0.302901 0.864836
Si Si4 0.969095 0.525723 0.728244
Si Si5 0.858491 0.250177 0.267968
Si Si6 0.885180 0.293561 0.081910
Si Si7 0.592517 0.363985 0.291187
Si Si8 0.185468 0.079033 0.610680
O O1 0.163175 0.611331 0.151499
O O2 0.450970 0.405705 0.155608
O O3 0.256375 0.831939 0.367394
O O4 0.245721 0.552777 0.961768
O O5 0.626580 0.202602 0.264362
O O6 0.452672 0.381602 0.451084
O O7 0.685405 0.948068 0.241054
O O8 0.500000 0.000000 0.000000
O O9 0.077262 0.106931 0.643109
O O10 0.077786 0.278878 0.022414
O O11 0.000000 0.500000 0.000000
O O12 0.019160 0.607552 0.751564
O O13 0.104964 0.289566 0.666740
O O14 0.870735 0.444218 0.529094
O O15 0.836755 0.303291 0.173733
O O16 0.727687 0.260087 0.221634
O O17 0.008389 0.983771 0.139801
#
# Coordination Sequence:
#
# PCOD9095727 Si02
#       8
#     2   2   2   2   2   2   2   2
#     4  10  20  40  58  85 122 160 200 249 295 367
#     4  10  24  38  59  87 129 163 195 237 297 377
#     4   9  20  30  57  88 113 153 199 238 292 350
#     4  10  21  37  62  89 119 152 199 256 298 354
#     4  11  23  42  62  92 119 156 205 261 297 355
#     4  10  23  40  67  88 115 158 211 254 305 340
#     4  10  25  40  60  88 127 161 195 244 310 349
#     4  10  20  35  59  90 117 160 200 241 300 357
#
# _framework density 20.196245999999999
#
# number of rings (size 3 to 8) (size 9 to 14) (size 15 to 20)
#    0.000    2.000    1.250    0.750   10.500    5.500 
#    0.000    0.000    0.000    1.500    0.000    0.000 
#    0.000    0.000    0.000    0.000    0.000    0.000 
#
# Total GULP energy -89197.003880 kJ/mol
# GULP energy per Si atom -5574.812742 kJ/mol
# Density = 2.015028 g / cm^3
# Si number density = 20.196246 Si / 1000 Ang^3
#
#
#
# Elastic Constant Matrix: (Units=GPa)
#
#
# Indices 1 2 3 4 5 6 
#
# 1 99.1005 17.9541 26.9781 -8.5776 -10.6785 2.2777
# 2 17.9541 58.7569 13.2355 -8.0187 -4.5798 0.2057
# 3 26.9781 13.2355 36.5947 -5.6706 12.6136 -6.6111
# 4 -8.5776 -8.0187 -5.6706 27.1786 -2.1599 5.9324
# 5 -10.6785 -4.5798 12.6136 -2.1599 32.1858 -3.4136
# 6 2.2777 0.2057 -6.6111 5.9324 -3.4136 26.2836
#
#
#
# Elastic Compliance Matrix: (Units=1/GPa)
#
#
# Indices 1 2 3 4 5 6 
#
# 1 0.016143 0.000133 -0.016193 0.003719 0.011459 -0.004824
# 2 0.000133 0.020360 -0.009479 0.005229 0.006703 -0.002865
# 3 -0.016193 -0.009479 0.053804 -0.001388 -0.026642 0.011864
# 4 0.003719 0.005229 -0.001388 0.041648 0.004303 -0.009554
# 5 0.011459 0.006703 -0.026642 0.004303 0.046268 -0.002709
# 6 -0.004824 -0.002865 0.011864 -0.009554 -0.002709 0.043276
#
#
# Mechanical properties :
#
#
# Convention : Reuss Voigt Hill
#
# Bulk Modulus (GPa) = 25.49287 34.53196 30.01242
# Shear Modulus (GPa) = 17.50376 26.21522 21.85949
#
# Velocity S-wave (km/s) = 2.94714 3.60672 3.29348
# Velocity P-wave (km/s) = 4.92248 5.87196 5.41806
#
# Compressibility (1/GPa) = 0.03922665
#
# Stress axis : x y z
#
# Youngs Moduli (GPa) = 61.94824 49.11552 18.58601
#
# Poissons Ratio (x) = -0.00651 0.30097
# Poissons Ratio (y) = -0.00821 0.17618
# Poissons Ratio (z) = 1.00315 0.46558
#
# Static dielectric constant tensor:
#      x y z
#    x 1.698390 -0.021910 -0.015730 
#    y -0.021910 1.740830 0.005310 
#    z -0.015730 0.005310 1.802650 
# 
# From -- ./inp_files/456056.got.cif
#   From: 2010.05.17/outbox.cif.g08.bks.cpg/sg2_229_cif.got.tgz:456056.got - 2010.06.03 11:33:40.
