data_PCOD9095502
_publ_section_title
;
Structure prediction by ZEFSAII (Michael W. Deem and Ramdas Pophale) SiO2 
 PCOD9095502
Probable space group: P -1
;
_chemical_formula_sum "Si O2"
_cell_formula_units_Z 16
_cell_length_a 6.796496
_cell_length_b 11.136252
_cell_length_c 10.764233
_cell_angle_alpha 75.239503
_cell_angle_beta 116.101641
_cell_angle_gamma 116.831003
_cell_volume 651.255524
_symmetry_space_group_name_H-M "P -1"
_symmetry_group_IT_number 2
_symmetry_cell_setting 'triclinic'
loop_
_space_group_symop_operation_xyz
x,y,z
-x,-y,-z
loop_
_atom_site_type_symbol
_atom_site_label
_atom_site_fract_x
_atom_site_fract_y
_atom_site_fract_z
Si Si1 0.696819 0.132907 0.076364
Si Si2 0.142217 0.616596 0.103376
Si Si3 0.102213 0.208363 0.872552
Si Si4 0.284145 0.570613 0.408866
Si Si5 0.192559 0.871665 0.613785
Si Si6 0.806165 0.901729 0.837310
Si Si7 0.662274 0.849416 0.540965
Si Si8 0.096872 0.348369 0.596030
O O1 0.693250 0.145688 0.220689
O O2 0.948994 0.119106 0.121373
O O3 0.691669 0.259923 0.966663
O O4 0.500000 0.000000 0.000000
O O5 0.261572 0.558731 0.257643
O O6 0.981815 0.684014 0.112123
O O7 0.000000 0.500000 0.000000
O O8 0.185572 0.266472 0.742508
O O9 0.260134 0.170986 0.028281
O O10 0.884376 0.062815 0.829616
O O11 0.476375 0.715377 0.463195
O O12 0.287895 0.448363 0.527340
O O13 0.026813 0.570920 0.379652
O O14 0.929972 0.863859 0.581484
O O15 0.114601 0.757070 0.517574
O O16 0.342798 0.016621 0.558012
O O17 0.643506 0.848113 0.685515
#
# Coordination Sequence:
#
# PCOD9095502 Si02
#       8
#     2   2   2   2   2   2   2   2
#     4  10  20  35  58  86 110 147 193 237 284 338
#     4  10  20  37  59  80 111 155 191 229 284 340
#     4   9  18  36  60  78 111 155 186 230 288 337
#     4  10  22  37  58  84 118 150 193 234 285 345
#     4  10  20  35  58  83 116 147 188 238 287 334
#     4   9  18  36  60  81 116 149 187 238 290 341
#     4  10  20  36  57  87 113 149 187 236 288 341
#     4  10  20  38  56  83 116 152 187 236 284 342
#
# _framework density 24.567928999999999
#
# number of rings (size 3 to 8) (size 9 to 14) (size 15 to 20)
#    0.000    2.250    1.250    1.500    0.000    1.000 
#    6.750    0.625    0.000    0.000    0.000    0.000 
#    0.000    0.000    0.000    0.000    0.000    0.000 
#
# Total GULP energy -89506.576770 kJ/mol
# GULP energy per Si atom -5594.161048 kJ/mol
# Density = 2.451201 g / cm^3
# Si number density = 24.567929 Si / 1000 Ang^3
#
#
#
# Elastic Constant Matrix: (Units=GPa)
#
#
# Indices 1 2 3 4 5 6 
#
# 1 62.8930 17.8090 42.1320 -5.3803 -10.7477 2.4944
# 2 17.8090 152.7284 101.6634 -20.8866 -20.7839 24.3532
# 3 42.1320 101.6634 270.9302 -17.9337 -25.9468 24.8981
# 4 -5.3803 -20.8866 -17.9337 44.6598 2.2117 -9.6762
# 5 -10.7477 -20.7839 -25.9468 2.2117 46.7417 -2.4303
# 6 2.4944 24.3532 24.8981 -9.6762 -2.4303 39.2747
#
#
#
# Elastic Compliance Matrix: (Units=1/GPa)
#
#
# Indices 1 2 3 4 5 6 
#
# 1 0.018155 -0.000028 -0.002558 0.001219 0.002734 0.000955
# 2 -0.000028 0.009713 -0.002934 0.002507 0.002389 -0.003396
# 3 -0.002558 -0.002934 0.005424 0.000153 0.001041 -0.001355
# 4 0.001219 0.002507 0.000153 0.024696 0.000539 0.004389
# 5 0.002734 0.002389 0.001041 0.000539 0.023600 -0.000721
# 6 0.000955 -0.003396 -0.001355 0.004389 -0.000721 0.029402
#
#
# Mechanical properties :
#
#
# Convention : Reuss Voigt Hill
#
# Bulk Modulus (GPa) = 44.93771 89.97340 67.45555
# Shear Modulus (GPa) = 38.62583 47.79837 43.21210
#
# Velocity S-wave (km/s) = 3.96941 4.41563 4.19845
# Velocity P-wave (km/s) = 6.27209 7.91826 7.14276
#
# Compressibility (1/GPa) = 0.02225303
#
# Stress axis : x y z
#
# Youngs Moduli (GPa) = 55.08073 102.95530 184.37041
#
# Poissons Ratio (x) = 0.00286 0.47165
# Poissons Ratio (y) = 0.00153 0.54086
# Poissons Ratio (z) = 0.14090 0.30202
#
# Static dielectric constant tensor:
#      x y z
#    x 2.098070 -0.008330 0.001290 
#    y -0.008330 1.846120 -0.060570 
#    z 0.001290 -0.060570 1.934860 
# 
# From -- ./inp_files/392471.got.cif
#   From: 2010.05.17/outbox.cif.g08.bks.cpg/sg2_197_cif.got.tgz:392471.got - 2010.06.03 11:33:40.
