data_PCOD9095946
_publ_section_title
;
Structure prediction by ZEFSAII (Michael W. Deem and Ramdas Pophale) SiO2 
 PCOD9095946
Probable space group: P -1
;
_chemical_formula_sum "Si O2"
_cell_formula_units_Z 16
_cell_length_a 15.320455
_cell_length_b 7.922273
_cell_length_c 12.855938
_cell_angle_alpha 95.320486
_cell_angle_beta 125.755488
_cell_angle_gamma 47.763991
_cell_volume 812.244103
_symmetry_space_group_name_H-M "P -1"
_symmetry_group_IT_number 2
_symmetry_cell_setting 'triclinic'
loop_
_space_group_symop_operation_xyz
x,y,z
-x,-y,-z
loop_
_atom_site_type_symbol
_atom_site_label
_atom_site_fract_x
_atom_site_fract_y
_atom_site_fract_z
Si Si1 0.994649 0.735229 0.274864
Si Si2 0.303212 0.843501 0.791582
Si Si3 0.792802 0.591727 0.297424
Si Si4 0.332240 0.495032 0.955171
Si Si5 0.006535 0.003020 0.880204
Si Si6 0.832939 0.774918 0.524170
Si Si7 0.793762 0.294396 0.447082
Si Si8 0.327430 0.719412 0.450691
O O1 0.988815 0.813015 0.158502
O O2 0.125927 0.433381 0.381707
O O3 0.043131 0.844630 0.383343
O O4 0.818299 0.890638 0.209803
O O5 0.324031 0.658991 0.875036
O O6 0.214062 0.870955 0.630409
O O7 0.483381 0.701801 0.881941
O O8 0.686171 0.659433 0.128517
O O9 0.769971 0.778967 0.369301
O O10 0.766022 0.472667 0.354873
O O11 0.984800 0.364675 0.380099
O O12 0.174945 0.711396 0.935217
O O13 0.835345 0.127782 0.723590
O O14 0.000000 0.000000 0.000000
O O15 0.712356 0.051103 0.512550
O O16 0.664286 0.426007 0.457480
O O17 0.500000 0.500000 0.500000
#
# Coordination Sequence:
#
# PCOD9095946 Si02
#       8
#     2   2   2   2   2   2   2   2
#     4   9  19  35  56  86 118 151 189 240 298 341
#     4   9  17  28  56  87 115 147 188 234 292 350
#     4   9  18  34  58  88 114 146 180 237 314 345
#     4   9  17  33  54  85 118 149 190 237 285 352
#     4  10  21  39  59  81 116 163 201 235 279 341
#     4  10  20  35  61  86 118 149 184 248 307 345
#     4   9  19  32  56  86 113 147 194 243 281 339
#     4  11  24  39  59  86 111 154 213 244 274 348
#
# _framework density 19.698512000000001
#
# number of rings (size 3 to 8) (size 9 to 14) (size 15 to 20)
#    0.000    2.500    1.250    0.375    8.750    0.000 
#    0.000    6.875    2.750    0.000    0.000    0.000 
#    0.000    0.000    0.000    0.000    0.000    0.000 
#
# Total GULP energy -89113.040478 kJ/mol
# GULP energy per Si atom -5569.565030 kJ/mol
# Density = 1.965368 g / cm^3
# Si number density = 19.698512 Si / 1000 Ang^3
#
#
#
# Elastic Constant Matrix: (Units=GPa)
#
#
# Indices 1 2 3 4 5 6 
#
# 1 112.9439 64.6592 49.1193 6.4509 -2.6075 -26.3377
# 2 64.6592 123.6186 46.7159 1.4615 10.9704 -19.3471
# 3 49.1193 46.7159 69.7891 7.5632 -5.2669 -8.3081
# 4 6.4509 1.4615 7.5632 28.4981 -2.7297 0.2662
# 5 -2.6075 10.9704 -5.2669 -2.7297 37.8663 2.1334
# 6 -26.3377 -19.3471 -8.3081 0.2662 2.1334 40.7799
#
#
#
# Elastic Compliance Matrix: (Units=1/GPa)
#
#
# Indices 1 2 3 4 5 6 
#
# 1 0.016536 -0.004895 -0.007306 -0.001517 0.001047 0.006824
# 2 -0.004895 0.013742 -0.006020 0.001482 -0.005184 0.002393
# 3 -0.007306 -0.006020 0.023916 -0.003931 0.004448 -0.002909
# 4 -0.001517 0.001482 -0.003931 0.036570 0.001635 -0.001401
# 5 0.001047 -0.005184 0.004448 0.001635 0.028854 -0.002397
# 6 0.006824 0.002393 -0.002909 -0.001401 -0.002397 0.029606
#
#
# Mechanical properties :
#
#
# Convention : Reuss Voigt Hill
#
# Bulk Modulus (GPa) = 56.33360 69.70449 63.01905
# Shear Modulus (GPa) = 26.09819 31.15268 28.62544
#
# Velocity S-wave (km/s) = 3.64384 3.98109 3.81619
# Velocity P-wave (km/s) = 6.80907 7.52294 7.17489
#
# Compressibility (1/GPa) = 0.01775140
#
# Stress axis : x y z
#
# Youngs Moduli (GPa) = 60.47497 72.76995 41.81276
#
# Poissons Ratio (x) = 0.35622 0.30547
# Poissons Ratio (y) = 0.29604 0.25172
# Poissons Ratio (z) = 0.44182 0.43809
#
# Static dielectric constant tensor:
#      x y z
#    x 1.772290 0.063970 -0.007430 
#    y 0.063970 1.710750 -0.001130 
#    z -0.007430 -0.001130 1.721700 
# 
# From -- ./inp_files/405295.got.cif
#   From: 2010.05.17/outbox.cif.g08.bks.cpg/sg2_203_cif.got.tgz:405295.got - 2010.06.03 11:33:40.
