data_PCOD9095430
_publ_section_title
;
Structure prediction by ZEFSAII (Michael W. Deem and Ramdas Pophale) SiO2 
 PCOD9095430
Probable space group: P -1
;
_chemical_formula_sum "Si O2"
_cell_formula_units_Z 16
_cell_length_a 9.356286
_cell_length_b 8.679245
_cell_length_c 12.149443
_cell_angle_alpha 114.290845
_cell_angle_beta 62.313138
_cell_angle_gamma 106.330207
_cell_volume 791.322014
_symmetry_space_group_name_H-M "P -1"
_symmetry_group_IT_number 2
_symmetry_cell_setting 'triclinic'
loop_
_space_group_symop_operation_xyz
x,y,z
-x,-y,-z
loop_
_atom_site_type_symbol
_atom_site_label
_atom_site_fract_x
_atom_site_fract_y
_atom_site_fract_z
Si Si1 0.604399 0.850460 0.692296
Si Si2 0.644168 0.249467 0.833367
Si Si3 0.895783 0.748633 0.899543
Si Si4 0.748105 0.320794 0.221264
Si Si5 0.180509 0.544146 0.338656
Si Si6 0.387551 0.149954 0.063365
Si Si7 0.168004 0.398437 0.540945
Si Si8 0.180681 0.534160 0.991038
O O1 0.414924 0.795009 0.719776
O O2 0.633438 0.785780 0.787387
O O3 0.724246 0.757164 0.546050
O O4 0.641476 0.053535 0.743503
O O5 0.663561 0.361785 0.750341
O O6 0.791941 0.322093 0.882139
O O7 0.491331 0.268025 0.972941
O O8 0.875195 0.622168 0.764073
O O9 0.788110 0.895575 0.943384
O O10 0.805791 0.642222 0.001510
O O11 0.087476 0.774068 0.862635
O O12 0.784200 0.479530 0.337574
O O13 0.721544 0.395661 0.130747
O O14 0.202296 0.505500 0.446935
O O15 0.026165 0.652400 0.410728
O O16 0.500000 0.000000 0.000000
O O17 0.000000 0.500000 0.000000
#
# Coordination Sequence:
#
# PCOD9095430 Si02
#       8
#     2   2   2   2   2   2   2   2
#     4  11  21  36  58  87 122 156 192 245 298 350
#     4  10  21  36  58  86 120 150 197 245 301 343
#     4   9  18  35  59  86 115 153 199 248 292 339
#     4  10  20  35  57  88 122 157 197 241 291 358
#     4   9  19  36  58  88 110 152 207 247 277 357
#     4  10  20  35  57  88 117 148 196 239 297 354
#     4  10  20  36  60  85 117 155 208 233 291 348
#     4   9  18  34  59  87 117 149 196 246 291 348
#
# _framework density 20.219327
#
# number of rings (size 3 to 8) (size 9 to 14) (size 15 to 20)
#    0.000    2.250    2.500    1.125    0.000    3.500 
#    0.000    3.125    0.000    1.500    0.000    0.000 
#    0.000    0.000    0.000    0.000    0.000    0.000 
#
# Total GULP energy -89096.911281 kJ/mol
# GULP energy per Si atom -5568.556955 kJ/mol
# Density = 2.017331 g / cm^3
# Si number density = 20.219327 Si / 1000 Ang^3
#
#
#
# Elastic Constant Matrix: (Units=GPa)
#
#
# Indices 1 2 3 4 5 6 
#
# 1 79.5645 16.5546 -2.3904 19.0016 3.5533 -20.6552
# 2 16.5546 28.2385 8.8096 7.4361 3.2042 2.4962
# 3 -2.3904 8.8096 66.1665 -2.2763 10.8156 -7.1362
# 4 19.0016 7.4361 -2.2763 30.6407 -1.3052 5.6572
# 5 3.5533 3.2042 10.8156 -1.3052 23.4319 1.6269
# 6 -20.6552 2.4962 -7.1362 5.6572 1.6269 26.1930
#
#
#
# Elastic Compliance Matrix: (Units=1/GPa)
#
#
# Indices 1 2 3 4 5 6 
#
# 1 0.029667 -0.016192 0.007454 -0.020189 -0.009064 0.031892
# 2 -0.016192 0.049183 -0.009560 0.001236 0.001630 -0.020428
# 3 0.007454 -0.009560 0.019631 -0.003779 -0.010037 0.013577
# 4 -0.020189 0.001236 -0.003779 0.050239 0.009414 -0.028503
# 5 -0.009064 0.001630 -0.010037 0.009414 0.050040 -0.015179
# 6 0.031892 -0.020428 0.013577 -0.028503 -0.015179 0.076073
#
#
# Mechanical properties :
#
#
# Convention : Reuss Voigt Hill
#
# Bulk Modulus (GPa) = 16.15911 24.43523 20.29717
# Shear Modulus (GPa) = 15.05772 26.11950 20.58861
#
# Velocity S-wave (km/s) = 2.73191 3.59807 3.19449
# Velocity P-wave (km/s) = 4.23797 5.41967 4.86483
#
# Compressibility (1/GPa) = 0.06188460
#
# Stress axis : x y z
#
# Youngs Moduli (GPa) = 33.70762 20.33230 50.94078
#
# Poissons Ratio (x) = 0.32921 -0.37973
# Poissons Ratio (y) = 0.54578 0.48702
# Poissons Ratio (z) = -0.25127 0.19439
#
# Static dielectric constant tensor:
#      x y z
#    x 1.758200 -0.024670 -0.052160 
#    y -0.024670 1.777380 -0.003810 
#    z -0.052160 -0.003810 1.758130 
# 
# From -- ./inp_files/257967.got.cif
#   From: 2010.05.17/outbox.cif.g08.bks.cpg/sg2_129_cif.got.tgz:257967.got - 2010.06.03 11:33:40.
