data_PCOD9095213
_publ_section_title
;
Structure prediction by ZEFSAII (Michael W. Deem and Ramdas Pophale) SiO2 
 PCOD9095213
Probable space group: P -1
;
_chemical_formula_sum "Si O2"
_cell_formula_units_Z 12
_cell_length_a 12.435219
_cell_length_b 10.484515
_cell_length_c 7.505917
_cell_angle_alpha 62.412992
_cell_angle_beta 124.299219
_cell_angle_gamma 71.145131
_cell_volume 432.009003
_symmetry_space_group_name_H-M "P -1"
_symmetry_group_IT_number 2
_symmetry_cell_setting 'triclinic'
loop_
_space_group_symop_operation_xyz
x,y,z
-x,-y,-z
loop_
_atom_site_type_symbol
_atom_site_label
_atom_site_fract_x
_atom_site_fract_y
_atom_site_fract_z
Si Si1 0.018514 0.370479 0.440524
Si Si2 0.327168 0.961703 0.531288
Si Si3 0.973502 0.058461 0.226764
Si Si4 0.682192 0.462756 0.205539
Si Si5 0.325337 0.229602 0.558083
Si Si6 0.625931 0.171769 0.745442
O O1 0.101458 0.391286 0.340358
O O2 0.000000 0.500000 0.500000
O O3 0.803696 0.462599 0.178634
O O4 0.204967 0.089458 0.839044
O O5 0.097489 0.098938 0.288579
O O6 0.338746 0.120573 0.463202
O O7 0.364810 0.872400 0.425639
O O8 0.526832 0.717154 0.990379
O O9 0.112346 0.822935 0.385071
O O10 0.000000 0.000000 0.500000
O O11 0.727192 0.238942 0.832611
O O12 0.500000 0.500000 0.000000
O O13 0.398111 0.325303 0.515536
O O14 0.500000 0.000000 0.000000
#
# Coordination Sequence:
#
# PCOD9095213 Si02
#       6
#     2   2   2   2   2   2
#     4  10  20  37  56  78 108 146 184 219 268 336
#     4  11  20  36  57  82 112 140 182 235 272 312
#     4  10  20  37  58  79 109 150 186 217 269 336
#     4   9  19  33  54  78 104 142 180 217 267 324
#     4  10  20  35  56  80 107 147 184 218 271 333
#     4  10  21  36  56  83 109 143 183 230 275 311
#
# _framework density 27.777197999999999
#
# number of rings (size 3 to 8) (size 9 to 14) (size 15 to 20)
#    0.000    2.000    0.000    6.000    0.000    1.333 
#    0.000    5.833    0.000    0.000    0.000    0.000 
#    0.000    0.000    0.000    0.000    0.000    0.000 
#
# Total GULP energy -66949.496740 kJ/mol
# GULP energy per Si atom -5579.124728 kJ/mol
# Density = 2.771398 g / cm^3
# Si number density = 27.777198 Si / 1000 Ang^3
#
#
#
# Elastic Constant Matrix: (Units=GPa)
#
#
# Indices 1 2 3 4 5 6 
#
# 1 230.2555 43.6505 63.4982 29.3693 69.0096 4.0647
# 2 43.6505 106.7238 33.7603 7.8632 6.7589 9.0473
# 3 63.4982 33.7603 108.7336 -2.4336 24.5504 4.2208
# 4 29.3693 7.8632 -2.4336 42.8029 -2.6035 -13.1696
# 5 69.0096 6.7589 24.5504 -2.6035 60.5548 11.4509
# 6 4.0647 9.0473 4.2208 -13.1696 11.4509 41.5165
#
#
#
# Elastic Compliance Matrix: (Units=1/GPa)
#
#
# Indices 1 2 3 4 5 6 
#
# 1 0.009087 -0.001781 -0.002799 -0.006548 -0.009359 0.000287
# 2 -0.001781 0.011286 -0.002944 -0.001873 0.002501 -0.003270
# 3 -0.002799 -0.002944 0.012107 0.003422 -0.001465 0.001174
# 4 -0.006548 -0.001873 0.003422 0.031547 0.005925 0.009074
# 5 -0.009359 0.002501 -0.001465 0.005925 0.028797 -0.005543
# 6 0.000287 -0.003270 0.001174 0.009074 -0.005543 0.029059
#
#
# Mechanical properties :
#
#
# Convention : Reuss Voigt Hill
#
# Bulk Modulus (GPa) = 57.35869 80.83677 69.09773
# Shear Modulus (GPa) = 35.02813 49.29509 42.16161
#
# Velocity S-wave (km/s) = 3.55496 4.21724 3.90019
# Velocity P-wave (km/s) = 6.12738 7.27176 6.72396
#
# Compressibility (1/GPa) = 0.01743415
#
# Stress axis : x y z
#
# Youngs Moduli (GPa) = 110.04272 88.60239 82.59609
#
# Poissons Ratio (x) = 0.15777 0.23116
# Poissons Ratio (y) = 0.19595 0.24317
# Poissons Ratio (z) = 0.30797 0.26085
#
# Static dielectric constant tensor:
#      x y z
#    x 2.158760 -0.032240 -0.068160 
#    y -0.032240 2.136650 0.059330 
#    z -0.068160 0.059330 2.347410 
# 
# From -- ./inp_files/148343.got.cif
#   From: 2010.05.17/outbox.cif.g08.bks.cpg/sg2_75_cif.got.tgz:148343.got - 2010.06.03 11:33:40.
