data_PCOD9095145
_publ_section_title
;
Structure prediction by ZEFSAII (Michael W. Deem and Ramdas Pophale) SiO2 
 PCOD9095145
Probable space group: P -1
;
_chemical_formula_sum "Si O2"
_cell_formula_units_Z 16
_cell_length_a 14.682052
_cell_length_b 8.643556
_cell_length_c 8.151205
_cell_angle_alpha 74.958468
_cell_angle_beta 125.316254
_cell_angle_gamma 72.102263
_cell_volume 663.815927
_symmetry_space_group_name_H-M "P -1"
_symmetry_group_IT_number 2
_symmetry_cell_setting 'triclinic'
loop_
_space_group_symop_operation_xyz
x,y,z
-x,-y,-z
loop_
_atom_site_type_symbol
_atom_site_label
_atom_site_fract_x
_atom_site_fract_y
_atom_site_fract_z
Si Si1 0.971038 0.896136 0.636547
Si Si2 0.215681 0.138948 0.183352
Si Si3 0.910675 0.309900 0.885898
Si Si4 0.106235 0.486833 0.737370
Si Si5 0.373102 0.280447 0.444060
Si Si6 0.621445 0.565057 0.947997
Si Si7 0.236069 0.800609 0.437454
Si Si8 0.504710 0.648943 0.144755
O O1 0.006106 0.684783 0.683538
O O2 0.820004 0.051455 0.508914
O O3 0.000000 0.000000 0.500000
O O4 0.076381 0.826921 0.915733
O O5 0.336006 0.126594 0.413991
O O6 0.249867 0.923319 0.276519
O O7 0.193387 0.267998 0.966148
O O8 0.056878 0.274403 0.043000
O O9 0.778691 0.526903 0.720399
O O10 0.881320 0.231480 0.716260
O O11 0.228415 0.506117 0.813922
O O12 0.000000 0.500000 0.500000
O O13 0.472109 0.249083 0.706684
O O14 0.408095 0.331476 0.289673
O O15 0.523874 0.695096 0.965059
O O16 0.618524 0.375479 0.968525
O O17 0.370651 0.583917 0.647335
#
# Coordination Sequence:
#
# PCOD9095145 Si02
#       8
#     2   2   2   2   2   2   2   2
#     4  11  21  34  54  83 121 151 192 245 295 355
#     4  10  20  36  55  85 122 155 195 243 302 359
#     4  10  20  35  55  81 120 159 192 238 298 366
#     4  11  25  36  60  91 124 157 193 252 307 357
#     4  10  20  36  62  84 115 156 201 250 297 349
#     4  10  21  41  61  90 117 154 209 250 290 358
#     4  10  23  35  58  85 117 161 197 238 304 359
#     4  10  22  40  66  84 117 161 206 249 293 356
#
# _framework density 24.103065999999998
#
# number of rings (size 3 to 8) (size 9 to 14) (size 15 to 20)
#    0.000    1.750    2.500    3.000    8.750    0.000 
#    0.000    2.500    0.000    8.250    0.000    0.000 
#    0.000    0.000    0.000    0.000    0.000    0.000 
#
# Total GULP energy -89187.985290 kJ/mol
# GULP energy per Si atom -5574.249081 kJ/mol
# Density = 2.404821 g / cm^3
# Si number density = 24.103066 Si / 1000 Ang^3
#
#
#
# Elastic Constant Matrix: (Units=GPa)
#
#
# Indices 1 2 3 4 5 6 
#
# 1 86.5059 14.0305 30.7136 33.7623 12.4801 18.4633
# 2 14.0305 56.4709 22.1034 5.6512 4.1326 4.3196
# 3 30.7136 22.1034 88.7543 37.6628 5.1649 14.6491
# 4 33.7623 5.6512 37.6628 47.8308 3.3621 9.4088
# 5 12.4801 4.1326 5.1649 3.3621 32.5622 4.8065
# 6 18.4633 4.3196 14.6491 9.4088 4.8065 25.7822
#
#
#
# Elastic Compliance Matrix: (Units=1/GPa)
#
#
# Indices 1 2 3 4 5 6 
#
# 1 0.018645 -0.002813 0.000744 -0.011469 -0.004501 -0.008279
# 2 -0.002813 0.020332 -0.005909 0.004187 -0.001092 0.000641
# 3 0.000744 -0.005909 0.019306 -0.013950 -0.000367 -0.005353
# 4 -0.011469 0.004187 -0.013950 0.039206 0.001915 0.000773
# 5 -0.004501 -0.001092 -0.000367 0.001915 0.032910 -0.003220
# 6 -0.008279 0.000641 -0.005353 0.000773 -0.003220 0.047967
#
#
# Mechanical properties :
#
#
# Convention : Reuss Voigt Hill
#
# Bulk Modulus (GPa) = 23.62644 40.60290 32.11467
# Shear Modulus (GPa) = 23.98894 32.22727 28.10811
#
# Velocity S-wave (km/s) = 3.15820 3.66055 3.41862
# Velocity P-wave (km/s) = 4.80859 5.89477 5.37916
#
# Compressibility (1/GPa) = 0.04232546
#
# Stress axis : x y z
#
# Youngs Moduli (GPa) = 53.63485 49.18386 51.79840
#
# Poissons Ratio (x) = 0.13836 -0.03853
# Poissons Ratio (y) = 0.15088 0.30608
# Poissons Ratio (z) = -0.03989 0.29063
#
# Static dielectric constant tensor:
#      x y z
#    x 2.041860 -0.021340 -0.025280 
#    y -0.021340 1.967390 0.076190 
#    z -0.025280 0.076190 2.066910 
# 
# From -- ./inp_files/298392.got.cif
#   From: 2010.05.17/outbox.cif.g08.bks.cpg/sg2_150_cif.got.tgz:298392.got - 2010.06.03 11:33:40.
