data_PCOD9095847
_publ_section_title
;
Structure prediction by ZEFSAII (Michael W. Deem and Ramdas Pophale) SiO2 
 PCOD9095847
Probable space group: P -1
;
_chemical_formula_sum "Si O2"
_cell_formula_units_Z 14
_cell_length_a 16.386680
_cell_length_b 10.430171
_cell_length_c 10.864683
_cell_angle_alpha 152.258267
_cell_angle_beta 52.679418
_cell_angle_gamma 133.088414
_cell_volume 631.252583
_symmetry_space_group_name_H-M "P -1"
_symmetry_group_IT_number 2
_symmetry_cell_setting 'triclinic'
loop_
_space_group_symop_operation_xyz
x,y,z
-x,-y,-z
loop_
_atom_site_type_symbol
_atom_site_label
_atom_site_fract_x
_atom_site_fract_y
_atom_site_fract_z
Si Si1 0.832373 0.095989 0.047801
Si Si2 0.376662 0.883092 0.633589
Si Si3 0.687239 0.603502 0.919246
Si Si4 0.389796 0.467644 0.648841
Si Si5 0.816831 0.858906 0.592686
Si Si6 0.397885 0.875663 0.213003
Si Si7 0.010288 0.621175 0.232256
O O1 0.804508 0.820137 0.933764
O O2 0.792872 0.978141 0.845691
O O3 0.744778 0.235016 0.291028
O O4 0.959701 0.334575 0.123987
O O5 0.378341 0.626980 0.324629
O O6 0.479054 0.004985 0.736657
O O7 0.372630 0.169042 0.806457
O O8 0.684137 0.398763 0.862848
O O9 0.500000 0.500000 0.500000
O O10 0.288892 0.401260 0.589903
O O11 0.364702 0.158752 0.482528
O O12 0.402896 0.738861 0.958111
O O13 0.919554 0.766486 0.449670
O O14 0.866532 0.121216 0.665892
O O15 0.000000 0.500000 0.000000
#
# Coordination Sequence:
#
# PCOD9095847 Si02
#       7
#     2   2   2   2   2   2   2
#     4   9  20  32  65  91 117 147 199 269 301 341
#     4  10  20  35  60  89 121 156 205 254 297 343
#     4  10  21  36  62  87 122 156 207 261 292 346
#     4  12  28  40  62  86 134 170 196 234 294 393
#     4  10  21  39  58  94 121 159 205 246 311 346
#     4  12  24  41  57  89 125 171 200 237 306 361
#     4   9  19  36  64  88 117 153 206 267 296 344
#
# _framework density 22.178127
#
# number of rings (size 3 to 8) (size 9 to 14) (size 15 to 20)
#    0.857    0.857    0.000    4.714    8.000    0.000 
#    0.000    0.000    0.000    1.714    0.000    0.000 
#    0.000    0.000    0.000    0.000    0.000    0.000 
#
# Total GULP energy -78099.642735 kJ/mol
# GULP energy per Si atom -5578.545910 kJ/mol
# Density = 2.212765 g / cm^3
# Si number density = 22.178127 Si / 1000 Ang^3
#
#
#
# Elastic Constant Matrix: (Units=GPa)
#
#
# Indices 1 2 3 4 5 6 
#
# 1 16.3757 -5.4037 -11.5089 3.9788 3.4469 -5.8635
# 2 -5.4037 133.9276 10.6522 3.4719 5.6549 -9.6411
# 3 -11.5089 10.6522 52.6283 6.4887 5.5641 4.8605
# 4 3.9788 3.4719 6.4887 33.8670 -6.2887 -8.5388
# 5 3.4469 5.6549 5.5641 -6.2887 28.0030 8.6388
# 6 -5.8635 -9.6411 4.8605 -8.5388 8.6388 21.5654
#
#
#
# Elastic Compliance Matrix: (Units=1/GPa)
#
#
# Indices 1 2 3 4 5 6 
#
# 1 0.100795 0.006228 0.022973 -0.014695 -0.031321 0.031740
# 2 0.006228 0.008494 -0.000456 -0.000565 -0.004763 0.007278
# 3 0.022973 -0.000456 0.026327 -0.009482 -0.010236 0.000455
# 4 -0.014695 -0.000565 -0.009482 0.037097 0.009422 0.008804
# 5 -0.031321 -0.004763 -0.010236 0.009422 0.052599 -0.025678
# 6 0.031740 0.007278 0.000455 0.008804 -0.025678 0.071924
#
#
# Mechanical properties :
#
#
# Convention : Reuss Voigt Hill
#
# Bulk Modulus (GPa) = 5.17852 21.15678 13.16765
# Shear Modulus (GPa) = 16.44119 30.63323 23.53721
#
# Velocity S-wave (km/s) = 2.72568 3.72053 3.26126
# Velocity P-wave (km/s) = 3.49940 5.29308 4.48678
#
# Compressibility (1/GPa) = 0.19310526
#
# Stress axis : x y z
#
# Youngs Moduli (GPa) = 9.92116 117.73057 37.98422
#
# Poissons Ratio (x) = -0.73322 -0.87262
# Poissons Ratio (y) = -0.06179 0.01733
# Poissons Ratio (z) = -0.22792 0.05372
#
# Static dielectric constant tensor:
#      x y z
#    x 1.712910 -0.141900 0.095580 
#    y -0.141900 1.814990 0.249330 
#    z 0.095580 0.249330 1.580350 
# 
# From -- ./inp_files/463364.got.cif
#   From: 2010.05.17/outbox.cif.g08.bks.cpg/sg2_232_cif.got.tgz:463364.got - 2010.06.03 11:33:40.
