data_PCOD9095399
_publ_section_title
;
Structure prediction by ZEFSAII (Michael W. Deem and Ramdas Pophale) SiO2 
 PCOD9095399
Probable space group: P -1
;
_chemical_formula_sum "Si O2"
_cell_formula_units_Z 16
_cell_length_a 4.923530
_cell_length_b 23.530804
_cell_length_c 21.574258
_cell_angle_alpha 18.389252
_cell_angle_beta 69.627766
_cell_angle_gamma 79.714090
_cell_volume 634.413660
_symmetry_space_group_name_H-M "P -1"
_symmetry_group_IT_number 2
_symmetry_cell_setting 'triclinic'
loop_
_space_group_symop_operation_xyz
x,y,z
-x,-y,-z
loop_
_atom_site_type_symbol
_atom_site_label
_atom_site_fract_x
_atom_site_fract_y
_atom_site_fract_z
Si Si1 0.927262 0.247399 0.649023
Si Si2 0.975450 0.355938 0.405469
Si Si3 0.858731 0.071707 0.537787
Si Si4 0.237096 0.644150 0.978139
Si Si5 0.719877 0.879723 0.425998
Si Si6 0.844002 0.632765 0.903500
Si Si7 0.243010 0.989019 0.839886
Si Si8 0.160159 0.865194 0.101022
O O1 0.973625 0.405774 0.426512
O O2 0.953047 0.307098 0.657358
O O3 0.169843 0.163358 0.694828
O O4 0.559157 0.034926 0.894211
O O5 0.647865 0.122539 0.665453
O O6 0.270863 0.313221 0.406684
O O7 0.002876 0.519160 0.184167
O O8 0.660417 0.185662 0.459928
O O9 0.066932 0.056427 0.594042
O O10 0.065387 0.187218 0.340693
O O11 0.548494 0.851274 0.768445
O O12 0.441891 0.534809 0.046904
O O13 0.045703 0.697277 0.885889
O O14 0.864229 0.052953 0.179722
O O15 0.000000 0.500000 0.000000
O O16 0.089258 0.813008 0.087859
O O17 0.000000 0.000000 0.000000
#
# Coordination Sequence:
#
# PCOD9095399 Si02
#       8
#     2   2   2   2   2   2   2   2
#     4   8  15  25  48  77 119 148 187 236 294 333
#     4  10  20  35  57  85 117 151 197 242 289 345
#     4  12  24  42  61  84 119 151 194 241 293 350
#     4  12  26  41  62  89 118 153 189 240 296 349
#     4  11  21  38  60  84 113 155 193 242 285 343
#     4  12  25  44  65  89 113 150 194 243 292 351
#     4   9  17  30  53  81 117 149 195 240 285 335
#     4   8  13  25  43  79 117 151 183 236 294 331
#
# _framework density 25.220137999999999
#
# number of rings (size 3 to 8) (size 9 to 14) (size 15 to 20)
#    0.000    1.750    1.250    4.125    3.500    0.000 
#    0.000    0.000    0.000    0.000    0.000    1.750 
#    0.000    2.000    0.000    0.000    0.000    0.000 
#
# Total GULP energy -89289.495828 kJ/mol
# GULP energy per Si atom -5580.593489 kJ/mol
# Density = 2.516274 g / cm^3
# Si number density = 25.220138 Si / 1000 Ang^3
#
#
#
# Elastic Constant Matrix: (Units=GPa)
#
#
# Indices 1 2 3 4 5 6 
#
# 1 144.1235 49.9594 22.3531 34.1733 7.8741 13.5049
# 2 49.9594 146.3790 87.3975 67.0194 22.0583 37.4447
# 3 22.3531 87.3975 85.9094 60.4015 14.6250 35.4902
# 4 34.1733 67.0194 60.4015 67.7071 14.0004 22.7953
# 5 7.8741 22.0583 14.6250 14.0004 21.3293 22.8256
# 6 13.5049 37.4447 35.4902 22.7953 22.8256 57.0655
#
#
#
# Elastic Compliance Matrix: (Units=1/GPa)
#
#
# Indices 1 2 3 4 5 6 
#
# 1 0.008799 -0.003857 0.006395 -0.006164 0.002697 -0.002145
# 2 -0.003857 0.020425 -0.019732 0.000184 -0.010453 0.003890
# 3 0.006395 -0.019732 0.057849 -0.033019 0.021337 -0.019888
# 4 -0.006164 0.000184 -0.033019 0.047361 -0.016651 0.009615
# 5 0.002697 -0.010453 0.021337 -0.016651 0.093406 -0.037759
# 6 -0.002145 0.003890 -0.019888 0.009615 -0.037759 0.039110
#
#
# Mechanical properties :
#
#
# Convention : Reuss Voigt Hill
#
# Bulk Modulus (GPa) = 18.98070 77.31466 48.14768
# Shear Modulus (GPa) = 15.67885 43.66716 29.67301
#
# Velocity S-wave (km/s) = 2.49606 4.16557 3.43382
# Velocity P-wave (km/s) = 3.98113 7.33883 5.90372
#
# Compressibility (1/GPa) = 0.05268510
#
# Stress axis : x y z
#
# Youngs Moduli (GPa) = 113.65263 48.95870 17.28628
#
# Poissons Ratio (x) = 0.18883 -0.11054
# Poissons Ratio (y) = 0.43834 0.34110
# Poissons Ratio (z) = -0.72680 0.96606
#
# Static dielectric constant tensor:
#      x y z
#    x 2.185840 -0.037230 0.015170 
#    y -0.037230 2.157420 0.051130 
#    z 0.015170 0.051130 2.121470 
# 
# From -- ./inp_files/47735.got.cif
#   From: 2010.05.17/outbox.cif.g08.bks.cpg/sg2_24_cif.got.tgz:47735.got - 2010.06.03 11:33:40.
