data_PCOD9095000
_publ_section_title
;
Structure prediction by ZEFSAII (Michael W. Deem and Ramdas Pophale) SiO2 
 PCOD9095000
Probable space group: P -1
;
_chemical_formula_sum "Si O2"
_cell_formula_units_Z 16
_cell_length_a 6.841521
_cell_length_b 23.204432
_cell_length_c 12.029212
_cell_angle_alpha 53.643386
_cell_angle_beta 84.125175
_cell_angle_gamma 123.388446
_cell_volume 989.491056
_symmetry_space_group_name_H-M "P -1"
_symmetry_group_IT_number 2
_symmetry_cell_setting 'triclinic'
loop_
_space_group_symop_operation_xyz
x,y,z
-x,-y,-z
loop_
_atom_site_type_symbol
_atom_site_label
_atom_site_fract_x
_atom_site_fract_y
_atom_site_fract_z
Si Si1 0.301257 0.165046 0.379787
Si Si2 0.274703 0.002056 0.528492
Si Si3 0.121144 0.636350 0.246464
Si Si4 0.686073 0.352899 0.299343
Si Si5 0.714873 0.783347 0.912328
Si Si6 0.287292 0.384067 0.857728
Si Si7 0.001265 0.438205 0.415830
Si Si8 0.244816 0.466296 0.978383
O O1 0.395055 0.229128 0.413495
O O2 0.401214 0.241402 0.180910
O O3 0.942226 0.053797 0.504151
O O4 0.429626 0.120681 0.408395
O O5 0.029884 0.914134 0.738926
O O6 0.500000 0.000000 0.500000
O O7 0.022637 0.529825 0.330949
O O8 0.884792 0.628093 0.221780
O O9 0.119527 0.631120 0.385339
O O10 0.454789 0.740866 0.055980
O O11 0.649216 0.427399 0.196460
O O12 0.794634 0.368657 0.399825
O O13 0.954611 0.401005 0.146692
O O14 0.774753 0.717479 0.011658
O O15 0.653087 0.491846 0.704789
O O16 0.178345 0.396084 0.959331
O O17 0.500000 0.500000 0.000000
#
# Coordination Sequence:
#
# PCOD9095000 Si02
#       8
#     2   2   2   2   2   2   2   2
#     4   9  20  34  52  76 104 127 161 208 265 310
#     4   9  20  35  53  77 103 124 164 214 261 314
#     4  10  20  35  52  68 108 140 179 215 234 296
#     4  11  21  32  49  74 107 138 167 204 253 307
#     4   9  20  32  54  79  98 133 173 203 266 298
#     4  11  19  32  52  75 105 144 171 208 242 299
#     4  10  21  35  47  76 103 145 179 204 246 285
#     4  11  21  30  47  75 110 139 164 198 251 309
#
# _framework density 16.169929
#
# number of rings (size 3 to 8) (size 9 to 14) (size 15 to 20)
#    0.750    1.250    2.500    1.875    7.000    0.000 
#    0.000    0.000    0.000    0.750    0.000    1.750 
#    0.000    0.000    0.000    0.000    0.000    0.000 
#
# Total GULP energy -89143.402734 kJ/mol
# GULP energy per Si atom -5571.462671 kJ/mol
# Density = 1.613313 g / cm^3
# Si number density = 16.169929 Si / 1000 Ang^3
#
#
#
# Elastic Constant Matrix: (Units=GPa)
#
#
# Indices 1 2 3 4 5 6 
#
# 1 96.6380 24.2988 29.5834 4.5133 22.3954 2.6844
# 2 24.2988 81.0582 33.9689 13.7346 9.9851 6.8815
# 3 29.5834 33.9689 66.8604 13.6440 9.2016 10.0179
# 4 4.5133 13.7346 13.6440 23.2138 1.4568 3.1865
# 5 22.3954 9.9851 9.2016 1.4568 20.9648 2.9273
# 6 2.6844 6.8815 10.0179 3.1865 2.9273 15.1740
#
#
#
# Elastic Compliance Matrix: (Units=1/GPa)
#
#
# Indices 1 2 3 4 5 6 
#
# 1 0.015312 -0.001261 -0.004947 0.001067 -0.014167 0.003638
# 2 -0.001261 0.016783 -0.006125 -0.005667 -0.003354 -0.001508
# 3 -0.004947 -0.006125 0.023371 -0.007754 -0.000103 -0.010129
# 4 0.001067 -0.005667 -0.007754 0.051157 0.001913 -0.003611
# 5 -0.014167 -0.003354 -0.000103 0.001913 0.065593 -0.008960
# 6 0.003638 -0.001508 -0.010129 -0.003611 -0.008960 0.075116
#
#
# Mechanical properties :
#
#
# Convention : Reuss Voigt Hill
#
# Bulk Modulus (GPa) = 32.46796 46.69542 39.58169
# Shear Modulus (GPa) = 17.71386 22.31754 20.01570
#
# Velocity S-wave (km/s) = 3.31340 3.71912 3.52210
# Velocity P-wave (km/s) = 5.89584 6.88354 6.40875
#
# Compressibility (1/GPa) = 0.03079960
#
# Stress axis : x y z
#
# Youngs Moduli (GPa) = 65.30975 59.58434 42.78738
#
# Poissons Ratio (x) = 0.07515 0.21168
# Poissons Ratio (y) = 0.08237 0.26206
# Poissons Ratio (z) = 0.32310 0.36494
#
# Static dielectric constant tensor:
#      x y z
#    x 1.562350 0.010270 -0.002370 
#    y 0.010270 1.540700 -0.014030 
#    z -0.002370 -0.014030 1.554320 
# 
# From -- ./inp_files/370400.got.cif
#   From: 2010.05.17/outbox.cif.g08.bks.cpg/sg2_186_cif.got.tgz:370400.got - 2010.06.03 11:33:40.
