data_PCOD9095388
_publ_section_title
;
Structure prediction by ZEFSAII (Michael W. Deem and Ramdas Pophale) SiO2 
 PCOD9095388
Probable space group: P -1
;
_chemical_formula_sum "Si O2"
_cell_formula_units_Z 16
_cell_length_a 7.870521
_cell_length_b 16.349426
_cell_length_c 10.673940
_cell_angle_alpha 122.044253
_cell_angle_beta 127.321684
_cell_angle_gamma 96.804368
_cell_volume 701.217040
_symmetry_space_group_name_H-M "P -1"
_symmetry_group_IT_number 2
_symmetry_cell_setting 'triclinic'
loop_
_space_group_symop_operation_xyz
x,y,z
-x,-y,-z
loop_
_atom_site_type_symbol
_atom_site_label
_atom_site_fract_x
_atom_site_fract_y
_atom_site_fract_z
Si Si1 0.904796 0.353856 0.764090
Si Si2 0.657685 0.628580 0.903643
Si Si3 0.787142 0.803387 0.339021
Si Si4 0.400230 0.097920 0.269805
Si Si5 0.555447 0.961311 0.123836
Si Si6 0.307904 0.182924 0.053377
Si Si7 0.466285 0.595146 0.230856
Si Si8 0.314277 0.040151 0.460643
O O1 0.729110 0.224714 0.503713
O O2 0.691399 0.375679 0.723921
O O3 0.038164 0.337506 0.931172
O O4 0.191519 0.478249 0.931500
O O5 0.687483 0.710440 0.101512
O O6 0.593314 0.677943 0.798066
O O7 0.451193 0.478500 0.719760
O O8 0.697855 0.713303 0.346283
O O9 0.632293 0.862158 0.332422
O O10 0.118463 0.928716 0.598167
O O11 0.368124 0.973392 0.139446
O O12 0.333812 0.100747 0.385363
O O13 0.262655 0.122186 0.120608
O O14 0.507040 0.836808 0.961971
O O15 0.500000 0.000000 0.000000
O O16 0.002818 0.090724 0.777246
O O17 0.500000 0.000000 0.500000
#
# Coordination Sequence:
#
# PCOD9095388 Si02
#       8
#     2   2   2   2   2   2   2   2
#     4   9  18  34  61  79 109 144 189 231 282 318
#     4  10  20  35  57  85 110 145 188 237 270 326
#     4  11  20  34  60  86 109 145 192 230 277 328
#     4  11  19  39  56  79 115 152 178 226 289 336
#     4   9  20  35  56  81 113 149 180 222 285 339
#     4  10  23  36  55  83 115 148 186 224 284 340
#     4   9  19  35  59  84 107 142 192 237 276 322
#     4  11  24  34  58  85 114 142 190 238 271 332
#
# _framework density 22.81747
#
# number of rings (size 3 to 8) (size 9 to 14) (size 15 to 20)
#    0.750    1.250    2.500    1.500    1.750    1.000 
#    0.000    0.625    0.000    6.750    0.000    0.000 
#    0.000    0.000    0.000    0.000    0.000    0.000 
#
# Total GULP energy -89086.201830 kJ/mol
# GULP energy per Si atom -5567.887614 kJ/mol
# Density = 2.276554 g / cm^3
# Si number density = 22.817470 Si / 1000 Ang^3
#
#
#
# Elastic Constant Matrix: (Units=GPa)
#
#
# Indices 1 2 3 4 5 6 
#
# 1 64.8370 39.9305 -4.6777 1.2625 -18.2147 -14.8181
# 2 39.9305 160.1680 4.4089 12.3335 -7.7572 -19.0691
# 3 -4.6777 4.4089 18.6799 0.0533 -0.8350 -1.8708
# 4 1.2625 12.3335 0.0533 29.2358 0.7366 -3.8368
# 5 -18.2147 -7.7572 -0.8350 0.7366 24.4380 4.1395
# 6 -14.8181 -19.0691 -1.8708 -3.8368 4.1395 36.7680
#
#
#
# Elastic Compliance Matrix: (Units=1/GPa)
#
#
# Indices 1 2 3 4 5 6 
#
# 1 0.025208 -0.005101 0.008872 0.001458 0.016366 0.006275
# 2 -0.005101 0.007955 -0.003038 -0.002854 -0.001599 0.001798
# 3 0.008872 -0.003038 0.057202 0.001181 0.006845 0.004263
# 4 0.001458 -0.002854 0.001181 0.035779 -0.001375 0.003056
# 5 0.016366 -0.001599 0.006845 -0.001375 0.052883 0.000017
# 6 0.006275 0.001798 0.004263 0.003056 0.000017 0.031193
#
#
# Mechanical properties :
#
#
# Convention : Reuss Voigt Hill
#
# Bulk Modulus (GPa) = 10.88959 35.88983 23.38971
# Shear Modulus (GPa) = 20.88857 31.68990 26.28923
#
# Velocity S-wave (km/s) = 3.02895 3.73076 3.39802
# Velocity P-wave (km/s) = 4.12499 5.85844 5.06640
#
# Compressibility (1/GPa) = 0.09183084
#
# Stress axis : x y z
#
# Youngs Moduli (GPa) = 39.66919 125.70382 17.48189
#
# Poissons Ratio (x) = 0.64127 -0.15511
# Poissons Ratio (y) = 0.20237 0.05312
# Poissons Ratio (z) = -0.35196 0.38194
#
# Static dielectric constant tensor:
#      x y z
#    x 1.930280 -0.023620 -0.008570 
#    y -0.023620 1.963190 0.011580 
#    z -0.008570 0.011580 1.907880 
# 
# From -- ./inp_files/269521.got.cif
#   From: 2010.05.17/outbox.cif.g08.bks.cpg/sg2_135_cif.got.tgz:269521.got - 2010.06.03 11:33:40.
