data_PCOD9095018
_publ_section_title
;
Structure prediction by ZEFSAII (Michael W. Deem and Ramdas Pophale) SiO2 
 PCOD9095018
Probable space group: P -1
;
_chemical_formula_sum "Si O2"
_cell_formula_units_Z 16
_cell_length_a 18.522774
_cell_length_b 19.665425
_cell_length_c 8.896550
_cell_angle_alpha 137.078855
_cell_angle_beta 138.058702
_cell_angle_gamma 22.275223
_cell_volume 808.554024
_symmetry_space_group_name_H-M "P -1"
_symmetry_group_IT_number 2
_symmetry_cell_setting 'triclinic'
loop_
_space_group_symop_operation_xyz
x,y,z
-x,-y,-z
loop_
_atom_site_type_symbol
_atom_site_label
_atom_site_fract_x
_atom_site_fract_y
_atom_site_fract_z
Si Si1 0.458338 0.418213 0.767473
Si Si2 0.475974 0.172117 0.847134
Si Si3 0.804636 0.747440 0.644168
Si Si4 0.329720 0.401582 0.280678
Si Si5 0.927706 0.670195 0.167371
Si Si6 0.636060 0.802205 0.753678
Si Si7 0.962982 0.319119 0.332258
Si Si8 0.334750 0.912023 0.286622
O O1 0.422752 0.424890 0.545504
O O2 0.628952 0.212664 0.758558
O O3 0.259295 0.537817 0.741220
O O4 0.500000 0.500000 0.000000
O O5 0.295645 0.243748 0.624603
O O6 0.546798 0.187408 0.846125
O O7 0.652363 0.954692 0.787317
O O8 0.423499 0.278394 0.081482
O O9 0.803890 0.682174 0.688280
O O10 0.993219 0.652899 0.706879
O O11 0.354245 0.299496 0.285267
O O12 0.094741 0.599163 0.216408
O O13 0.953553 0.686809 0.402807
O O14 0.708204 0.838526 0.030298
O O15 0.000000 0.500000 0.000000
O O16 0.442286 0.924886 0.554953
O O17 0.110236 0.110567 0.222640
#
# Coordination Sequence:
#
# PCOD9095018 Si02
#       8
#     2   2   2   2   2   2   2   2
#     4  10  22  40  59  76  95 130 182 234 280 313
#     4   9  17  30  49  75 111 144 168 198 249 313
#     4   9  17  28  47  77 110 146 171 195 243 310
#     4   9  18  32  48  72 105 139 175 219 257 298
#     4   9  17  28  44  72 108 142 172 206 248 300
#     4   9  17  27  45  76 108 140 171 193 238 306
#     4  10  20  35  53  76 108 139 175 217 258 311
#     4   9  20  35  53  78 105 139 174 211 260 314
#
# _framework density 19.788411
#
# number of rings (size 3 to 8) (size 9 to 14) (size 15 to 20)
#    0.000    2.750    0.000    3.000    0.000    4.500 
#    0.000   11.250    0.000    3.000    0.000    0.000 
#    0.000    0.000    0.000    0.000    0.000    0.000 
#
# Total GULP energy -89095.185075 kJ/mol
# GULP energy per Si atom -5568.449067 kJ/mol
# Density = 1.974337 g / cm^3
# Si number density = 19.788411 Si / 1000 Ang^3
#
#
#
# Elastic Constant Matrix: (Units=GPa)
#
#
# Indices 1 2 3 4 5 6 
#
# 1 48.9140 6.9129 36.9520 8.0521 -14.2339 -4.5075
# 2 6.9129 56.0123 8.8005 4.0477 -5.4467 0.8180
# 3 36.9520 8.8005 126.6731 15.3422 -6.8403 -6.2891
# 4 8.0521 4.0477 15.3422 19.4551 0.1143 -4.2047
# 5 -14.2339 -5.4467 -6.8403 0.1143 25.0689 6.7209
# 6 -4.5075 0.8180 -6.2891 -4.2047 6.7209 18.3584
#
#
#
# Elastic Compliance Matrix: (Units=1/GPa)
#
#
# Indices 1 2 3 4 5 6 
#
# 1 0.032247 -0.000532 -0.007636 -0.007886 0.016858 -0.002652
# 2 -0.000532 0.018816 -0.000596 -0.004077 0.004665 -0.003815
# 3 -0.007636 -0.000596 0.010719 -0.004853 -0.001895 0.001406
# 4 -0.007886 -0.004077 -0.004853 0.062635 -0.010981 0.014948
# 5 0.016858 0.004665 -0.001895 -0.010981 0.055223 -0.019450
# 6 -0.002652 -0.003815 0.001406 0.014948 -0.019450 0.065015
#
#
# Mechanical properties :
#
#
# Convention : Reuss Voigt Hill
#
# Bulk Modulus (GPa) = 22.59682 37.43667 30.01674
# Shear Modulus (GPa) = 18.05481 24.50542 21.28012
#
# Velocity S-wave (km/s) = 3.02386 3.52287 3.28286
# Velocity P-wave (km/s) = 4.86165 5.95878 5.43795
#
# Compressibility (1/GPa) = 0.04425402
#
# Stress axis : x y z
#
# Youngs Moduli (GPa) = 31.01034 53.14506 93.29631
#
# Poissons Ratio (x) = 0.02828 0.71242
# Poissons Ratio (y) = 0.01650 0.05558
# Poissons Ratio (z) = 0.23680 0.03166
#
# Static dielectric constant tensor:
#      x y z
#    x 1.708800 0.008740 -0.023720 
#    y 0.008740 1.823190 -0.017460 
#    z -0.023720 -0.017460 1.754130 
# 
# From -- ./inp_files/222194.got.cif
#   From: 2010.05.17/outbox.cif.g08.bks.cpg/sg2_112_cif.got.tgz:222194.got - 2010.06.03 11:33:40.
