data_PCOD9095668
_publ_section_title
;
Structure prediction by ZEFSAII (Michael W. Deem and Ramdas Pophale) SiO2 
 PCOD9095668
Probable space group: P -1
;
_chemical_formula_sum "Si O2"
_cell_formula_units_Z 16
_cell_length_a 12.903352
_cell_length_b 11.192820
_cell_length_c 13.874086
_cell_angle_alpha 92.589521
_cell_angle_beta 60.488967
_cell_angle_gamma 142.347215
_cell_volume 810.772232
_symmetry_space_group_name_H-M "P -1"
_symmetry_group_IT_number 2
_symmetry_cell_setting 'triclinic'
loop_
_space_group_symop_operation_xyz
x,y,z
-x,-y,-z
loop_
_atom_site_type_symbol
_atom_site_label
_atom_site_fract_x
_atom_site_fract_y
_atom_site_fract_z
Si Si1 0.218739 0.857536 0.968366
Si Si2 0.215144 0.019659 0.470133
Si Si3 0.669654 0.628003 0.640196
Si Si4 0.473173 0.781117 0.994395
Si Si5 0.308140 0.264489 0.152616
Si Si6 0.001246 0.205790 0.245019
Si Si7 0.653856 0.268863 0.167101
Si Si8 0.176861 0.050309 0.877804
O O1 0.333840 0.864399 0.839926
O O2 0.378883 0.993979 0.998612
O O3 0.243915 0.017261 0.929934
O O4 0.918313 0.556621 0.099582
O O5 0.311180 0.243245 0.435682
O O6 0.412417 0.116580 0.321709
O O7 0.183828 0.930177 0.586044
O O8 0.935150 0.790680 0.538906
O O9 0.616228 0.641873 0.769345
O O10 0.429107 0.330242 0.724811
O O11 0.245348 0.511202 0.147374
O O12 0.683066 0.866072 0.876024
O O13 0.359826 0.718401 0.941103
O O14 0.057225 0.116597 0.242967
O O15 0.500000 0.500000 0.000000
O O16 0.941125 0.138940 0.157757
O O17 0.000000 0.000000 0.000000
#
# Coordination Sequence:
#
# PCOD9095668 Si02
#       8
#     2   2   2   2   2   2   2   2
#     4  11  24  39  66  93 118 157 217 255 297 368
#     4  10  21  40  57  87 128 163 194 253 314 363
#     4  10  20  35  59  85 127 161 197 247 309 366
#     4  11  19  40  64  88 120 162 207 250 306 354
#     4   9  16  30  54  88 113 151 196 240 293 353
#     4  10  21  35  60  89 128 159 199 255 301 367
#     4  11  23  43  63  89 126 160 204 259 305 361
#     4  12  21  38  62  95 123 160 209 258 303 357
#
# _framework density 19.734273000000002
#
# number of rings (size 3 to 8) (size 9 to 14) (size 15 to 20)
#    0.000    1.500    2.500    5.625    0.000    0.500 
#    2.250    3.125    0.000    0.000    0.000    0.000 
#    0.000    0.000    0.000    0.000    0.000    0.000 
#
# Total GULP energy -89128.940999 kJ/mol
# GULP energy per Si atom -5570.558812 kJ/mol
# Density = 1.968936 g / cm^3
# Si number density = 19.734273 Si / 1000 Ang^3
#
#
#
# Elastic Constant Matrix: (Units=GPa)
#
#
# Indices 1 2 3 4 5 6 
#
# 1 70.1195 17.7153 29.0042 2.9276 -0.0518 -3.2782
# 2 17.7153 109.4646 45.5727 -7.9324 -8.6997 11.1208
# 3 29.0042 45.5727 120.1335 1.6413 -6.4305 -7.7578
# 4 2.9276 -7.9324 1.6413 22.5574 4.2130 3.1535
# 5 -0.0518 -8.6997 -6.4305 4.2130 30.0397 12.1231
# 6 -3.2782 11.1208 -7.7578 3.1535 12.1231 27.6446
#
#
#
# Elastic Compliance Matrix: (Units=1/GPa)
#
#
# Indices 1 2 3 4 5 6 
#
# 1 0.016289 -0.002055 -0.003027 -0.002661 -0.002108 0.003137
# 2 -0.002055 0.013561 -0.005070 0.005702 0.006288 -0.010530
# 3 -0.003027 -0.005070 0.011329 -0.002825 -0.000903 0.005578
# 4 -0.002661 0.005702 -0.002825 0.048464 -0.002613 -0.007785
# 5 -0.002108 0.006288 -0.000903 -0.002613 0.044208 -0.022122
# 6 0.003137 -0.010530 0.005578 -0.007785 -0.022122 0.052936
#
#
# Mechanical properties :
#
#
# Convention : Reuss Voigt Hill
#
# Bulk Modulus (GPa) = 47.90309 53.81134 50.85721
# Shear Modulus (GPa) = 23.35932 29.87670 26.61801
#
# Velocity S-wave (km/s) = 3.44422 3.89517 3.67662
# Velocity P-wave (km/s) = 6.33590 6.89616 6.62195
#
# Compressibility (1/GPa) = 0.02087548
#
# Stress axis : x y z
#
# Youngs Moduli (GPa) = 61.39181 73.73942 88.27273
#
# Poissons Ratio (x) = 0.15153 0.26721
# Poissons Ratio (y) = 0.12615 0.44751
# Poissons Ratio (z) = 0.18584 0.37383
#
# Static dielectric constant tensor:
#      x y z
#    x 1.786060 0.048010 0.030730 
#    y 0.048010 1.767640 0.066570 
#    z 0.030730 0.066570 1.781250 
# 
# From -- ./inp_files/416312.got.cif
#   From: 2010.05.17/outbox.cif.g08.bks.cpg/sg2_209_cif.got.tgz:416312.got - 2010.06.03 11:33:40.
