data_PCOD9095659
_publ_section_title
;
Structure prediction by ZEFSAII (Michael W. Deem and Ramdas Pophale) SiO2 
 PCOD9095659
Probable space group: P -1
;
_chemical_formula_sum "Si O2"
_cell_formula_units_Z 16
_cell_length_a 9.768225
_cell_length_b 15.906650
_cell_length_c 12.611764
_cell_angle_alpha 138.636322
_cell_angle_beta 43.896848
_cell_angle_gamma 145.771780
_cell_volume 701.535293
_symmetry_space_group_name_H-M "P -1"
_symmetry_group_IT_number 2
_symmetry_cell_setting 'triclinic'
loop_
_space_group_symop_operation_xyz
x,y,z
-x,-y,-z
loop_
_atom_site_type_symbol
_atom_site_label
_atom_site_fract_x
_atom_site_fract_y
_atom_site_fract_z
Si Si1 0.097866 0.557645 0.844259
Si Si2 0.482074 0.077527 0.406265
Si Si3 0.833518 0.097279 0.377407
Si Si4 0.581883 0.641900 0.746943
Si Si5 0.687086 0.713021 0.352981
Si Si6 0.767530 0.839848 0.033746
Si Si7 0.208018 0.355033 0.001679
Si Si8 0.154780 0.765282 0.212176
O O1 0.379588 0.612536 0.746695
O O2 0.916495 0.363711 0.778635
O O3 0.102241 0.655678 0.035098
O O4 0.973835 0.596449 0.861347
O O5 0.736399 0.167183 0.417165
O O6 0.427827 0.192851 0.497568
O O7 0.273560 0.951067 0.490914
O O8 0.426964 0.942570 0.225464
O O9 0.135206 0.224186 0.325659
O O10 0.697962 0.916656 0.232175
O O11 0.503610 0.468598 0.662961
O O12 0.574345 0.715996 0.934092
O O13 0.768828 0.710920 0.184740
O O14 0.945416 0.793243 0.348848
O O15 0.873602 0.763744 0.967482
O O16 0.000000 0.000000 0.000000
O O17 0.500000 0.500000 0.000000
#
# Coordination Sequence:
#
# PCOD9095659 Si02
#       8
#     2   2   2   2   2   2   2   2
#     4   9  20  36  61  88 113 149 191 238 292 341
#     4  11  21  36  58  84 113 156 197 232 284 343
#     4  10  23  35  57  83 116 155 193 237 286 340
#     4  10  20  40  59  83 122 153 187 242 291 336
#     4  10  20  35  59  85 116 150 194 236 281 347
#     4  10  20  37  59  85 120 149 187 244 293 327
#     4  11  20  33  62  91 114 145 196 241 280 343
#     4   9  19  35  60  86 114 149 190 238 289 339
#
# _framework density 22.807120999999999
#
# number of rings (size 3 to 8) (size 9 to 14) (size 15 to 20)
#    0.000    2.000    2.500    1.875    1.750    0.500 
#    0.000    5.000   11.000    0.000    0.000    0.000 
#    0.000    0.000    0.000    0.000    0.000    0.000 
#
# Total GULP energy -89243.579068 kJ/mol
# GULP energy per Si atom -5577.723692 kJ/mol
# Density = 2.275521 g / cm^3
# Si number density = 22.807121 Si / 1000 Ang^3
#
#
#
# Elastic Constant Matrix: (Units=GPa)
#
#
# Indices 1 2 3 4 5 6 
#
# 1 154.9551 54.0696 31.0416 19.6944 -42.9159 -1.5648
# 2 54.0696 88.8390 15.8757 12.8931 -23.1721 9.9999
# 3 31.0416 15.8757 55.5700 22.8434 -21.0224 -0.9581
# 4 19.6944 12.8931 22.8434 30.0478 -4.4644 -4.7073
# 5 -42.9159 -23.1721 -21.0224 -4.4644 46.5063 5.1525
# 6 -1.5648 9.9999 -0.9581 -4.7073 5.1525 36.9583
#
#
#
# Elastic Compliance Matrix: (Units=1/GPa)
#
#
# Indices 1 2 3 4 5 6 
#
# 1 0.010297 -0.003810 -0.000482 -0.003703 0.007030 0.000003
# 2 -0.003810 0.016238 0.002004 -0.006116 0.005565 -0.006058
# 3 -0.000482 0.002004 0.032610 -0.024060 0.013502 -0.004664
# 4 -0.003703 -0.006116 -0.024060 0.056230 -0.013034 0.009853
# 5 0.007030 0.005565 0.013502 -0.013034 0.036457 -0.007601
# 6 0.000003 -0.006058 -0.004664 0.009853 -0.007601 0.030890
#
#
# Mechanical properties :
#
#
# Convention : Reuss Voigt Hill
#
# Bulk Modulus (GPa) = 18.32513 55.70423 37.01468
# Shear Modulus (GPa) = 24.33235 35.92761 30.12998
#
# Velocity S-wave (km/s) = 3.26985 3.97329 3.63861
# Velocity P-wave (km/s) = 4.72315 6.74733 5.82385
#
# Compressibility (1/GPa) = 0.05456988
#
# Stress axis : x y z
#
# Youngs Moduli (GPa) = 97.11300 61.58355 30.66574
#
# Poissons Ratio (x) = 0.23465 0.01477
# Poissons Ratio (y) = 0.37002 -0.06146
# Poissons Ratio (z) = 0.04677 -0.12343
#
# Static dielectric constant tensor:
#      x y z
#    x 1.914220 -0.055280 -0.008410 
#    y -0.055280 1.673460 -0.141540 
#    z -0.008410 -0.141540 1.940240 
# 
# From -- ./inp_files/393186.got.cif
#   From: 2010.05.17/outbox.cif.g08.bks.cpg/sg2_197_cif.got.tgz:393186.got - 2010.06.03 11:33:40.
