data_PCOD9095856
_publ_section_title
;
Structure prediction by ZEFSAII (Michael W. Deem and Ramdas Pophale) SiO2 
 PCOD9095856
Probable space group: P -1
;
_chemical_formula_sum "Si O2"
_cell_formula_units_Z 12
_cell_length_a 7.119408
_cell_length_b 11.121503
_cell_length_c 11.671902
_cell_angle_alpha 40.515072
_cell_angle_beta 58.140441
_cell_angle_gamma 52.424656
_cell_volume 472.114819
_symmetry_space_group_name_H-M "P -1"
_symmetry_group_IT_number 2
_symmetry_cell_setting 'triclinic'
loop_
_space_group_symop_operation_xyz
x,y,z
-x,-y,-z
loop_
_atom_site_type_symbol
_atom_site_label
_atom_site_fract_x
_atom_site_fract_y
_atom_site_fract_z
Si Si1 0.374106 0.740452 0.375197
Si Si2 0.197878 0.637033 0.074406
Si Si3 0.866438 0.967987 0.453761
Si Si4 0.309720 0.271235 0.915459
Si Si5 0.600199 0.764829 0.833746
Si Si6 0.449474 0.635791 0.669200
O O1 0.500000 0.500000 0.500000
O O2 0.082701 0.276497 0.913700
O O3 0.466929 0.818290 0.177546
O O4 0.470384 0.756243 0.461241
O O5 0.914269 0.167513 0.596661
O O6 0.285847 0.470752 0.064991
O O7 0.305304 0.509708 0.247834
O O8 0.323928 0.797557 0.916689
O O9 0.695003 0.861411 0.631255
O O10 0.702324 0.195561 0.314370
O O11 0.000000 0.000000 0.500000
O O12 0.303857 0.496537 0.781180
O O13 0.314009 0.190569 0.101538
#
# Coordination Sequence:
#
# PCOD9095856 Si02
#       6
#     2   2   2   2   2   2
#     4   9  18  35  61  88 115 154 193 239 296 343
#     4  10  20  35  60  90 116 152 200 241 284 348
#     4  10  20  38  62  87 117 154 197 243 291 344
#     4  10  20  39  64  88 118 153 195 245 293 347
#     4  10  21  36  60  89 116 155 200 240 286 347
#     4   9  20  37  60  89 117 152 196 242 292 344
#
# _framework density 25.417542999999998
#
# number of rings (size 3 to 8) (size 9 to 14) (size 15 to 20)
#    0.000    2.333    0.000    3.500    0.000    6.667 
#    0.000    6.667    0.000   12.000    0.000    0.000 
#    0.000    0.000    0.000    0.000    0.000    0.000 
#
# Total GULP energy -66999.279368 kJ/mol
# GULP energy per Si atom -5583.273281 kJ/mol
# Density = 2.535969 g / cm^3
# Si number density = 25.417543 Si / 1000 Ang^3
#
#
#
# Elastic Constant Matrix: (Units=GPa)
#
#
# Indices 1 2 3 4 5 6 
#
# 1 159.4233 35.2231 54.3446 9.9215 -10.2082 -9.5361
# 2 35.2231 99.7310 32.6314 12.9320 -6.4697 -32.6016
# 3 54.3446 32.6314 145.9750 17.5716 -1.9383 -17.6112
# 4 9.9215 12.9320 17.5716 39.4111 8.5653 -1.1780
# 5 -10.2082 -6.4697 -1.9383 8.5653 42.0157 8.1349
# 6 -9.5361 -32.6016 -17.6112 -1.1780 8.1349 29.5653
#
#
#
# Elastic Compliance Matrix: (Units=1/GPa)
#
#
# Indices 1 2 3 4 5 6 
#
# 1 0.007684 -0.002442 -0.002500 -0.000501 0.001913 -0.002250
# 2 -0.002442 0.017494 -0.000277 -0.004329 -0.000578 0.018325
# 3 -0.002500 -0.000277 0.008681 -0.002933 -0.000438 0.004062
# 4 -0.000501 -0.004329 -0.002933 0.029460 -0.006193 -0.003804
# 5 0.001913 -0.000578 -0.000438 -0.006193 0.026957 -0.007945
# 6 -0.002250 0.018325 0.004062 -0.003804 -0.007945 0.057758
#
#
# Mechanical properties :
#
#
# Convention : Reuss Voigt Hill
#
# Bulk Modulus (GPa) = 42.70064 72.16970 57.43517
# Shear Modulus (GPa) = 30.06977 41.06043 35.56510
#
# Velocity S-wave (km/s) = 3.44326 4.02361 3.74469
# Velocity P-wave (km/s) = 5.71351 7.07398 6.42983
#
# Compressibility (1/GPa) = 0.02341885
#
# Stress axis : x y z
#
# Youngs Moduli (GPa) = 130.14730 57.16159 115.19830
#
# Poissons Ratio (x) = 0.13960 0.28804
# Poissons Ratio (y) = 0.31784 0.03195
# Poissons Ratio (z) = 0.32541 0.01585
#
# Static dielectric constant tensor:
#      x y z
#    x 2.015480 0.002660 0.018860 
#    y 0.002660 2.104930 -0.006960 
#    z 0.018860 -0.006960 2.174370 
# 
# From -- ./inp_files/196641.got.cif
#   From: 2010.05.17/outbox.cif.g08.bks.cpg/sg2_99_cif.got.tgz:196641.got - 2010.06.03 11:33:40.
