data_PCOD9095175
_publ_section_title
;
Structure prediction by ZEFSAII (Michael W. Deem and Ramdas Pophale) SiO2 
 PCOD9095175
Probable space group: P -1
;
_chemical_formula_sum "Si O2"
_cell_formula_units_Z 12
_cell_length_a 14.766251
_cell_length_b 8.362521
_cell_length_c 10.157256
_cell_angle_alpha 122.798729
_cell_angle_beta 119.704616
_cell_angle_gamma 111.027239
_cell_volume 468.712606
_symmetry_space_group_name_H-M "P -1"
_symmetry_group_IT_number 2
_symmetry_cell_setting 'triclinic'
loop_
_space_group_symop_operation_xyz
x,y,z
-x,-y,-z
loop_
_atom_site_type_symbol
_atom_site_label
_atom_site_fract_x
_atom_site_fract_y
_atom_site_fract_z
Si Si1 0.539806 0.134590 0.942687
Si Si2 0.164254 0.034034 0.712947
Si Si3 0.690891 0.976418 0.968100
Si Si4 0.763302 0.919165 0.731402
Si Si5 0.898219 0.950249 0.601085
Si Si6 0.566828 0.926672 0.425612
O O1 0.676205 0.172713 0.004434
O O2 0.204640 0.906282 0.765562
O O3 0.663441 0.519648 0.228600
O O4 0.500000 0.000000 0.000000
O O5 0.081079 0.882325 0.437045
O O6 0.379819 0.920985 0.615773
O O7 0.375189 0.484896 0.068833
O O8 0.024192 0.960717 0.660933
O O9 0.807562 0.044995 0.968600
O O10 0.455880 0.533722 0.611947
O O11 0.920367 0.051744 0.811646
O O12 0.724120 0.046854 0.673136
O O13 0.500000 0.000000 0.500000
#
# Coordination Sequence:
#
# PCOD9095175 Si02
#       6
#     2   2   2   2   2   2
#     4  11  21  33  58  86 110 137 186 227 268 316
#     4   9  22  37  58  78 113 147 181 219 276 325
#     4  10  20  35  55  85 110 141 183 227 266 323
#     4  10  20  35  58  81 110 145 182 221 275 322
#     4  10  21  39  56  80 113 148 178 221 275 329
#     4  10  20  37  58  80 111 142 181 228 270 320
#
# _framework density 25.602042999999998
#
# number of rings (size 3 to 8) (size 9 to 14) (size 15 to 20)
#    0.000    2.000    3.333    0.000    2.333    3.333 
#    0.000    0.833    0.000    0.000    0.000    0.000 
#    0.000    0.000    0.000    0.000    0.000    0.000 
#
# Total GULP energy -67017.342309 kJ/mol
# GULP energy per Si atom -5584.778526 kJ/mol
# Density = 2.554377 g / cm^3
# Si number density = 25.602043 Si / 1000 Ang^3
#
#
#
# Elastic Constant Matrix: (Units=GPa)
#
#
# Indices 1 2 3 4 5 6 
#
# 1 62.2865 22.4433 -2.6229 0.4394 -10.5324 18.6737
# 2 22.4433 134.6158 32.5465 -15.3340 -7.5789 21.8545
# 3 -2.6229 32.5465 62.6369 -2.1183 -10.7289 -0.2334
# 4 0.4394 -15.3340 -2.1183 18.0634 0.7320 -6.6895
# 5 -10.5324 -7.5789 -10.7289 0.7320 18.8323 -6.9416
# 6 18.6737 21.8545 -0.2334 -6.6895 -6.9416 52.3365
#
#
#
# Elastic Compliance Matrix: (Units=1/GPa)
#
#
# Indices 1 2 3 4 5 6 
#
# 1 0.021084 -0.003784 0.004558 -0.005550 0.011183 -0.005149
# 2 -0.003784 0.010595 -0.005821 0.007595 -0.002364 -0.002443
# 3 0.004558 -0.005821 0.021405 -0.002198 0.013368 0.002392
# 4 -0.005550 0.007595 -0.002198 0.064272 -0.001275 0.006845
# 5 0.011183 -0.002364 0.013368 -0.001275 0.068261 0.005947
# 6 -0.005149 -0.002443 0.002392 0.006845 0.005947 0.023639
#
#
# Mechanical properties :
#
#
# Convention : Reuss Voigt Hill
#
# Bulk Modulus (GPa) = 23.26134 40.47476 31.86805
# Shear Modulus (GPa) = 21.39678 31.65793 26.52736
#
# Velocity S-wave (km/s) = 2.89406 3.52026 3.22241
# Velocity P-wave (km/s) = 4.50255 5.68916 5.13027
#
# Compressibility (1/GPa) = 0.04298978
#
# Stress axis : x y z
#
# Youngs Moduli (GPa) = 47.42947 94.38022 46.71820
#
# Poissons Ratio (x) = 0.35712 -0.21293
# Poissons Ratio (y) = 0.17946 0.27195
# Poissons Ratio (z) = -0.21617 0.54940
#
# Static dielectric constant tensor:
#      x y z
#    x 2.056060 0.040950 -0.009000 
#    y 0.040950 2.053120 0.059390 
#    z -0.009000 0.059390 2.058560 
# 
# From -- ./inp_files/424918.got.cif
#   From: 2010.05.17/outbox.cif.g08.bks.cpg/sg2_213_cif.got.tgz:424918.got - 2010.06.03 11:33:40.
