data_PCOD9095324
_publ_section_title
;
Structure prediction by ZEFSAII (Michael W. Deem and Ramdas Pophale) SiO2 
 PCOD9095324
Probable space group: P -1
;
_chemical_formula_sum "Si O2"
_cell_formula_units_Z 16
_cell_length_a 5.281647
_cell_length_b 22.310893
_cell_length_c 7.327327
_cell_angle_alpha 122.202845
_cell_angle_beta 88.476890
_cell_angle_gamma 119.110211
_cell_volume 605.886218
_symmetry_space_group_name_H-M "P -1"
_symmetry_group_IT_number 2
_symmetry_cell_setting 'triclinic'
loop_
_space_group_symop_operation_xyz
x,y,z
-x,-y,-z
loop_
_atom_site_type_symbol
_atom_site_label
_atom_site_fract_x
_atom_site_fract_y
_atom_site_fract_z
Si Si1 0.591858 0.159461 0.965126
Si Si2 0.135434 0.439140 0.620737
Si Si3 0.551227 0.310923 0.271831
Si Si4 0.321982 0.385213 0.176326
Si Si5 0.662079 0.957981 0.524397
Si Si6 0.871950 0.308300 0.751649
Si Si7 0.073596 0.920814 0.985590
Si Si8 0.805054 0.782622 0.511542
O O1 0.531325 0.135361 0.713929
O O2 0.697171 0.255667 0.156340
O O3 0.259665 0.107913 0.984287
O O4 0.794293 0.128922 0.997357
O O5 0.376917 0.538898 0.809675
O O6 0.027921 0.380791 0.707463
O O7 0.815728 0.407392 0.477432
O O8 0.294250 0.415163 0.425550
O O9 0.370534 0.310351 0.099839
O O10 0.325242 0.266340 0.372587
O O11 0.032015 0.357745 0.014581
O O12 0.500000 0.000000 0.500000
O O13 0.000000 0.000000 0.500000
O O14 0.705968 0.983707 0.779993
O O15 0.989853 0.247276 0.617605
O O16 0.508469 0.254355 0.650127
O O17 0.005469 0.883721 0.720839
#
# Coordination Sequence:
#
# PCOD9095324 Si02
#       8
#     2   2   2   2   2   2   2   2
#     4   9  17  26  49  76 109 144 181 225 274 323
#     4  10  22  41  57  83 111 146 188 233 289 331
#     4  10  20  35  57  79 113 148 186 230 285 332
#     4  11  23  38  60  82 110 149 187 236 281 343
#     4   8  14  24  40  73 109 139 178 222 265 319
#     4  11  23  40  58  84 113 146 189 232 280 330
#     4   9  15  28  48  75 110 148 179 223 273 320
#     4  10  20  36  56  82 112 149 184 229 279 331
#
# _framework density 26.407601
#
# number of rings (size 3 to 8) (size 9 to 14) (size 15 to 20)
#    0.000    2.250    1.250    3.000    3.500    0.000 
#    0.000    1.875    0.000    0.000    0.000    1.750 
#    0.000    0.000    0.000    0.000    0.000    0.000 
#
# Total GULP energy -89470.914515 kJ/mol
# GULP energy per Si atom -5591.932157 kJ/mol
# Density = 2.634750 g / cm^3
# Si number density = 26.407601 Si / 1000 Ang^3
#
#
#
# Elastic Constant Matrix: (Units=GPa)
#
#
# Indices 1 2 3 4 5 6 
#
# 1 152.3775 52.3154 22.6870 -9.4688 23.8849 -15.3060
# 2 52.3154 72.2795 34.6450 -23.5798 1.7642 -12.8637
# 3 22.6870 34.6450 88.0834 -4.3235 24.3741 -9.6024
# 4 -9.4688 -23.5798 -4.3235 25.2431 -2.3108 7.2801
# 5 23.8849 1.7642 24.3741 -2.3108 45.7146 -5.0305
# 6 -15.3060 -12.8637 -9.6024 7.2801 -5.0305 39.4920
#
#
#
# Elastic Compliance Matrix: (Units=1/GPa)
#
#
# Indices 1 2 3 4 5 6 
#
# 1 0.010800 -0.011337 0.003525 -0.007099 -0.007253 0.001735
# 2 -0.011337 0.038793 -0.014577 0.030513 0.013832 0.000835
# 3 0.003525 -0.014577 0.019115 -0.010596 -0.011818 0.001714
# 4 -0.007099 0.030513 -0.010596 0.066436 0.010851 -0.006254
# 5 -0.007253 0.013832 -0.011818 0.010851 0.032080 0.000907
# 6 0.001735 0.000835 0.001714 -0.006254 0.000907 0.027951
#
#
# Mechanical properties :
#
#
# Convention : Reuss Voigt Hill
#
# Bulk Modulus (GPa) = 41.78750 59.11503 50.45126
# Shear Modulus (GPa) = 20.16699 35.62946 27.89823
#
# Velocity S-wave (km/s) = 2.76648 3.67715 3.25383
# Velocity P-wave (km/s) = 5.10519 6.36103 5.76739
#
# Compressibility (1/GPa) = 0.02393060
#
# Stress axis : x y z
#
# Youngs Moduli (GPa) = 92.59288 25.77796 52.31370
#
# Poissons Ratio (x) = 0.29223 -0.18440
# Poissons Ratio (y) = 1.04968 0.76258
# Poissons Ratio (z) = -0.32637 0.37577
#
# Static dielectric constant tensor:
#      x y z
#    x 2.025960 0.021340 -0.014960 
#    y 0.021340 2.043760 0.039000 
#    z -0.014960 0.039000 2.162750 
# 
# From -- ./inp_files/142862.got.cif
#   From: 2010.05.17/outbox.cif.g08.bks.cpg/sg2_72_cif.got.tgz:142862.got - 2010.06.03 11:33:40.
