data_PCOD9095665
_publ_section_title
;
Structure prediction by ZEFSAII (Michael W. Deem and Ramdas Pophale) SiO2 
 PCOD9095665
Probable space group: P -1
;
_chemical_formula_sum "Si O2"
_cell_formula_units_Z 14
_cell_length_a 9.645313
_cell_length_b 15.235638
_cell_length_c 9.407333
_cell_angle_alpha 139.647261
_cell_angle_beta 80.059218
_cell_angle_gamma 73.391277
_cell_volume 666.635683
_symmetry_space_group_name_H-M "P -1"
_symmetry_group_IT_number 2
_symmetry_cell_setting 'triclinic'
loop_
_space_group_symop_operation_xyz
x,y,z
-x,-y,-z
loop_
_atom_site_type_symbol
_atom_site_label
_atom_site_fract_x
_atom_site_fract_y
_atom_site_fract_z
Si Si1 0.012428 0.956721 0.776141
Si Si2 0.185528 0.467597 0.460619
Si Si3 0.595818 0.212581 0.467694
Si Si4 0.691160 0.332003 0.329612
Si Si5 0.885733 0.773471 0.430786
Si Si6 0.471334 0.047038 0.894212
Si Si7 0.822697 0.501529 0.168925
O O1 0.224685 0.846050 0.551153
O O2 0.955194 0.839988 0.611791
O O3 0.000000 0.000000 0.000000
O O4 0.850609 0.157459 0.992513
O O5 0.219267 0.587238 0.519901
O O6 0.191909 0.513335 0.679597
O O7 0.000000 0.500000 0.500000
O O8 0.349274 0.256035 0.151824
O O9 0.628445 0.259638 0.365964
O O10 0.375446 0.381900 0.736185
O O11 0.617132 0.037161 0.247668
O O12 0.500000 0.500000 0.500000
O O13 0.886544 0.618739 0.295090
O O14 0.669180 0.940371 0.651657
O O15 0.021727 0.687213 0.165921
O O16 0.500000 0.000000 0.000000
#
# Coordination Sequence:
#
# PCOD9095665 Si02
#       7
#     2   2   2   2   2   2   2
#     4  10  21  33  60  90 113 149 204 243 282 343
#     4  12  24  36  62  92 119 151 204 247 292 349
#     4  10  20  35  59  85 120 149 201 242 292 345
#     4  11  20  35  56  89 120 152 190 248 296 339
#     4  10  21  38  63  86 119 156 201 242 291 352
#     4  11  18  38  64  86 111 161 205 239 281 358
#     4  10  22  39  58  88 122 159 192 244 304 348
#
# _framework density 21.000976999999999
#
# number of rings (size 3 to 8) (size 9 to 14) (size 15 to 20)
#    0.000    1.429    4.286    3.429    4.000    0.571 
#    0.000    1.429    0.000    0.000    0.000    0.000 
#    0.000    0.000    0.000    0.000    0.000    0.000 
#
# Total GULP energy -78036.506786 kJ/mol
# GULP energy per Si atom -5574.036199 kJ/mol
# Density = 2.095318 g / cm^3
# Si number density = 21.000977 Si / 1000 Ang^3
#
#
#
# Elastic Constant Matrix: (Units=GPa)
#
#
# Indices 1 2 3 4 5 6 
#
# 1 147.1451 14.2059 49.2037 10.8619 -10.2836 18.9236
# 2 14.2059 26.9710 33.2010 9.7249 -4.0980 5.1120
# 3 49.2037 33.2010 144.3991 12.8654 -19.6919 2.3446
# 4 10.8619 9.7249 12.8654 17.8682 0.0621 -5.1900
# 5 -10.2836 -4.0980 -19.6919 0.0621 28.4846 6.1015
# 6 18.9236 5.1120 2.3446 -5.1900 6.1015 24.0797
#
#
#
# Elastic Compliance Matrix: (Units=1/GPa)
#
#
# Indices 1 2 3 4 5 6 
#
# 1 0.009869 0.004803 -0.002687 -0.010173 0.004982 -0.011969
# 2 0.004803 0.072273 -0.012749 -0.041620 0.009685 -0.029301
# 3 -0.002687 -0.012749 0.011191 0.001351 0.004302 0.002930
# 4 -0.010173 -0.041620 0.001351 0.096074 -0.017921 0.041947
# 5 0.004982 0.009685 0.004302 -0.017921 0.046005 -0.021910
# 6 -0.011969 -0.029301 0.002930 0.041947 -0.021910 0.071463
#
#
# Mechanical properties :
#
#
# Convention : Reuss Voigt Hill
#
# Bulk Modulus (GPa) = 13.87605 56.85960 35.36782
# Shear Modulus (GPa) = 14.19789 28.88014 21.53902
#
# Velocity S-wave (km/s) = 2.60293 3.71237 3.20600
# Velocity P-wave (km/s) = 3.95669 6.74604 5.53012
#
# Compressibility (1/GPa) = 0.07206664
#
# Stress axis : x y z
#
# Youngs Moduli (GPa) = 101.32474 13.83637 89.35734
#
# Poissons Ratio (x) = -0.06646 0.24012
# Poissons Ratio (y) = -0.48668 1.13926
# Poissons Ratio (z) = 0.27228 0.17641
#
# Static dielectric constant tensor:
#      x y z
#    x 1.807910 -0.001290 -0.056270 
#    y -0.001290 1.818490 0.008910 
#    z -0.056270 0.008910 1.781020 
# 
# From -- ./inp_files/219074.got.cif
#   From: 2010.05.17/outbox.cif.g08.bks.cpg/sg2_110_cif.got.tgz:219074.got - 2010.06.03 11:33:40.
