data_PCOD9095747
_publ_section_title
;
Structure prediction by ZEFSAII (Michael W. Deem and Ramdas Pophale) SiO2 
 PCOD9095747
Probable space group: P -1
;
_chemical_formula_sum "Si O2"
_cell_formula_units_Z 16
_cell_length_a 21.930078
_cell_length_b 10.099396
_cell_length_c 8.517685
_cell_angle_alpha 59.456384
_cell_angle_beta 79.839508
_cell_angle_gamma 31.120530
_cell_volume 683.414407
_symmetry_space_group_name_H-M "P -1"
_symmetry_group_IT_number 2
_symmetry_cell_setting 'triclinic'
loop_
_space_group_symop_operation_xyz
x,y,z
-x,-y,-z
loop_
_atom_site_type_symbol
_atom_site_label
_atom_site_fract_x
_atom_site_fract_y
_atom_site_fract_z
Si Si1 0.145914 0.098767 0.735914
Si Si2 0.958538 0.271005 0.379980
Si Si3 0.812819 0.644676 0.905441
Si Si4 0.584139 0.768405 0.943523
Si Si5 0.422417 0.524842 0.079858
Si Si6 0.090326 0.903540 0.843362
Si Si7 0.801151 0.005270 0.579700
Si Si8 0.500746 0.259092 0.550798
O O1 0.000000 0.500000 0.500000
O O2 0.115224 0.998004 0.882046
O O3 0.228610 0.925804 0.634496
O O4 0.249200 0.946814 0.904673
O O5 0.958958 0.258266 0.578144
O O6 0.082136 0.119857 0.372864
O O7 0.000000 0.000000 0.500000
O O8 0.834907 0.579615 0.122192
O O9 0.860346 0.706106 0.787262
O O10 0.643713 0.011676 0.714232
O O11 0.901687 0.295999 0.001482
O O12 0.558478 0.663905 0.932036
O O13 0.534423 0.003512 0.696193
O O14 0.751844 0.432415 0.111307
O O15 0.500000 0.000000 0.000000
O O16 0.481234 0.356180 0.325054
O O17 0.500000 0.500000 0.000000
O O18 0.649013 0.374927 0.511462
#
# Coordination Sequence:
#
# PCOD9095747 Si02
#       8
#     2   2   2   2   2   2   2   2
#     4  10  22  43  62  82 123 175 218 268 329 393
#     4   9  18  35  57  86 121 160 208 263 316 382
#     4  10  20  35  59  91 127 162 208 269 326 387
#     4  10  20  40  66  91 127 174 216 264 324 391
#     4  11  24  42  65  99 135 169 217 275 333 392
#     4   8  18  35  57  84 117 158 210 261 315 381
#     4  11  22  39  63  94 125 168 223 273 328 392
#     4  11  23  39  63  97 132 170 214 271 330 396
#
# _framework density 23.411857999999999
#
# number of rings (size 3 to 8) (size 9 to 14) (size 15 to 20)
#    0.000    2.000    0.000    4.125    0.000    5.000 
#    0.000    8.125    0.000    0.000    0.000    0.000 
#    0.000    0.000    0.000    0.000    0.000    0.000 
#
# Total GULP energy -89128.809702 kJ/mol
# GULP energy per Si atom -5570.550606 kJ/mol
# Density = 2.335857 g / cm^3
# Si number density = 23.411858 Si / 1000 Ang^3
#
#
#
# Elastic Constant Matrix: (Units=GPa)
#
#
# Indices 1 2 3 4 5 6 
#
# 1 169.8991 26.7154 71.1457 -1.9197 -17.8688 -13.5954
# 2 26.7154 57.5286 32.7503 0.1032 2.2666 -4.1880
# 3 71.1457 32.7503 201.5613 0.1349 4.4435 -16.2855
# 4 -1.9197 0.1032 0.1349 29.0181 -2.7355 -3.0400
# 5 -17.8688 2.2666 4.4435 -2.7355 56.8553 0.2167
# 6 -13.5954 -4.1880 -16.2855 -3.0400 0.2167 23.4745
#
#
#
# Elastic Compliance Matrix: (Units=1/GPa)
#
#
# Indices 1 2 3 4 5 6 
#
# 1 0.007660 -0.002228 -0.002190 0.001056 0.002708 0.002632
# 2 -0.002228 0.019858 -0.002363 -0.000270 -0.001322 0.000590
# 3 -0.002190 -0.002363 0.006364 0.000017 -0.001101 0.002737
# 4 0.001056 -0.000270 0.000017 0.035259 0.002018 0.005123
# 5 0.002708 -0.001322 -0.001101 0.002018 0.018673 0.000658
# 6 0.002632 0.000590 0.002737 0.005123 0.000658 0.046785
#
#
# Mechanical properties :
#
#
# Convention : Reuss Voigt Hill
#
# Bulk Modulus (GPa) = 49.21102 76.69020 62.95061
# Shear Modulus (GPa) = 32.27169 41.76143 37.01656
#
# Velocity S-wave (km/s) = 3.71675 4.22805 3.98062
# Velocity P-wave (km/s) = 6.28366 7.52751 6.93353
#
# Compressibility (1/GPa) = 0.02032065
#
# Stress axis : x y z
#
# Youngs Moduli (GPa) = 130.54005 50.35716 157.14393
#
# Poissons Ratio (x) = 0.11219 0.34410
# Poissons Ratio (y) = 0.29082 0.37137
# Poissons Ratio (z) = 0.28585 0.11901
#
# Static dielectric constant tensor:
#      x y z
#    x 1.968330 0.108320 -0.017740 
#    y 0.108320 2.067770 -0.020140 
#    z -0.017740 -0.020140 1.935340 
# 
# From -- ./inp_files/353387.got.cif
#   From: 2010.05.17/outbox.cif.g08.bks.cpg/sg2_177_cif.got.tgz:353387.got - 2010.06.03 11:33:40.
