data_PCOD9095392
_publ_section_title
;
Structure prediction by ZEFSAII (Michael W. Deem and Ramdas Pophale) SiO2 
 PCOD9095392
Probable space group: P -1
;
_chemical_formula_sum "Si O2"
_cell_formula_units_Z 16
_cell_length_a 12.972483
_cell_length_b 8.540248
_cell_length_c 12.233304
_cell_angle_alpha 105.730046
_cell_angle_beta 47.393844
_cell_angle_gamma 115.642947
_cell_volume 898.801153
_symmetry_space_group_name_H-M "P -1"
_symmetry_group_IT_number 2
_symmetry_cell_setting 'triclinic'
loop_
_space_group_symop_operation_xyz
x,y,z
-x,-y,-z
loop_
_atom_site_type_symbol
_atom_site_label
_atom_site_fract_x
_atom_site_fract_y
_atom_site_fract_z
Si Si1 0.345280 0.542218 0.137542
Si Si2 0.385293 0.599843 0.591897
Si Si3 0.436955 0.667541 0.319662
Si Si4 0.234472 0.292400 0.979665
Si Si5 0.346418 0.928530 0.161966
Si Si6 0.516006 0.066537 0.265812
Si Si7 0.086311 0.370603 0.887700
Si Si8 0.812505 0.069651 0.935681
O O1 0.332225 0.543117 0.278450
O O2 0.337764 0.731638 0.152709
O O3 0.500000 0.500000 0.000000
O O4 0.236168 0.416745 0.104148
O O5 0.500000 0.500000 0.500000
O O6 0.369373 0.627305 0.480089
O O7 0.457214 0.784994 0.636052
O O8 0.233668 0.481300 0.736569
O O9 0.599355 0.648899 0.182677
O O10 0.474268 0.872323 0.307069
O O11 0.128355 0.300599 0.958473
O O12 0.198798 0.106292 0.027000
O O13 0.383154 0.040857 0.268172
O O14 0.223096 0.947880 0.171559
O O15 0.500000 0.000000 0.000000
O O16 0.674853 0.115676 0.096956
O O17 0.000000 0.500000 0.000000
O O18 0.971844 0.212866 0.872536
#
# Coordination Sequence:
#
# PCOD9095392 Si02
#       8
#     2   2   2   2   2   2   2   2
#     4   9  17  30  54  84 113 144 187 241 282 331
#     4  12  23  36  57  85 118 152 190 238 279 341
#     4   9  19  36  55  84 116 148 190 232 286 338
#     4  10  20  35  57  85 114 149 192 240 283 339
#     4   9  17  30  55  83 113 143 188 239 283 333
#     4   9  19  35  57  84 113 151 187 234 285 338
#     4  12  23  38  57  84 119 154 191 236 287 344
#     4  10  20  36  56  84 115 150 193 238 287 338
#
# _framework density 17.801490999999999
#
# number of rings (size 3 to 8) (size 9 to 14) (size 15 to 20)
#    0.000    2.000    2.500    3.750    1.750    1.000 
#    0.000    0.000    0.000    9.750    0.000    0.000 
#    0.000    0.000    0.000    0.000    0.000    0.000 
#
# Total GULP energy -89078.289119 kJ/mol
# GULP energy per Si atom -5567.393070 kJ/mol
# Density = 1.776097 g / cm^3
# Si number density = 17.801491 Si / 1000 Ang^3
#
#
#
# Elastic Constant Matrix: (Units=GPa)
#
#
# Indices 1 2 3 4 5 6 
#
# 1 153.7720 48.4586 46.5928 1.9447 31.2451 15.8707
# 2 48.4586 72.6600 43.6925 7.4642 15.8481 23.9053
# 3 46.5928 43.6925 81.9801 7.6071 20.6582 7.9263
# 4 1.9447 7.4642 7.6071 23.9052 7.1755 5.0326
# 5 31.2451 15.8481 20.6582 7.1755 34.4437 7.0211
# 6 15.8707 23.9053 7.9263 5.0326 7.0211 29.5455
#
#
#
# Elastic Compliance Matrix: (Units=1/GPa)
#
#
# Indices 1 2 3 4 5 6 
#
# 1 0.009663 -0.004061 -0.001997 0.003082 -0.006258 -0.000406
# 2 -0.004061 0.029607 -0.011848 -0.001612 0.001301 -0.018630
# 3 -0.001997 -0.011848 0.020731 -0.002369 -0.006094 0.006949
# 4 0.003082 -0.001612 -0.002369 0.046772 -0.009259 -0.005482
# 5 -0.006258 0.001301 -0.006094 -0.009259 0.040533 -0.004111
# 6 -0.000406 -0.018630 0.006949 -0.005482 -0.004111 0.049184
#
#
# Mechanical properties :
#
#
# Convention : Reuss Voigt Hill
#
# Bulk Modulus (GPa) = 41.34290 65.09999 53.22144
# Shear Modulus (GPa) = 20.80162 28.89007 24.84584
#
# Velocity S-wave (km/s) = 3.42209 4.03290 3.73998
# Velocity P-wave (km/s) = 6.23611 7.63774 6.97223
#
# Compressibility (1/GPa) = 0.02418795
#
# Stress axis : x y z
#
# Youngs Moduli (GPa) = 103.49193 33.77558 48.23637
#
# Poissons Ratio (x) = 0.13718 0.09632
# Poissons Ratio (y) = 0.42032 0.57152
# Poissons Ratio (z) = 0.20665 0.40019
#
# Static dielectric constant tensor:
#      x y z
#    x 1.665310 0.014010 0.034120 
#    y 0.014010 1.584130 0.009610 
#    z 0.034120 0.009610 1.584480 
# 
# From -- ./inp_files/252491.got.cif
#   From: 2010.05.17/outbox.cif.g08.bks.cpg/sg2_127_cif.got.tgz:252491.got - 2010.06.03 11:33:40.
