data_PCOD9095547
_publ_section_title
;
Structure prediction by ZEFSAII (Michael W. Deem and Ramdas Pophale) SiO2 
 PCOD9095547
Probable space group: P -1
;
_chemical_formula_sum "Si O2"
_cell_formula_units_Z 16
_cell_length_a 22.062313
_cell_length_b 7.857034
_cell_length_c 11.307275
_cell_angle_alpha 88.541311
_cell_angle_beta 159.240473
_cell_angle_gamma 95.115366
_cell_volume 682.591549
_symmetry_space_group_name_H-M "P -1"
_symmetry_group_IT_number 2
_symmetry_cell_setting 'triclinic'
loop_
_space_group_symop_operation_xyz
x,y,z
-x,-y,-z
loop_
_atom_site_type_symbol
_atom_site_label
_atom_site_fract_x
_atom_site_fract_y
_atom_site_fract_z
Si Si1 0.331672 0.527002 0.834188
Si Si2 0.591067 0.364582 0.471763
Si Si3 0.664799 0.930012 0.099125
Si Si4 0.895327 0.813786 0.351510
Si Si5 0.897707 0.272410 0.459367
Si Si6 0.217380 0.275681 0.203199
Si Si7 0.452172 0.188197 0.430986
Si Si8 0.348082 0.228999 0.686123
O O1 0.164904 0.570649 0.593162
O O2 0.304086 0.390409 0.679576
O O3 0.444543 0.458875 0.144275
O O4 0.457122 0.696471 0.006343
O O5 0.755736 0.513588 0.740872
O O6 0.594658 0.328610 0.619685
O O7 0.522200 0.175625 0.288135
O O8 0.825395 0.831697 0.355014
O O9 0.659470 0.922947 0.230434
O O10 0.729661 0.116596 0.155489
O O11 0.017259 0.696117 0.515685
O O12 0.714245 0.791806 0.952433
O O13 0.000000 0.000000 0.500000
O O14 0.043869 0.215647 0.812162
O O15 0.380184 0.227989 0.426171
O O16 0.226494 0.196871 0.350695
O O17 0.500000 0.000000 0.500000
#
# Coordination Sequence:
#
# PCOD9095547 Si02
#       8
#     2   2   2   2   2   2   2   2
#     4   9  19  37  59  79 111 154 193 230 274 337
#     4   9  19  37  58  80 109 150 192 227 270 336
#     4   9  18  36  59  80 110 150 194 233 271 328
#     4   8  17  34  54  80 113 140 177 232 280 326
#     4  10  20  35  58  87 115 146 187 241 290 324
#     4  10  21  37  55  84 121 147 182 235 288 340
#     4  10  20  36  58  84 113 146 186 235 284 329
#     4   9  19  36  55  78 113 156 193 228 273 335
#
# _framework density 23.440080999999999
#
# number of rings (size 3 to 8) (size 9 to 14) (size 15 to 20)
#    0.000    2.750    0.000    1.125    0.000    7.500 
#    0.000   22.500    0.000    0.000    0.000    0.000 
#    0.000    0.000    0.000    0.000    0.000    0.000 
#
# Total GULP energy -89083.572058 kJ/mol
# GULP energy per Si atom -5567.723254 kJ/mol
# Density = 2.338673 g / cm^3
# Si number density = 23.440081 Si / 1000 Ang^3
#
#
#
# Elastic Constant Matrix: (Units=GPa)
#
#
# Indices 1 2 3 4 5 6 
#
# 1 130.4424 10.5130 11.8394 -19.1729 -3.7578 -1.8436
# 2 10.5130 61.3109 3.3073 6.6160 0.7816 1.2178
# 3 11.8394 3.3073 43.9499 12.5048 -9.1427 -6.3205
# 4 -19.1729 6.6160 12.5048 26.3838 -1.4381 0.0693
# 5 -3.7578 0.7816 -9.1427 -1.4381 24.1449 2.8520
# 6 -1.8436 1.2178 -6.3205 0.0693 2.8520 37.0612
#
#
#
# Elastic Compliance Matrix: (Units=1/GPa)
#
#
# Indices 1 2 3 4 5 6 
#
# 1 0.009897 -0.002523 -0.005451 0.010421 0.000225 -0.000391
# 2 -0.002523 0.017435 0.001032 -0.006743 -0.000916 -0.000439
# 3 -0.005451 0.001032 0.032190 -0.018963 0.009649 0.004478
# 4 0.010421 -0.006743 -0.018963 0.056067 -0.001709 -0.002467
# 5 0.000225 -0.000916 0.009649 -0.001709 0.045245 -0.001792
# 6 -0.000391 -0.000439 0.004478 -0.002467 -0.001792 0.027883
#
#
# Mechanical properties :
#
#
# Convention : Reuss Voigt Hill
#
# Bulk Modulus (GPa) = 21.91036 31.89141 26.90089
# Shear Modulus (GPa) = 22.95547 31.52090 27.23818
#
# Velocity S-wave (km/s) = 3.13281 3.67105 3.41256
# Velocity P-wave (km/s) = 4.73853 5.62173 5.19892
#
# Compressibility (1/GPa) = 0.04564052
#
# Stress axis : x y z
#
# Youngs Moduli (GPa) = 101.04091 57.35509 31.06523
#
# Poissons Ratio (x) = 0.14469 0.16933
# Poissons Ratio (y) = 0.25489 -0.03207
# Poissons Ratio (z) = 0.55076 -0.05922
#
# Static dielectric constant tensor:
#      x y z
#    x 1.989310 -0.029160 0.044550 
#    y -0.029160 2.039670 0.049520 
#    z 0.044550 0.049520 1.999600 
# 
# From -- ./inp_files/474413.got.cif
#   From: 2010.05.17/outbox.cif.g08.bks.cpg/sg2_238_cif.got.tgz:474413.got - 2010.06.03 11:33:40.
