data_PCOD9095259
_publ_section_title
;
Structure prediction by ZEFSAII (Michael W. Deem and Ramdas Pophale) SiO2 
 PCOD9095259
Probable space group: P -1
;
_chemical_formula_sum "Si O2"
_cell_formula_units_Z 16
_cell_length_a 4.950066
_cell_length_b 15.557092
_cell_length_c 12.442734
_cell_angle_alpha 119.171010
_cell_angle_beta 77.786882
_cell_angle_gamma 89.191971
_cell_volume 809.982705
_symmetry_space_group_name_H-M "P -1"
_symmetry_group_IT_number 2
_symmetry_cell_setting 'triclinic'
loop_
_space_group_symop_operation_xyz
x,y,z
-x,-y,-z
loop_
_atom_site_type_symbol
_atom_site_label
_atom_site_fract_x
_atom_site_fract_y
_atom_site_fract_z
Si Si1 0.591099 0.704943 0.515467
Si Si2 0.398479 0.277151 0.931512
Si Si3 0.567889 0.578415 0.632815
Si Si4 0.783815 0.883374 0.490595
Si Si5 0.378526 0.444384 0.877272
Si Si6 0.837795 0.405409 0.633011
Si Si7 0.168936 0.631181 0.896425
Si Si8 0.656124 0.109913 0.658885
O O1 0.629718 0.673019 0.617142
O O2 0.652189 0.813117 0.542573
O O3 0.300551 0.673310 0.478504
O O4 0.844563 0.634055 0.393202
O O5 0.307757 0.342735 0.871871
O O6 0.536469 0.171965 0.809739
O O7 0.628026 0.321328 0.010198
O O8 0.119256 0.296000 0.037292
O O9 0.500000 0.500000 0.500000
O O10 0.807910 0.511974 0.640508
O O11 0.322537 0.610946 0.757736
O O12 0.592543 0.889268 0.404539
O O13 0.095272 0.845790 0.398427
O O14 0.774183 0.995291 0.603931
O O15 0.633796 0.419087 0.758841
O O16 0.147585 0.522664 0.884968
O O17 0.500000 0.500000 0.000000
#
# Coordination Sequence:
#
# PCOD9095259 Si02
#       8
#     2   2   2   2   2   2   2   2
#     4  11  20  34  55  75 101 135 172 215 260 303
#     4  11  20  34  52  72 103 139 169 205 258 311
#     4   9  21  37  54  76 106 140 177 220 258 297
#     4  10  20  35  56  83 106 133 173 215 261 314
#     4   9  19  31  47  71 101 133 167 203 244 305
#     4  10  21  33  50  77 106 135 171 208 256 309
#     4  10  22  34  49  74 102 135 174 209 251 308
#     4  10  21  36  55  80 110 135 167 216 266 311
#
# _framework density 19.753509999999999
#
# number of rings (size 3 to 8) (size 9 to 14) (size 15 to 20)
#    0.000    2.000    0.000    3.750    0.000   14.000 
#    0.000    0.000    0.000    1.500    0.000    0.000 
#    0.000    0.000    0.000    0.000    0.000    0.000 
#
# Total GULP energy -89350.135750 kJ/mol
# GULP energy per Si atom -5584.383484 kJ/mol
# Density = 1.970855 g / cm^3
# Si number density = 19.753510 Si / 1000 Ang^3
#
#
#
# Elastic Constant Matrix: (Units=GPa)
#
#
# Indices 1 2 3 4 5 6 
#
# 1 77.8885 -7.4966 12.5871 15.3739 -9.5966 6.8892
# 2 -7.4966 88.3722 32.6097 -0.2983 2.3971 12.3656
# 3 12.5871 32.6097 96.7708 11.3987 -12.4669 2.6685
# 4 15.3739 -0.2983 11.3987 21.9504 -4.6339 -4.3722
# 5 -9.5966 2.3971 -12.4669 -4.6339 21.3485 3.9293
# 6 6.8892 12.3656 2.6685 -4.3722 3.9293 17.1818
#
#
#
# Elastic Compliance Matrix: (Units=1/GPa)
#
#
# Indices 1 2 3 4 5 6 
#
# 1 0.018240 0.003636 -0.000625 -0.013875 0.007176 -0.015005
# 2 0.003636 0.015232 -0.005189 -0.002311 -0.001422 -0.011877
# 3 -0.000625 -0.005189 0.013797 -0.005483 0.007397 -0.001245
# 4 -0.013875 -0.002311 -0.005483 0.062895 0.000042 0.024073
# 5 0.007176 -0.001422 0.007397 0.000042 0.057528 -0.016148
# 6 -0.015005 -0.011877 -0.001245 0.024073 -0.016148 0.082778
#
#
# Mechanical properties :
#
#
# Convention : Reuss Voigt Hill
#
# Bulk Modulus (GPa) = 23.30358 37.60354 30.45356
# Shear Modulus (GPa) = 18.57842 27.11823 22.84833
#
# Velocity S-wave (km/s) = 3.07010 3.70919 3.40468
# Velocity P-wave (km/s) = 4.93864 6.11734 5.55932
#
# Compressibility (1/GPa) = 0.04291186
#
# Stress axis : x y z
#
# Youngs Moduli (GPa) = 54.82511 65.65251 72.48029
#
# Poissons Ratio (x) = -0.23872 0.04532
# Poissons Ratio (y) = -0.19935 0.37611
# Poissons Ratio (z) = 0.03428 0.34068
#
# Static dielectric constant tensor:
#      x y z
#    x 1.735120 -0.002210 -0.007120 
#    y -0.002210 1.755490 0.003340 
#    z -0.007120 0.003340 1.702060 
# 
# From -- ./inp_files/93753.got.cif
#   From: 2010.05.17/outbox.cif.g08.bks.cpg/sg2_47_cif.got.tgz:93753.got - 2010.06.03 11:33:40.
