data_PCOD9095876
_publ_section_title
;
Structure prediction by ZEFSAII (Michael W. Deem and Ramdas Pophale) SiO2 
 PCOD9095876
Probable space group: P -1
;
_chemical_formula_sum "Si O2"
_cell_formula_units_Z 16
_cell_length_a 13.903243
_cell_length_b 12.066119
_cell_length_c 19.721945
_cell_angle_alpha 42.040541
_cell_angle_beta 16.704605
_cell_angle_gamma 42.577885
_cell_volume 631.431274
_symmetry_space_group_name_H-M "P -1"
_symmetry_group_IT_number 2
_symmetry_cell_setting 'triclinic'
loop_
_space_group_symop_operation_xyz
x,y,z
-x,-y,-z
loop_
_atom_site_type_symbol
_atom_site_label
_atom_site_fract_x
_atom_site_fract_y
_atom_site_fract_z
Si Si1 0.129250 0.660972 0.802450
Si Si2 0.078872 0.196939 0.894379
Si Si3 0.125194 0.960783 0.759308
Si Si4 0.431648 0.104484 0.301008
Si Si5 0.367461 0.706218 0.043029
Si Si6 0.883538 0.429022 0.294693
Si Si7 0.174742 0.657105 0.337013
Si Si8 0.828825 0.479666 0.454078
O O1 0.031560 0.843839 0.815434
O O2 0.008904 0.664545 0.804441
O O3 0.532364 0.623753 0.564786
O O4 0.000000 0.500000 0.000000
O O5 0.967619 0.143511 0.066672
O O6 0.803928 0.144634 0.051948
O O7 0.985941 0.394018 0.866096
O O8 0.463361 0.097754 0.674796
O O9 0.500000 0.000000 0.500000
O O10 0.914834 0.139385 0.822787
O O11 0.126106 0.187057 0.517371
O O12 0.388899 0.207195 0.212172
O O13 0.447199 0.667332 0.087270
O O14 0.165722 0.563900 0.208921
O O15 0.500000 0.500000 0.500000
O O16 0.872313 0.365804 0.408392
O O17 0.289779 0.606479 0.358857
O O18 0.000000 0.500000 0.500000
#
# Coordination Sequence:
#
# PCOD9095876 Si02
#       8
#     2   2   2   2   2   2   2   2
#     4  11  22  37  61  93 123 160 202 260 317 369
#     4  10  20  35  60  91 124 159 205 267 313 366
#     4  11  20  34  63  93 125 157 203 266 318 362
#     4  10  21  36  59  91 125 160 205 263 318 365
#     4  10  20  37  60  91 121 162 210 259 311 366
#     4  10  21  36  57  83 123 163 201 250 313 375
#     4  10  23  37  57  90 127 169 207 256 313 376
#     4  10  21  39  55  84 126 160 210 251 308 379
#
# _framework density 25.339258000000001
#
# number of rings (size 3 to 8) (size 9 to 14) (size 15 to 20)
#    0.000    1.750    3.750    0.750    1.750    4.000 
#    2.250    0.000    0.000    7.500    0.000    0.000 
#    0.000    0.000    0.000    0.000    0.000    0.000 
#
# Total GULP energy -89193.958040 kJ/mol
# GULP energy per Si atom -5574.622378 kJ/mol
# Density = 2.528158 g / cm^3
# Si number density = 25.339258 Si / 1000 Ang^3
#
#
#
# Elastic Constant Matrix: (Units=GPa)
#
#
# Indices 1 2 3 4 5 6 
#
# 1 217.7892 23.0426 20.5897 2.2416 24.4905 14.8971
# 2 23.0426 85.6567 9.7873 8.0770 -15.1796 8.6523
# 3 20.5897 9.7873 64.2638 10.1239 19.0675 7.7287
# 4 2.2416 8.0770 10.1239 27.1443 2.6799 -1.3688
# 5 24.4905 -15.1796 19.0675 2.6799 40.2958 7.5988
# 6 14.8971 8.6523 7.7287 -1.3688 7.5988 51.6947
#
#
#
# Elastic Compliance Matrix: (Units=1/GPa)
#
#
# Indices 1 2 3 4 5 6 
#
# 1 0.005297 -0.002068 -0.000287 0.000632 -0.003798 -0.000562
# 2 -0.002068 0.014940 -0.003384 -0.004075 0.009299 -0.002873
# 3 -0.000287 -0.003384 0.020155 -0.005544 -0.010074 -0.001030
# 4 0.000632 -0.004075 -0.005544 0.040456 -0.002509 0.002769
# 5 -0.003798 0.009299 -0.010074 -0.002509 0.036386 -0.004371
# 6 -0.000562 -0.002873 -0.001030 0.002769 -0.004371 0.020857
#
#
# Mechanical properties :
#
#
# Convention : Reuss Voigt Hill
#
# Bulk Modulus (GPa) = 34.58666 52.72763 43.65715
# Shear Modulus (GPa) = 31.40592 44.77965 38.09279
#
# Velocity S-wave (km/s) = 3.52436 4.20837 3.88146
# Velocity P-wave (km/s) = 5.49914 6.66841 6.11180
#
# Compressibility (1/GPa) = 0.02891288
#
# Stress axis : x y z
#
# Youngs Moduli (GPa) = 188.80058 66.93455 49.61651
#
# Poissons Ratio (x) = 0.13842 0.01424
# Poissons Ratio (y) = 0.39042 0.16792
# Poissons Ratio (z) = 0.05418 0.22652
#
# Static dielectric constant tensor:
#      x y z
#    x 2.089010 -0.183730 0.129400 
#    y -0.183730 1.748870 0.179060 
#    z 0.129400 0.179060 2.067880 
# 
# From -- ./inp_files/597823.got.cif
#   From: 2010.05.17/outbox.cif.g08.bks.cpg/sg2_299_cif.got.tgz:597823.got - 2010.06.03 11:33:40.
