data_PCOD9095250
_publ_section_title
;
Structure prediction by ZEFSAII (Michael W. Deem and Ramdas Pophale) SiO2 
 PCOD9095250
Probable space group: P -1
;
_chemical_formula_sum "Si O2"
_cell_formula_units_Z 16
_cell_length_a 9.395109
_cell_length_b 11.435578
_cell_length_c 17.419359
_cell_angle_alpha 147.519838
_cell_angle_beta 37.495051
_cell_angle_gamma 123.247207
_cell_volume 568.253419
_symmetry_space_group_name_H-M "P -1"
_symmetry_group_IT_number 2
_symmetry_cell_setting 'triclinic'
loop_
_space_group_symop_operation_xyz
x,y,z
-x,-y,-z
loop_
_atom_site_type_symbol
_atom_site_label
_atom_site_fract_x
_atom_site_fract_y
_atom_site_fract_z
Si Si1 0.197148 0.824509 0.246000
Si Si2 0.859577 0.744422 0.147697
Si Si3 0.118037 0.119984 0.088693
Si Si4 0.548968 0.655055 0.863234
Si Si5 0.019593 0.544511 0.809600
Si Si6 0.777794 0.499475 0.535441
Si Si7 0.436530 0.193229 0.348997
Si Si8 0.268071 0.850955 0.453164
O O1 0.153973 0.609408 0.186012
O O2 0.378203 0.962221 0.267003
O O3 0.308649 0.732673 0.062821
O O4 0.917640 0.017412 0.462071
O O5 0.562915 0.799495 0.290619
O O6 0.837393 0.975256 0.333280
O O7 0.988951 0.701932 0.985544
O O8 0.000000 0.500000 0.000000
O O9 0.332439 0.147724 0.068431
O O10 0.084768 0.304187 0.136606
O O11 0.871321 0.240816 0.313835
O O12 0.271849 0.882300 0.843825
O O13 0.535977 0.585927 0.742527
O O14 0.733019 0.406068 0.679765
O O15 0.306387 0.373658 0.572793
O O16 0.716787 0.681496 0.592213
O O17 0.000000 0.500000 0.500000
#
# Coordination Sequence:
#
# PCOD9095250 Si02
#       8
#     2   2   2   2   2   2   2   2
#     4  11  21  34  53  86 114 144 183 215 273 330
#     4  11  23  39  55  77 109 144 187 227 270 327
#     4   9  21  35  54  84 113 152 181 214 273 324
#     4  10  20  35  56  82 115 141 184 228 263 321
#     4  11  21  36  52  79 118 143 181 225 264 336
#     4   9  18  35  53  79 114 145 188 224 260 315
#     4  10  22  34  55  82 115 155 176 217 273 323
#     4  11  21  36  57  79 108 144 183 225 280 315
#
# _framework density 28.156451000000001
#
# number of rings (size 3 to 8) (size 9 to 14) (size 15 to 20)
#    0.000    1.750    2.500    2.625    1.750    7.500 
#    0.000    0.000    0.000    3.000    0.000   15.750 
#    0.000    0.000    0.000    0.000    0.000    0.000 
#
# Total GULP energy -89468.703183 kJ/mol
# GULP energy per Si atom -5591.793949 kJ/mol
# Density = 2.809237 g / cm^3
# Si number density = 28.156451 Si / 1000 Ang^3
#
#
#
# Elastic Constant Matrix: (Units=GPa)
#
#
# Indices 1 2 3 4 5 6 
#
# 1 67.9111 21.4556 40.5100 0.7122 13.8568 7.7397
# 2 21.4556 71.4162 37.7818 -19.1293 -14.3143 -0.0524
# 3 40.5100 37.7818 257.0785 -27.9865 27.5103 4.6516
# 4 0.7122 -19.1293 -27.9865 55.7605 -10.1091 18.2813
# 5 13.8568 -14.3143 27.5103 -10.1091 54.8851 4.1467
# 6 7.7397 -0.0524 4.6516 18.2813 4.1467 31.3093
#
#
#
# Elastic Compliance Matrix: (Units=1/GPa)
#
#
# Indices 1 2 3 4 5 6 
#
# 1 0.019748 -0.007645 -0.001741 -0.004672 -0.006892 -0.000995
# 2 -0.007645 0.022445 -0.002039 0.010576 0.011164 -0.005423
# 3 -0.001741 -0.002039 0.004901 0.001728 -0.002153 -0.001025
# 4 -0.004672 0.010576 0.001728 0.030222 0.010002 -0.018055
# 5 -0.006892 0.011164 -0.002153 0.010002 0.026343 -0.007287
# 6 -0.000995 -0.005423 -0.001025 -0.018055 -0.007287 0.043836
#
#
# Mechanical properties :
#
#
# Convention : Reuss Voigt Hill
#
# Bulk Modulus (GPa) = 41.25062 66.21120 53.73091
# Shear Modulus (GPa) = 28.02261 48.16819 38.09540
#
# Velocity S-wave (km/s) = 3.15818 4.14059 3.68229
# Velocity P-wave (km/s) = 5.28971 6.81365 6.09946
#
# Compressibility (1/GPa) = 0.02424206
#
# Stress axis : x y z
#
# Youngs Moduli (GPa) = 50.63790 44.55429 204.03952
#
# Poissons Ratio (x) = 0.34064 0.35530
# Poissons Ratio (y) = 0.38715 0.41603
# Poissons Ratio (z) = 0.08818 0.09084
#
# Static dielectric constant tensor:
#      x y z
#    x 2.214020 0.054250 0.017120 
#    y 0.054250 2.271450 -0.089010 
#    z 0.017120 -0.089010 2.254360 
# 
# From -- ./inp_files/433102.got.cif
#   From: 2010.05.17/outbox.cif.g08.bks.cpg/sg2_217_cif.got.tgz:433102.got - 2010.06.03 11:33:40.
