data_PCOD9095569
_publ_section_title
;
Structure prediction by ZEFSAII (Michael W. Deem and Ramdas Pophale) SiO2 
 PCOD9095569
Probable space group: P -1
;
_chemical_formula_sum "Si O2"
_cell_formula_units_Z 16
_cell_length_a 18.145202
_cell_length_b 9.031550
_cell_length_c 8.871040
_cell_angle_alpha 98.697723
_cell_angle_beta 134.743911
_cell_angle_gamma 47.213184
_cell_volume 590.185685
_symmetry_space_group_name_H-M "P -1"
_symmetry_group_IT_number 2
_symmetry_cell_setting 'triclinic'
loop_
_space_group_symop_operation_xyz
x,y,z
-x,-y,-z
loop_
_atom_site_type_symbol
_atom_site_label
_atom_site_fract_x
_atom_site_fract_y
_atom_site_fract_z
Si Si1 0.689237 0.167851 0.469560
Si Si2 0.895933 0.344205 0.352642
Si Si3 0.012178 0.598301 0.240429
Si Si4 0.108832 0.585343 0.974486
Si Si5 0.540550 0.801650 0.438360
Si Si6 0.269601 0.730934 0.775854
Si Si7 0.292116 0.823578 0.163777
Si Si8 0.579075 0.951917 0.264577
O O1 0.588826 0.122979 0.321281
O O2 0.904514 0.882679 0.731169
O O3 0.646383 0.305690 0.269147
O O4 0.667316 0.272539 0.619304
O O5 0.965613 0.407196 0.549093
O O6 0.816974 0.470925 0.095617
O O7 0.766776 0.404052 0.288664
O O8 0.073145 0.038150 0.532361
O O9 0.214489 0.329937 0.443324
O O10 0.904169 0.576840 0.042668
O O11 0.910160 0.867685 0.080948
O O12 0.253271 0.484897 0.278950
O O13 0.414617 0.822220 0.316513
O O14 0.484611 0.928526 0.217128
O O15 0.500000 0.000000 0.500000
O O16 0.317682 0.706659 0.021543
O O17 0.500000 0.000000 0.000000
#
# Coordination Sequence:
#
# PCOD9095569 Si02
#       8
#     2   2   2   2   2   2   2   2
#     4  10  20  38  61  85 121 160 194 243 292 353
#     4   9  19  36  60  85 120 151 198 250 288 347
#     4  10  20  35  60  89 117 154 194 239 303 356
#     4  10  20  35  58  88 121 151 194 242 299 352
#     4  12  22  35  56  89 122 151 192 243 298 355
#     4   9  20  39  58  89 116 155 205 246 285 343
#     4  11  21  38  62  87 121 160 195 243 295 349
#     4  11  23  36  56  90 123 151 192 244 301 360
#
# _framework density 27.110112999999998
#
# number of rings (size 3 to 8) (size 9 to 14) (size 15 to 20)
#    0.000    1.750    2.500    1.875    1.750    4.000 
#    0.000   11.875    0.000    5.250    0.000    0.000 
#    0.000    0.000    0.000    0.000    0.000    0.000 
#
# Total GULP energy -89315.644915 kJ/mol
# GULP energy per Si atom -5582.227807 kJ/mol
# Density = 2.704841 g / cm^3
# Si number density = 27.110113 Si / 1000 Ang^3
#
#
#
# Elastic Constant Matrix: (Units=GPa)
#
#
# Indices 1 2 3 4 5 6 
#
# 1 148.7553 36.8647 63.5197 21.5264 -42.6488 -6.1198
# 2 36.8647 84.4868 31.1126 0.1688 -7.3173 -0.7664
# 3 63.5197 31.1126 160.6491 5.5970 -36.9931 1.6105
# 4 21.5264 0.1688 5.5970 37.8983 -3.5109 0.6424
# 5 -42.6488 -7.3173 -36.9931 -3.5109 63.4337 10.5935
# 6 -6.1198 -0.7664 1.6105 0.6424 10.5935 20.7375
#
#
#
# Elastic Compliance Matrix: (Units=1/GPa)
#
#
# Indices 1 2 3 4 5 6 
#
# 1 0.010807 -0.003425 -0.002250 -0.005328 0.005134 0.000780
# 2 -0.003425 0.013843 -0.001797 0.001982 -0.001720 0.000458
# 3 -0.002250 -0.001797 0.008335 0.000455 0.003715 -0.003290
# 4 -0.005328 0.001982 0.000455 0.029261 -0.001160 -0.001848
# 5 0.005134 -0.001720 0.003715 -0.001160 0.022871 -0.010485
# 6 0.000780 0.000458 -0.003290 -0.001848 -0.010485 0.054138
#
#
# Mechanical properties :
#
#
# Convention : Reuss Voigt Hill
#
# Bulk Modulus (GPa) = 55.42321 72.98722 64.20521
# Shear Modulus (GPa) = 31.20884 41.90684 36.55784
#
# Velocity S-wave (km/s) = 3.39660 3.93593 3.67617
# Velocity P-wave (km/s) = 5.98921 6.90191 6.46169
#
# Compressibility (1/GPa) = 0.01804298
#
# Stress axis : x y z
#
# Youngs Moduli (GPa) = 92.53447 72.23715 119.97670
#
# Poissons Ratio (x) = 0.24738 0.26992
# Poissons Ratio (y) = 0.31689 0.21556
# Poissons Ratio (z) = 0.20818 0.12979
#
# Static dielectric constant tensor:
#      x y z
#    x 2.116690 -0.065610 -0.023350 
#    y -0.065610 2.137270 -0.048620 
#    z -0.023350 -0.048620 2.145840 
# 
# From -- ./inp_files/345412.got.cif
#   From: 2010.05.17/outbox.cif.g08.bks.cpg/sg2_173_cif.got.tgz:345412.got - 2010.06.03 11:33:40.
