data_PCOD9095116
_publ_section_title
;
Structure prediction by ZEFSAII (Michael W. Deem and Ramdas Pophale) SiO2 
 PCOD9095116
Probable space group: P -1
;
_chemical_formula_sum "Si O2"
_cell_formula_units_Z 14
_cell_length_a 7.576140
_cell_length_b 6.904305
_cell_length_c 16.794434
_cell_angle_alpha 101.539881
_cell_angle_beta 125.823472
_cell_angle_gamma 55.433541
_cell_volume 574.972281
_symmetry_space_group_name_H-M "P -1"
_symmetry_group_IT_number 2
_symmetry_cell_setting 'triclinic'
loop_
_space_group_symop_operation_xyz
x,y,z
-x,-y,-z
loop_
_atom_site_type_symbol
_atom_site_label
_atom_site_fract_x
_atom_site_fract_y
_atom_site_fract_z
Si Si1 0.730509 0.578976 0.829320
Si Si2 0.031426 0.192417 0.753018
Si Si3 0.438794 0.285378 0.918853
Si Si4 0.885250 0.318988 0.009957
Si Si5 0.253156 0.760823 0.478864
Si Si6 0.815089 0.285644 0.237976
Si Si7 0.963338 0.734977 0.544924
O O1 0.428349 0.694862 0.778900
O O2 0.818109 0.448240 0.757053
O O3 0.845485 0.740617 0.884513
O O4 0.880128 0.370850 0.919683
O O5 0.311128 0.144416 0.849163
O O6 0.965885 0.187801 0.642405
O O7 0.014006 0.984414 0.770838
O O8 0.328682 0.413078 0.985482
O O9 0.296431 0.508715 0.838478
O O10 0.747898 0.180124 0.983327
O O11 0.500000 0.500000 0.500000
O O12 0.167033 0.751373 0.544349
O O13 0.970579 0.319009 0.349735
O O14 0.282692 0.984322 0.500634
O O15 0.000000 0.500000 0.500000
#
# Coordination Sequence:
#
# PCOD9095116 Si02
#       7
#     2   2   2   2   2   2   2
#     4   9  17  34  54  75 108 141 176 221 268 315
#     4  10  20  35  55  78 106 141 179 221 272 326
#     4   9  17  34  54  75 108 141 176 221 268 315
#     4   8  16  32  52  76 108 140 174 224 264 316
#     4  10  21  37  57  83 113 147 187 230 279 334
#     4  10  20  35  55  78 106 141 179 221 272 326
#     4  10  21  37  57  83 113 147 187 230 279 334
#
# _framework density 24.348998000000002
#
# number of rings (size 3 to 8) (size 9 to 14) (size 15 to 20)
#    0.000    2.571    0.000    1.714    0.000    0.571 
#    0.000   34.286    0.000    0.000    0.000    0.000 
#    0.000    0.000    0.000    0.000    0.000    0.000 
#
# Total GULP energy -78117.374887 kJ/mol
# GULP energy per Si atom -5579.812492 kJ/mol
# Density = 2.429358 g / cm^3
# Si number density = 24.348998 Si / 1000 Ang^3
#
#
#
# Elastic Constant Matrix: (Units=GPa)
#
#
# Indices 1 2 3 4 5 6 
#
# 1 61.8989 1.7319 -5.3844 3.3460 -6.8385 -2.5241
# 2 1.7319 139.8095 40.3796 22.5280 7.4218 7.6596
# 3 -5.3844 40.3796 90.1698 15.8532 -19.5372 8.5846
# 4 3.3460 22.5280 15.8532 42.3411 2.4041 6.4917
# 5 -6.8385 7.4218 -19.5372 2.4041 28.3066 2.0303
# 6 -2.5241 7.6596 8.5846 6.4917 2.0303 34.6384
#
#
#
# Elastic Compliance Matrix: (Units=1/GPa)
#
#
# Indices 1 2 3 4 5 6 
#
# 1 0.017454 -0.001241 0.003525 -0.002556 0.007139 0.000733
# 2 -0.001241 0.009400 -0.005135 -0.002628 -0.006082 -0.000047
# 3 0.003525 -0.005135 0.018025 -0.004688 0.015258 -0.003091
# 4 -0.002556 -0.002628 -0.004688 0.027785 -0.005284 -0.003341
# 5 0.007139 -0.006082 0.015258 -0.005284 0.049903 -0.003851
# 6 0.000733 -0.000047 -0.003091 -0.003341 -0.003851 0.030551
#
#
# Mechanical properties :
#
#
# Convention : Reuss Voigt Hill
#
# Bulk Modulus (GPa) = 25.52666 40.59248 33.05957
# Shear Modulus (GPa) = 29.09019 38.06730 33.57875
#
# Velocity S-wave (km/s) = 3.46022 3.95828 3.71760
# Velocity P-wave (km/s) = 5.14496 6.13172 5.65988
#
# Compressibility (1/GPa) = 0.03917473
#
# Stress axis : x y z
#
# Youngs Moduli (GPa) = 57.29503 106.38392 55.48002
#
# Poissons Ratio (x) = 0.13207 -0.19555
# Poissons Ratio (y) = 0.07113 0.28488
# Poissons Ratio (z) = -0.20194 0.54626
#
# Static dielectric constant tensor:
#      x y z
#    x 1.992750 -0.002450 0.017380 
#    y -0.002450 2.005910 0.000440 
#    z 0.017380 0.000440 1.979510 
# 
# From -- ./inp_files/553647.got.cif
#   From: 2010.05.17/outbox.cif.g08.bks.cpg/sg2_277_cif.got.tgz:553647.got - 2010.06.03 11:33:40.
