data_PCOD9095628
_publ_section_title
;
Structure prediction by ZEFSAII (Michael W. Deem and Ramdas Pophale) SiO2 
 PCOD9095628
Probable space group: P -1
;
_chemical_formula_sum "Si O2"
_cell_formula_units_Z 16
_cell_length_a 11.908631
_cell_length_b 10.983784
_cell_length_c 16.326893
_cell_angle_alpha 20.679827
_cell_angle_beta 54.473550
_cell_angle_gamma 60.052838
_cell_volume 606.400749
_symmetry_space_group_name_H-M "P -1"
_symmetry_group_IT_number 2
_symmetry_cell_setting 'triclinic'
loop_
_space_group_symop_operation_xyz
x,y,z
-x,-y,-z
loop_
_atom_site_type_symbol
_atom_site_label
_atom_site_fract_x
_atom_site_fract_y
_atom_site_fract_z
Si Si1 0.452171 0.761573 0.091252
Si Si2 0.757048 0.771122 0.130549
Si Si3 0.811956 0.176211 0.167552
Si Si4 0.297220 0.834070 0.358886
Si Si5 0.017427 0.904751 0.379330
Si Si6 0.969174 0.761400 0.277077
Si Si7 0.196414 0.158984 0.356584
Si Si8 0.641101 0.255953 0.352815
O O1 0.488838 0.374954 0.332958
O O2 0.500000 0.000000 0.000000
O O3 0.300875 0.857443 0.079573
O O4 0.556160 0.939760 0.864726
O O5 0.695817 0.562804 0.369338
O O6 0.709549 0.537686 0.216252
O O7 0.921974 0.885469 0.994314
O O8 0.707969 0.262953 0.229266
O O9 0.812570 0.475698 0.911512
O O10 0.943051 0.108909 0.213304
O O11 0.816320 0.843833 0.314228
O O12 0.184333 0.941051 0.275088
O O13 0.223379 0.935642 0.407900
O O14 0.993904 0.480954 0.659702
O O15 0.940172 0.999428 0.434451
O O16 0.000000 0.500000 0.500000
O O17 0.326582 0.110172 0.392522
#
# Coordination Sequence:
#
# PCOD9095628 Si02
#       8
#     2   2   2   2   2   2   2   2
#     4  10  21  37  61  88 121 156 195 250 301 349
#     4  10  22  38  61  90 121 156 202 242 301 352
#     4  10  20  35  59  82 123 157 191 240 301 347
#     4  11  21  37  60  95 121 153 196 249 303 355
#     4  10  23  37  57  90 125 155 197 238 299 361
#     4  10  23  38  60  87 121 164 197 241 295 361
#     4  10  20  36  59  91 123 152 192 247 304 359
#     4   9  20  37  58  91 117 150 197 250 295 355
#
# _framework density 26.385192
#
# number of rings (size 3 to 8) (size 9 to 14) (size 15 to 20)
#    0.000    2.000    1.250    1.500    7.000    5.000 
#    0.000    0.000    0.000    7.500    0.000    0.000 
#    0.000    0.000    0.000    0.000    0.000    0.000 
#
# Total GULP energy -89081.150884 kJ/mol
# GULP energy per Si atom -5567.571930 kJ/mol
# Density = 2.632514 g / cm^3
# Si number density = 26.385192 Si / 1000 Ang^3
#
#
#
# Elastic Constant Matrix: (Units=GPa)
#
#
# Indices 1 2 3 4 5 6 
#
# 1 65.9546 43.8337 47.1384 1.4853 28.1526 -10.3036
# 2 43.8337 117.6657 40.0001 -11.3254 20.3563 -26.2467
# 3 47.1384 40.0001 130.0237 -2.3599 49.1170 -0.5212
# 4 1.4853 -11.3254 -2.3599 43.9379 -4.0685 16.8179
# 5 28.1526 20.3563 49.1170 -4.0685 56.2018 -11.3052
# 6 -10.3036 -26.2467 -0.5212 16.8179 -11.3052 30.3898
#
#
#
# Elastic Compliance Matrix: (Units=1/GPa)
#
#
# Indices 1 2 3 4 5 6 
#
# 1 0.026717 -0.006719 -0.005534 -0.004894 -0.005714 0.003743
# 2 -0.006719 0.013899 -0.002983 -0.000266 0.003129 0.010986
# 3 -0.005534 -0.002983 0.014691 0.002982 -0.010752 -0.009851
# 4 -0.004894 -0.000266 0.002982 0.030204 -0.001734 -0.019198
# 5 -0.005714 0.003129 -0.010752 -0.001734 0.031457 0.013242
# 6 0.003743 0.010986 -0.009851 -0.019198 0.013242 0.059045
#
#
# Mechanical properties :
#
#
# Convention : Reuss Voigt Hill
#
# Bulk Modulus (GPa) = 40.26451 63.95427 52.10939
# Shear Modulus (GPa) = 23.28137 38.28401 30.78269
#
# Velocity S-wave (km/s) = 2.97369 3.81329 3.41935
# Velocity P-wave (km/s) = 5.20421 6.60905 5.94825
#
# Compressibility (1/GPa) = 0.02483576
#
# Stress axis : x y z
#
# Youngs Moduli (GPa) = 37.42972 71.94541 68.06781
#
# Poissons Ratio (x) = 0.48340 0.37669
# Poissons Ratio (y) = 0.25149 0.20303
# Poissons Ratio (z) = 0.20714 0.21460
#
# Static dielectric constant tensor:
#      x y z
#    x 1.920560 -0.043170 0.404820 
#    y -0.043170 2.097040 0.069060 
#    z 0.404820 0.069060 1.733660 
# 
# From -- ./inp_files/573543.got.cif
#   From: 2010.05.17/outbox.cif.g08.bks.cpg/sg2_287_cif.got.tgz:573543.got - 2010.06.03 11:33:40.
