data_PCOD9095083
_publ_section_title
;
Structure prediction by ZEFSAII (Michael W. Deem and Ramdas Pophale) SiO2 
 PCOD9095083
Probable space group: P -1
;
_chemical_formula_sum "Si O2"
_cell_formula_units_Z 14
_cell_length_a 17.447038
_cell_length_b 14.088291
_cell_length_c 9.976448
_cell_angle_alpha 43.005732
_cell_angle_beta 41.419515
_cell_angle_gamma 19.683355
_cell_volume 542.914296
_symmetry_space_group_name_H-M "P -1"
_symmetry_group_IT_number 2
_symmetry_cell_setting 'triclinic'
loop_
_space_group_symop_operation_xyz
x,y,z
-x,-y,-z
loop_
_atom_site_type_symbol
_atom_site_label
_atom_site_fract_x
_atom_site_fract_y
_atom_site_fract_z
Si Si1 0.598200 0.381614 0.313459
Si Si2 0.897350 0.726756 0.800911
Si Si3 0.391635 0.310447 0.989365
Si Si4 0.890646 0.147605 0.844729
Si Si5 0.701940 0.880076 0.613814
Si Si6 0.730781 0.507468 0.310242
Si Si7 0.411717 0.776933 0.786993
O O1 0.574138 0.570180 0.128935
O O2 0.395828 0.509745 0.526295
O O3 0.573018 0.328831 0.260314
O O4 0.868760 0.072816 0.321849
O O5 0.886286 0.712545 0.668729
O O6 0.045465 0.707673 0.667996
O O7 0.631819 0.020699 0.897084
O O8 0.000000 0.500000 0.000000
O O9 0.208592 0.504936 0.905259
O O10 0.324858 0.256478 0.231195
O O11 0.686932 0.478882 0.776868
O O12 0.760057 0.139486 0.984558
O O13 0.000000 0.000000 0.000000
O O14 0.461786 0.191877 0.674481
O O15 0.709333 0.955542 0.385338
#
# Coordination Sequence:
#
# PCOD9095083 Si02
#       7
#     2   2   2   2   2   2   2
#     4  10  22  35  57  88 119 151 186 243 293 341
#     4  11  19  36  57  79 119 165 198 233 266 332
#     4  11  21  35  53  87 125 150 192 241 285 334
#     4   9  19  41  63  83 109 145 193 245 292 344
#     4  10  20  35  59  87 113 151 201 236 282 341
#     4  10  20  35  54  80 117 164 201 226 273 339
#     4   9  20  38  64  86 108 147 196 239 288 355
#
# _framework density 25.786759
#
# number of rings (size 3 to 8) (size 9 to 14) (size 15 to 20)
#    0.000    2.000    2.857    1.286    0.000   10.857 
#    0.000    0.714    0.000   10.286    0.000    0.000 
#    0.000    0.000    0.000    0.000    0.000    0.000 
#
# Total GULP energy -78083.496226 kJ/mol
# GULP energy per Si atom -5577.392588 kJ/mol
# Density = 2.572807 g / cm^3
# Si number density = 25.786759 Si / 1000 Ang^3
#
#
#
# Elastic Constant Matrix: (Units=GPa)
#
#
# Indices 1 2 3 4 5 6 
#
# 1 55.6013 41.5702 52.4248 -10.8314 -18.9856 -20.8838
# 2 41.5702 85.2989 46.9173 -9.2092 4.2870 -32.3810
# 3 52.4248 46.9173 165.9289 -32.2430 -31.5983 -26.6326
# 4 -10.8314 -9.2092 -32.2430 38.5795 0.9330 -2.3289
# 5 -18.9856 4.2870 -31.5983 0.9330 43.2160 -3.3097
# 6 -20.8838 -32.3810 -26.6326 -2.3289 -3.3097 42.9712
#
#
#
# Elastic Compliance Matrix: (Units=1/GPa)
#
#
# Indices 1 2 3 4 5 6 
#
# 1 0.044980 -0.017276 -0.002924 0.006117 0.019886 0.008893
# 2 -0.017276 0.025172 -0.002559 -0.000217 -0.011333 0.008102
# 3 -0.002924 -0.002559 0.011495 0.008283 0.007564 0.004807
# 4 0.006117 -0.000217 0.008283 0.034930 0.008816 0.010515
# 5 0.019886 -0.011333 0.007564 0.008816 0.039052 0.009298
# 6 0.008893 0.008102 0.004807 0.010515 0.009298 0.037964
#
#
# Mechanical properties :
#
#
# Convention : Reuss Voigt Hill
#
# Bulk Modulus (GPa) = 27.67768 65.40596 46.54182
# Shear Modulus (GPa) = 19.90806 36.01446 27.96126
#
# Velocity S-wave (km/s) = 2.78155 3.74120 3.29648
# Velocity P-wave (km/s) = 4.59049 6.63938 5.70762
#
# Compressibility (1/GPa) = 0.03613019
#
# Stress axis : x y z
#
# Youngs Moduli (GPa) = 22.23207 39.72638 86.99066
#
# Poissons Ratio (x) = 0.68631 0.25432
# Poissons Ratio (y) = 0.38408 0.22263
# Poissons Ratio (z) = 0.06500 0.10167
#
# Static dielectric constant tensor:
#      x y z
#    x 2.078130 -0.020210 0.052460 
#    y -0.020210 2.089170 0.039950 
#    z 0.052460 0.039950 2.323220 
# 
# From -- ./inp_files/94309.got.cif
#   From: 2010.05.17/outbox.cif.g08.bks.cpg/sg2_48_cif.got.tgz:94309.got - 2010.06.03 11:33:40.
