data_PCOD9095207
_publ_section_title
;
Structure prediction by ZEFSAII (Michael W. Deem and Ramdas Pophale) SiO2 
 PCOD9095207
Probable space group: P -1
;
_chemical_formula_sum "Si O2"
_cell_formula_units_Z 16
_cell_length_a 5.819030
_cell_length_b 21.730851
_cell_length_c 7.198952
_cell_angle_alpha 52.369563
_cell_angle_beta 109.394039
_cell_angle_gamma 87.118913
_cell_volume 639.846391
_symmetry_space_group_name_H-M "P -1"
_symmetry_group_IT_number 2
_symmetry_cell_setting 'triclinic'
loop_
_space_group_symop_operation_xyz
x,y,z
-x,-y,-z
loop_
_atom_site_type_symbol
_atom_site_label
_atom_site_fract_x
_atom_site_fract_y
_atom_site_fract_z
Si Si1 0.067228 0.736297 0.923831
Si Si2 0.528389 0.765180 0.132068
Si Si3 0.907824 0.437209 0.839769
Si Si4 0.393643 0.103234 0.593159
Si Si5 0.347195 0.509981 0.732887
Si Si6 0.927904 0.315389 0.548049
Si Si7 0.799837 0.167302 0.713283
Si Si8 0.644295 0.923967 0.922492
O O1 0.358579 0.737792 0.988095
O O2 0.865204 0.825359 0.663620
O O3 0.015718 0.661642 0.943070
O O4 0.046171 0.716493 0.172734
O O5 0.587311 0.848834 0.943094
O O6 0.376071 0.794680 0.227545
O O7 0.779663 0.687926 0.396148
O O8 0.653741 0.473811 0.835093
O O9 0.787617 0.464724 0.551846
O O10 0.166731 0.462517 0.867679
O O11 0.637339 0.135089 0.585269
O O12 0.457407 0.016345 0.666532
O O13 0.375623 0.087899 0.837774
O O14 0.285841 0.596093 0.668210
O O15 0.886021 0.244835 0.537235
O O16 0.050595 0.093194 0.987256
#
# Coordination Sequence:
#
# PCOD9095207 Si02
#       8
#     2   2   2   2   2   2   2   2
#     4  10  21  32  51  82 113 141 171 233 287 326
#     4   9  19  34  52  77 112 135 183 223 273 335
#     4   9  19  31  50  82 116 146 185 227 282 335
#     4  10  20  35  56  78 107 139 183 226 276 332
#     4   9  18  31  54  79 112 151 186 228 272 339
#     4   9  19  33  55  80 106 144 181 222 276 328
#     4   9  18  35  55  77 102 141 186 225 263 334
#     4   9  19  37  56  77  99 145 189 222 267 333
#
# _framework density 25.006
#
# number of rings (size 3 to 8) (size 9 to 14) (size 15 to 20)
#    0.000    2.750    0.000    0.375   10.500    1.500 
#    0.000    5.625    0.000    1.500    0.000    0.000 
#    0.000    0.000    0.000    0.000    0.000    0.000 
#
# Total GULP energy -89360.503986 kJ/mol
# GULP energy per Si atom -5585.031499 kJ/mol
# Density = 2.494909 g / cm^3
# Si number density = 25.006000 Si / 1000 Ang^3
#
#
#
# Elastic Constant Matrix: (Units=GPa)
#
#
# Indices 1 2 3 4 5 6 
#
# 1 112.6607 32.7188 48.7787 -21.3718 24.0492 -1.2543
# 2 32.7188 97.0994 34.1181 -27.5537 8.2351 0.2725
# 3 48.7787 34.1181 0.5442 39.7730 -47.6497 -27.1570
# 4 -21.3718 -27.5537 39.7730 8.9971 23.8020 23.9821
# 5 24.0492 8.2351 -47.6497 23.8020 6.2792 -13.0438
# 6 -1.2543 0.2725 -27.1570 23.9821 -13.0438 24.3548
#
#
#
# Elastic Compliance Matrix: (Units=1/GPa)
#
#
# Indices 1 2 3 4 5 6 
#
# 1 0.009383 -0.004524 0.000163 -0.004683 -0.000443 0.005090
# 2 -0.004524 0.011648 0.001270 0.002475 0.005039 0.001315
# 3 0.000163 0.001270 0.006731 0.010897 -0.006816 -0.006882
# 4 -0.004683 0.002475 0.010897 0.021210 0.015275 -0.000823
# 5 -0.000443 0.005039 -0.006816 0.015275 0.022047 -0.010913
# 6 0.005090 0.001315 -0.006882 -0.000823 -0.010913 0.028599
#
#
# Mechanical properties :
#
#
# Convention : Reuss Voigt Hill
#
# Bulk Modulus (GPa) = 46.34440 49.05952 47.70196
# Shear Modulus (GPa) = 44.25020 14.23881 29.24451
#
# Velocity S-wave (km/s) = 4.21121 2.38883 3.42350
# Velocity P-wave (km/s) = 6.49763 5.22211 5.89447
#
# Compressibility (1/GPa) = 0.02157758
#
# Stress axis : x y z
#
# Youngs Moduli (GPa) = 106.58132 85.85029 148.57653
#
# Poissons Ratio (x) = 0.38842 -0.02416
# Poissons Ratio (y) = 0.48221 -0.18868
# Poissons Ratio (z) = -0.01733 -0.10902
#
# Static dielectric constant tensor:
#      x y z
#    x 2.152510 0.052540 -0.043100 
#    y 0.052540 1.958720 0.030390 
#    z -0.043100 0.030390 2.009560 
# 
# From -- ./inp_files/142558.got.cif
#   From: 2010.05.17/outbox.cif.g08.bks.cpg/sg2_72_cif.got.tgz:142558.got - 2010.06.03 11:33:40.
