data_PCOD9095630
_publ_section_title
;
Structure prediction by ZEFSAII (Michael W. Deem and Ramdas Pophale) SiO2 
 PCOD9095630
Probable space group: P -1
;
_chemical_formula_sum "Si O2"
_cell_formula_units_Z 16
_cell_length_a 9.215945
_cell_length_b 20.319374
_cell_length_c 6.697446
_cell_angle_alpha 118.546386
_cell_angle_beta 90.639771
_cell_angle_gamma 52.654828
_cell_volume 803.072968
_symmetry_space_group_name_H-M "P -1"
_symmetry_group_IT_number 2
_symmetry_cell_setting 'triclinic'
loop_
_space_group_symop_operation_xyz
x,y,z
-x,-y,-z
loop_
_atom_site_type_symbol
_atom_site_label
_atom_site_fract_x
_atom_site_fract_y
_atom_site_fract_z
Si Si1 0.640524 0.219831 0.979432
Si Si2 0.990794 0.392991 0.201247
Si Si3 0.639459 0.749655 0.302024
Si Si4 0.007226 0.997209 0.733474
Si Si5 0.670988 0.911915 0.522761
Si Si6 0.962817 0.229990 0.983252
Si Si7 0.272618 0.372719 0.481859
Si Si8 0.864266 0.925291 0.889078
O O1 0.458679 0.309281 0.243566
O O2 0.547207 0.209969 0.775593
O O3 0.789252 0.110851 0.938564
O O4 0.775377 0.243054 0.957936
O O5 0.820328 0.512625 0.320101
O O6 0.100465 0.383893 0.389476
O O7 0.918453 0.333635 0.137871
O O8 0.162766 0.332343 0.948253
O O9 0.632318 0.840099 0.479237
O O10 0.658753 0.691973 0.411506
O O11 0.011451 0.915658 0.720860
O O12 0.000000 0.000000 0.500000
O O13 0.164215 0.999177 0.835957
O O14 0.695309 0.954151 0.781441
O O15 0.871262 0.842318 0.289771
O O16 0.500000 0.000000 0.500000
O O17 0.048335 0.172442 0.116458
#
# Coordination Sequence:
#
# PCOD9095630 Si02
#       8
#     2   2   2   2   2   2   2   2
#     4  10  22  36  56  86 115 148 188 239 292 342
#     4   9  20  39  59  83 114 150 192 242 287 337
#     4  10  21  37  59  84 116 154 191 234 289 343
#     4  10  21  37  56  83 119 153 190 234 283 347
#     4  11  23  38  58  86 119 154 195 244 284 340
#     4  10  22  39  57  84 119 149 194 242 290 347
#     4  10  20  37  61  84 111 149 195 238 288 351
#     4  10  20  35  59  83 109 156 192 227 291 339
#
# _framework density 19.923469000000001
#
# number of rings (size 3 to 8) (size 9 to 14) (size 15 to 20)
#    0.000    2.000    0.000    3.375    0.000    7.000 
#    0.000    0.625    0.000    0.000    0.000    0.000 
#    0.000    0.000    0.000    0.000    0.000    0.000 
#
# Total GULP energy -89338.344589 kJ/mol
# GULP energy per Si atom -5583.646537 kJ/mol
# Density = 1.987812 g / cm^3
# Si number density = 19.923469 Si / 1000 Ang^3
#
#
#
# Elastic Constant Matrix: (Units=GPa)
#
#
# Indices 1 2 3 4 5 6 
#
# 1 127.7127 61.6132 45.6618 -10.4951 21.3161 9.9548
# 2 61.6132 101.7522 43.7613 -9.6043 10.8394 7.7100
# 3 45.6618 43.7613 83.6199 -19.0310 26.6015 0.9382
# 4 -10.4951 -9.6043 -19.0310 35.7330 -2.1857 1.5506
# 5 21.3161 10.8394 26.6015 -2.1857 30.6196 -3.7390
# 6 9.9548 7.7100 0.9382 1.5506 -3.7390 33.6893
#
#
#
# Elastic Compliance Matrix: (Units=1/GPa)
#
#
# Indices 1 2 3 4 5 6 
#
# 1 0.012535 -0.005941 -0.001783 0.000934 -0.005365 -0.002933
# 2 -0.005941 0.015791 -0.006386 -0.000610 0.003902 -0.001219
# 3 -0.001783 -0.006386 0.023677 0.009401 -0.016512 -0.000936
# 4 0.000934 -0.000610 0.009401 0.032814 -0.006581 -0.002639
# 5 -0.005365 0.003902 -0.016512 -0.006581 0.049740 0.006976
# 6 -0.002933 -0.001219 -0.000936 -0.002639 0.006976 0.031750
#
#
# Mechanical properties :
#
#
# Convention : Reuss Voigt Hill
#
# Bulk Modulus (GPa) = 42.04844 68.35082 55.19963
# Shear Modulus (GPa) = 24.69670 30.81159 27.75415
#
# Velocity S-wave (km/s) = 3.52458 3.93682 3.73639
# Velocity P-wave (km/s) = 6.14120 7.41929 6.81030
#
# Compressibility (1/GPa) = 0.02378210
#
# Stress axis : x y z
#
# Youngs Moduli (GPa) = 79.77814 63.32719 42.23420
#
# Poissons Ratio (x) = 0.37624 0.07531
# Poissons Ratio (y) = 0.47398 0.26971
# Poissons Ratio (z) = 0.14226 0.40442
#
# Static dielectric constant tensor:
#      x y z
#    x 1.717570 -0.011620 -0.002460 
#    y -0.011620 1.671850 0.008970 
#    z -0.002460 0.008970 1.732620 
# 
# From -- ./inp_files/53754.got.cif
#   From: 2010.05.17/outbox.cif.g08.bks.cpg/sg2_27_cif.got.tgz:53754.got - 2010.06.03 11:33:40.
