data_PCOD9095188
_publ_section_title
;
Structure prediction by ZEFSAII (Michael W. Deem and Ramdas Pophale) SiO2 
 PCOD9095188
Probable space group: P -1
;
_chemical_formula_sum "Si O2"
_cell_formula_units_Z 16
_cell_length_a 13.370828
_cell_length_b 14.003822
_cell_length_c 12.195157
_cell_angle_alpha 49.293294
_cell_angle_beta 111.578942
_cell_angle_gamma 148.155021
_cell_volume 808.262123
_symmetry_space_group_name_H-M "P -1"
_symmetry_group_IT_number 2
_symmetry_cell_setting 'triclinic'
loop_
_space_group_symop_operation_xyz
x,y,z
-x,-y,-z
loop_
_atom_site_type_symbol
_atom_site_label
_atom_site_fract_x
_atom_site_fract_y
_atom_site_fract_z
Si Si1 0.916049 0.497624 0.567994
Si Si2 0.188359 0.636192 0.897940
Si Si3 0.196641 0.227417 0.125207
Si Si4 0.480183 0.594908 0.766568
Si Si5 0.432128 0.020140 0.057088
Si Si6 0.058219 0.810536 0.015423
Si Si7 0.351894 0.953787 0.536080
Si Si8 0.913931 0.743136 0.252423
O O1 0.733614 0.232245 0.751158
O O2 0.850113 0.564424 0.439891
O O3 0.000000 0.500000 0.500000
O O4 0.118081 0.721427 0.560993
O O5 0.083221 0.442612 0.907297
O O6 0.362255 0.741404 0.964226
O O7 0.315223 0.873297 0.706228
O O8 0.000000 0.500000 0.000000
O O9 0.320661 0.298656 0.226612
O O10 0.370402 0.472796 0.933850
O O11 0.103224 0.013641 0.181223
O O12 0.001932 0.128378 0.126784
O O13 0.548589 0.807464 0.614857
O O14 0.289606 0.375253 0.769008
O O15 0.300431 0.006849 0.971016
O O16 0.500000 0.000000 0.000000
O O17 0.989203 0.766834 0.146420
O O18 0.500000 0.000000 0.500000
#
# Coordination Sequence:
#
# PCOD9095188 Si02
#       8
#     2   2   2   2   2   2   2   2
#     4  12  21  37  59  94 126 156 201 261 317 363
#     4  12  24  42  63  91 125 165 204 258 315 373
#     4  10  22  37  58  90 130 166 205 252 306 366
#     4  10  20  35  55  86 128 160 202 245 313 356
#     4  12  24  41  63  91 124 164 206 255 318 372
#     4  11  22  38  61  90 124 162 213 243 307 371
#     4  12  22  36  60  95 127 156 203 260 317 363
#     4  11  21  37  60  94 128 160 203 259 304 370
#
# _framework density 19.795559000000001
#
# number of rings (size 3 to 8) (size 9 to 14) (size 15 to 20)
#    0.000    0.750    5.000    5.250    0.000    4.000 
#    0.000    0.000    0.000    1.500    3.250    0.000 
#    0.000    0.000    0.000    0.000    0.000    0.000 
#
# Total GULP energy -89369.385503 kJ/mol
# GULP energy per Si atom -5585.586594 kJ/mol
# Density = 1.975050 g / cm^3
# Si number density = 19.795559 Si / 1000 Ang^3
#
#
#
# Elastic Constant Matrix: (Units=GPa)
#
#
# Indices 1 2 3 4 5 6 
#
# 1 84.8902 26.1073 35.4908 11.0662 4.0198 32.7752
# 2 26.1073 113.0254 -5.5242 3.5368 -0.6386 34.9516
# 3 35.4908 -5.5242 73.5710 -0.1034 -1.4643 2.8550
# 4 11.0662 3.5368 -0.1034 28.5453 5.7312 11.8313
# 5 4.0198 -0.6386 -1.4643 5.7312 30.6666 6.4156
# 6 32.7752 34.9516 2.8550 11.8313 6.4156 48.3561
#
#
#
# Elastic Compliance Matrix: (Units=1/GPa)
#
#
# Indices 1 2 3 4 5 6 
#
# 1 0.021563 -0.001659 -0.010069 -0.003162 -0.000237 -0.012016
# 2 -0.001659 0.011862 0.002057 0.002274 0.001890 -0.008377
# 3 -0.010069 0.002057 0.018489 0.001995 0.001118 0.003610
# 4 -0.003162 0.002274 0.001995 0.040710 -0.005191 -0.008890
# 5 -0.000237 0.001890 0.001118 -0.005191 0.034665 -0.004601
# 6 -0.012016 -0.008377 0.003610 -0.008890 -0.004601 0.037451
#
#
# Mechanical properties :
#
#
# Convention : Reuss Voigt Hill
#
# Bulk Modulus (GPa) = 30.70323 42.62607 36.66465
# Shear Modulus (GPa) = 25.64884 35.87445 30.76164
#
# Velocity S-wave (km/s) = 3.60347 4.26167 3.94632
# Velocity P-wave (km/s) = 5.73212 6.76725 6.27108
#
# Compressibility (1/GPa) = 0.03256986
#
# Stress axis : x y z
#
# Youngs Moduli (GPa) = 46.37636 84.30630 54.08563
#
# Poissons Ratio (x) = 0.13991 0.54461
# Poissons Ratio (y) = 0.07696 -0.11126
# Poissons Ratio (z) = 0.46698 -0.17343
#
# Static dielectric constant tensor:
#      x y z
#    x 1.719910 0.048530 0.034650 
#    y 0.048530 1.789680 0.018690 
#    z 0.034650 0.018690 1.695900 
# 
# From -- ./inp_files/455560.got.cif
#   From: 2010.05.17/outbox.cif.g08.bks.cpg/sg2_228_cif.got.tgz:455560.got - 2010.06.03 11:33:40.
