data_PCOD9095086
_publ_section_title
;
Structure prediction by ZEFSAII (Michael W. Deem and Ramdas Pophale) SiO2 
 PCOD9095086
Probable space group: P -1
;
_chemical_formula_sum "Si O2"
_cell_formula_units_Z 16
_cell_length_a 17.452715
_cell_length_b 8.108633
_cell_length_c 7.636366
_cell_angle_alpha 124.055823
_cell_angle_beta 52.788171
_cell_angle_gamma 116.286127
_cell_volume 704.104489
_symmetry_space_group_name_H-M "P -1"
_symmetry_group_IT_number 2
_symmetry_cell_setting 'triclinic'
loop_
_space_group_symop_operation_xyz
x,y,z
-x,-y,-z
loop_
_atom_site_type_symbol
_atom_site_label
_atom_site_fract_x
_atom_site_fract_y
_atom_site_fract_z
Si Si1 0.147639 0.620017 0.732322
Si Si2 0.512268 0.299898 0.050831
Si Si3 0.346299 0.539845 0.526823
Si Si4 0.661663 0.642532 0.177644
Si Si5 0.503854 0.112857 0.342358
Si Si6 0.975860 0.332895 0.734048
Si Si7 0.149119 0.078517 0.928687
Si Si8 0.941654 0.995797 0.347406
O O1 0.245952 0.529781 0.557057
O O2 0.172685 0.855488 0.796416
O O3 0.058685 0.515186 0.670458
O O4 0.096192 0.599981 0.983122
O O5 0.421683 0.420986 0.252452
O O6 0.609835 0.462581 0.020997
O O7 0.509070 0.198009 0.187213
O O8 0.505335 0.126228 0.812462
O O9 0.329792 0.444340 0.688448
O O10 0.400868 0.768278 0.622862
O O11 0.589057 0.807510 0.397360
O O12 0.765209 0.749750 0.030985
O O13 0.038776 0.178663 0.651073
O O14 0.912981 0.190493 0.597084
O O15 0.130414 0.094353 0.757451
O O16 0.046573 0.078966 0.165909
#
# Coordination Sequence:
#
# PCOD9095086 Si02
#       8
#     2   2   2   2   2   2   2   2
#     4  10  20  35  54  81 114 141 180 229 273 322
#     4   8  15  31  52  77 107 142 183 228 265 316
#     4   9  17  32  54  79 107 145 183 227 265 317
#     4   9  17  32  54  78 111 143 179 226 275 320
#     4   8  15  31  52  78 106 138 189 226 261 320
#     4   9  19  38  58  77 105 144 190 225 260 329
#     4  10  20  35  54  81 117 143 171 230 283 323
#     4   9  19  38  58  77 106 147 185 221 274 326
#
# _framework density 22.723897000000001
#
# number of rings (size 3 to 8) (size 9 to 14) (size 15 to 20)
#    0.000    3.000    0.000    2.250    0.000    1.500 
#   18.000    2.500    0.000    1.500    0.000    0.000 
#    0.000    0.000    0.000    0.000    0.000    0.000 
#
# Total GULP energy -89402.144387 kJ/mol
# GULP energy per Si atom -5587.634024 kJ/mol
# Density = 2.267218 g / cm^3
# Si number density = 22.723897 Si / 1000 Ang^3
#
#
#
# Elastic Constant Matrix: (Units=GPa)
#
#
# Indices 1 2 3 4 5 6 
#
# 1 48.0080 36.3030 11.1981 -4.3625 -12.1723 5.4912
# 2 36.3030 114.6218 31.8957 18.2799 -1.5085 27.6094
# 3 11.1981 31.8957 39.5949 25.7304 2.8962 10.0818
# 4 -4.3625 18.2799 25.7304 31.3067 1.2082 7.3141
# 5 -12.1723 -1.5085 2.8962 1.2082 23.9456 -9.3664
# 6 5.4912 27.6094 10.0818 7.3141 -9.3664 33.4975
#
#
#
# Elastic Compliance Matrix: (Units=1/GPa)
#
#
# Indices 1 2 3 4 5 6 
#
# 1 0.051262 -0.016749 -0.032751 0.038793 0.033305 0.016100
# 2 -0.016749 0.018670 0.000755 -0.010068 -0.012458 -0.014155
# 3 -0.032751 0.000755 0.085703 -0.071177 -0.028664 -0.013521
# 4 0.038793 -0.010068 -0.071177 0.098560 0.026320 0.009200
# 5 0.033305 -0.012458 -0.028664 0.026320 0.070796 0.027484
# 6 0.016100 -0.014155 -0.013521 0.009200 0.027484 0.048626
#
#
# Mechanical properties :
#
#
# Convention : Reuss Voigt Hill
#
# Bulk Modulus (GPa) = 17.19781 40.11318 28.65550
# Shear Modulus (GPa) = 10.19393 25.93848 18.06621
#
# Velocity S-wave (km/s) = 2.12031 3.38222 2.82269
# Velocity P-wave (km/s) = 3.68496 5.73962 4.82298
#
# Compressibility (1/GPa) = 0.05814693
#
# Stress axis : x y z
#
# Youngs Moduli (GPa) = 19.50760 53.56133 11.66822
#
# Poissons Ratio (x) = 0.89709 0.38214
# Poissons Ratio (y) = 0.32673 -0.00881
# Poissons Ratio (z) = 0.63889 -0.04045
#
# Static dielectric constant tensor:
#      x y z
#    x 1.827400 -0.017410 0.039810 
#    y -0.017410 1.875020 0.014490 
#    z 0.039810 0.014490 1.832110 
# 
# From -- ./inp_files/328519.got.cif
#   From: 2010.05.17/outbox.cif.g08.bks.cpg/sg2_165_cif.got.tgz:328519.got - 2010.06.03 11:33:40.
