data_PCOD9095912
_publ_section_title
;
Structure prediction by ZEFSAII (Michael W. Deem and Ramdas Pophale) SiO2 
 PCOD9095912
Probable space group: P -1
;
_chemical_formula_sum "Si O2"
_cell_formula_units_Z 16
_cell_length_a 14.619769
_cell_length_b 11.303900
_cell_length_c 19.091388
_cell_angle_alpha 145.393780
_cell_angle_beta 25.455933
_cell_angle_gamma 140.896791
_cell_volume 763.167587
_symmetry_space_group_name_H-M "P -1"
_symmetry_group_IT_number 2
_symmetry_cell_setting 'triclinic'
loop_
_space_group_symop_operation_xyz
x,y,z
-x,-y,-z
loop_
_atom_site_type_symbol
_atom_site_label
_atom_site_fract_x
_atom_site_fract_y
_atom_site_fract_z
Si Si1 0.144565 0.720288 0.605427
Si Si2 0.205502 0.258889 0.310069
Si Si3 0.369182 0.271262 0.900892
Si Si4 0.260274 0.962196 0.519677
Si Si5 0.893703 0.333508 0.237776
Si Si6 0.509641 0.747991 0.606178
Si Si7 0.352586 0.284424 0.074604
Si Si8 0.188991 0.188773 0.447568
O O1 0.235244 0.514146 0.412281
O O2 0.206069 0.936579 0.626485
O O3 0.199786 0.743057 0.659269
O O4 0.887804 0.656128 0.742958
O O5 0.330161 0.185698 0.120036
O O6 0.259220 0.197531 0.321936
O O7 0.953791 0.166571 0.429401
O O8 0.532041 0.154721 0.688482
O O9 0.466455 0.515966 0.951412
O O10 0.127281 0.261979 0.037421
O O11 0.387777 0.187200 0.926888
O O12 0.328576 0.171252 0.529995
O O13 0.732749 0.235173 0.241766
O O14 0.895123 0.587476 0.366019
O O15 0.500000 0.500000 0.500000
O O16 0.615647 0.839098 0.649155
O O17 0.000000 0.000000 0.500000
#
# Coordination Sequence:
#
# PCOD9095912 Si02
#       8
#     2   2   2   2   2   2   2   2
#     4   9  16  30  50  86 110 131 174 224 280 308
#     4  10  16  30  52  88 108 129 180 236 262 305
#     4  10  18  29  51  84 115 144 160 211 292 339
#     4  11  18  30  58  82 109 137 176 219 277 330
#     4   9  21  35  52  80 117 138 174 225 269 323
#     4  10  22  38  52  79 105 147 187 225 249 311
#     4   9  16  26  47  82 121 132 160 218 282 317
#     4  10  19  34  59  80  97 144 196 226 251 300
#
# _framework density 20.965250000000001
#
# number of rings (size 3 to 8) (size 9 to 14) (size 15 to 20)
#    0.000    2.250    3.750    0.750    1.750    1.000 
#    0.000    0.000    0.000    3.750    0.000    0.000 
#    0.000    0.000    0.000    0.000    0.000    0.000 
#
# Total GULP energy -89150.979181 kJ/mol
# GULP energy per Si atom -5571.936199 kJ/mol
# Density = 2.091753 g / cm^3
# Si number density = 20.965250 Si / 1000 Ang^3
#
#
#
# Elastic Constant Matrix: (Units=GPa)
#
#
# Indices 1 2 3 4 5 6 
#
# 1 158.5803 47.0489 32.7672 -17.3110 -3.6307 -0.1920
# 2 47.0489 117.4616 15.3867 -21.5498 5.5360 -10.2738
# 3 32.7672 15.3867 43.8026 -18.3637 -3.8259 2.0533
# 4 -17.3110 -21.5498 -18.3637 21.6773 -6.0011 6.5941
# 5 -3.6307 5.5360 -3.8259 -6.0011 19.7394 -7.1203
# 6 -0.1920 -10.2738 2.0533 6.5941 -7.1203 34.0280
#
#
#
# Elastic Compliance Matrix: (Units=1/GPa)
#
#
# Indices 1 2 3 4 5 6 
#
# 1 0.008175 -0.002695 -0.005087 -0.000072 0.001179 -0.000200
# 2 -0.002695 0.011383 0.002792 0.011369 0.000744 0.001206
# 3 -0.005087 0.002792 0.046716 0.045569 0.018692 -0.006924
# 4 -0.000072 0.011369 0.045569 0.109491 0.034083 -0.013404
# 5 0.001179 0.000744 0.018692 0.034083 0.067005 0.006519
# 6 -0.000200 0.001206 -0.006924 -0.013404 0.006519 0.034130
#
#
# Mechanical properties :
#
#
# Convention : Reuss Voigt Hill
#
# Bulk Modulus (GPa) = 17.76372 56.69444 37.22908
# Shear Modulus (GPa) = 16.35885 30.06503 23.21194
#
# Velocity S-wave (km/s) = 2.79639 3.79098 3.33102
# Velocity P-wave (km/s) = 4.34945 6.80168 5.70879
#
# Compressibility (1/GPa) = 0.05629453
#
# Stress axis : x y z
#
# Youngs Moduli (GPa) = 122.31793 87.84933 21.40599
#
# Poissons Ratio (x) = 0.23672 0.10890
# Poissons Ratio (y) = 0.32959 -0.05976
# Poissons Ratio (z) = 0.62225 -0.24525
#
# Static dielectric constant tensor:
#      x y z
#    x 1.820650 -0.022800 0.040840 
#    y -0.022800 1.796920 0.031750 
#    z 0.040840 0.031750 1.762400 
# 
# From -- ./inp_files/599947.got.cif
#   From: 2010.05.17/outbox.cif.g08.bks.cpg/sg2_300_cif.got.tgz:599947.got - 2010.06.03 11:33:40.
