data_PCOD9095935
_publ_section_title
;
Structure prediction by ZEFSAII (Michael W. Deem and Ramdas Pophale) SiO2 
 PCOD9095935
Probable space group: P -1
;
_chemical_formula_sum "Si O2"
_cell_formula_units_Z 14
_cell_length_a 7.542998
_cell_length_b 9.235797
_cell_length_c 7.951510
_cell_angle_alpha 74.694498
_cell_angle_beta 100.566548
_cell_angle_gamma 94.354391
_cell_volume 525.017746
_symmetry_space_group_name_H-M "P -1"
_symmetry_group_IT_number 2
_symmetry_cell_setting 'triclinic'
loop_
_space_group_symop_operation_xyz
x,y,z
-x,-y,-z
loop_
_atom_site_type_symbol
_atom_site_label
_atom_site_fract_x
_atom_site_fract_y
_atom_site_fract_z
Si Si1 0.430246 0.384325 0.884761
Si Si2 0.701485 0.936164 0.947122
Si Si3 0.127036 0.857228 0.550611
Si Si4 0.214513 0.535282 0.228294
Si Si5 0.851916 0.659551 0.410290
Si Si6 0.620288 0.942555 0.306619
Si Si7 0.019192 0.265885 0.098405
O O1 0.576746 0.415796 0.754609
O O2 0.233170 0.396483 0.762652
O O3 0.500000 0.500000 0.000000
O O4 0.424975 0.216187 0.008429
O O5 0.587887 0.050040 0.783329
O O6 0.878144 0.879299 0.904179
O O7 0.720724 0.982367 0.131332
O O8 0.324109 0.932863 0.583474
O O9 0.039277 0.756535 0.419234
O O10 0.091120 0.761104 0.742054
O O11 0.000000 0.000000 0.500000
O O12 0.151285 0.473321 0.415668
O O13 0.167677 0.394161 0.138566
O O14 0.107949 0.669833 0.085475
O O15 0.704852 0.782524 0.411718
#
# Coordination Sequence:
#
# PCOD9095935 Si02
#       7
#     2   2   2   2   2   2   2
#     4  11  20  36  62  88 121 157 199 249 305 363
#     4  10  20  36  60  92 114 155 207 246 293 362
#     4   9  18  37  59  83 119 161 196 248 303 352
#     4  10  20  37  59  86 123 160 196 246 298 360
#     4   9  20  37  61  86 121 157 199 245 305 354
#     4   9  19  37  62  84 121 156 197 251 301 348
#     4  10  20  35  61  85 120 160 203 240 299 365
#
# _framework density 26.665766999999999
#
# number of rings (size 3 to 8) (size 9 to 14) (size 15 to 20)
#    0.000    2.286    1.429    1.286    0.000    0.571 
#    0.000    9.286    9.429    0.000    0.000    0.000 
#    0.000    0.000    0.000    0.000    0.000    0.000 
#
# Total GULP energy -78349.853969 kJ/mol
# GULP energy per Si atom -5596.418141 kJ/mol
# Density = 2.660507 g / cm^3
# Si number density = 26.665767 Si / 1000 Ang^3
#
#
#
# Elastic Constant Matrix: (Units=GPa)
#
#
# Indices 1 2 3 4 5 6 
#
# 1 59.3877 25.1619 16.3749 10.2501 8.3740 13.8931
# 2 25.1619 134.5388 46.6119 28.6713 21.1799 17.5854
# 3 16.3749 46.6119 130.4738 12.4769 18.3283 0.4474
# 4 10.2501 28.6713 12.4769 50.3950 2.2734 12.4220
# 5 8.3740 21.1799 18.3283 2.2734 43.8247 -2.1127
# 6 13.8931 17.5854 0.4474 12.4220 -2.1127 50.9910
#
#
#
# Elastic Compliance Matrix: (Units=1/GPa)
#
#
# Indices 1 2 3 4 5 6 
#
# 1 0.019638 -0.001988 -0.001273 -0.001349 -0.002403 -0.004425
# 2 -0.001988 0.010418 -0.002577 -0.004199 -0.003463 -0.002149
# 3 -0.001273 -0.002577 0.009124 -0.000740 -0.002229 0.001243
# 4 -0.001349 -0.004199 -0.000740 0.023592 0.001186 -0.003876
# 5 -0.002403 -0.003463 -0.002229 0.001186 0.025950 0.002655
# 6 -0.004425 -0.002149 0.001243 -0.003876 0.002655 0.022601
#
#
# Mechanical properties :
#
#
# Convention : Reuss Voigt Hill
#
# Bulk Modulus (GPa) = 36.35571 55.63308 45.99439
# Shear Modulus (GPa) = 37.83062 44.79225 41.31143
#
# Velocity S-wave (km/s) = 3.77064 4.10294 3.94030
# Velocity P-wave (km/s) = 5.71143 6.58437 6.16337
#
# Compressibility (1/GPa) = 0.02750600
#
# Stress axis : x y z
#
# Youngs Moduli (GPa) = 50.92045 95.98410 109.59620
#
# Poissons Ratio (x) = 0.19078 0.13950
# Poissons Ratio (y) = 0.10121 0.28244
# Poissons Ratio (z) = 0.06481 0.24736
#
# Static dielectric constant tensor:
#      x y z
#    x 2.121940 -0.059310 -0.032550 
#    y -0.059310 2.104010 0.039980 
#    z -0.032550 0.039980 2.065550 
# 
# From -- ./inp_files/157668.got.cif
#   From: 2010.05.17/outbox.cif.g08.bks.cpg/sg2_79_cif.got.tgz:157668.got - 2010.06.03 11:33:40.
