data_PCOD9095836
_publ_section_title
;
Structure prediction by ZEFSAII (Michael W. Deem and Ramdas Pophale) SiO2 
 PCOD9095836
Probable space group: P -1
;
_chemical_formula_sum "Si O2"
_cell_formula_units_Z 16
_cell_length_a 6.880951
_cell_length_b 14.164298
_cell_length_c 7.202078
_cell_angle_alpha 88.864037
_cell_angle_beta 106.334762
_cell_angle_gamma 109.788709
_cell_volume 631.616749
_symmetry_space_group_name_H-M "P -1"
_symmetry_group_IT_number 2
_symmetry_cell_setting 'triclinic'
loop_
_space_group_symop_operation_xyz
x,y,z
-x,-y,-z
loop_
_atom_site_type_symbol
_atom_site_label
_atom_site_fract_x
_atom_site_fract_y
_atom_site_fract_z
Si Si1 0.123513 0.137580 0.032802
Si Si2 0.181350 0.974329 0.322934
Si Si3 0.453023 0.124480 0.648803
Si Si4 0.166305 0.685448 0.701715
Si Si5 0.650506 0.116569 0.059863
Si Si6 0.745994 0.454834 0.976452
Si Si7 0.604083 0.342067 0.561490
Si Si8 0.282865 0.358467 0.195773
O O1 0.255572 0.253336 0.093407
O O2 0.218147 0.064379 0.176326
O O3 0.051503 0.101413 0.803728
O O4 0.888582 0.121741 0.062180
O O5 0.350456 0.915462 0.352380
O O6 0.241907 0.031642 0.533416
O O7 0.525742 0.160719 0.875179
O O8 0.460318 0.224355 0.542634
O O9 0.181188 0.656039 0.493024
O O10 0.933457 0.661575 0.735228
O O11 0.296716 0.805395 0.758667
O O12 0.274015 0.618463 0.853096
O O13 0.500000 0.000000 0.000000
O O14 0.643878 0.391510 0.769232
O O15 0.690305 0.556461 0.953769
O O16 0.000000 0.500000 0.000000
O O17 0.474620 0.390804 0.392968
#
# Coordination Sequence:
#
# PCOD9095836 Si02
#       8
#     2   2   2   2   2   2   2   2
#     4   9  18  35  57  87 125 162 207 259 311 369
#     4   9  18  31  56  85 117 156 211 241 303 382
#     4  10  20  35  60  88 124 167 208 251 319 374
#     4  10  24  42  65  97 126 169 219 257 322 387
#     4  10  21  37  58  85 131 170 207 263 314 372
#     4  10  23  45  69  93 130 168 211 272 321 373
#     4  12  23  42  71  92 129 171 209 269 323 374
#     4  10  22  42  65  94 131 166 214 271 315 375
#
# _framework density 25.331817999999998
#
# number of rings (size 3 to 8) (size 9 to 14) (size 15 to 20)
#    0.000    2.000    2.500    0.375    7.000    2.500 
#    0.000    4.375    0.000    0.000    0.000    0.000 
#    0.000    0.000    0.000    0.000    0.000    0.000 
#
# Total GULP energy -89373.685058 kJ/mol
# GULP energy per Si atom -5585.855316 kJ/mol
# Density = 2.527416 g / cm^3
# Si number density = 25.331818 Si / 1000 Ang^3
#
#
#
# Elastic Constant Matrix: (Units=GPa)
#
#
# Indices 1 2 3 4 5 6 
#
# 1 75.5898 17.4965 -1.1538 2.4762 10.8691 2.0426
# 2 17.4965 121.9738 3.5812 7.7936 1.4946 -13.3727
# 3 -1.1538 3.5812 75.9151 14.6197 -0.8512 -13.6828
# 4 2.4762 7.7936 14.6197 36.4899 -6.7169 3.3084
# 5 10.8691 1.4946 -0.8512 -6.7169 36.8671 1.9853
# 6 2.0426 -13.3727 -13.6828 3.3084 1.9853 36.5096
#
#
#
# Elastic Compliance Matrix: (Units=1/GPa)
#
#
# Indices 1 2 3 4 5 6 
#
# 1 0.014409 -0.002053 0.000340 -0.001380 -0.004351 -0.001069
# 2 -0.002053 0.009073 0.000739 -0.002532 -0.000420 0.003967
# 3 0.000340 0.000739 0.015803 -0.007414 -0.001489 0.006927
# 4 -0.001380 -0.002532 -0.007414 0.032876 0.006703 -0.006972
# 5 -0.004351 -0.000420 -0.001489 0.006703 0.029756 -0.002694
# 6 -0.001069 0.003967 0.006927 -0.006972 -0.002694 0.032277
#
#
# Mechanical properties :
#
#
# Convention : Reuss Voigt Hill
#
# Bulk Modulus (GPa) = 26.78301 34.81407 30.79854
# Shear Modulus (GPa) = 33.65012 38.87696 36.26354
#
# Velocity S-wave (km/s) = 3.64864 3.92179 3.78768
# Velocity P-wave (km/s) = 5.32409 5.85493 5.59581
#
# Compressibility (1/GPa) = 0.03733710
#
# Stress axis : x y z
#
# Youngs Moduli (GPa) = 69.39963 110.21597 63.28088
#
# Poissons Ratio (x) = 0.22624 -0.02152
# Poissons Ratio (y) = 0.14245 -0.04674
# Poissons Ratio (z) = -0.02360 -0.08141
#
# Static dielectric constant tensor:
#      x y z
#    x 2.112300 0.050160 -0.095820 
#    y 0.050160 2.035640 -0.052170 
#    z -0.095820 -0.052170 2.065870 
# 
# From -- ./inp_files/202168.got.cif
#   From: 2010.05.17/outbox.cif.g08.bks.cpg/sg2_102_cif.got.tgz:202168.got - 2010.06.03 11:33:40.
