data_PCOD9095868
_publ_section_title
;
Structure prediction by ZEFSAII (Michael W. Deem and Ramdas Pophale) SiO2 
 PCOD9095868
Probable space group: P -1
;
_chemical_formula_sum "Si O2"
_cell_formula_units_Z 14
_cell_length_a 9.479552
_cell_length_b 8.496537
_cell_length_c 12.195755
_cell_angle_alpha 119.205650
_cell_angle_beta 136.950685
_cell_angle_gamma 80.086863
_cell_volume 556.553999
_symmetry_space_group_name_H-M "P -1"
_symmetry_group_IT_number 2
_symmetry_cell_setting 'triclinic'
loop_
_space_group_symop_operation_xyz
x,y,z
-x,-y,-z
loop_
_atom_site_type_symbol
_atom_site_label
_atom_site_fract_x
_atom_site_fract_y
_atom_site_fract_z
Si Si1 0.778681 0.331680 0.222389
Si Si2 0.404223 0.426539 0.303452
Si Si3 0.693034 0.937812 0.983344
Si Si4 0.972479 0.133158 0.683663
Si Si5 0.065761 0.759675 0.933163
Si Si6 0.351790 0.790969 0.312756
Si Si7 0.879668 0.728106 0.428112
O O1 0.926407 0.375625 0.210890
O O2 0.708075 0.517664 0.260033
O O3 0.926626 0.297863 0.393874
O O4 0.617112 0.122169 0.031486
O O5 0.500000 0.500000 0.500000
O O6 0.444376 0.616395 0.321356
O O7 0.150097 0.328697 0.151190
O O8 0.468444 0.250985 0.226645
O O9 0.817412 0.873328 0.130466
O O10 0.884000 0.044110 0.040135
O O11 0.844716 0.241557 0.721421
O O12 0.039935 0.214959 0.629921
O O13 0.829317 0.911496 0.510167
O O14 0.261548 0.789004 0.138915
O O15 0.500000 0.000000 0.500000
#
# Coordination Sequence:
#
# PCOD9095868 Si02
#       7
#     2   2   2   2   2   2   2
#     4   8  18  32  61  88 117 156 206 250 306 352
#     4  12  24  36  58  91 126 166 197 249 315 371
#     4   9  20  33  59  85 125 159 196 249 308 363
#     4  10  20  35  60  90 126 158 208 247 306 359
#     4  10  21  40  61  90 129 153 205 252 313 370
#     4  12  26  39  61  93 129 160 205 254 312 369
#     4   9  17  34  58  96 113 161 211 249 293 374
#
# _framework density 25.154795
#
# number of rings (size 3 to 8) (size 9 to 14) (size 15 to 20)
#    0.857    1.143    1.429    2.571    4.000    0.000 
#    0.000    0.000    0.000    1.714   18.571    0.000 
#    0.000    0.000    0.000    0.000    0.000    0.000 
#
# Total GULP energy -78179.833900 kJ/mol
# GULP energy per Si atom -5584.273850 kJ/mol
# Density = 2.509754 g / cm^3
# Si number density = 25.154795 Si / 1000 Ang^3
#
#
#
# Elastic Constant Matrix: (Units=GPa)
#
#
# Indices 1 2 3 4 5 6 
#
# 1 77.1644 33.0966 11.8277 0.6526 -22.3953 5.8129
# 2 33.0966 145.6375 86.1036 34.9118 -28.4312 4.9618
# 3 11.8277 86.1036 144.9378 7.6636 -31.1060 2.1659
# 4 0.6526 34.9118 7.6636 70.5224 6.4368 -19.8851
# 5 -22.3953 -28.4312 -31.1060 6.4368 37.3812 6.6822
# 6 5.8129 4.9618 2.1659 -19.8851 6.6822 34.7020
#
#
#
# Elastic Compliance Matrix: (Units=1/GPa)
#
#
# Indices 1 2 3 4 5 6 
#
# 1 0.017834 -0.002606 0.003054 -0.002219 0.012795 -0.006541
# 2 -0.002606 0.015850 -0.006749 -0.010363 0.008260 -0.008937
# 3 0.003054 -0.006749 0.012052 0.001125 0.006700 -0.000944
# 4 -0.002219 -0.010363 0.001125 0.026356 -0.016396 0.020043
# 5 0.012795 0.008260 0.006700 -0.016396 0.053281 -0.023397
# 6 -0.006541 -0.008937 -0.000944 0.020043 -0.023397 0.047240
#
#
# Mechanical properties :
#
#
# Convention : Reuss Voigt Hill
#
# Bulk Modulus (GPa) = 30.18058 69.97731 50.07894
# Shear Modulus (GPa) = 25.47653 44.30189 34.88921
#
# Velocity S-wave (km/s) = 3.18589 4.20118 3.72826
# Velocity P-wave (km/s) = 5.05541 7.17024 6.20361
#
# Compressibility (1/GPa) = 0.03313389
#
# Stress axis : x y z
#
# Youngs Moduli (GPa) = 56.07343 63.09249 82.97100
#
# Poissons Ratio (x) = 0.16439 -0.25336
# Poissons Ratio (y) = 0.14610 0.55998
# Poissons Ratio (z) = -0.17123 0.42582
#
# Static dielectric constant tensor:
#      x y z
#    x 2.886180 0.391890 0.355150 
#    y 0.391890 2.168870 0.299240 
#    z 0.355150 0.299240 2.239110 
# 
# From -- ./inp_files/419832.got.cif
#   From: 2010.05.17/outbox.cif.g08.bks.cpg/sg2_210_cif.got.tgz:419832.got - 2010.06.03 11:33:40.
