data_PCOD9095438
_publ_section_title
;
Structure prediction by ZEFSAII (Michael W. Deem and Ramdas Pophale) SiO2 
 PCOD9095438
Probable space group: P -1
;
_chemical_formula_sum "Si O2"
_cell_formula_units_Z 16
_cell_length_a 24.847123
_cell_length_b 16.478168
_cell_length_c 6.356886
_cell_angle_alpha 91.005598
_cell_angle_beta 78.600925
_cell_angle_gamma 158.785758
_cell_volume 814.937625
_symmetry_space_group_name_H-M "P -1"
_symmetry_group_IT_number 2
_symmetry_cell_setting 'triclinic'
loop_
_space_group_symop_operation_xyz
x,y,z
-x,-y,-z
loop_
_atom_site_type_symbol
_atom_site_label
_atom_site_fract_x
_atom_site_fract_y
_atom_site_fract_z
Si Si1 0.762322 0.369871 0.879804
Si Si2 0.525946 0.100719 0.671941
Si Si3 0.368194 0.296621 0.779242
Si Si4 0.232304 0.478264 0.775821
Si Si5 0.982002 0.103167 0.604949
Si Si6 0.222231 0.343567 0.127893
Si Si7 0.849506 0.062866 0.435021
Si Si8 0.525097 0.661750 0.919596
O O1 0.665294 0.260219 0.736475
O O2 0.962511 0.633592 0.696448
O O3 0.753393 0.433711 0.050824
O O4 0.649975 0.142563 0.070067
O O5 0.604253 0.286828 0.495574
O O6 0.500000 0.000000 0.500000
O O7 0.500000 0.500000 0.500000
O O8 0.390090 0.408662 0.905643
O O9 0.201767 0.037017 0.764736
O O10 0.424413 0.304040 0.892447
O O11 0.069129 0.266204 0.745524
O O12 0.208717 0.359387 0.903660
O O13 0.136362 0.289751 0.342811
O O14 0.868454 0.007638 0.558527
O O15 0.885567 0.887611 0.744873
O O16 0.421134 0.599320 0.019501
O O17 0.695044 0.897713 0.652716
#
# Coordination Sequence:
#
# PCOD9095438 Si02
#       8
#     2   2   2   2   2   2   2   2
#     4  10  20  35  57  89 110 139 185 238 287 336
#     4   9  19  35  58  85 114 138 178 238 295 333
#     4   9  19  35  52  73 106 151 193 234 266 315
#     4  11  20  36  57  80 114 148 182 233 285 332
#     4  11  23  35  53  82 114 151 191 233 272 330
#     4  11  23  35  50  80 117 155 191 222 272 338
#     4  11  21  35  57  81 111 144 192 235 276 327
#     4  10  22  35  52  75 112 154 193 226 274 327
#
# _framework density 19.633406000000001
#
# number of rings (size 3 to 8) (size 9 to 14) (size 15 to 20)
#    0.000    1.750    2.500    2.625    3.500    4.000 
#    0.000    0.000    0.000    0.750    0.000   13.125 
#    0.000    0.000    0.000    0.000    0.000    0.000 
#
# Total GULP energy -89194.597622 kJ/mol
# GULP energy per Si atom -5574.662351 kJ/mol
# Density = 1.958872 g / cm^3
# Si number density = 19.633406 Si / 1000 Ang^3
#
#
#
# Elastic Constant Matrix: (Units=GPa)
#
#
# Indices 1 2 3 4 5 6 
#
# 1 37.5319 3.2592 38.5213 -6.6102 0.5912 15.9708
# 2 3.2592 98.2312 45.7886 9.7292 -1.7639 19.4969
# 3 38.5213 45.7886 139.1029 -20.0828 11.3030 14.6435
# 4 -6.6102 9.7292 -20.0828 48.1323 10.5179 4.5677
# 5 0.5912 -1.7639 11.3030 10.5179 30.5770 -5.2355
# 6 15.9708 19.4969 14.6435 4.5677 -5.2355 21.2166
#
#
#
# Elastic Compliance Matrix: (Units=1/GPa)
#
#
# Indices 1 2 3 4 5 6 
#
# 1 0.067951 0.016272 -0.016849 0.005728 -0.005905 -0.057165
# 2 0.016272 0.018532 -0.008906 -0.003457 0.001464 -0.022027
# 3 -0.016849 -0.008906 0.015662 0.006952 -0.007208 0.006782
# 4 0.005728 -0.003457 0.006952 0.030236 -0.016091 -0.016414
# 5 -0.005905 0.001464 -0.007208 -0.016091 0.044978 0.022638
# 6 -0.057165 -0.022027 0.006782 -0.016414 0.022638 0.114844
#
#
# Mechanical properties :
#
#
# Convention : Reuss Voigt Hill
#
# Bulk Modulus (GPa) = 12.02216 50.00049 31.01133
# Shear Modulus (GPa) = 14.75378 32.47162 23.61270
#
# Velocity S-wave (km/s) = 2.74426 4.07122 3.47173
# Velocity P-wave (km/s) = 4.02217 6.90088 5.64801
#
# Compressibility (1/GPa) = 0.08317969
#
# Stress axis : x y z
#
# Youngs Moduli (GPa) = 14.71639 53.96119 63.84944
#
# Poissons Ratio (x) = -0.87807 1.07582
# Poissons Ratio (y) = -0.23947 0.56861
# Poissons Ratio (z) = 0.24796 0.48055
#
# Static dielectric constant tensor:
#      x y z
#    x 1.670690 -0.007660 -0.006790 
#    y -0.007660 1.736590 -0.038590 
#    z -0.006790 -0.038590 1.739520 
# 
# From -- ./inp_files/127506.got.cif
#   From: 2010.05.17/outbox.cif.g08.bks.cpg/sg2_64_cif.got.tgz:127506.got - 2010.06.03 11:33:40.
