data_PCOD9095844
_publ_section_title
;
Structure prediction by ZEFSAII (Michael W. Deem and Ramdas Pophale) SiO2 
 PCOD9095844
Probable space group: P -1
;
_chemical_formula_sum "Si O2"
_cell_formula_units_Z 14
_cell_length_a 10.010616
_cell_length_b 18.602258
_cell_length_c 12.314840
_cell_angle_alpha 36.004573
_cell_angle_beta 34.683400
_cell_angle_gamma 34.891606
_cell_volume 679.786051
_symmetry_space_group_name_H-M "P -1"
_symmetry_group_IT_number 2
_symmetry_cell_setting 'triclinic'
loop_
_space_group_symop_operation_xyz
x,y,z
-x,-y,-z
loop_
_atom_site_type_symbol
_atom_site_label
_atom_site_fract_x
_atom_site_fract_y
_atom_site_fract_z
Si Si1 0.125720 0.365201 0.917337
Si Si2 0.841109 0.198494 0.789487
Si Si3 0.671103 0.336355 0.507572
Si Si4 0.673470 0.957144 0.202598
Si Si5 0.062798 0.043016 0.520806
Si Si6 0.204804 0.116288 0.020262
Si Si7 0.666672 0.586112 0.068329
O O1 0.367460 0.370056 0.686257
O O2 0.219735 0.340310 0.012040
O O3 0.105762 0.241814 0.018676
O O4 0.856270 0.508452 0.935950
O O5 0.800740 0.289357 0.597768
O O6 0.632758 0.302447 0.889610
O O7 0.137813 0.125011 0.723971
O O8 0.745545 0.081701 0.976584
O O9 0.669828 0.464672 0.290606
O O10 0.844899 0.199882 0.490610
O O11 0.363291 0.015422 0.361173
O O12 0.753928 0.858507 0.163423
O O13 0.000000 0.000000 0.500000
O O14 0.995245 0.949436 0.762191
O O15 0.500000 0.000000 0.000000
#
# Coordination Sequence:
#
# PCOD9095844 Si02
#       7
#     2   2   2   2   2   2   2
#     4  10  20  35  60  89 119 152 200 248 298 345
#     4  10  22  44  59  85 131 158 198 254 295 363
#     4  11  21  37  61  92 118 155 204 249 296 349
#     4  11  24  41  60  90 124 161 199 249 308 352
#     4  12  23  34  64  95 119 156 201 254 301 356
#     4  12  20  39  59  89 123 153 201 251 299 352
#     4  10  22  37  62  91 116 159 205 245 297 351
#
# _framework density 20.594714
#
# number of rings (size 3 to 8) (size 9 to 14) (size 15 to 20)
#    0.000    1.143    4.286    3.429    6.000    0.571 
#    0.000    0.714    0.000   10.286    0.000    0.000 
#    0.000    0.000    0.000    0.000    0.000    0.000 
#
# Total GULP energy -78119.860663 kJ/mol
# GULP energy per Si atom -5579.990047 kJ/mol
# Density = 2.054784 g / cm^3
# Si number density = 20.594714 Si / 1000 Ang^3
#
#
#
# Elastic Constant Matrix: (Units=GPa)
#
#
# Indices 1 2 3 4 5 6 
#
# 1 61.9174 54.6625 33.7915 8.8352 -14.7698 2.4433
# 2 54.6625 174.8633 38.2753 23.9083 -10.1030 26.4179
# 3 33.7915 38.2753 94.7506 13.9871 -14.3916 -2.1125
# 4 8.8352 23.9083 13.9871 35.3002 -0.8870 -3.7573
# 5 -14.7698 -10.1030 -14.3916 -0.8870 23.5487 3.7547
# 6 2.4433 26.4179 -2.1125 -3.7573 3.7547 36.6385
#
#
#
# Elastic Compliance Matrix: (Units=1/GPa)
#
#
# Indices 1 2 3 4 5 6 
#
# 1 0.027991 -0.007334 -0.005424 0.000601 0.010788 0.002065
# 2 -0.007334 0.010053 -0.000774 -0.005448 0.000213 -0.007385
# 3 -0.005424 -0.000774 0.014026 -0.003465 0.004563 0.000906
# 4 0.000601 -0.005448 -0.003465 0.033947 -0.004008 0.007580
# 5 0.010788 0.000213 0.004563 -0.004008 0.052989 -0.006451
# 6 0.002065 -0.007385 0.000906 0.007580 -0.006451 0.033972
#
#
# Mechanical properties :
#
#
# Convention : Reuss Voigt Hill
#
# Bulk Modulus (GPa) = 39.98875 64.99887 52.49381
# Shear Modulus (GPa) = 23.99490 32.75094 28.37292
#
# Velocity S-wave (km/s) = 3.41706 3.99213 3.71574
# Velocity P-wave (km/s) = 5.91841 7.27179 6.62972
#
# Compressibility (1/GPa) = 0.02500703
#
# Stress axis : x y z
#
# Youngs Moduli (GPa) = 35.72517 99.46791 71.29697
#
# Poissons Ratio (x) = 0.72946 0.38674
# Poissons Ratio (y) = 0.26199 0.05518
# Poissons Ratio (z) = 0.19379 0.07698
#
# Static dielectric constant tensor:
#      x y z
#    x 1.766170 0.039260 -0.007150 
#    y 0.039260 1.785300 0.013000 
#    z -0.007150 0.013000 1.832170 
# 
# From -- ./inp_files/332580.got.cif
#   From: 2010.05.17/outbox.cif.g08.bks.cpg/sg2_167_cif.got.tgz:332580.got - 2010.06.03 11:33:40.
