data_PCOD9095128
_publ_section_title
;
Structure prediction by ZEFSAII (Michael W. Deem and Ramdas Pophale) SiO2 
 PCOD9095128
Probable space group: P -1
;
_chemical_formula_sum "Si O2"
_cell_formula_units_Z 16
_cell_length_a 9.803779
_cell_length_b 18.945903
_cell_length_c 6.146044
_cell_angle_alpha 98.570047
_cell_angle_beta 95.000178
_cell_angle_gamma 36.847022
_cell_volume 675.944598
_symmetry_space_group_name_H-M "P -1"
_symmetry_group_IT_number 2
_symmetry_cell_setting 'triclinic'
loop_
_space_group_symop_operation_xyz
x,y,z
-x,-y,-z
loop_
_atom_site_type_symbol
_atom_site_label
_atom_site_fract_x
_atom_site_fract_y
_atom_site_fract_z
Si Si1 0.039688 0.582999 0.684336
Si Si2 0.893174 0.331095 0.886524
Si Si3 0.888291 0.210244 0.167648
Si Si4 0.594353 0.557223 0.705868
Si Si5 0.326159 0.361094 0.867468
Si Si6 0.822533 0.138310 0.773838
Si Si7 0.285759 0.228957 0.624491
Si Si8 0.792728 0.986643 0.566632
O O1 0.243473 0.507906 0.506690
O O2 0.104690 0.482391 0.765993
O O3 0.055885 0.635786 0.894522
O O4 0.811501 0.689855 0.564230
O O5 0.886577 0.259369 0.974996
O O6 0.095275 0.255413 0.704772
O O7 0.664775 0.456192 0.799589
O O8 0.671980 0.327160 0.326534
O O9 0.843665 0.150557 0.034668
O O10 0.112480 0.110990 0.295836
O O11 0.650239 0.600750 0.895235
O O12 0.568521 0.271638 0.735255
O O13 0.310679 0.281860 0.833672
O O14 0.818582 0.055675 0.699364
O O15 0.033564 0.082403 0.643010
O O16 0.523908 0.092722 0.540497
#
# Coordination Sequence:
#
# PCOD9095128 Si02
#       8
#     2   2   2   2   2   2   2   2
#     4  10  20  35  55  80 109 144 180 217 268 318
#     4  10  23  37  52  80 112 145 182 215 260 323
#     4  11  21  37  59  79 109 145 175 220 273 316
#     4   9  20  36  57  84 107 134 179 230 272 312
#     4   9  18  35  59  83 107 136 176 226 276 317
#     4   9  20  38  59  85 107 130 177 233 273 311
#     4  10  22  37  52  79 115 144 178 221 260 315
#     4  10  21  37  59  83 106 138 181 222 267 322
#
# _framework density 23.670579
#
# number of rings (size 3 to 8) (size 9 to 14) (size 15 to 20)
#    0.000    2.250    0.000    1.875    0.000    9.500 
#    0.000    3.750    0.000    0.000    0.000    0.000 
#    0.000    0.000    0.000    0.000    0.000    0.000 
#
# Total GULP energy -89404.429246 kJ/mol
# GULP energy per Si atom -5587.776828 kJ/mol
# Density = 2.361670 g / cm^3
# Si number density = 23.670579 Si / 1000 Ang^3
#
#
#
# Elastic Constant Matrix: (Units=GPa)
#
#
# Indices 1 2 3 4 5 6 
#
# 1 30.5622 27.0992 5.2499 12.1008 -10.5187 -8.0742
# 2 27.0992 167.3198 44.2860 -1.4722 -1.4385 -36.3499
# 3 5.2499 44.2860 49.6371 10.0181 -2.0473 -1.4282
# 4 12.1008 -1.4722 10.0181 35.4188 0.3410 1.3757
# 5 -10.5187 -1.4385 -2.0473 0.3410 28.4315 6.1991
# 6 -8.0742 -36.3499 -1.4282 1.3757 6.1991 33.8559
#
#
#
# Elastic Compliance Matrix: (Units=1/GPa)
#
#
# Indices 1 2 3 4 5 6 
#
# 1 0.059130 -0.013158 0.011200 -0.024029 0.022909 -0.002771
# 2 -0.013158 0.014366 -0.013074 0.008368 -0.007986 0.012857
# 3 0.011200 -0.013074 0.033377 -0.013466 0.008436 -0.010956
# 4 -0.024029 0.008368 -0.013466 0.040586 -0.010571 0.002972
# 5 0.022909 -0.007986 0.008436 -0.010571 0.046335 -0.010810
# 6 -0.002771 0.012857 -0.010956 0.002972 -0.010810 0.044077
#
#
# Mechanical properties :
#
#
# Convention : Reuss Voigt Hill
#
# Bulk Modulus (GPa) = 13.01915 44.53215 28.77565
# Shear Modulus (GPa) = 17.03356 30.93350 23.98353
#
# Velocity S-wave (km/s) = 2.68546 3.61894 3.18657
# Velocity P-wave (km/s) = 3.88943 6.02631 5.07169
#
# Compressibility (1/GPa) = 0.07680991
#
# Stress axis : x y z
#
# Youngs Moduli (GPa) = 16.91189 69.60737 29.96080
#
# Poissons Ratio (x) = 0.91587 -0.33557
# Poissons Ratio (y) = 0.22252 0.39171
# Poissons Ratio (z) = -0.18942 0.91006
#
# Static dielectric constant tensor:
#      x y z
#    x 1.958460 0.020110 0.006460 
#    y 0.020110 1.901850 -0.014050 
#    z 0.006460 -0.014050 1.906680 
# 
# From -- ./inp_files/71415.got.cif
#   From: 2010.05.17/outbox.cif.g08.bks.cpg/sg2_36_cif.got.tgz:71415.got - 2010.06.03 11:33:40.
