data_PCOD9095540
_publ_section_title
;
Structure prediction by ZEFSAII (Michael W. Deem and Ramdas Pophale) SiO2 
 PCOD9095540
Probable space group: P -1
;
_chemical_formula_sum "Si O2"
_cell_formula_units_Z 16
_cell_length_a 16.729680
_cell_length_b 8.524242
_cell_length_c 13.234934
_cell_angle_alpha 131.886374
_cell_angle_beta 142.913238
_cell_angle_gamma 71.787113
_cell_volume 738.543736
_symmetry_space_group_name_H-M "P -1"
_symmetry_group_IT_number 2
_symmetry_cell_setting 'triclinic'
loop_
_space_group_symop_operation_xyz
x,y,z
-x,-y,-z
loop_
_atom_site_type_symbol
_atom_site_label
_atom_site_fract_x
_atom_site_fract_y
_atom_site_fract_z
Si Si1 0.383967 0.146506 0.682763
Si Si2 0.717530 0.489778 0.523729
Si Si3 0.892197 0.949430 0.750982
Si Si4 0.555123 0.656371 0.957555
Si Si5 0.511008 0.134833 0.465441
Si Si6 0.005584 0.509835 0.887099
Si Si7 0.756255 0.660254 0.999687
Si Si8 0.226246 0.131532 0.098289
O O1 0.213682 0.097790 0.473407
O O2 0.487108 0.387250 0.822866
O O3 0.400888 0.933595 0.557536
O O4 0.430213 0.185942 0.862237
O O5 0.803289 0.729090 0.642276
O O6 0.559900 0.338933 0.240776
O O7 0.708589 0.600973 0.670494
O O8 0.835880 0.392668 0.619548
O O9 0.918125 0.201915 0.932560
O O10 0.054347 0.982878 0.899320
O O11 0.712991 0.722810 0.090650
O O12 0.604712 0.415140 0.707943
O O13 0.343122 0.049807 0.219107
O O14 0.500000 0.000000 0.500000
O O15 0.106594 0.400081 0.897893
O O16 0.000000 0.500000 0.000000
O O17 0.778578 0.852450 0.019491
#
# Coordination Sequence:
#
# PCOD9095540 Si02
#       8
#     2   2   2   2   2   2   2   2
#     4  10  21  40  61  85 118 153 199 241 287 353
#     4  10  20  35  58  86 118 154 194 239 296 343
#     4  10  20  36  58  84 117 153 193 242 295 339
#     4  10  22  39  59  85 120 158 189 240 303 347
#     4  12  22  36  62  93 112 149 203 247 282 346
#     4  11  20  33  57  89 118 149 189 245 292 340
#     4  12  22  36  60  89 120 153 192 244 298 340
#     4  11  22  35  57  89 123 145 192 254 297 337
#
# _framework density 21.664255000000001
#
# number of rings (size 3 to 8) (size 9 to 14) (size 15 to 20)
#    0.000    1.250    6.250    2.625    1.750    0.000 
#    0.000    2.500    0.000    4.500    0.000    0.000 
#    0.000    0.000    0.000    0.000    0.000    0.000 
#
# Total GULP energy -89444.454340 kJ/mol
# GULP energy per Si atom -5590.278396 kJ/mol
# Density = 2.161495 g / cm^3
# Si number density = 21.664255 Si / 1000 Ang^3
#
#
#
# Elastic Constant Matrix: (Units=GPa)
#
#
# Indices 1 2 3 4 5 6 
#
# 1 118.2357 23.8367 27.9592 -26.6925 2.2708 0.9721
# 2 23.8367 65.0611 13.4190 -23.7081 14.3967 3.1741
# 3 27.9592 13.4190 54.1153 -33.9198 7.6094 -7.9222
# 4 -26.6925 -23.7081 -33.9198 39.7059 -10.0461 8.2395
# 5 2.2708 14.3967 7.6094 -10.0461 34.1957 -9.5723
# 6 0.9721 3.1741 -7.9222 8.2395 -9.5723 22.9185
#
#
#
# Elastic Compliance Matrix: (Units=1/GPa)
#
#
# Indices 1 2 3 4 5 6 
#
# 1 0.010456 -0.001876 -0.002675 0.004415 0.001397 -0.002112
# 2 -0.001876 0.024139 0.006181 0.018511 -0.009233 -0.011638
# 3 -0.002675 0.006181 0.041978 0.037576 -0.000741 -0.000050
# 4 0.004415 0.018511 0.037576 0.074941 0.001010 -0.016282
# 5 0.001397 -0.009233 -0.000741 0.001010 0.038125 0.016524
# 6 -0.002112 -0.011638 -0.000050 -0.016282 0.016524 0.058072
#
#
# Mechanical properties :
#
#
# Convention : Reuss Voigt Hill
#
# Bulk Modulus (GPa) = 12.52612 40.87132 26.69872
# Shear Modulus (GPa) = 18.44594 30.84385 24.64489
#
# Velocity S-wave (km/s) = 2.92112 3.77732 3.37647
# Velocity P-wave (km/s) = 4.14388 6.15881 5.24893
#
# Compressibility (1/GPa) = 0.07983315
#
# Stress axis : x y z
#
# Youngs Moduli (GPa) = 95.64086 41.42666 23.82187
#
# Poissons Ratio (x) = 0.07772 0.06372
# Poissons Ratio (y) = 0.17943 -0.14724
# Poissons Ratio (z) = 0.25583 -0.25606
#
# Static dielectric constant tensor:
#      x y z
#    x 1.791660 0.028580 0.017480 
#    y 0.028580 1.845480 0.001310 
#    z 0.017480 0.001310 1.814930 
# 
# From -- ./inp_files/260137.got.cif
#   From: 2010.05.17/outbox.cif.g08.bks.cpg/sg2_131_cif.got.tgz:260137.got - 2010.06.03 11:33:40.
