data_PCOD9095973
_publ_section_title
;
Structure prediction by ZEFSAII (Michael W. Deem and Ramdas Pophale) SiO2 
 PCOD9095973
Probable space group: P -1
;
_chemical_formula_sum "Si O2"
_cell_formula_units_Z 14
_cell_length_a 7.357478
_cell_length_b 12.952792
_cell_length_c 8.991164
_cell_angle_alpha 38.517640
_cell_angle_beta 100.706469
_cell_angle_gamma 84.895819
_cell_volume 484.357163
_symmetry_space_group_name_H-M "P -1"
_symmetry_group_IT_number 2
_symmetry_cell_setting 'triclinic'
loop_
_space_group_symop_operation_xyz
x,y,z
-x,-y,-z
loop_
_atom_site_type_symbol
_atom_site_label
_atom_site_fract_x
_atom_site_fract_y
_atom_site_fract_z
Si Si1 0.183686 0.551759 0.297119
Si Si2 0.820496 0.958929 0.092956
Si Si3 0.628491 0.342097 0.529329
Si Si4 0.396354 0.753539 0.667252
Si Si5 0.152622 0.429274 0.964014
Si Si6 0.233254 0.883108 0.804277
Si Si7 0.342790 0.130080 0.113052
O O1 0.392808 0.447704 0.363683
O O2 0.257803 0.559443 0.467812
O O3 0.011853 0.485900 0.292621
O O4 0.136898 0.755892 0.007224
O O5 0.648335 0.156768 0.819166
O O6 0.770310 0.837616 0.098990
O O7 0.835717 0.942683 0.292530
O O8 0.000000 0.000000 0.000000
O O9 0.711063 0.309154 0.412228
O O10 0.235210 0.847681 0.667385
O O11 0.429578 0.921001 0.405214
O O12 0.617630 0.604549 0.907960
O O13 0.225712 0.228642 0.130001
O O14 0.000000 0.500000 0.000000
O O15 0.473464 0.808552 0.940674
#
# Coordination Sequence:
#
# PCOD9095973 Si02
#       7
#     2   2   2   2   2   2   2
#     4  10  20  36  61  84 120 159 205 238 296 357
#     4  10  20  38  64  86 116 158 207 248 296 357
#     4   9  19  37  58  86 115 161 195 239 299 355
#     4  10  21  40  62  89 123 159 198 245 306 351
#     4  11  20  36  60  89 115 158 200 244 292 351
#     4  10  20  35  61  89 116 159 198 248 300 358
#     4  10  21  39  61  87 125 160 197 244 304 359
#
# _framework density 28.904291000000001
#
# number of rings (size 3 to 8) (size 9 to 14) (size 15 to 20)
#    0.000    2.000    1.429    3.857    0.000    0.571 
#    0.000   11.429    0.000   38.571    0.000    0.000 
#    0.000    0.000    0.000    0.000    0.000    0.000 
#
# Total GULP energy -78002.338135 kJ/mol
# GULP energy per Si atom -5571.595581 kJ/mol
# Density = 2.883850 g / cm^3
# Si number density = 28.904291 Si / 1000 Ang^3
#
#
#
# Elastic Constant Matrix: (Units=GPa)
#
#
# Indices 1 2 3 4 5 6 
#
# 1 121.0595 39.6278 8.5147 15.0380 22.5557 25.8748
# 2 39.6278 242.0390 28.4420 66.6237 9.9234 -5.7613
# 3 8.5147 28.4420 86.1843 18.0187 7.2166 8.8567
# 4 15.0380 66.6237 18.0187 56.0430 0.0139 13.7111
# 5 22.5557 9.9234 7.2166 0.0139 33.5100 27.0005
# 6 25.8748 -5.7613 8.8567 13.7111 27.0005 44.1428
#
#
#
# Elastic Compliance Matrix: (Units=1/GPa)
#
#
# Indices 1 2 3 4 5 6 
#
# 1 0.010322 -0.001971 0.000185 0.000807 -0.002149 -0.005281
# 2 -0.001971 0.009273 -0.000345 -0.014056 -0.013445 0.015025
# 3 0.000185 -0.000345 0.012714 -0.003806 -0.003022 0.000326
# 4 0.000807 -0.014056 -0.003806 0.044229 0.032996 -0.035464
# 5 -0.002149 -0.013445 -0.003022 0.032996 0.086907 -0.063296
# 6 -0.005281 0.015025 0.000326 -0.035464 -0.063296 0.077376
#
#
# Mechanical properties :
#
#
# Convention : Reuss Voigt Hill
#
# Bulk Modulus (GPa) = 35.65651 66.93909 51.29780
# Shear Modulus (GPa) = 19.65163 51.58572 35.61867
#
# Velocity S-wave (km/s) = 2.61029 4.22916 3.51422
# Velocity P-wave (km/s) = 4.63116 6.85980 5.85255
#
# Compressibility (1/GPa) = 0.02804537
#
# Stress axis : x y z
#
# Youngs Moduli (GPa) = 96.88500 107.84140 78.65409
#
# Poissons Ratio (x) = 0.21259 -0.01453
# Poissons Ratio (y) = 0.19099 0.02712
# Poissons Ratio (z) = -0.01790 0.03719
#
# Static dielectric constant tensor:
#      x y z
#    x 2.271810 -0.028210 0.039980 
#    y -0.028210 2.350770 0.012190 
#    z 0.039980 0.012190 2.434380 
# 
# From -- ./inp_files/199651.got.cif
#   From: 2010.05.17/outbox.cif.g08.bks.cpg/sg2_100_cif.got.tgz:199651.got - 2010.06.03 11:33:40.
