data_PCOD9095511
_publ_section_title
;
Structure prediction by ZEFSAII (Michael W. Deem and Ramdas Pophale) SiO2 
 PCOD9095511
Probable space group: P -1
;
_chemical_formula_sum "Si O2"
_cell_formula_units_Z 16
_cell_length_a 8.773920
_cell_length_b 18.248482
_cell_length_c 7.254406
_cell_angle_alpha 49.419740
_cell_angle_beta 54.559530
_cell_angle_gamma 60.221627
_cell_volume 705.195221
_symmetry_space_group_name_H-M "P -1"
_symmetry_group_IT_number 2
_symmetry_cell_setting 'triclinic'
loop_
_space_group_symop_operation_xyz
x,y,z
-x,-y,-z
loop_
_atom_site_type_symbol
_atom_site_label
_atom_site_fract_x
_atom_site_fract_y
_atom_site_fract_z
Si Si1 0.998748 0.235617 0.578144
Si Si2 0.316416 0.743143 0.709325
Si Si3 0.259215 0.458003 0.689457
Si Si4 0.911518 0.396196 0.112029
Si Si5 0.396399 0.645743 0.181601
Si Si6 0.508273 0.890399 0.090037
Si Si7 0.911773 0.858586 0.946010
Si Si8 0.119145 0.943798 0.171725
O O1 0.046133 0.324350 0.280751
O O2 0.788208 0.282480 0.725089
O O3 0.972063 0.151629 0.589276
O O4 0.113424 0.188143 0.754907
O O5 0.241008 0.660638 0.776425
O O6 0.427831 0.815541 0.404804
O O7 0.118612 0.807875 0.817313
O O8 0.435293 0.689899 0.885621
O O9 0.199385 0.515013 0.832347
O O10 0.333428 0.539287 0.380997
O O11 0.433379 0.371485 0.761866
O O12 0.063849 0.426985 0.814050
O O13 0.342625 0.910164 0.020835
O O14 0.729423 0.847627 0.970213
O O15 0.500000 0.000000 0.000000
O O16 0.902318 0.975055 0.788148
O O17 0.000000 0.000000 0.000000
#
# Coordination Sequence:
#
# PCOD9095511 Si02
#       8
#     2   2   2   2   2   2   2   2
#     4   9  17  35  57  81 111 151 190 232 281 342
#     4  11  22  38  59  91 113 154 194 238 281 346
#     4   9  20  39  57  82 114 152 182 247 295 340
#     4  10  20  35  58  84 113 147 194 236 292 346
#     4   9  20  37  59  82 115 149 192 236 292 346
#     4  10  21  37  57  85 118 153 190 237 283 331
#     4   9  21  36  58  82 119 155 186 236 285 332
#     4   9  17  34  58  79 113 153 185 229 284 328
#
# _framework density 22.688753999999999
#
# number of rings (size 3 to 8) (size 9 to 14) (size 15 to 20)
#    0.000    2.500    1.250    0.000    1.750    4.000 
#    2.250    0.000    0.000    6.000    0.000    0.000 
#    0.000    0.000    0.000    0.000    0.000    0.000 
#
# Total GULP energy -89199.690724 kJ/mol
# GULP energy per Si atom -5574.980670 kJ/mol
# Density = 2.263711 g / cm^3
# Si number density = 22.688754 Si / 1000 Ang^3
#
#
#
# Elastic Constant Matrix: (Units=GPa)
#
#
# Indices 1 2 3 4 5 6 
#
# 1 83.6730 20.6517 28.5285 -4.8945 -2.2809 -21.1353
# 2 20.6517 51.2015 14.9098 -12.3747 -5.2865 -13.5175
# 3 28.5285 14.9098 94.5489 -13.3869 -7.1520 -2.0651
# 4 -4.8945 -12.3747 -13.3869 24.4289 -3.7774 -3.7695
# 5 -2.2809 -5.2865 -7.1520 -3.7774 34.1630 -4.2888
# 6 -21.1353 -13.5175 -2.0651 -3.7695 -4.2888 30.8684
#
#
#
# Elastic Compliance Matrix: (Units=1/GPa)
#
#
# Indices 1 2 3 4 5 6 
#
# 1 0.016722 -0.002114 -0.004095 0.001915 0.001486 0.010690
# 2 -0.002114 0.029591 -0.000571 0.017792 0.008141 0.014776
# 3 -0.004095 -0.000571 0.012995 0.006309 0.002930 -0.001007
# 4 0.001915 0.017792 0.006309 0.058655 0.013009 0.018494
# 5 0.001486 0.008141 0.002930 0.013009 0.034076 0.011101
# 6 0.010690 0.014776 -0.001007 0.018494 0.011101 0.049919
#
#
# Mechanical properties :
#
#
# Convention : Reuss Voigt Hill
#
# Bulk Modulus (GPa) = 21.85859 39.73371 30.79615
# Shear Modulus (GPa) = 21.66686 28.91429 25.29057
#
# Velocity S-wave (km/s) = 3.09360 3.57373 3.34230
# Velocity P-wave (km/s) = 4.73450 5.88041 5.33829
#
# Compressibility (1/GPa) = 0.04574860
#
# Stress axis : x y z
#
# Youngs Moduli (GPa) = 59.80142 33.79381 76.95153
#
# Poissons Ratio (x) = 0.07143 0.31514
# Poissons Ratio (y) = 0.12641 0.04393
# Poissons Ratio (z) = 0.24490 0.01929
#
# Static dielectric constant tensor:
#      x y z
#    x 1.892140 0.022870 0.022420 
#    y 0.022870 1.881210 -0.007330 
#    z 0.022420 -0.007330 1.973420 
# 
# From -- ./inp_files/213187.got.cif
#   From: 2010.05.17/outbox.cif.g08.bks.cpg/sg2_107_cif.got.tgz:213187.got - 2010.06.03 11:33:40.
