data_PCOD9095893
_publ_section_title
;
Structure prediction by ZEFSAII (Michael W. Deem and Ramdas Pophale) SiO2 
 PCOD9095893
Probable space group: P -1
;
_chemical_formula_sum "Si O2"
_cell_formula_units_Z 16
_cell_length_a 8.142075
_cell_length_b 15.201482
_cell_length_c 12.063585
_cell_angle_alpha 86.371564
_cell_angle_beta 118.180807
_cell_angle_gamma 139.889233
_cell_volume 721.917387
_symmetry_space_group_name_H-M "P -1"
_symmetry_group_IT_number 2
_symmetry_cell_setting 'triclinic'
loop_
_space_group_symop_operation_xyz
x,y,z
-x,-y,-z
loop_
_atom_site_type_symbol
_atom_site_label
_atom_site_fract_x
_atom_site_fract_y
_atom_site_fract_z
Si Si1 0.747131 0.208607 0.813837
Si Si2 0.191534 0.758082 0.909511
Si Si3 0.012548 0.495057 0.828835
Si Si4 0.033535 0.938585 0.605100
Si Si5 0.560648 0.358304 0.249629
Si Si6 0.639917 0.636390 0.601927
Si Si7 0.062346 0.010601 0.860988
Si Si8 0.720339 0.709490 0.053926
O O1 0.748132 0.313777 0.781996
O O2 0.051684 0.281977 0.839164
O O3 0.382716 0.026764 0.680997
O O4 0.783941 0.207325 0.956794
O O5 0.984631 0.584071 0.850664
O O6 0.987494 0.746473 0.769816
O O7 0.583328 0.892063 0.988688
O O8 0.114746 0.541303 0.727086
O O9 0.351259 0.589607 0.992415
O O10 0.731185 0.750654 0.538047
O O11 0.073566 0.999160 0.733796
O O12 0.000000 0.000000 0.500000
O O13 0.604879 0.424951 0.373880
O O14 0.379726 0.348163 0.101195
O O15 0.283321 0.171773 0.194618
O O16 0.500000 0.500000 0.500000
O O17 0.073659 0.118190 0.884168
#
# Coordination Sequence:
#
# PCOD9095893 Si02
#       8
#     2   2   2   2   2   2   2   2
#     4  11  20  36  62  89 123 151 198 251 292 355
#     4  10  20  35  60  93 111 156 205 243 298 345
#     4   9  20  32  57  91 126 150 182 251 303 352
#     4  10  25  43  60  85 121 162 200 243 302 350
#     4   9  19  36  58  86 121 148 191 244 302 342
#     4  11  24  41  62  84 118 163 203 250 287 357
#     4   9  19  36  65  87 118 148 194 256 294 352
#     4   9  18  32  58  94 115 146 188 244 304 341
#
# _framework density 22.163201000000001
#
# number of rings (size 3 to 8) (size 9 to 14) (size 15 to 20)
#    0.750    1.500    1.250    1.125    3.500    1.500 
#    2.250    1.250    0.000    0.000    0.000    0.000 
#    0.000    0.000    0.000    0.000    0.000    0.000 
#
# Total GULP energy -89205.520671 kJ/mol
# GULP energy per Si atom -5575.345042 kJ/mol
# Density = 2.211276 g / cm^3
# Si number density = 22.163201 Si / 1000 Ang^3
#
#
#
# Elastic Constant Matrix: (Units=GPa)
#
#
# Indices 1 2 3 4 5 6 
#
# 1 40.4799 3.6522 9.7346 -3.1400 1.0523 -6.3212
# 2 3.6522 59.3629 24.5803 -7.5082 -4.0005 13.9162
# 3 9.7346 24.5803 63.1105 -7.3933 -4.3550 -0.2645
# 4 -3.1400 -7.5082 -7.3933 25.5327 -9.2563 -1.5711
# 5 1.0523 -4.0005 -4.3550 -9.2563 23.6655 -1.1579
# 6 -6.3212 13.9162 -0.2645 -1.5711 -1.1579 22.6213
#
#
#
# Elastic Compliance Matrix: (Units=1/GPa)
#
#
# Indices 1 2 3 4 5 6 
#
# 1 0.027260 -0.002351 -0.003085 0.001982 -0.000956 0.009116
# 2 -0.002351 0.025149 -0.008626 0.005092 0.003993 -0.015671
# 3 -0.003085 -0.008626 0.020626 0.005095 0.004726 0.005281
# 4 0.001982 0.005092 0.005095 0.050298 0.021485 0.002074
# 5 -0.000956 0.003993 0.004726 0.021485 0.052319 0.001502
# 6 0.009116 -0.015671 0.005281 0.002074 0.001502 0.056676
#
#
# Mechanical properties :
#
#
# Convention : Reuss Voigt Hill
#
# Bulk Modulus (GPa) = 22.26598 26.54306 24.40452
# Shear Modulus (GPa) = 18.15402 22.69631 20.42517
#
# Velocity S-wave (km/s) = 2.86511 3.20356 3.03905
# Velocity P-wave (km/s) = 4.58403 5.06812 4.83214
#
# Compressibility (1/GPa) = 0.04491155
#
# Stress axis : x y z
#
# Youngs Moduli (GPa) = 36.68424 39.76366 48.48302
#
# Poissons Ratio (x) = 0.09347 0.14956
# Poissons Ratio (y) = 0.08623 0.41821
# Poissons Ratio (z) = 0.11316 0.34300
#
# Static dielectric constant tensor:
#      x y z
#    x 1.864210 0.037770 0.036620 
#    y 0.037770 1.837540 0.007420 
#    z 0.036620 0.007420 1.830760 
# 
# From -- ./inp_files/399066.got.cif
#   From: 2010.05.17/outbox.cif.g08.bks.cpg/sg2_200_cif.got.tgz:399066.got - 2010.06.03 11:33:40.
