data_PCOD9095683
_publ_section_title
;
Structure prediction by ZEFSAII (Michael W. Deem and Ramdas Pophale) SiO2 
 PCOD9095683
Probable space group: P -1
;
_chemical_formula_sum "Si O2"
_cell_formula_units_Z 16
_cell_length_a 9.035970
_cell_length_b 17.030161
_cell_length_c 15.693325
_cell_angle_alpha 148.451268
_cell_angle_beta 42.823773
_cell_angle_gamma 146.346465
_cell_volume 697.808091
_symmetry_space_group_name_H-M "P -1"
_symmetry_group_IT_number 2
_symmetry_cell_setting 'triclinic'
loop_
_space_group_symop_operation_xyz
x,y,z
-x,-y,-z
loop_
_atom_site_type_symbol
_atom_site_label
_atom_site_fract_x
_atom_site_fract_y
_atom_site_fract_z
Si Si1 0.060967 0.743706 0.235711
Si Si2 0.180747 0.140455 0.876963
Si Si3 0.486314 0.023622 0.427495
Si Si4 0.718794 0.781142 0.812605
Si Si5 0.331750 0.711095 0.774399
Si Si6 0.179174 0.911753 0.154868
Si Si7 0.041275 0.605277 0.492605
Si Si8 0.582896 0.395895 0.057379
O O1 0.158496 0.845541 0.197791
O O2 0.744820 0.594495 0.218283
O O3 0.188704 0.896909 0.396873
O O4 0.189232 0.629605 0.093361
O O5 0.089955 0.119498 0.798151
O O6 0.353722 0.061442 0.749422
O O7 0.371217 0.344987 0.024933
O O8 0.900343 0.998067 0.912411
O O9 0.658258 0.232608 0.514266
O O10 0.500000 0.000000 0.500000
O O11 0.492900 0.670013 0.733314
O O12 0.896637 0.705444 0.663288
O O13 0.589224 0.748751 0.928956
O O14 0.111327 0.542164 0.654921
O O15 0.561058 0.879624 0.774860
O O16 0.213458 0.787771 0.959524
O O17 0.000000 0.500000 0.500000
#
# Coordination Sequence:
#
# PCOD9095683 Si02
#       8
#     2   2   2   2   2   2   2   2
#     4  10  21  38  59  86 119 155 198 240 292 357
#     4   9  21  37  61  90 116 153 195 248 295 345
#     4  10  23  43  63  83 123 163 196 241 302 362
#     4  10  20  38  59  88 118 155 197 241 295 353
#     4  10  21  36  62  88 117 159 192 242 303 350
#     4  10  20  38  60  90 121 147 196 252 295 343
#     4  11  24  39  61  90 121 155 204 250 289 352
#     4  10  20  35  59  87 116 156 198 236 293 355
#
# _framework density 22.928940000000001
#
# number of rings (size 3 to 8) (size 9 to 14) (size 15 to 20)
#    0.000    2.000    1.250    1.500    3.500    1.500 
#    2.250    0.625    0.000    0.000    0.000    0.000 
#    0.000    0.000    0.000    0.000    0.000    0.000 
#
# Total GULP energy -89334.612653 kJ/mol
# GULP energy per Si atom -5583.413291 kJ/mol
# Density = 2.287675 g / cm^3
# Si number density = 22.928940 Si / 1000 Ang^3
#
#
#
# Elastic Constant Matrix: (Units=GPa)
#
#
# Indices 1 2 3 4 5 6 
#
# 1 80.1698 8.9031 46.8182 25.1591 36.2700 -4.8504
# 2 8.9031 50.9415 35.6681 13.3645 30.4752 -8.4067
# 3 46.8182 35.6681 61.1500 18.0060 36.4342 11.9296
# 4 25.1591 13.3645 18.0060 26.4874 8.7320 12.7673
# 5 36.2700 30.4752 36.4342 8.7320 51.2157 8.7190
# 6 -4.8504 -8.4067 11.9296 12.7673 8.7190 31.9074
#
#
#
# Elastic Compliance Matrix: (Units=1/GPa)
#
#
# Indices 1 2 3 4 5 6 
#
# 1 -0.014023 -0.034911 0.018105 0.029280 0.018782 -0.034947
# 2 -0.034911 -0.018865 0.021190 0.040808 0.020761 -0.040202
# 3 0.018105 0.021190 0.018723 -0.042205 -0.036347 0.028155
# 4 0.029280 0.040808 -0.042205 0.009310 -0.022257 0.033339
# 5 0.018782 0.020761 -0.036347 -0.022257 0.019167 0.025583
# 6 -0.034947 -0.040202 0.028155 0.033339 0.025583 -0.015422
#
#
# Mechanical properties :
#
#
# Convention : Reuss Voigt Hill
#
# Bulk Modulus (GPa) = -185.24342 41.67112 -71.78615
# Shear Modulus (GPa) = -428.14956 28.64689 -199.75133
#
# Velocity S-wave (km/s) = -13.67970 3.53849 -9.34380
# Velocity P-wave (km/s) = 18.17905 5.90830 12.15668
#
# Compressibility (1/GPa) = -0.00539830
#
# Stress axis : x y z
#
# Youngs Moduli (GPa) = -71.31102 -53.00713 53.41128
#
# Poissons Ratio (x) = -1.85053 -0.96702
# Poissons Ratio (y) = -2.48954 -1.13176
# Poissons Ratio (z) = 1.29110 1.12319
#
# Static dielectric constant tensor:
#      x y z
#    x 1.907370 0.041010 -0.036600 
#    y 0.041010 1.874550 0.019380 
#    z -0.036600 0.019380 1.973410 
# 
# From -- ./inp_files/256978.got.cif
#   From: 2010.05.17/outbox.cif.g08.bks.cpg/sg2_129_cif.got.tgz:256978.got - 2010.06.03 11:33:40.
