data_PCOD9095151
_publ_section_title
;
Structure prediction by ZEFSAII (Michael W. Deem and Ramdas Pophale) SiO2 
 PCOD9095151
Probable space group: P -1
;
_chemical_formula_sum "Si O2"
_cell_formula_units_Z 16
_cell_length_a 11.086272
_cell_length_b 6.818958
_cell_length_c 17.608979
_cell_angle_alpha 113.412505
_cell_angle_beta 120.534614
_cell_angle_gamma 42.175007
_cell_volume 769.309787
_symmetry_space_group_name_H-M "P -1"
_symmetry_group_IT_number 2
_symmetry_cell_setting 'triclinic'
loop_
_space_group_symop_operation_xyz
x,y,z
-x,-y,-z
loop_
_atom_site_type_symbol
_atom_site_label
_atom_site_fract_x
_atom_site_fract_y
_atom_site_fract_z
Si Si1 0.785989 0.983226 0.270983
Si Si2 0.183162 0.224174 0.968958
Si Si3 0.253461 0.851761 0.541252
Si Si4 0.138087 0.537279 0.502297
Si Si5 0.398926 0.205098 0.892793
Si Si6 0.110535 0.320443 0.310191
Si Si7 0.152620 0.800370 0.816918
Si Si8 0.479611 0.987752 0.582103
O O1 0.980098 0.637334 0.277262
O O2 0.793994 0.172144 0.245525
O O3 0.757572 0.086265 0.363348
O O4 0.622849 0.986530 0.193925
O O5 0.259552 0.297425 0.935200
O O6 0.125665 0.051211 0.891381
O O7 0.381049 0.991933 0.043740
O O8 0.000000 0.500000 0.000000
O O9 0.059752 0.148641 0.488731
O O10 0.239440 0.613981 0.495480
O O11 0.430339 0.797498 0.557866
O O12 0.095042 0.394467 0.406353
O O13 0.280456 0.322693 0.581757
O O14 0.315528 0.491141 0.863290
O O15 0.335070 0.113760 0.333237
O O16 0.025508 0.177661 0.242403
O O17 0.500000 0.000000 0.500000
#
# Coordination Sequence:
#
# PCOD9095151 Si02
#       8
#     2   2   2   2   2   2   2   2
#     4   9  20  38  58  81 117 158 192 244 297 347
#     4  10  21  40  68  94 123 157 195 252 300 359
#     4  10  20  35  55  82 112 151 202 247 292 347
#     4   9  20  35  56  79 106 151 202 245 290 346
#     4   9  20  41  64  93 125 156 202 243 301 365
#     4   9  20  36  56  80 117 154 190 244 296 354
#     4  10  20  39  64  85 120 165 196 238 307 361
#     4  10  21  35  53  80 112 151 196 248 294 346
#
# _framework density 20.797861000000001
#
# number of rings (size 3 to 8) (size 9 to 14) (size 15 to 20)
#    0.000    2.500    0.000    0.750    0.000   12.500 
#    9.000    0.000    5.500    0.000    0.000    0.000 
#    0.000    0.000    0.000    0.000    0.000    0.000 
#
# Total GULP energy -89238.108404 kJ/mol
# GULP energy per Si atom -5577.381775 kJ/mol
# Density = 2.075052 g / cm^3
# Si number density = 20.797861 Si / 1000 Ang^3
#
#
#
# Elastic Constant Matrix: (Units=GPa)
#
#
# Indices 1 2 3 4 5 6 
#
# 1 155.1873 78.9331 60.5696 -2.9506 18.6568 9.4848
# 2 78.9331 98.8881 45.3526 -13.0605 5.5638 13.6412
# 3 60.5696 45.3526 95.4327 -3.0490 20.2262 2.5039
# 4 -2.9506 -13.0605 -3.0490 29.8976 3.9787 -2.7759
# 5 18.6568 5.5638 20.2262 3.9787 34.4941 -3.7944
# 6 9.4848 13.6412 2.5039 -2.7759 -3.7944 35.2225
#
#
#
# Elastic Compliance Matrix: (Units=1/GPa)
#
#
# Indices 1 2 3 4 5 6 
#
# 1 0.012381 -0.008504 -0.003206 -0.002426 -0.003203 -0.000349
# 2 -0.008504 0.020323 -0.004495 0.006811 0.002684 -0.004435
# 3 -0.003206 -0.004495 0.016115 0.000357 -0.006950 0.000738
# 4 -0.002426 0.006811 0.000357 0.036819 -0.004194 0.000440
# 5 -0.003203 0.002684 -0.006950 -0.004194 0.035266 0.003786
# 6 -0.000349 -0.004435 0.000738 0.000440 0.003786 0.030593
#
#
# Mechanical properties :
#
#
# Convention : Reuss Voigt Hill
#
# Bulk Modulus (GPa) = 60.94885 79.91319 70.43102
# Shear Modulus (GPa) = 26.40260 30.89971 28.65116
#
# Velocity S-wave (km/s) = 3.56685 3.85868 3.71563
# Velocity P-wave (km/s) = 6.80678 7.63935 7.23505
#
# Compressibility (1/GPa) = 0.01640720
#
# Stress axis : x y z
#
# Youngs Moduli (GPa) = 80.76920 49.20610 62.05530
#
# Poissons Ratio (x) = 0.41847 0.19894
# Poissons Ratio (y) = 0.68689 0.27896
# Poissons Ratio (z) = 0.25894 0.22120
#
# Static dielectric constant tensor:
#      x y z
#    x 1.795530 -0.026940 0.000310 
#    y -0.026940 1.799800 -0.004560 
#    z 0.000310 -0.004560 1.756600 
# 
# From -- ./inp_files/50308.got.cif
#   From: 2010.05.17/outbox.cif.g08.bks.cpg/sg2_26_cif.got.tgz:50308.got - 2010.06.03 11:33:40.
