data_PCOD9095593
_publ_section_title
;
Structure prediction by ZEFSAII (Michael W. Deem and Ramdas Pophale) SiO2 
 PCOD9095593
Probable space group: P -1
;
_chemical_formula_sum "Si O2"
_cell_formula_units_Z 16
_cell_length_a 11.101968
_cell_length_b 16.446793
_cell_length_c 5.434108
_cell_angle_alpha 63.730570
_cell_angle_beta 101.341234
_cell_angle_gamma 123.276699
_cell_volume 742.444275
_symmetry_space_group_name_H-M "P -1"
_symmetry_group_IT_number 2
_symmetry_cell_setting 'triclinic'
loop_
_space_group_symop_operation_xyz
x,y,z
-x,-y,-z
loop_
_atom_site_type_symbol
_atom_site_label
_atom_site_fract_x
_atom_site_fract_y
_atom_site_fract_z
Si Si1 0.103222 0.990784 0.244032
Si Si2 0.900713 0.196663 0.719751
Si Si3 0.079810 0.294738 0.154018
Si Si4 0.189649 0.157994 0.424879
Si Si5 0.391998 0.095467 0.738771
Si Si6 0.396312 0.913213 0.774978
Si Si7 0.912588 0.492423 0.222455
Si Si8 0.685140 0.251660 0.415875
O O1 0.163767 0.924619 0.231053
O O2 0.982213 0.910333 0.497943
O O3 0.207135 0.102546 0.264768
O O4 0.000000 0.000000 0.000000
O O5 0.772613 0.218400 0.676860
O O6 0.999386 0.265104 0.430579
O O7 0.991074 0.227062 0.965919
O O8 0.211862 0.273650 0.260412
O O9 0.115985 0.411731 0.938720
O O10 0.280264 0.133355 0.687932
O O11 0.516010 0.186967 0.490625
O O12 0.320777 0.975423 0.762870
O O13 0.491950 0.094034 0.993838
O O14 0.299429 0.798666 0.764689
O O15 0.500000 0.000000 0.500000
O O16 0.766005 0.377267 0.301139
O O17 0.000000 0.500000 0.500000
O O18 0.000000 0.500000 0.000000
#
# Coordination Sequence:
#
# PCOD9095593 Si02
#       8
#     2   2   2   2   2   2   2   2
#     4  10  20  35  58  90 121 170 208 259 314 390
#     4  11  22  37  63  91 129 158 213 261 325 373
#     4  11  22  42  60  94 124 168 203 270 321 375
#     4  10  22  38  59  88 132 166 212 260 323 388
#     4  10  22  40  62  92 130 171 210 264 321 397
#     4   9  21  40  57  90 123 171 212 257 316 380
#     4  12  24  42  68  96 129 166 218 280 325 377
#     4  11  23  37  65  92 124 168 213 274 323 384
#
# _framework density 21.550436999999999
#
# number of rings (size 3 to 8) (size 9 to 14) (size 15 to 20)
#    0.000    1.500    3.750    0.750    3.500    5.000 
#    0.000    0.625    0.000    0.750    0.000    0.000 
#    0.000    0.000    0.000    0.000    0.000    0.000 
#
# Total GULP energy -89258.008732 kJ/mol
# GULP energy per Si atom -5578.625546 kJ/mol
# Density = 2.150139 g / cm^3
# Si number density = 21.550437 Si / 1000 Ang^3
#
#
#
# Elastic Constant Matrix: (Units=GPa)
#
#
# Indices 1 2 3 4 5 6 
#
# 1 115.8474 39.9296 43.2010 -16.7679 18.4150 -13.9772
# 2 39.9296 130.0261 48.4918 -14.0674 9.8284 -18.5609
# 3 43.2010 48.4918 113.7401 2.0393 13.6465 -14.0666
# 4 -16.7679 -14.0674 2.0393 35.0362 -12.9340 10.5227
# 5 18.4150 9.8284 13.6465 -12.9340 46.5516 -8.5792
# 6 -13.9772 -18.5609 -14.0666 10.5227 -8.5792 30.6719
#
#
#
# Elastic Compliance Matrix: (Units=1/GPa)
#
#
# Indices 1 2 3 4 5 6 
#
# 1 0.011435 -0.001529 -0.003443 0.004129 -0.001905 0.000758
# 2 -0.001529 0.010170 -0.003535 0.002962 0.000882 0.003067
# 3 -0.003443 -0.003535 0.012410 -0.005688 -0.002515 0.003231
# 4 0.004129 0.002962 -0.005688 0.037960 0.008173 -0.009672
# 5 -0.001905 0.000882 -0.002515 0.008173 0.025585 0.002865
# 6 0.000758 0.003067 0.003231 -0.009672 0.002865 0.040406
#
#
# Mechanical properties :
#
#
# Convention : Reuss Voigt Hill
#
# Bulk Modulus (GPa) = 58.81860 69.20650 64.01255
# Shear Modulus (GPa) = 31.12423 37.65136 34.38780
#
# Velocity S-wave (km/s) = 3.80445 4.18440 3.99894
# Velocity P-wave (km/s) = 6.83017 7.45178 7.14774
#
# Compressibility (1/GPa) = 0.01700143
#
# Stress axis : x y z
#
# Youngs Moduli (GPa) = 87.45343 98.32745 80.57885
#
# Poissons Ratio (x) = 0.15030 0.27746
# Poissons Ratio (y) = 0.13368 0.28484
# Poissons Ratio (z) = 0.30113 0.34758
#
# Static dielectric constant tensor:
#      x y z
#    x 1.887380 -0.026630 -0.058160 
#    y -0.026630 1.819250 0.008370 
#    z -0.058160 0.008370 1.920960 
# 
# From -- ./inp_files/75521.got.cif
#   From: 2010.05.17/outbox.cif.g08.bks.cpg/sg2_38_cif.got.tgz:75521.got - 2010.06.03 11:33:40.
