data_PCOD9095866
_publ_section_title
;
Structure prediction by ZEFSAII (Michael W. Deem and Ramdas Pophale) SiO2 
 PCOD9095866
Probable space group: P -1
;
_chemical_formula_sum "Si O2"
_cell_formula_units_Z 14
_cell_length_a 6.371154
_cell_length_b 7.103234
_cell_length_c 24.146378
_cell_angle_alpha 132.675226
_cell_angle_beta 116.952662
_cell_angle_gamma 88.496686
_cell_volume 646.970757
_symmetry_space_group_name_H-M "P -1"
_symmetry_group_IT_number 2
_symmetry_cell_setting 'triclinic'
loop_
_space_group_symop_operation_xyz
x,y,z
-x,-y,-z
loop_
_atom_site_type_symbol
_atom_site_label
_atom_site_fract_x
_atom_site_fract_y
_atom_site_fract_z
Si Si1 0.385284 0.326081 0.820837
Si Si2 0.877661 0.290338 0.290773
Si Si3 1.000000 0.558806 0.785923
Si Si4 0.548992 0.855389 0.329727
Si Si5 0.447869 0.400168 0.410863
Si Si6 0.058813 0.315688 0.519750
Si Si7 0.226870 0.062534 0.989517
O O1 0.134458 0.398328 0.806786
O O2 0.425709 0.283926 0.752392
O O3 0.631050 0.597468 0.927578
O O4 0.324186 0.030429 0.784449
O O5 0.165328 0.312619 0.336789
O O6 0.862511 0.382850 0.245428
O O7 0.885015 0.507043 0.382265
O O8 0.693350 0.362811 0.708282
O O9 0.054888 0.858780 0.879989
O O10 0.488029 0.116446 0.355794
O O11 0.818652 0.011815 0.426684
O O12 0.500000 0.500000 0.500000
O O13 0.664467 0.670409 0.460197
O O14 0.000000 0.500000 0.500000
O O15 0.500000 0.000000 0.000000
O O16 0.000000 0.000000 0.000000
#
# Coordination Sequence:
#
# PCOD9095866 Si02
#       7
#     2   2   2   2   2   2   2
#     4  11  22  43  70  85 131 174 211 266 342 394
#     4  12  23  40  64  95 128 168 216 274 319 390
#     4  11  26  40  64 100 124 163 229 269 331 393
#     4  11  20  38  65  88 123 175 215 256 331 397
#     4  11  19  37  64  86 128 172 216 259 320 392
#     4  10  20  35  60  90 122 172 214 254 321 397
#     4  10  22  45  72  97 134 177 221 281 341 404
#
# _framework density 21.639308
#
# number of rings (size 3 to 8) (size 9 to 14) (size 15 to 20)
#    0.000    1.143    8.571    0.000    0.000    2.286 
#    0.000    1.429    0.000    4.286    0.000    0.000 
#    0.000    0.000    0.000    0.000    0.000    0.000 
#
# Total GULP energy -77951.618922 kJ/mol
# GULP energy per Si atom -5567.972780 kJ/mol
# Density = 2.159006 g / cm^3
# Si number density = 21.639308 Si / 1000 Ang^3
#
#
#
# Elastic Constant Matrix: (Units=GPa)
#
#
# Indices 1 2 3 4 5 6 
#
# 1 74.4328 21.8794 24.2098 13.7131 4.3547 18.3616
# 2 21.8794 83.9060 40.0403 16.0895 5.5495 25.0522
# 3 24.2098 40.0403 131.4870 21.9461 3.8330 22.4868
# 4 13.7131 16.0895 21.9461 30.4933 18.9697 1.2576
# 5 4.3547 5.5495 3.8330 18.9697 38.2066 6.4916
# 6 18.3616 25.0522 22.4868 1.2576 6.4916 38.3381
#
#
#
# Elastic Compliance Matrix: (Units=1/GPa)
#
#
# Indices 1 2 3 4 5 6 
#
# 1 0.017199 -0.000323 -0.000111 -0.009899 0.004438 -0.008388
# 2 -0.000323 0.017812 -0.001943 -0.010251 0.004566 -0.010782
# 3 -0.000111 -0.001943 0.010536 -0.009229 0.004730 -0.005355
# 4 -0.009899 -0.010251 -0.009229 0.070045 -0.034706 0.020432
# 5 0.004438 0.004566 0.004730 -0.034706 0.044179 -0.014226
# 6 -0.008388 -0.010782 -0.005355 0.020432 -0.014226 0.042026
#
#
# Mechanical properties :
#
#
# Convention : Reuss Voigt Hill
#
# Bulk Modulus (GPa) = 24.51330 51.34273 37.92802
# Shear Modulus (GPa) = 22.71188 34.98735 28.84962
#
# Velocity S-wave (km/s) = 3.24322 4.02536 3.65527
# Velocity P-wave (km/s) = 5.03759 6.73668 5.94811
#
# Compressibility (1/GPa) = 0.04079418
#
# Stress axis : x y z
#
# Youngs Moduli (GPa) = 58.14175 56.14043 94.91466
#
# Poissons Ratio (x) = 0.01811 0.01054
# Poissons Ratio (y) = 0.01876 0.18442
# Poissons Ratio (z) = 0.00646 0.10908
#
# Static dielectric constant tensor:
#      x y z
#    x 1.975520 0.026190 -0.038560 
#    y 0.026190 1.801340 -0.003830 
#    z -0.038560 -0.003830 1.779790 
# 
# From -- ./inp_files/615116.got.cif
#   From: 2010.05.17/outbox.cif.g08.bks.cpg/sg2_308_cif.got.tgz:615116.got - 2010.06.03 11:33:40.
