data_PCOD9095316
_publ_section_title
;
Structure prediction by ZEFSAII (Michael W. Deem and Ramdas Pophale) SiO2 
 PCOD9095316
Probable space group: P -1
;
_chemical_formula_sum "Si O2"
_cell_formula_units_Z 16
_cell_length_a 23.127932
_cell_length_b 11.897574
_cell_length_c 9.624292
_cell_angle_alpha 37.573194
_cell_angle_beta 134.421579
_cell_angle_gamma 154.562034
_cell_volume 692.370272
_symmetry_space_group_name_H-M "P -1"
_symmetry_group_IT_number 2
_symmetry_cell_setting 'triclinic'
loop_
_space_group_symop_operation_xyz
x,y,z
-x,-y,-z
loop_
_atom_site_type_symbol
_atom_site_label
_atom_site_fract_x
_atom_site_fract_y
_atom_site_fract_z
Si Si1 0.149142 0.750573 0.171017
Si Si2 0.280895 0.294244 0.358345
Si Si3 0.496295 0.748425 0.475041
Si Si4 0.547442 0.794326 0.812351
Si Si5 0.008093 0.798655 0.751348
Si Si6 0.515306 0.860338 0.003002
Si Si7 0.189177 0.540601 0.990089
Si Si8 0.795891 0.165872 0.503673
O O1 0.039432 0.413578 0.249658
O O2 0.136539 0.746089 0.320290
O O3 0.291409 0.912973 0.217625
O O4 0.140273 0.934364 0.900501
O O5 0.364680 0.404633 0.532115
O O6 0.204025 0.346692 0.198243
O O7 0.193486 0.977626 0.450526
O O8 0.402060 0.553239 0.200358
O O9 0.484994 0.778593 0.588242
O O10 0.507031 0.961153 0.205040
O O11 0.636641 0.901570 0.532885
O O12 0.505369 0.783514 0.902291
O O13 0.500000 0.500000 0.000000
O O14 0.908517 0.591167 0.918453
O O15 0.000000 0.000000 0.500000
O O16 0.665747 0.107954 0.070298
O O17 0.154160 0.561863 0.760652
#
# Coordination Sequence:
#
# PCOD9095316 Si02
#       8
#     2   2   2   2   2   2   2   2
#     4  10  25  47  68  99 130 174 226 282 332 390
#     4  11  22  37  63 101 138 177 214 254 332 413
#     4  10  20  35  56  91 138 181 209 260 317 392
#     4  11  23  37  62 101 137 175 218 268 336 400
#     4  11  26  50  74  91 128 177 234 286 329 386
#     4  11  19  38  59  96 138 177 215 260 325 399
#     4  11  23  41  66  96 129 174 226 275 327 386
#     4  11  22  40  66  97 138 172 214 276 331 395
#
# _framework density 23.109020999999998
#
# number of rings (size 3 to 8) (size 9 to 14) (size 15 to 20)
#    0.000    1.250    3.750    3.000    1.750    5.500 
#    4.500    1.250    0.000    0.000    0.000    0.000 
#    0.000    0.000    0.000    0.000    0.000    0.000 
#
# Total GULP energy -89496.978872 kJ/mol
# GULP energy per Si atom -5593.561179 kJ/mol
# Density = 2.305642 g / cm^3
# Si number density = 23.109021 Si / 1000 Ang^3
#
#
#
# Elastic Constant Matrix: (Units=GPa)
#
#
# Indices 1 2 3 4 5 6 
#
# 1 104.7593 30.8747 12.9447 15.6064 -10.5530 -26.1319
# 2 30.8747 60.5333 32.6799 27.6724 -2.2380 -21.5479
# 3 12.9447 32.6799 100.5986 30.8138 -0.9346 -14.4488
# 4 15.6064 27.6724 30.8138 34.2050 -10.8678 -10.7387
# 5 -10.5530 -2.2380 -0.9346 -10.8678 42.4190 -2.8712
# 6 -26.1319 -21.5479 -14.4488 -10.7387 -2.8712 33.3720
#
#
#
# Elastic Compliance Matrix: (Units=1/GPa)
#
#
# Indices 1 2 3 4 5 6 
#
# 1 0.013072 -0.004239 0.000740 0.000614 0.003767 0.008341
# 2 -0.004239 0.032726 -0.002420 -0.020547 -0.003982 0.009809
# 3 0.000740 -0.002420 0.014390 -0.011766 -0.002557 0.001241
# 4 0.000614 -0.020547 -0.011766 0.061964 0.014911 0.003342
# 5 0.003767 -0.003982 -0.002557 0.014911 0.028507 0.006522
# 6 0.008341 0.009809 0.001241 0.003342 0.006522 0.045004
#
#
# Mechanical properties :
#
#
# Convention : Reuss Voigt Hill
#
# Bulk Modulus (GPa) = 20.68295 46.54332 33.61313
# Shear Modulus (GPa) = 22.35951 34.62533 28.49242
#
# Velocity S-wave (km/s) = 3.11395 3.87505 3.51516
# Velocity P-wave (km/s) = 4.67958 6.34080 5.57245
#
# Compressibility (1/GPa) = 0.04834900
#
# Stress axis : x y z
#
# Youngs Moduli (GPa) = 76.49792 30.55672 69.49353
#
# Poissons Ratio (x) = 0.12954 -0.05142
# Poissons Ratio (y) = 0.32429 0.16819
# Poissons Ratio (z) = -0.05660 0.07395
#
# Static dielectric constant tensor:
#      x y z
#    x 1.605360 -0.158150 -0.036500 
#    y -0.158150 1.761100 0.017340 
#    z -0.036500 0.017340 1.904350 
# 
# From -- ./inp_files/353351.got.cif
#   From: 2010.05.17/outbox.cif.g08.bks.cpg/sg2_177_cif.got.tgz:353351.got - 2010.06.03 11:33:40.
