data_PCOD9095132
_publ_section_title
;
Structure prediction by ZEFSAII (Michael W. Deem and Ramdas Pophale) SiO2 
 PCOD9095132
Probable space group: P -1
;
_chemical_formula_sum "Si O2"
_cell_formula_units_Z 16
_cell_length_a 14.589544
_cell_length_b 7.994371
_cell_length_c 7.592682
_cell_angle_alpha 119.797013
_cell_angle_beta 112.021769
_cell_angle_gamma 71.175433
_cell_volume 702.113117
_symmetry_space_group_name_H-M "P -1"
_symmetry_group_IT_number 2
_symmetry_cell_setting 'triclinic'
loop_
_space_group_symop_operation_xyz
x,y,z
-x,-y,-z
loop_
_atom_site_type_symbol
_atom_site_label
_atom_site_fract_x
_atom_site_fract_y
_atom_site_fract_z
Si Si1 0.654818 0.426224 0.489555
Si Si2 0.960828 0.729842 0.262273
Si Si3 0.158744 0.984463 0.186808
Si Si4 0.528185 0.829662 0.212136
Si Si5 0.160781 0.885778 0.544927
Si Si6 0.442407 0.499206 0.183907
Si Si7 0.016651 0.698722 0.871071
Si Si8 0.355253 0.125002 0.328410
O O1 0.742995 0.261961 0.399429
O O2 0.550862 0.424832 0.312471
O O3 0.632293 0.408540 0.670400
O O4 0.677828 0.645212 0.605364
O O5 0.948622 0.530779 0.246312
O O6 0.058249 0.799602 0.455178
O O7 0.863172 0.895324 0.286361
O O8 0.987867 0.709743 0.064406
O O9 0.261477 0.016383 0.191625
O O10 0.081462 0.190072 0.239397
O O11 0.173754 0.910621 0.358057
O O12 0.102517 0.828069 0.967136
O O13 0.461172 0.676675 0.165574
O O14 0.600663 0.886253 0.445943
O O15 0.448007 0.024958 0.220527
O O16 0.586231 0.690735 0.032126
#
# Coordination Sequence:
#
# PCOD9095132 Si02
#       8
#     2   2   2   2   2   2   2   2
#     4  10  20  35  57  84 116 150 186 232 283 338
#     4   9  19  37  58  81 111 145 183 231 282 333
#     4  10  20  35  55  80 112 148 185 228 279 333
#     4   9  19  37  58  81 112 149 189 236 285 333
#     4  10  20  35  56  81 113 147 182 228 281 339
#     4   9  19  37  58  80 113 151 187 235 286 333
#     4   9  19  37  58  80 110 146 185 233 282 331
#     4  10  20  35  56  82 115 151 189 233 280 337
#
# _framework density 22.788350000000001
#
# number of rings (size 3 to 8) (size 9 to 14) (size 15 to 20)
#    0.000    2.500    0.000    1.500    0.000    3.000 
#    0.000   12.500    0.000    0.000    0.000    0.000 
#    0.000    0.000    0.000    0.000    0.000    0.000 
#
# Total GULP energy -89384.015664 kJ/mol
# GULP energy per Si atom -5586.500979 kJ/mol
# Density = 2.273648 g / cm^3
# Si number density = 22.788350 Si / 1000 Ang^3
#
#
#
# Elastic Constant Matrix: (Units=GPa)
#
#
# Indices 1 2 3 4 5 6 
#
# 1 56.7256 38.3207 1.8351 6.5616 11.8014 -14.4019
# 2 38.3207 157.2956 11.4905 25.9305 11.2690 -22.9600
# 3 1.8351 11.4905 34.6346 11.6894 -1.4445 -8.6190
# 4 6.5616 25.9305 11.6894 23.5469 -2.0775 -10.9897
# 5 11.8014 11.2690 -1.4445 -2.0775 14.6637 1.1351
# 6 -14.4019 -22.9600 -8.6190 -10.9897 1.1351 29.8575
#
#
#
# Elastic Compliance Matrix: (Units=1/GPa)
#
#
# Indices 1 2 3 4 5 6 
#
# 1 0.027068 -0.003459 0.002123 -0.001276 -0.019973 0.011299
# 2 -0.003459 0.009456 0.000491 -0.008969 -0.005912 0.002668
# 3 0.002123 0.000491 0.035422 -0.016160 -0.001329 0.005729
# 4 -0.001276 -0.008969 -0.016160 0.067731 0.014981 0.012183
# 5 -0.019973 -0.005912 -0.001329 0.014981 0.091775 -0.012539
# 6 0.011299 0.002668 0.005729 0.012183 -0.012539 0.047609
#
#
# Mechanical properties :
#
#
# Convention : Reuss Voigt Hill
#
# Bulk Modulus (GPa) = 14.23377 39.10538 26.66958
# Shear Modulus (GPa) = 16.43817 26.74758 21.59288
#
# Velocity S-wave (km/s) = 2.68869 3.42970 3.08155
# Velocity P-wave (km/s) = 3.98728 5.73423 4.93861
#
# Compressibility (1/GPa) = 0.07025543
#
# Stress axis : x y z
#
# Youngs Moduli (GPa) = 36.94375 105.75454 28.23106
#
# Poissons Ratio (x) = 0.36580 -0.05993
# Poissons Ratio (y) = 0.12779 -0.01385
# Poissons Ratio (z) = -0.07843 -0.05190
#
# Static dielectric constant tensor:
#      x y z
#    x 1.828030 0.009580 -0.035620 
#    y 0.009580 1.862970 0.017630 
#    z -0.035620 0.017630 1.894870 
# 
# From -- ./inp_files/202159.got.cif
#   From: 2010.05.17/outbox.cif.g08.bks.cpg/sg2_102_cif.got.tgz:202159.got - 2010.06.03 11:33:40.
