data_PCOD9095082
_publ_section_title
;
Structure prediction by ZEFSAII (Michael W. Deem and Ramdas Pophale) SiO2 
 PCOD9095082
Probable space group: P -1
;
_chemical_formula_sum "Si O2"
_cell_formula_units_Z 16
_cell_length_a 13.851701
_cell_length_b 10.893017
_cell_length_c 13.265778
_cell_angle_alpha 55.331968
_cell_angle_beta 145.624471
_cell_angle_gamma 140.418694
_cell_volume 707.389110
_symmetry_space_group_name_H-M "P -1"
_symmetry_group_IT_number 2
_symmetry_cell_setting 'triclinic'
loop_
_space_group_symop_operation_xyz
x,y,z
-x,-y,-z
loop_
_atom_site_type_symbol
_atom_site_label
_atom_site_fract_x
_atom_site_fract_y
_atom_site_fract_z
Si Si1 0.948836 0.900668 0.614533
Si Si2 0.936062 0.160228 0.637656
Si Si3 0.758171 0.186442 0.150991
Si Si4 0.234697 0.819165 0.338872
Si Si5 0.475307 0.524376 0.611471
Si Si6 0.445276 0.831101 0.335377
Si Si7 0.859763 0.559092 0.480282
Si Si8 0.207579 0.557273 0.086092
O O1 0.707093 0.683157 0.505477
O O2 0.117858 0.859988 0.793572
O O3 0.976332 0.034100 0.665666
O O4 0.000000 0.000000 0.500000
O O5 0.920094 0.148938 0.750905
O O6 0.103844 0.375965 0.633947
O O7 0.676218 0.050568 0.438645
O O8 0.909265 0.260001 0.347827
O O9 0.798908 0.377580 0.060202
O O10 0.500000 0.000000 0.000000
O O11 0.241019 0.797796 0.233575
O O12 0.176567 0.632256 0.432439
O O13 0.500000 0.000000 0.500000
O O14 0.476304 0.690217 0.487179
O O15 0.353844 0.476764 0.637503
O O16 0.707298 0.564562 0.787926
O O17 0.400498 0.761018 0.215668
O O18 0.000000 0.500000 0.000000
#
# Coordination Sequence:
#
# PCOD9095082 Si02
#       8
#     2   2   2   2   2   2   2   2
#     4  11  19  35  57  84 114 146 188 235 290 332
#     4  11  19  32  63  82 108 145 194 241 274 335
#     4  11  23  35  55  89 122 149 179 229 293 348
#     4   9  20  36  55  89 108 145 198 247 273 316
#     4  10  20  35  54  80 117 147 185 237 285 334
#     4  10  21  36  55  80 116 147 191 239 274 333
#     4  10  20  38  59  85 115 148 187 243 282 332
#     4  12  22  32  52  85 116 153 181 224 292 342
#
# _framework density 22.618386999999998
#
# number of rings (size 3 to 8) (size 9 to 14) (size 15 to 20)
#    0.000    1.500    3.750    4.500    1.750    0.000 
#    0.000    0.000    0.000    1.500   19.500    0.000 
#    0.000    0.000    0.000    0.000    0.000    0.000 
#
# Total GULP energy -89139.981992 kJ/mol
# GULP energy per Si atom -5571.248875 kJ/mol
# Density = 2.256691 g / cm^3
# Si number density = 22.618387 Si / 1000 Ang^3
#
#
#
# Elastic Constant Matrix: (Units=GPa)
#
#
# Indices 1 2 3 4 5 6 
#
# 1 149.7118 9.9631 22.5534 -13.8484 16.8498 1.6092
# 2 9.9631 87.7957 5.2925 1.4068 8.8443 10.1273
# 3 22.5534 5.2925 60.5819 -5.3402 25.0684 7.3769
# 4 -13.8484 1.4068 -5.3402 27.4810 6.8019 2.3348
# 5 16.8498 8.8443 25.0684 6.8019 33.0013 0.4822
# 6 1.6092 10.1273 7.3769 2.3348 0.4822 39.2397
#
#
#
# Elastic Compliance Matrix: (Units=1/GPa)
#
#
# Indices 1 2 3 4 5 6 
#
# 1 0.007752 -0.000438 -0.000522 0.004961 -0.004462 -0.000347
# 2 -0.000438 0.012150 0.001261 0.000698 -0.004085 -0.003346
# 3 -0.000522 0.001261 0.028169 0.011536 -0.023759 -0.005994
# 4 0.004961 0.000698 0.011536 0.046734 -0.021042 -0.005074
# 5 -0.004462 -0.004085 -0.023759 -0.021042 0.055968 0.006268
# 6 -0.000347 -0.003346 -0.005994 -0.005074 0.006268 0.027714
#
#
# Mechanical properties :
#
#
# Convention : Reuss Voigt Hill
#
# Bulk Modulus (GPa) = 20.54507 41.52302 31.03405
# Shear Modulus (GPa) = 25.75860 37.29643 31.52751
#
# Velocity S-wave (km/s) = 3.37832 4.06512 3.73753
# Velocity P-wave (km/s) = 4.93158 6.35858 5.68999
#
# Compressibility (1/GPa) = 0.04867347
#
# Stress axis : x y z
#
# Youngs Moduli (GPa) = 128.99748 82.30347 35.50008
#
# Poissons Ratio (x) = 0.03607 0.01852
# Poissons Ratio (y) = 0.05653 -0.04477
# Poissons Ratio (z) = 0.06731 -0.10380
#
# Static dielectric constant tensor:
#      x y z
#    x 1.983780 -0.028170 -0.031950 
#    y -0.028170 1.909050 0.039540 
#    z -0.031950 0.039540 1.886720 
# 
# From -- ./inp_files/270715.got.cif
#   From: 2010.05.17/outbox.cif.g08.bks.cpg/sg2_136_cif.got.tgz:270715.got - 2010.06.03 11:33:40.
