data_PCOD9095402
_publ_section_title
;
Structure prediction by ZEFSAII (Michael W. Deem and Ramdas Pophale) SiO2 
 PCOD9095402
Probable space group: P -1
;
_chemical_formula_sum "Si O2"
_cell_formula_units_Z 14
_cell_length_a 14.223843
_cell_length_b 7.895996
_cell_length_c 8.439912
_cell_angle_alpha 97.117412
_cell_angle_beta 71.452700
_cell_angle_gamma 143.448417
_cell_volume 520.451241
_symmetry_space_group_name_H-M "P -1"
_symmetry_group_IT_number 2
_symmetry_cell_setting 'triclinic'
loop_
_space_group_symop_operation_xyz
x,y,z
-x,-y,-z
loop_
_atom_site_type_symbol
_atom_site_label
_atom_site_fract_x
_atom_site_fract_y
_atom_site_fract_z
Si Si1 0.794815 0.832976 0.533792
Si Si2 0.552692 0.941844 0.598385
Si Si3 0.613823 0.265133 0.852902
Si Si4 0.546773 0.636550 0.167594
Si Si5 0.108034 0.712810 0.619496
Si Si6 0.952295 0.737748 0.281901
Si Si7 0.772306 0.657717 0.100092
O O1 0.598937 0.600534 0.650209
O O2 0.822419 0.675316 0.449555
O O3 0.901652 0.094631 0.379891
O O4 0.878124 0.988484 0.678241
O O5 0.673828 0.210337 0.690085
O O6 0.686913 0.003972 0.458069
O O7 0.500000 0.000000 0.500000
O O8 0.393357 0.644168 0.744430
O O9 0.480745 0.202665 0.828620
O O10 0.748316 0.546554 0.924610
O O11 0.500000 0.000000 0.000000
O O12 0.722465 0.788473 0.131789
O O13 0.500000 0.500000 0.000000
O O14 0.069341 0.498988 0.735365
O O15 0.000000 0.500000 0.500000
O O16 0.926477 0.786406 0.128573
#
# Coordination Sequence:
#
# PCOD9095402 Si02
#       7
#     2   2   2   2   2   2   2
#     4  10  21  37  58  86 119 152 192 241 291 341
#     4  11  19  33  58  86 111 146 194 235 282 338
#     4   9  21  37  55  80 116 151 181 237 296 340
#     4  10  20  36  56  81 112 152 190 236 288 342
#     4  10  20  35  57  85 120 150 186 237 291 341
#     4  10  21  37  58  87 118 153 191 238 293 344
#     4  10  20  36  56  84 116 146 192 236 288 344
#
# _framework density 26.899737999999999
#
# number of rings (size 3 to 8) (size 9 to 14) (size 15 to 20)
#    0.000    2.000    2.857    0.857    0.000    1.714 
#    0.000    2.857    0.000    6.857    0.000    0.000 
#    0.000    0.000    0.000    0.000    0.000    0.000 
#
# Total GULP energy -78039.402102 kJ/mol
# GULP energy per Si atom -5574.243007 kJ/mol
# Density = 2.683851 g / cm^3
# Si number density = 26.899738 Si / 1000 Ang^3
#
#
#
# Elastic Constant Matrix: (Units=GPa)
#
#
# Indices 1 2 3 4 5 6 
#
# 1 151.9569 38.1519 30.9448 -12.8228 31.2562 4.7478
# 2 38.1519 72.6277 24.6891 7.1615 13.3488 3.9218
# 3 30.9448 24.6891 66.3659 0.4604 20.1694 -2.7829
# 4 -12.8228 7.1615 0.4604 38.3200 2.3978 19.3275
# 5 31.2562 13.3488 20.1694 2.3978 57.2618 -16.1149
# 6 4.7478 3.9218 -2.7829 19.3275 -16.1149 54.6958
#
#
#
# Elastic Compliance Matrix: (Units=1/GPa)
#
#
# Indices 1 2 3 4 5 6 
#
# 1 0.009724 -0.003965 -0.001667 0.006660 -0.005364 -0.004578
# 2 -0.003965 0.017921 -0.004769 -0.004901 0.000028 0.000557
# 3 -0.001667 -0.004769 0.019051 0.000450 -0.004735 -0.000098
# 4 0.006660 -0.004901 0.000450 0.037963 -0.008803 -0.016212
# 5 -0.005364 0.000028 -0.004735 -0.008803 0.025471 0.010838
# 6 -0.004578 0.000557 -0.000098 -0.016212 0.010838 0.027557
#
#
# Mechanical properties :
#
#
# Convention : Reuss Voigt Hill
#
# Bulk Modulus (GPa) = 38.61995 53.16914 45.89454
# Shear Modulus (GPa) = 29.91818 43.19983 36.55900
#
# Velocity S-wave (km/s) = 3.33860 4.01179 3.69058
# Velocity P-wave (km/s) = 5.40831 6.42400 5.93791
#
# Compressibility (1/GPa) = 0.02589335
#
# Stress axis : x y z
#
# Youngs Moduli (GPa) = 102.83741 55.80030 52.48942
#
# Poissons Ratio (x) = 0.22125 0.08751
# Poissons Ratio (y) = 0.40776 0.25034
# Poissons Ratio (z) = 0.17145 0.26613
#
# Static dielectric constant tensor:
#      x y z
#    x 1.635510 0.795960 -0.283400 
#    y 0.795960 0.973330 0.500040 
#    z -0.283400 0.500040 2.008240 
# 
# From -- ./inp_files/165032.got.cif
#   From: 2010.05.17/outbox.cif.g08.bks.cpg/sg2_83_cif.got.tgz:165032.got - 2010.06.03 11:33:40.
