data_PCOD9095879
_publ_section_title
;
Structure prediction by ZEFSAII (Michael W. Deem and Ramdas Pophale) SiO2 
 PCOD9095879
Probable space group: P -1
;
_chemical_formula_sum "Si O2"
_cell_formula_units_Z 16
_cell_length_a 5.032361
_cell_length_b 12.836798
_cell_length_c 11.386622
_cell_angle_alpha 61.548255
_cell_angle_beta 104.306766
_cell_angle_gamma 87.835686
_cell_volume 616.142524
_symmetry_space_group_name_H-M "P -1"
_symmetry_group_IT_number 2
_symmetry_cell_setting 'triclinic'
loop_
_space_group_symop_operation_xyz
x,y,z
-x,-y,-z
loop_
_atom_site_type_symbol
_atom_site_label
_atom_site_fract_x
_atom_site_fract_y
_atom_site_fract_z
Si Si1 0.978142 0.089256 0.837783
Si Si2 0.678371 0.625413 0.487389
Si Si3 0.127458 0.226026 0.397179
Si Si4 0.728862 0.422502 0.350662
Si Si5 0.427024 0.767163 0.907423
Si Si6 0.717423 0.573483 0.872980
Si Si7 0.549757 0.768471 0.190140
Si Si8 0.819030 0.909725 0.738573
O O1 0.753040 0.200462 0.800141
O O2 0.272494 0.126906 0.825485
O O3 0.873272 0.029598 0.743056
O O4 0.000000 0.000000 0.000000
O O5 0.409228 0.586638 0.533288
O O6 0.688848 0.650004 0.338605
O O7 0.687253 0.756824 0.479039
O O8 0.962404 0.549781 0.613261
O O9 0.818860 0.284772 0.378789
O O10 0.184532 0.103107 0.396459
O O11 0.192620 0.325204 0.256665
O O12 0.487720 0.485939 0.202836
O O13 0.526460 0.643169 0.916704
O O14 0.097053 0.811742 0.854018
O O15 0.559060 0.866438 0.795794
O O16 0.538697 0.757981 0.056004
O O17 0.000000 0.500000 0.000000
#
# Coordination Sequence:
#
# PCOD9095879 Si02
#       8
#     2   2   2   2   2   2   2   2
#     4  12  22  35  53  83 111 145 177 237 269 314
#     4   9  19  35  55  75 104 148 192 208 256 332
#     4   8  19  36  57  75 108 148 172 218 269 319
#     4   9  17  36  56  76 104 148 177 216 268 313
#     4  11  20  35  54  80 111 144 171 221 277 329
#     4  10  20  35  60  92 110 131 177 228 279 323
#     4  12  22  36  56  80 110 146 188 220 267 318
#     4  11  20  35  55  77 111 142 183 217 283 321
#
# _framework density 25.968015000000001
#
# number of rings (size 3 to 8) (size 9 to 14) (size 15 to 20)
#    0.750    1.000    3.750    1.875    0.000    0.500 
#    0.000    1.250    0.000    3.750    0.000    0.000 
#    0.000    0.000    0.000    0.000    0.000    0.000 
#
# Total GULP energy -89454.078090 kJ/mol
# GULP energy per Si atom -5590.879881 kJ/mol
# Density = 2.590891 g / cm^3
# Si number density = 25.968015 Si / 1000 Ang^3
#
#
#
# Elastic Constant Matrix: (Units=GPa)
#
#
# Indices 1 2 3 4 5 6 
#
# 1 99.8848 -7.9057 18.0963 -5.6836 1.7911 -5.9063
# 2 -7.9057 65.2952 1.0610 16.0958 -5.4034 -19.5143
# 3 18.0963 1.0610 64.5572 -2.1946 -6.8594 -9.8400
# 4 -5.6836 16.0958 -2.1946 24.2962 -11.4502 -8.2830
# 5 1.7911 -5.4034 -6.8594 -11.4502 37.3158 3.9177
# 6 -5.9063 -19.5143 -9.8400 -8.2830 3.9177 45.3409
#
#
#
# Elastic Compliance Matrix: (Units=1/GPa)
#
#
# Indices 1 2 3 4 5 6 
#
# 1 0.010840 0.001425 -0.002784 0.001717 -0.000485 0.001777
# 2 0.001425 0.020247 -0.000219 -0.011412 -0.001402 0.006889
# 3 -0.002784 -0.000219 0.017447 0.004354 0.004250 0.003757
# 4 0.001717 -0.011412 0.004354 0.059294 0.016667 0.005649
# 5 -0.000485 -0.001402 0.004250 0.016667 0.032462 0.000496
# 6 0.001777 0.006889 0.003757 0.005649 0.000496 0.027056
#
#
# Mechanical properties :
#
#
# Convention : Reuss Voigt Hill
#
# Bulk Modulus (GPa) = 22.03746 28.02670 25.03208
# Shear Modulus (GPa) = 26.93548 35.95627 31.44588
#
# Velocity S-wave (km/s) = 3.22414 3.72511 3.48364
# Velocity P-wave (km/s) = 4.72916 5.41462 5.08345
#
# Compressibility (1/GPa) = 0.04537727
#
# Stress axis : x y z
#
# Youngs Moduli (GPa) = 92.24835 49.38986 57.31771
#
# Poissons Ratio (x) = -0.07040 0.15960
# Poissons Ratio (y) = -0.13149 0.01257
# Poissons Ratio (z) = 0.25686 0.01083
#
# Static dielectric constant tensor:
#      x y z
#    x 1.978150 0.049350 0.042270 
#    y 0.049350 2.275710 -0.000980 
#    z 0.042270 -0.000980 2.024510 
# 
# From -- ./inp_files/366889.got.cif
#   From: 2010.05.17/outbox.cif.g08.bks.cpg/sg2_184_cif.got.tgz:366889.got - 2010.06.03 11:33:40.
