data_PCOD9095718
_publ_section_title
;
Structure prediction by ZEFSAII (Michael W. Deem and Ramdas Pophale) SiO2 
 PCOD9095718
Probable space group: P -1
;
_chemical_formula_sum "Si O2"
_cell_formula_units_Z 16
_cell_length_a 7.775115
_cell_length_b 18.428711
_cell_length_c 17.309892
_cell_angle_alpha 157.086008
_cell_angle_beta 127.205139
_cell_angle_gamma 41.602310
_cell_volume 606.298573
_symmetry_space_group_name_H-M "P -1"
_symmetry_group_IT_number 2
_symmetry_cell_setting 'triclinic'
loop_
_space_group_symop_operation_xyz
x,y,z
-x,-y,-z
loop_
_atom_site_type_symbol
_atom_site_label
_atom_site_fract_x
_atom_site_fract_y
_atom_site_fract_z
Si Si1 0.472008 0.027918 0.325208
Si Si2 0.622051 0.023100 0.922775
Si Si3 0.124780 0.612264 0.453568
Si Si4 0.248805 0.629172 0.743408
Si Si5 0.555306 0.220454 0.302814
Si Si6 0.428293 0.432462 0.077039
Si Si7 0.609949 0.194294 0.663586
Si Si8 0.944929 0.703827 0.328406
O O1 0.506252 0.955854 0.175321
O O2 0.645046 0.072959 0.469776
O O3 0.476296 0.825845 0.170711
O O4 0.172385 0.277038 0.488670
O O5 0.418125 0.012490 0.910185
O O6 0.923296 0.776990 0.785639
O O7 0.686302 0.207067 0.119850
O O8 0.348968 0.392697 0.349251
O O9 0.171842 0.809117 0.668898
O O10 0.125165 0.573711 0.325461
O O11 0.421168 0.380480 0.501109
O O12 0.362882 0.594591 0.827664
O O13 0.401839 0.584586 0.146456
O O14 0.134426 0.564495 0.169705
O O15 0.328284 0.270168 0.701011
O O16 0.851520 0.970116 0.558078
#
# Coordination Sequence:
#
# PCOD9095718 Si02
#       8
#     2   2   2   2   2   2   2   2
#     4  10  22  40  60  92 121 152 208 249 294 371
#     4  10  21  35  59  88 119 156 197 245 296 358
#     4  10  22  38  58  90 124 154 204 251 289 365
#     4  10  20  35  59  89 120 152 202 245 290 368
#     4  11  20  37  61  82 120 167 192 237 309 351
#     4  11  22  41  66  89 123 162 195 252 311 353
#     4  10  23  43  67  87 121 163 197 254 312 348
#     4  10  22  43  63  93 122 153 211 251 294 371
#
# _framework density 26.389638999999999
#
# number of rings (size 3 to 8) (size 9 to 14) (size 15 to 20)
#    0.000    1.750    2.500    1.500    3.500    0.500 
#    4.500    8.125    0.000    0.000    0.000    0.000 
#    0.000    0.000    0.000    0.000    0.000    0.000 
#
# Total GULP energy -89519.869300 kJ/mol
# GULP energy per Si atom -5594.991831 kJ/mol
# Density = 2.632958 g / cm^3
# Si number density = 26.389639 Si / 1000 Ang^3
#
#
#
# Elastic Constant Matrix: (Units=GPa)
#
#
# Indices 1 2 3 4 5 6 
#
# 1 77.7063 0.5404 10.7733 -2.7648 18.5167 16.8211
# 2 0.5404 66.6029 1.7036 -9.6093 -13.4557 14.5413
# 3 10.7733 1.7036 78.3299 -7.5320 27.0599 5.6604
# 4 -2.7648 -9.6093 -7.5320 35.2027 -2.2274 -6.3901
# 5 18.5167 -13.4557 27.0599 -2.2274 44.5273 7.1612
# 6 16.8211 14.5413 5.6604 -6.3901 7.1612 34.5117
#
#
#
# Elastic Compliance Matrix: (Units=1/GPa)
#
#
# Indices 1 2 3 4 5 6 
#
# 1 0.015569 0.000162 0.000211 -0.000233 -0.005505 -0.006592
# 2 0.000162 0.019389 -0.002535 0.003695 0.008966 -0.009009
# 3 0.000211 -0.002535 0.016784 0.002387 -0.011088 0.000955
# 4 -0.000233 0.003695 0.002387 0.030622 0.000701 0.003690
# 5 -0.005505 0.008966 -0.011088 0.000701 0.035270 -0.006465
# 6 -0.006592 -0.009009 0.000955 0.003690 -0.006465 0.037852
#
#
# Mechanical properties :
#
#
# Convention : Reuss Voigt Hill
#
# Bulk Modulus (GPa) = 21.08952 27.63042 24.35997
# Shear Modulus (GPa) = 28.47099 36.82313 32.64706
#
# Velocity S-wave (km/s) = 3.28818 3.73951 3.52108
# Velocity P-wave (km/s) = 4.73552 5.39798 5.07756
#
# Compressibility (1/GPa) = 0.04741692
#
# Stress axis : x y z
#
# Youngs Moduli (GPa) = 64.22969 51.57459 59.58231
#
# Poissons Ratio (x) = -0.00834 -0.01257
# Poissons Ratio (y) = -0.01038 0.15105
# Poissons Ratio (z) = -0.01355 0.13075
#
# Static dielectric constant tensor:
#      x y z
#    x 2.106200 0.034970 -0.049190 
#    y 0.034970 2.056550 -0.028140 
#    z -0.049190 -0.028140 2.087800 
# 
# From -- ./inp_files/557320.got.cif
#   From: 2010.05.17/outbox.cif.g08.bks.cpg/sg2_279_cif.got.tgz:557320.got - 2010.06.03 11:33:40.
