data_PCOD9095009
_publ_section_title
;
Structure prediction by ZEFSAII (Michael W. Deem and Ramdas Pophale) SiO2 
 PCOD9095009
Probable space group: P -1
;
_chemical_formula_sum "Si O2"
_cell_formula_units_Z 16
_cell_length_a 15.177880
_cell_length_b 8.894338
_cell_length_c 7.628101
_cell_angle_alpha 52.979999
_cell_angle_beta 98.574626
_cell_angle_gamma 103.856681
_cell_volume 798.252647
_symmetry_space_group_name_H-M "P -1"
_symmetry_group_IT_number 2
_symmetry_cell_setting 'triclinic'
loop_
_space_group_symop_operation_xyz
x,y,z
-x,-y,-z
loop_
_atom_site_type_symbol
_atom_site_label
_atom_site_fract_x
_atom_site_fract_y
_atom_site_fract_z
Si Si1 0.862599 0.462530 0.339184
Si Si2 0.399045 0.508933 0.908406
Si Si3 0.946405 0.432719 0.743794
Si Si4 0.198650 0.907761 0.913260
Si Si5 0.298377 0.834983 0.668576
Si Si6 0.281359 0.254779 0.339442
Si Si7 0.089983 0.151164 0.461891
Si Si8 0.282041 0.293924 0.734430
O O1 0.916611 0.383652 0.568643
O O2 0.795213 0.290772 0.346996
O O3 0.798271 0.596131 0.308759
O O4 0.948974 0.576050 0.177458
O O5 0.377883 0.721716 0.731887
O O6 0.368363 0.395437 0.799539
O O7 0.500000 0.500000 0.000000
O O8 0.295766 0.307131 0.516383
O O9 0.935006 0.649174 0.626550
O O10 0.871786 0.280061 0.926888
O O11 0.275848 0.847104 0.858480
O O12 0.139621 0.039043 0.698057
O O13 0.252165 0.071299 0.941728
O O14 0.313765 0.053926 0.457906
O O15 0.172517 0.210686 0.307195
O O16 0.331660 0.411504 0.111442
O O17 0.000000 0.000000 0.500000
#
# Coordination Sequence:
#
# PCOD9095009 Si02
#       8
#     2   2   2   2   2   2   2   2
#     4  10  20  35  52  84 121 153 195 246 283 340
#     4  11  24  41  66  91 111 152 202 243 310 368
#     4  11  20  32  55  82 118 156 202 236 283 336
#     4  10  21  37  57  82 114 159 197 236 294 352
#     4   9  21  39  58  84 115 149 197 239 298 362
#     4  10  21  41  61  84 126 158 186 251 300 334
#     4  10  20  36  56  86 120 159 204 235 281 348
#     4   9  21  43  57  87 121 150 200 243 299 361
#
# _framework density 20.043780999999999
#
# number of rings (size 3 to 8) (size 9 to 14) (size 15 to 20)
#    0.000    2.250    2.500    2.250    1.750    5.500 
#    0.000    2.500    0.000    0.000    0.000    0.000 
#    0.000    0.000    0.000    0.000    0.000    0.000 
#
# Total GULP energy -89151.247681 kJ/mol
# GULP energy per Si atom -5571.952980 kJ/mol
# Density = 1.999816 g / cm^3
# Si number density = 20.043781 Si / 1000 Ang^3
#
#
#
# Elastic Constant Matrix: (Units=GPa)
#
#
# Indices 1 2 3 4 5 6 
#
# 1 67.3751 24.3927 3.2594 2.1415 22.1887 7.4960
# 2 24.3927 98.9525 13.3562 -9.6238 17.7796 -9.9438
# 3 3.2594 13.3562 30.1150 -6.0245 -3.1355 -5.5453
# 4 2.1415 -9.6238 -6.0245 21.3781 1.3877 10.6052
# 5 22.1887 17.7796 -3.1355 1.3877 26.3756 2.5188
# 6 7.4960 -9.9438 -5.5453 10.6052 2.5188 23.7625
#
#
#
# Elastic Compliance Matrix: (Units=1/GPa)
#
#
# Indices 1 2 3 4 5 6 
#
# 1 0.022388 -0.002635 -0.004356 0.000136 -0.016871 -0.007454
# 2 -0.002635 0.013729 -0.005147 0.003120 -0.008278 0.004860
# 3 -0.004356 -0.005147 0.039172 0.006260 0.011041 0.004397
# 4 0.000136 0.003120 0.006260 0.062433 -0.002382 -0.024888
# 5 -0.016871 -0.008278 0.011041 -0.002382 0.059199 -0.000777
# 6 -0.007454 0.004860 0.004397 -0.024888 -0.000777 0.058684
#
#
# Mechanical properties :
#
#
# Convention : Reuss Voigt Hill
#
# Bulk Modulus (GPa) = 19.60275 30.93991 25.27133
# Shear Modulus (GPa) = 16.84144 24.66554 20.75349
#
# Velocity S-wave (km/s) = 2.90182 3.51177 3.22127
# Velocity P-wave (km/s) = 4.58570 5.64917 5.14498
#
# Compressibility (1/GPa) = 0.05101326
#
# Stress axis : x y z
#
# Youngs Moduli (GPa) = 44.66622 72.83604 25.52857
#
# Poissons Ratio (x) = 0.19195 0.11121
# Poissons Ratio (y) = 0.11771 0.13138
# Poissons Ratio (z) = 0.19458 0.37485
#
# Static dielectric constant tensor:
#      x y z
#    x 1.743160 0.010510 -0.044920 
#    y 0.010510 1.767840 0.026100 
#    z -0.044920 0.026100 1.785360 
# 
# From -- ./inp_files/212148.got.cif
#   From: 2010.05.17/outbox.cif.g08.bks.cpg/sg2_107_cif.got.tgz:212148.got - 2010.06.03 11:33:40.
