data_PCOD9095292
_publ_section_title
;
Structure prediction by ZEFSAII (Michael W. Deem and Ramdas Pophale) SiO2 
 PCOD9095292
Probable space group: P -1
;
_chemical_formula_sum "Si O2"
_cell_formula_units_Z 14
_cell_length_a 9.886252
_cell_length_b 8.629222
_cell_length_c 7.199458
_cell_angle_alpha 90.517394
_cell_angle_beta 75.874431
_cell_angle_gamma 57.619298
_cell_volume 495.630471
_symmetry_space_group_name_H-M "P -1"
_symmetry_group_IT_number 2
_symmetry_cell_setting 'triclinic'
loop_
_space_group_symop_operation_xyz
x,y,z
-x,-y,-z
loop_
_atom_site_type_symbol
_atom_site_label
_atom_site_fract_x
_atom_site_fract_y
_atom_site_fract_z
Si Si1 0.493263 0.928887 0.294191
Si Si2 0.803988 0.927578 0.160544
Si Si3 0.069806 0.712519 0.822571
Si Si4 0.303089 0.551591 0.376116
Si Si5 0.808670 0.061795 0.548176
Si Si6 0.952932 0.475149 0.723326
Si Si7 0.582015 0.516777 0.159945
O O1 0.627879 0.960617 0.153075
O O2 0.291704 0.025923 0.337374
O O3 0.565914 0.708318 0.237619
O O4 0.500000 0.000000 0.500000
O O5 0.917777 0.732582 0.241661
O O6 0.780113 0.065606 0.335661
O O7 0.918064 0.912089 0.949228
O O8 0.179439 0.632426 0.595478
O O9 0.219052 0.629764 0.916405
O O10 0.969885 0.612409 0.846932
O O11 0.280262 0.741532 0.318774
O O12 0.233288 0.471096 0.255459
O O13 0.501204 0.435936 0.327238
O O14 0.000000 0.000000 0.500000
O O15 0.000000 0.500000 0.500000
O O16 0.500000 0.500000 0.000000
#
# Coordination Sequence:
#
# PCOD9095292 Si02
#       7
#     2   2   2   2   2   2   2
#     4   9  21  37  57  86 116 156 200 240 299 358
#     4  11  20  37  61  85 116 157 203 235 300 362
#     4  11  23  36  60  87 122 159 190 250 299 360
#     4  10  22  39  56  90 120 154 200 243 305 348
#     4  10  20  37  63  82 114 155 200 250 291 357
#     4  10  20  35  56  86 117 152 191 240 293 351
#     4  11  22  36  62  91 121 151 201 254 300 356
#
# _framework density 28.246852000000001
#
# number of rings (size 3 to 8) (size 9 to 14) (size 15 to 20)
#    0.000    1.714    2.857    1.714    4.000    0.571 
#    0.000    0.000    0.000    0.857    0.000    0.000 
#    0.000    0.000    0.000    0.000    0.000    0.000 
#
# Total GULP energy -77961.046380 kJ/mol
# GULP energy per Si atom -5568.646170 kJ/mol
# Density = 2.818256 g / cm^3
# Si number density = 28.246852 Si / 1000 Ang^3
#
#
#
# Elastic Constant Matrix: (Units=GPa)
#
#
# Indices 1 2 3 4 5 6 
#
# 1 298.6813 17.2724 73.9560 17.9073 -0.6744 14.1736
# 2 17.2724 63.7323 18.8504 20.4436 20.3631 -4.7800
# 3 73.9560 18.8504 163.9248 3.3233 -9.7843 0.8886
# 4 17.9073 20.4436 3.3233 44.4140 2.1888 7.1704
# 5 -0.6744 20.3631 -9.7843 2.1888 59.9745 5.3035
# 6 14.1736 -4.7800 0.8886 7.1704 5.3035 27.4935
#
#
#
# Elastic Compliance Matrix: (Units=1/GPa)
#
#
# Indices 1 2 3 4 5 6 
#
# 1 0.003936 -0.000424 -0.001691 -0.000978 0.000108 -0.001814
# 2 -0.000424 0.024007 -0.002921 -0.011715 -0.009026 0.009283
# 3 -0.001691 -0.002921 0.007302 0.001482 0.002170 -0.000677
# 4 -0.000978 -0.011715 0.001482 0.029621 0.004019 -0.010081
# 5 0.000108 -0.009026 0.002170 0.004019 0.020540 -0.006706
# 6 -0.001814 0.009283 -0.000677 -0.010081 -0.006706 0.042866
#
#
# Mechanical properties :
#
#
# Convention : Reuss Voigt Hill
#
# Bulk Modulus (GPa) = 39.72278 82.94400 61.33339
# Shear Modulus (GPa) = 34.07489 54.12703 44.10096
#
# Velocity S-wave (km/s) = 3.47699 4.38221 3.95558
# Velocity P-wave (km/s) = 5.49659 7.41840 6.52860
#
# Compressibility (1/GPa) = 0.02517447
#
# Stress axis : x y z
#
# Youngs Moduli (GPa) = 254.05087 41.65376 136.94249
#
# Poissons Ratio (x) = 0.01764 0.23157
# Poissons Ratio (y) = 0.10760 0.40004
# Poissons Ratio (z) = 0.42961 0.12168
#
# Static dielectric constant tensor:
#      x y z
#    x 2.516430 -0.222080 -0.368580 
#    y -0.222080 2.545920 0.024430 
#    z -0.368580 0.024430 2.670170 
# 
# From -- ./inp_files/165529.got.cif
#   From: 2010.05.17/outbox.cif.g08.bks.cpg/sg2_83_cif.got.tgz:165529.got - 2010.06.03 11:33:40.
