data_PCOD9095576
_publ_section_title
;
Structure prediction by ZEFSAII (Michael W. Deem and Ramdas Pophale) SiO2 
 PCOD9095576
Probable space group: P -1
;
_chemical_formula_sum "Si O2"
_cell_formula_units_Z 16
_cell_length_a 8.886327
_cell_length_b 12.402846
_cell_length_c 21.686349
_cell_angle_alpha 158.420324
_cell_angle_beta 123.157638
_cell_angle_gamma 62.828476
_cell_volume 725.399369
_symmetry_space_group_name_H-M "P -1"
_symmetry_group_IT_number 2
_symmetry_cell_setting 'triclinic'
loop_
_space_group_symop_operation_xyz
x,y,z
-x,-y,-z
loop_
_atom_site_type_symbol
_atom_site_label
_atom_site_fract_x
_atom_site_fract_y
_atom_site_fract_z
Si Si1 0.136070 0.814185 0.653900
Si Si2 0.582196 0.615266 0.514735
Si Si3 0.576487 0.528760 0.190495
Si Si4 0.187084 0.663702 0.206832
Si Si5 0.576583 0.776820 0.120833
Si Si6 0.703724 0.121971 0.454663
Si Si7 0.915422 0.747156 0.447956
Si Si8 0.893748 0.118463 0.832743
O O1 0.291920 0.625983 0.603207
O O2 0.008531 0.683181 0.499160
O O3 0.227910 0.151861 0.832739
O O4 0.018284 0.871573 0.715910
O O5 0.500000 0.500000 0.500000
O O6 0.430218 0.637929 0.440234
O O7 0.713925 0.934841 0.724820
O O8 0.385487 0.562515 0.198637
O O9 0.742038 0.510180 0.263428
O O10 0.644513 0.841314 0.335733
O O11 0.550264 0.279427 0.998037
O O12 0.168858 0.776494 0.192249
O O13 0.157959 0.940648 0.390379
O O14 0.019910 0.395540 0.039821
O O15 0.635392 0.023299 0.317478
O O16 0.500000 0.500000 0.000000
O O17 0.919937 0.220214 0.547905
#
# Coordination Sequence:
#
# PCOD9095576 Si02
#       8
#     2   2   2   2   2   2   2   2
#     4  10  20  38  55  84 113 147 192 235 280 336
#     4  12  21  36  60  82 114 148 196 237 274 333
#     4  11  19  35  59  84 119 148 182 235 292 337
#     4  10  20  35  58  89 117 140 186 238 294 332
#     4   9  18  31  57  83 113 141 186 235 278 324
#     4  10  21  36  54  85 112 152 188 232 278 330
#     4  10  21  34  55  87 121 147 182 232 288 344
#     4  10  21  35  58  88 112 143 190 245 282 330
#
# _framework density 22.056815
#
# number of rings (size 3 to 8) (size 9 to 14) (size 15 to 20)
#    0.000    1.750    5.000    1.125    1.750    1.000 
#    0.000    0.000    0.000    5.250    0.000    0.000 
#    0.000    0.000    0.000    0.000    0.000    0.000 
#
# Total GULP energy -89098.202964 kJ/mol
# GULP energy per Si atom -5568.637685 kJ/mol
# Density = 2.200661 g / cm^3
# Si number density = 22.056815 Si / 1000 Ang^3
#
#
#
# Elastic Constant Matrix: (Units=GPa)
#
#
# Indices 1 2 3 4 5 6 
#
# 1 67.4470 4.8386 27.0535 -5.4450 25.5265 -15.9816
# 2 4.8386 51.7468 29.1066 -12.1773 0.1421 -13.3393
# 3 27.0535 29.1066 86.6083 -22.4107 26.0827 2.4767
# 4 -5.4450 -12.1773 -22.4107 38.6529 2.9637 9.0312
# 5 25.5265 0.1421 26.0827 2.9637 44.3793 4.7331
# 6 -15.9816 -13.3393 2.4767 9.0312 4.7331 32.7162
#
#
#
# Elastic Compliance Matrix: (Units=1/GPa)
#
#
# Indices 1 2 3 4 5 6 
#
# 1 0.026326 0.006033 -0.007528 -0.002063 -0.012549 0.018275
# 2 0.006033 0.030415 -0.013911 -0.001703 0.002969 0.016441
# 3 -0.007528 -0.013911 0.025375 0.013181 -0.009983 -0.013464
# 4 -0.002063 -0.001703 0.013181 0.035968 -0.007729 -0.011511
# 5 -0.012549 0.002969 -0.009983 -0.007729 0.036911 -0.007370
# 6 0.018275 0.016441 -0.013464 -0.011511 -0.007370 0.051460
#
#
# Mechanical properties :
#
#
# Convention : Reuss Voigt Hill
#
# Bulk Modulus (GPa) = 19.49202 36.42217 27.95710
# Shear Modulus (GPa) = 19.65656 32.80324 26.22990
#
# Velocity S-wave (km/s) = 2.98850 3.86063 3.45221
# Velocity P-wave (km/s) = 4.55681 6.03501 5.34724
#
# Compressibility (1/GPa) = 0.05130304
#
# Stress axis : x y z
#
# Youngs Moduli (GPa) = 37.98505 32.87882 39.40909
#
# Poissons Ratio (x) = -0.19835 0.29668
# Poissons Ratio (y) = -0.22915 0.54821
# Poissons Ratio (z) = 0.28596 0.45737
#
# Static dielectric constant tensor:
#      x y z
#    x 1.998570 -0.104100 -0.028570 
#    y -0.104100 1.861640 0.043840 
#    z -0.028570 0.043840 1.896500 
# 
# From -- ./inp_files/617335.got.cif
#   From: 2010.05.17/outbox.cif.g08.bks.cpg/sg2_309_cif.got.tgz:617335.got - 2010.06.03 11:33:40.
