data_PCOD9095006
_publ_section_title
;
Structure prediction by ZEFSAII (Michael W. Deem and Ramdas Pophale) SiO2 
 PCOD9095006
Probable space group: P -1
;
_chemical_formula_sum "Si O2"
_cell_formula_units_Z 14
_cell_length_a 11.252162
_cell_length_b 16.477092
_cell_length_c 5.159171
_cell_angle_alpha 72.050165
_cell_angle_beta 75.273275
_cell_angle_gamma 41.549664
_cell_volume 603.132386
_symmetry_space_group_name_H-M "P -1"
_symmetry_group_IT_number 2
_symmetry_cell_setting 'triclinic'
loop_
_space_group_symop_operation_xyz
x,y,z
-x,-y,-z
loop_
_atom_site_type_symbol
_atom_site_label
_atom_site_fract_x
_atom_site_fract_y
_atom_site_fract_z
Si Si1 0.117286 0.762535 0.905659
Si Si2 0.287237 0.602210 0.470672
Si Si3 0.205646 0.374262 0.457548
Si Si4 0.506983 0.110813 0.486348
Si Si5 0.715925 0.982854 0.004028
Si Si6 0.302877 0.831460 0.930839
Si Si7 0.332042 0.400003 0.850765
O O1 0.230354 0.649727 0.161589
O O2 0.182801 0.714007 0.624596
O O3 0.162528 0.837193 0.885643
O O4 0.908918 0.845441 0.978129
O O5 0.500000 0.500000 0.500000
O O6 0.243218 0.528265 0.654435
O O7 0.294886 0.238181 0.459567
O O8 0.300725 0.343586 0.710349
O O9 0.000000 0.500000 0.500000
O O10 0.253188 0.413246 0.156513
O O11 0.607322 0.011516 0.294054
O O12 0.593801 0.163018 0.345016
O O13 0.582534 0.041616 0.782410
O O14 0.759361 0.061855 0.949896
O O15 0.455815 0.699269 0.119932
#
# Coordination Sequence:
#
# PCOD9095006 Si02
#       7
#     2   2   2   2   2   2   2
#     4  12  24  35  55  82 113 164 211 217 261 350
#     4  12  26  38  56  80 119 170 200 222 268 331
#     4  11  21  38  64  92 111 141 187 244 313 353
#     4   9  19  33  53  81 115 141 171 239 315 316
#     4  10  20  35  52  82 114 154 189 239 284 324
#     4   9  21  32  57  77 118 148 190 233 289 315
#     4  11  22  39  58  84 125 148 186 238 289 342
#
# _framework density 23.212150999999999
#
# number of rings (size 3 to 8) (size 9 to 14) (size 15 to 20)
#    0.857    0.571    2.857    3.000    6.000    0.571 
#    0.000    0.000    0.000    0.000    0.000   20.000 
#    0.000    0.000    0.000    0.000    0.000    0.000 
#
# Total GULP energy -78140.424856 kJ/mol
# GULP energy per Si atom -5581.458918 kJ/mol
# Density = 2.315932 g / cm^3
# Si number density = 23.212151 Si / 1000 Ang^3
#
#
#
# Elastic Constant Matrix: (Units=GPa)
#
#
# Indices 1 2 3 4 5 6 
#
# 1 24.6263 17.0100 -1.4793 10.5787 -0.0695 -1.3724
# 2 17.0100 92.9891 1.8525 21.5670 -5.5545 -30.9002
# 3 -1.4793 1.8525 79.0998 12.6145 -1.8555 -12.8391
# 4 10.5787 21.5670 12.6145 37.5626 3.2983 -7.0434
# 5 -0.0695 -5.5545 -1.8555 3.2983 21.1471 3.2080
# 6 -1.3724 -30.9002 -12.8391 -7.0434 3.2080 36.9759
#
#
#
# Elastic Compliance Matrix: (Units=1/GPa)
#
#
# Indices 1 2 3 4 5 6 
#
# 1 0.051544 -0.009278 0.001788 -0.011250 0.000771 -0.007429
# 2 -0.009278 0.019294 0.003047 -0.007008 0.004100 0.015146
# 3 0.001788 0.003047 0.014668 -0.006172 0.002093 0.006349
# 4 -0.011250 -0.007008 -0.006172 0.036441 -0.007984 -0.000783
# 5 0.000771 0.004100 0.002093 -0.007984 0.050051 -0.001682
# 6 -0.007429 0.015146 0.006349 -0.000783 -0.001682 0.041628
#
#
# Mechanical properties :
#
#
# Convention : Reuss Voigt Hill
#
# Bulk Modulus (GPa) = 13.05149 25.72017 19.38583
# Shear Modulus (GPa) = 20.15708 31.09258 25.62483
#
# Velocity S-wave (km/s) = 2.95003 3.66388 3.32616
# Velocity P-wave (km/s) = 4.15193 5.38547 4.80842
#
# Compressibility (1/GPa) = 0.07661958
#
# Stress axis : x y z
#
# Youngs Moduli (GPa) = 19.40108 51.83024 68.17464
#
# Poissons Ratio (x) = 0.48086 -0.12187
# Poissons Ratio (y) = 0.17999 -0.20772
# Poissons Ratio (z) = -0.03468 -0.15792
#
# Static dielectric constant tensor:
#      x y z
#    x 1.917630 0.055380 -0.041640 
#    y 0.055380 1.935210 0.009380 
#    z -0.041640 0.009380 1.820470 
# 
# From -- ./inp_files/80460.got.cif
#   From: 2010.05.17/outbox.cif.g08.bks.cpg/sg2_41_cif.got.tgz:80460.got - 2010.06.03 11:33:40.
