data_PCOD9095760
_publ_section_title
;
Structure prediction by ZEFSAII (Michael W. Deem and Ramdas Pophale) SiO2 
 PCOD9095760
Probable space group: P -1
;
_chemical_formula_sum "Si O2"
_cell_formula_units_Z 16
_cell_length_a 26.301097
_cell_length_b 18.287848
_cell_length_c 5.402066
_cell_angle_alpha 128.757519
_cell_angle_beta 48.636161
_cell_angle_gamma 159.434663
_cell_volume 684.769502
_symmetry_space_group_name_H-M "P -1"
_symmetry_group_IT_number 2
_symmetry_cell_setting 'triclinic'
loop_
_space_group_symop_operation_xyz
x,y,z
-x,-y,-z
loop_
_atom_site_type_symbol
_atom_site_label
_atom_site_fract_x
_atom_site_fract_y
_atom_site_fract_z
Si Si1 0.236129 0.855112 0.995489
Si Si2 0.822867 0.700225 0.131580
Si Si3 0.894046 0.644735 0.154228
Si Si4 0.536547 0.325134 0.005624
Si Si5 0.541224 0.658530 0.196415
Si Si6 0.181627 0.965444 0.661712
Si Si7 0.878798 0.970682 0.394594
Si Si8 0.947764 0.514694 0.899660
O O1 0.220929 0.906332 0.381818
O O2 0.162294 0.667487 0.926235
O O3 0.412193 0.088418 0.860348
O O4 0.111446 0.742693 0.970064
O O5 0.792743 0.599351 0.256522
O O6 0.711702 0.517371 0.896354
O O7 0.797318 0.780975 0.378219
O O8 0.002441 0.921079 0.967890
O O9 0.004872 0.834693 0.386756
O O10 0.859505 0.498842 0.060907
O O11 0.003921 0.749485 0.797899
O O12 0.500246 0.335739 0.404493
O O13 0.520870 0.370322 0.911202
O O14 0.722776 0.882868 0.092770
O O15 0.500000 0.500000 0.000000
O O16 0.223216 0.083625 0.548109
O O17 0.000000 0.500000 0.500000
#
# Coordination Sequence:
#
# PCOD9095760 Si02
#       8
#     2   2   2   2   2   2   2   2
#     4  10  22  38  61  94 125 162 204 273 335 384
#     4  10  24  39  59  90 125 179 217 252 313 382
#     4  11  21  36  64  88 125 160 215 271 312 380
#     4  11  25  42  62  91 136 174 213 266 321 391
#     4  11  24  38  63  94 130 174 214 261 327 388
#     4  10  20  35  59  93 123 161 206 267 323 377
#     4  10  21  39  61  88 128 167 219 261 311 376
#     4  11  21  38  67  94 122 154 215 273 339 383
#
# _framework density 23.365525000000002
#
# number of rings (size 3 to 8) (size 9 to 14) (size 15 to 20)
#    0.000    1.500    2.500    2.250    7.000    0.000 
#    0.000    0.625    0.000    1.500    0.000    0.000 
#    0.000    0.000    0.000    0.000    0.000    0.000 
#
# Total GULP energy -89095.140925 kJ/mol
# GULP energy per Si atom -5568.446308 kJ/mol
# Density = 2.331234 g / cm^3
# Si number density = 23.365525 Si / 1000 Ang^3
#
#
#
# Elastic Constant Matrix: (Units=GPa)
#
#
# Indices 1 2 3 4 5 6 
#
# 1 151.4634 29.8981 -2.0795 4.2865 8.8167 -26.6099
# 2 29.8981 102.5069 5.5237 11.2283 -11.1369 -2.8275
# 3 -2.0795 5.5237 30.2402 0.2891 11.3371 -7.2056
# 4 4.2865 11.2283 0.2891 31.1247 0.8358 -4.2216
# 5 8.8167 -11.1369 11.3371 0.8358 29.9868 10.5806
# 6 -26.6099 -2.8275 -7.2056 -4.2216 10.5806 38.3612
#
#
#
# Elastic Compliance Matrix: (Units=1/GPa)
#
#
# Indices 1 2 3 4 5 6 
#
# 1 0.010633 -0.004942 0.009545 0.002301 -0.013106 0.012672
# 2 -0.004942 0.013564 -0.009833 -0.005646 0.013397 -0.008592
# 3 0.009545 -0.009833 0.056087 0.006450 -0.037545 0.027496
# 4 0.002301 -0.005646 0.006450 0.035238 -0.009312 0.008837
# 5 -0.013106 0.013397 -0.037545 -0.009312 0.069061 -0.035229
# 6 0.012672 -0.008592 0.027496 0.008837 -0.035229 0.050079
#
#
# Mechanical properties :
#
#
# Convention : Reuss Voigt Hill
#
# Bulk Modulus (GPa) = 14.32203 38.98834 26.65518
# Shear Modulus (GPa) = 18.62915 36.61909 27.62412
#
# Velocity S-wave (km/s) = 2.82670 3.96312 3.44213
# Velocity P-wave (km/s) = 4.09835 6.13712 5.21827
#
# Compressibility (1/GPa) = 0.06982251
#
# Stress axis : x y z
#
# Youngs Moduli (GPa) = 94.04770 73.72587 17.82949
#
# Poissons Ratio (x) = 0.36435 -0.17018
# Poissons Ratio (y) = 0.46478 0.17532
# Poissons Ratio (z) = -0.89766 0.72497
#
# Static dielectric constant tensor:
#      x y z
#    x 1.993260 0.005580 -0.010460 
#    y 0.005580 2.023840 -0.153450 
#    z -0.010460 -0.153450 2.078610 
# 
# From -- ./inp_files/77234.got.cif
#   From: 2010.05.17/outbox.cif.g08.bks.cpg/sg2_39_cif.got.tgz:77234.got - 2010.06.03 11:33:40.
