data_PCOD9095833
_publ_section_title
;
Structure prediction by ZEFSAII (Michael W. Deem and Ramdas Pophale) SiO2 
 PCOD9095833
Probable space group: P -1
;
_chemical_formula_sum "Si O2"
_cell_formula_units_Z 12
_cell_length_a 11.309928
_cell_length_b 19.283888
_cell_length_c 7.977772
_cell_angle_alpha 36.835915
_cell_angle_beta 35.680035
_cell_angle_gamma 30.648192
_cell_volume 486.229708
_symmetry_space_group_name_H-M "P -1"
_symmetry_group_IT_number 2
_symmetry_cell_setting 'triclinic'
loop_
_space_group_symop_operation_xyz
x,y,z
-x,-y,-z
loop_
_atom_site_type_symbol
_atom_site_label
_atom_site_fract_x
_atom_site_fract_y
_atom_site_fract_z
Si Si1 0.809417 0.584178 0.710964
Si Si2 0.658286 0.138728 0.923677
Si Si3 0.934895 0.654587 0.861992
Si Si4 0.108925 0.112681 0.317275
Si Si5 0.631664 0.907325 0.286566
Si Si6 0.357136 0.636071 0.270310
O O1 0.730628 0.744307 0.506935
O O2 0.000000 0.500000 0.500000
O O3 0.552129 0.594327 0.976218
O O4 0.933588 0.502202 0.903811
O O5 0.692373 0.218728 0.879249
O O6 0.868689 0.111545 0.604132
O O7 0.366206 0.255611 0.979425
O O8 0.682337 0.992258 0.198639
O O9 0.974535 0.734169 0.813485
O O10 0.088620 0.664634 0.515635
O O11 0.334849 0.998550 0.403522
O O12 0.231544 0.087827 0.044488
O O13 0.500000 0.500000 0.500000
#
# Coordination Sequence:
#
# PCOD9095833 Si02
#       6
#     2   2   2   2   2   2
#     4  11  21  38  61  88 120 153 193 244 295 339
#     4  10  20  38  63  87 112 156 206 229 287 361
#     4   9  19  39  65  85 115 158 193 238 290 349
#     4   9  18  37  60  86 118 160 188 235 296 347
#     4  10  20  35  60  88 122 151 192 244 290 342
#     4   9  21  39  62  83 118 160 190 238 294 348
#
# _framework density 24.679691999999999
#
# number of rings (size 3 to 8) (size 9 to 14) (size 15 to 20)
#    0.000    2.333    1.667    0.500    0.000    3.333 
#    0.000   15.000    0.000    0.000    0.000    0.000 
#    0.000    0.000    0.000    0.000    0.000    0.000 
#
# Total GULP energy -67050.636744 kJ/mol
# GULP energy per Si atom -5587.553062 kJ/mol
# Density = 2.462352 g / cm^3
# Si number density = 24.679692 Si / 1000 Ang^3
#
#
#
# Elastic Constant Matrix: (Units=GPa)
#
#
# Indices 1 2 3 4 5 6 
#
# 1 46.1271 29.3588 74.1640 6.3034 -17.7355 -7.3700
# 2 29.3588 159.0765 101.2067 -7.6424 -16.8339 -7.1972
# 3 74.1640 101.2067 219.2183 25.1385 -29.3876 -4.7534
# 4 6.3034 -7.6424 25.1385 75.5840 4.0178 -9.1802
# 5 -17.7355 -16.8339 -29.3876 4.0178 46.8334 1.0200
# 6 -7.3700 -7.1972 -4.7534 -9.1802 1.0200 28.1366
#
#
#
# Elastic Compliance Matrix: (Units=1/GPa)
#
#
# Indices 1 2 3 4 5 6 
#
# 1 0.055979 0.003859 -0.019500 0.003275 0.009784 0.013069
# 2 0.003859 0.009766 -0.005966 0.003022 0.000894 0.003455
# 3 -0.019500 -0.005966 0.014288 -0.004413 -0.000061 -0.005658
# 4 0.003275 0.003022 -0.004413 0.015565 -0.001909 0.006033
# 5 0.009784 0.000894 -0.000061 -0.001909 0.025477 0.001234
# 6 0.013069 0.003455 -0.005658 0.006033 0.001234 0.040816
#
#
# Mechanical properties :
#
#
# Convention : Reuss Voigt Hill
#
# Bulk Modulus (GPa) = 27.16048 92.65343 59.90695
# Shear Modulus (GPa) = 23.00151 44.75696 33.87924
#
# Velocity S-wave (km/s) = 3.05618 4.26316 3.70909
# Velocity P-wave (km/s) = 4.84590 7.86489 6.53220
#
# Compressibility (1/GPa) = 0.03681820
#
# Stress axis : x y z
#
# Youngs Moduli (GPa) = 17.86396 102.39911 69.98741
#
# Poissons Ratio (x) = -0.39517 1.36478
# Poissons Ratio (y) = -0.06894 0.41754
# Poissons Ratio (z) = 0.34835 0.61091
#
# Static dielectric constant tensor:
#      x y z
#    x 2.019400 0.020510 0.006210 
#    y 0.020510 1.998940 0.005270 
#    z 0.006210 0.005270 1.958990 
# 
# From -- ./inp_files/77279.got.cif
#   From: 2010.05.17/outbox.cif.g08.bks.cpg/sg2_39_cif.got.tgz:77279.got - 2010.06.03 11:33:40.
