data_PCOD9095962
_publ_section_title
;
Structure prediction by ZEFSAII (Michael W. Deem and Ramdas Pophale) SiO2 
 PCOD9095962
Probable space group: P -1
;
_chemical_formula_sum "Si O2"
_cell_formula_units_Z 16
_cell_length_a 10.714287
_cell_length_b 18.522012
_cell_length_c 11.730791
_cell_angle_alpha 28.481758
_cell_angle_beta 119.089990
_cell_angle_gamma 129.163778
_cell_volume 845.672560
_symmetry_space_group_name_H-M "P -1"
_symmetry_group_IT_number 2
_symmetry_cell_setting 'triclinic'
loop_
_space_group_symop_operation_xyz
x,y,z
-x,-y,-z
loop_
_atom_site_type_symbol
_atom_site_label
_atom_site_fract_x
_atom_site_fract_y
_atom_site_fract_z
Si Si1 0.171016 0.455563 0.035024
Si Si2 0.606367 0.669479 0.061562
Si Si3 0.554385 0.882682 0.117361
Si Si4 0.511141 0.742690 0.697291
Si Si5 0.168199 0.593505 0.095339
Si Si6 0.502708 0.920862 0.792830
Si Si7 0.669114 0.726801 0.557251
Si Si8 0.661821 0.504810 0.508491
O O1 0.179569 0.549600 0.028953
O O2 0.174201 0.281100 0.315116
O O3 0.335216 0.572224 0.873919
O O4 0.010646 0.429783 0.935603
O O5 0.452670 0.472233 0.261736
O O6 0.721253 0.644592 0.238708
O O7 0.635283 0.725320 0.865074
O O8 0.559721 0.807218 0.902568
O O9 0.687116 0.854846 0.285537
O O10 0.404114 0.686067 0.309589
O O11 0.595029 0.953723 0.908999
O O12 0.500000 0.000000 0.000000
O O13 0.578106 0.760902 0.574611
O O14 0.480925 0.902516 0.491916
O O15 0.213411 0.478243 0.359973
O O16 0.309489 0.790202 0.906274
O O17 0.500000 0.500000 0.500000
#
# Coordination Sequence:
#
# PCOD9095962 Si02
#       8
#     2   2   2   2   2   2   2   2
#     4  10  20  33  53  77 108 141 173 209 265 319
#     4  10  18  29  52  79 100 132 179 214 255 299
#     4  10  18  30  49  80 103 131 171 222 261 291
#     4  11  20  33  54  80 109 136 172 219 264 308
#     4  10  19  33  53  80 105 135 177 218 259 305
#     4  11  19  32  55  82 106 131 177 228 253 301
#     4  10  19  33  54  77 106 140 178 214 253 317
#     4  10  16  30  53  75  96 130 178 218 242 300
#
# _framework density 18.919851999999999
#
# number of rings (size 3 to 8) (size 9 to 14) (size 15 to 20)
#    0.000    1.750    6.250    2.625    0.000    0.000 
#    0.000    0.625    0.000   14.250    0.000    0.000 
#    0.000    0.000    0.000    0.000    0.000    0.000 
#
# Total GULP energy -89071.600909 kJ/mol
# GULP energy per Si atom -5566.975057 kJ/mol
# Density = 1.887679 g / cm^3
# Si number density = 18.919852 Si / 1000 Ang^3
#
#
#
# Elastic Constant Matrix: (Units=GPa)
#
#
# Indices 1 2 3 4 5 6 
#
# 1 36.8784 26.3040 4.7068 6.3326 15.2103 1.5558
# 2 26.3040 70.9845 31.0115 23.8322 10.9688 -3.8056
# 3 4.7068 31.0115 100.7881 24.5826 23.9835 3.8201
# 4 6.3326 23.8322 24.5826 42.2308 -5.7970 17.2226
# 5 15.2103 10.9688 23.9835 -5.7970 28.2001 3.1645
# 6 1.5558 -3.8056 3.8201 17.2226 3.1645 32.6179
#
#
#
# Elastic Compliance Matrix: (Units=1/GPa)
#
#
# Indices 1 2 3 4 5 6 
#
# 1 0.056341 -0.014474 0.016634 -0.019276 -0.043778 0.008101
# 2 -0.014474 0.029560 -0.001894 -0.021221 -0.008280 0.016370
# 3 0.016634 -0.001894 0.023804 -0.025426 -0.035170 0.013035
# 4 -0.019276 -0.021221 -0.025426 0.081292 0.062322 -0.047548
# 5 -0.043778 -0.008280 -0.035170 0.062322 0.109311 -0.038271
# 6 0.008101 0.016370 0.013035 -0.047548 -0.038271 0.059474
#
#
# Mechanical properties :
#
#
# Convention : Reuss Voigt Hill
#
# Bulk Modulus (GPa) = 9.07125 36.96619 23.01872
# Shear Modulus (GPa) = 12.62638 30.38497 21.50568
#
# Velocity S-wave (km/s) = 2.58614 4.01182 3.37512
# Velocity P-wave (km/s) = 3.70438 6.40627 5.23272
#
# Compressibility (1/GPa) = 0.11023839
#
# Stress axis : x y z
#
# Youngs Moduli (GPa) = 17.74899 33.82912 42.00976
#
# Poissons Ratio (x) = 0.48965 -0.69880
# Poissons Ratio (y) = 0.25690 0.07955
# Poissons Ratio (z) = -0.29524 0.06406
#
# Static dielectric constant tensor:
#      x y z
#    x 1.654870 -0.010830 0.020230 
#    y -0.010830 1.724800 0.053030 
#    z 0.020230 0.053030 1.701020 
# 
# From -- ./inp_files/422229.got.cif
#   From: 2010.05.17/outbox.cif.g08.bks.cpg/sg2_212_cif.got.tgz:422229.got - 2010.06.03 11:33:40.
