data_PCOD9095007
_publ_section_title
;
Structure prediction by ZEFSAII (Michael W. Deem and Ramdas Pophale) SiO2 
 PCOD9095007
Probable space group: P -1
;
_chemical_formula_sum "Si O2"
_cell_formula_units_Z 16
_cell_length_a 14.074704
_cell_length_b 17.830025
_cell_length_c 12.003983
_cell_angle_alpha 51.323946
_cell_angle_beta 20.448736
_cell_angle_gamma 52.168133
_cell_volume 817.356572
_symmetry_space_group_name_H-M "P -1"
_symmetry_group_IT_number 2
_symmetry_cell_setting 'triclinic'
loop_
_space_group_symop_operation_xyz
x,y,z
-x,-y,-z
loop_
_atom_site_type_symbol
_atom_site_label
_atom_site_fract_x
_atom_site_fract_y
_atom_site_fract_z
Si Si1 0.631938 0.394246 0.489764
Si Si2 0.260274 0.930183 0.819689
Si Si3 0.352903 0.241557 0.564121
Si Si4 0.776131 0.310683 0.174899
Si Si5 0.165558 0.496398 0.204629
Si Si6 0.977662 0.775589 0.400313
Si Si7 0.930800 0.643566 0.762991
Si Si8 0.533534 0.670414 0.858207
O O1 0.500000 0.500000 0.500000
O O2 0.779497 0.346022 0.264461
O O3 0.845534 0.391287 0.358758
O O4 0.369440 0.344767 0.864960
O O5 0.431407 0.843757 0.641545
O O6 0.500000 0.000000 0.500000
O O7 0.108681 0.873836 0.136487
O O8 0.000000 0.000000 0.000000
O O9 0.488281 0.272022 0.500285
O O10 0.346455 0.326722 0.399696
O O11 0.033758 0.231665 0.940156
O O12 0.786903 0.401774 0.995494
O O13 0.064591 0.435429 0.267975
O O14 0.428697 0.426827 0.022633
O O15 0.000000 0.500000 0.500000
O O16 0.971932 0.744846 0.563526
O O17 0.697277 0.750499 0.671071
O O18 0.215570 0.698767 0.162949
#
# Coordination Sequence:
#
# PCOD9095007 Si02
#       8
#     2   2   2   2   2   2   2   2
#     4  12  25  41  60  83 120 176 237 256 284 326
#     4  11  22  39  66  95 126 155 185 244 329 410
#     4  11  23  39  57  88 125 157 198 248 312 376
#     4  12  25  38  58  86 124 172 212 258 294 348
#     4  11  23  35  57  87 122 172 208 241 315 350
#     4  10  21  37  60  87 119 156 196 244 311 360
#     4  11  24  42  59  83 123 169 218 265 283 350
#     4  10  20  35  52  82 125 159 197 237 284 373
#
# _framework density 19.575299999999999
#
# number of rings (size 3 to 8) (size 9 to 14) (size 15 to 20)
#    0.000    1.000    2.500    6.375    5.250    1.500 
#    0.000    0.000    0.000    0.000    0.000   17.500 
#    0.000    0.000    0.000    0.000    0.000    0.000 
#
# Total GULP energy -89129.961934 kJ/mol
# GULP energy per Si atom -5570.622621 kJ/mol
# Density = 1.953075 g / cm^3
# Si number density = 19.575300 Si / 1000 Ang^3
#
#
#
# Elastic Constant Matrix: (Units=GPa)
#
#
# Indices 1 2 3 4 5 6 
#
# 1 124.7810 32.8207 26.1732 7.6581 -3.6393 -11.6000
# 2 32.8207 73.8124 28.3681 -4.1519 -2.6672 -14.3217
# 3 26.1732 28.3681 96.5313 0.2331 -2.1191 -6.0788
# 4 7.6581 -4.1519 0.2331 27.4861 -3.8604 -0.6370
# 5 -3.6393 -2.6672 -2.1191 -3.8604 39.5805 5.0620
# 6 -11.6000 -14.3217 -6.0788 -0.6370 5.0620 20.1312
#
#
#
# Elastic Compliance Matrix: (Units=1/GPa)
#
#
# Indices 1 2 3 4 5 6 
#
# 1 0.009647 -0.003406 -0.001444 -0.003138 -0.000060 0.002616
# 2 -0.003406 0.018827 -0.003968 0.004040 -0.000194 0.010410
# 3 -0.001444 -0.003968 0.011915 -0.000269 0.000227 -0.000123
# 4 -0.003138 0.004040 -0.000269 0.038397 0.003547 0.001308
# 5 -0.000060 -0.000194 0.000227 0.003547 0.026454 -0.006644
# 6 0.002616 0.010410 -0.000123 0.001308 -0.006644 0.060262
#
#
# Mechanical properties :
#
#
# Convention : Reuss Voigt Hill
#
# Bulk Modulus (GPa) = 43.94829 52.20540 48.07684
# Shear Modulus (GPa) = 26.21615 31.29040 28.75328
#
# Velocity S-wave (km/s) = 3.66354 4.00242 3.83672
# Velocity P-wave (km/s) = 6.35571 6.93441 6.65135
#
# Compressibility (1/GPa) = 0.02275402
#
# Stress axis : x y z
#
# Youngs Moduli (GPa) = 103.66328 53.11436 83.92938
#
# Poissons Ratio (x) = 0.18089 0.12117
# Poissons Ratio (y) = 0.35304 0.33303
# Poissons Ratio (z) = 0.14966 0.21075
#
# Static dielectric constant tensor:
#      x y z
#    x 1.699150 -0.008440 -0.012870 
#    y -0.008440 1.769630 -0.015800 
#    z -0.012870 -0.015800 1.756350 
# 
# From -- ./inp_files/456703.got.cif
#   From: 2010.05.17/outbox.cif.g08.bks.cpg/sg2_229_cif.got.tgz:456703.got - 2010.06.03 11:33:40.
