data_PCOD9095398
_publ_section_title
;
Structure prediction by ZEFSAII (Michael W. Deem and Ramdas Pophale) SiO2 
 PCOD9095398
Probable space group: P -1
;
_chemical_formula_sum "Si O2"
_cell_formula_units_Z 16
_cell_length_a 13.798378
_cell_length_b 9.119878
_cell_length_c 11.597120
_cell_angle_alpha 43.284113
_cell_angle_beta 44.966418
_cell_angle_gamma 68.028390
_cell_volume 676.537100
_symmetry_space_group_name_H-M "P -1"
_symmetry_group_IT_number 2
_symmetry_cell_setting 'triclinic'
loop_
_space_group_symop_operation_xyz
x,y,z
-x,-y,-z
loop_
_atom_site_type_symbol
_atom_site_label
_atom_site_fract_x
_atom_site_fract_y
_atom_site_fract_z
Si Si1 0.632058 0.201563 0.126468
Si Si2 0.244046 0.034993 0.317083
Si Si3 0.942545 0.943084 0.726280
Si Si4 0.052153 0.962754 0.851427
Si Si5 0.486800 0.052140 0.844287
Si Si6 0.430906 0.429960 0.785568
Si Si7 0.642429 0.782048 0.517381
Si Si8 0.180561 0.555917 0.984204
O O1 0.482715 0.242970 0.268813
O O2 0.612225 0.134725 0.047869
O O3 0.641303 0.985875 0.316091
O O4 0.766877 0.394070 0.954853
O O5 0.159916 0.941883 0.322051
O O6 0.347906 0.906241 0.356298
O O7 0.351475 0.270850 0.049782
O O8 0.110592 0.044853 0.500191
O O9 0.902892 0.690942 0.850889
O O10 0.930492 0.954995 0.865107
O O11 0.200434 0.158306 0.598078
O O12 0.093916 0.731982 0.931982
O O13 0.000000 0.000000 0.000000
O O14 0.431791 0.270125 0.769644
O O15 0.500000 0.000000 0.000000
O O16 0.590227 0.559399 0.613518
O O17 0.333425 0.597640 0.764474
#
# Coordination Sequence:
#
# PCOD9095398 Si02
#       8
#     2   2   2   2   2   2   2   2
#     4   9  18  36  59  84 115 145 186 241 291 339
#     4   9  20  36  58  84 113 155 197 231 274 335
#     4  10  20  40  61  81 116 159 196 228 278 344
#     4  11  23  37  59  88 118 151 187 237 290 341
#     4  10  20  35  57  85 117 151 187 237 288 334
#     4   9  19  37  59  85 113 145 189 236 290 338
#     4   9  19  36  57  85 114 147 188 236 292 339
#     4   9  20  37  59  85 112 149 189 232 288 342
#
# _framework density 23.649851000000002
#
# number of rings (size 3 to 8) (size 9 to 14) (size 15 to 20)
#    0.000    2.500    0.000    1.875    0.000    7.500 
#    0.000   30.000    0.000   10.500    0.000    0.000 
#    0.000    0.000    0.000    0.000    0.000    0.000 
#
# Total GULP energy -89161.454397 kJ/mol
# GULP energy per Si atom -5572.590900 kJ/mol
# Density = 2.359602 g / cm^3
# Si number density = 23.649851 Si / 1000 Ang^3
#
#
#
# Elastic Constant Matrix: (Units=GPa)
#
#
# Indices 1 2 3 4 5 6 
#
# 1 99.1718 36.8064 13.2905 8.9683 -9.0323 28.0397
# 2 36.8064 82.6456 9.9601 -4.8073 0.1602 22.5885
# 3 13.2905 9.9601 59.8899 -17.1348 -16.7477 15.4526
# 4 8.9683 -4.8073 -17.1348 15.7883 8.8784 -4.5478
# 5 -9.0323 0.1602 -16.7477 8.8784 27.8852 2.2469
# 6 28.0397 22.5885 15.4526 -4.5478 2.2469 48.3395
#
#
#
# Elastic Compliance Matrix: (Units=1/GPa)
#
#
# Indices 1 2 3 4 5 6 
#
# 1 0.020567 -0.007525 -0.005604 -0.030849 0.013981 -0.010175
# 2 -0.007525 0.016720 0.001951 0.013903 -0.005587 -0.002504
# 3 -0.005604 0.001951 0.029344 0.030768 0.006359 -0.004442
# 4 -0.030849 0.013903 0.030768 0.145505 -0.039296 0.017078
# 5 0.013981 -0.005587 0.006359 -0.039296 0.057874 -0.013919
# 6 -0.010175 -0.002504 -0.004442 0.017078 -0.013919 0.031433
#
#
# Mechanical properties :
#
#
# Convention : Reuss Voigt Hill
#
# Bulk Modulus (GPa) = 22.58603 40.20237 31.39420
# Shear Modulus (GPa) = 14.76855 30.51260 22.64057
#
# Velocity S-wave (km/s) = 2.50164 3.59581 3.09742
# Velocity P-wave (km/s) = 4.23264 5.85454 5.10837
#
# Compressibility (1/GPa) = 0.04427516
#
# Stress axis : x y z
#
# Youngs Moduli (GPa) = 48.62104 59.80882 34.07866
#
# Poissons Ratio (x) = 0.45006 0.19097
# Poissons Ratio (y) = 0.36587 -0.06648
# Poissons Ratio (z) = 0.27246 -0.11668
#
# Static dielectric constant tensor:
#      x y z
#    x 2.015620 -0.028700 0.033580 
#    y -0.028700 1.984240 -0.001860 
#    z 0.033580 -0.001860 1.973520 
# 
# From -- ./inp_files/444172.got.cif
#   From: 2010.05.17/outbox.cif.g08.bks.cpg/sg2_223_cif.got.tgz:444172.got - 2010.06.03 11:33:40.
