data_PCOD9095326
_publ_section_title
;
Structure prediction by ZEFSAII (Michael W. Deem and Ramdas Pophale) SiO2 
 PCOD9095326
Probable space group: P -1
;
_chemical_formula_sum "Si O2"
_cell_formula_units_Z 16
_cell_length_a 9.623049
_cell_length_b 13.891545
_cell_length_c 8.596563
_cell_angle_alpha 124.972085
_cell_angle_beta 134.010551
_cell_angle_gamma 54.585672
_cell_volume 644.439992
_symmetry_space_group_name_H-M "P -1"
_symmetry_group_IT_number 2
_symmetry_cell_setting 'triclinic'
loop_
_space_group_symop_operation_xyz
x,y,z
-x,-y,-z
loop_
_atom_site_type_symbol
_atom_site_label
_atom_site_fract_x
_atom_site_fract_y
_atom_site_fract_z
Si Si1 0.018292 0.138096 0.265200
Si Si2 0.301738 0.747497 0.143517
Si Si3 0.720572 0.576515 0.301262
Si Si4 0.911779 0.409429 0.563366
Si Si5 0.130353 0.690598 0.268620
Si Si6 0.364192 0.164600 0.387354
Si Si7 0.753604 0.093749 0.263626
Si Si8 0.690588 0.847985 0.033676
O O1 0.991635 0.262248 0.459735
O O2 0.925375 0.057436 0.230736
O O3 0.244699 0.093419 0.333059
O O4 0.868123 0.183520 0.044982
O O5 0.493983 0.639801 0.124012
O O6 0.215110 0.682465 0.153580
O O7 0.411930 0.841061 0.390153
O O8 0.760195 0.471295 0.364050
O O9 0.753497 0.690561 0.534466
O O10 0.892074 0.546106 0.274563
O O11 0.814068 0.421958 0.669728
O O12 0.207960 0.800547 0.502399
O O13 0.885529 0.734203 0.112626
O O14 0.346184 0.142335 0.171777
O O15 0.748617 0.970913 0.235396
O O16 0.526876 0.147991 0.063198
#
# Coordination Sequence:
#
# PCOD9095326 Si02
#       8
#     2   2   2   2   2   2   2   2
#     4  10  20  36  59  81 107 147 182 221 273 323
#     4  10  20  35  57  79 114 144 181 218 273 321
#     4   8  18  36  57  77 115 141 179 226 269 312
#     4   9  19  36  58  81 110 143 182 227 266 317
#     4  11  21  37  59  81 109 147 183 220 274 325
#     4   9  19  37  55  77 117 144 170 233 268 315
#     4  10  23  37  57  85 107 139 190 224 270 326
#     4  11  21  38  59  78 114 144 176 232 276 315
#
# _framework density 24.827756999999998
#
# number of rings (size 3 to 8) (size 9 to 14) (size 15 to 20)
#    0.750    1.500    2.500    0.375    1.750    1.500 
#    0.000    1.250    0.000    0.000    0.000    0.000 
#    0.000    0.000    0.000    0.000    0.000    0.000 
#
# Total GULP energy -89348.616008 kJ/mol
# GULP energy per Si atom -5584.288501 kJ/mol
# Density = 2.477125 g / cm^3
# Si number density = 24.827757 Si / 1000 Ang^3
#
#
#
# Elastic Constant Matrix: (Units=GPa)
#
#
# Indices 1 2 3 4 5 6 
#
# 1 112.9585 2.1208 45.3263 -6.8601 20.1422 15.6112
# 2 2.1208 36.0638 12.4031 4.1986 12.1672 5.0032
# 3 45.3263 12.4031 92.2486 -2.4107 15.7947 11.1582
# 4 -6.8601 4.1986 -2.4107 21.7437 -12.9873 -4.4580
# 5 20.1422 12.1672 15.7947 -12.9873 25.9891 -7.0842
# 6 15.6112 5.0032 11.1582 -4.4580 -7.0842 15.9679
#
#
#
# Elastic Compliance Matrix: (Units=1/GPa)
#
#
# Indices 1 2 3 4 5 6 
#
# 1 0.003279 -0.018505 -0.008897 0.033203 0.037596 0.034758
# 2 -0.018505 -0.016480 -0.012765 0.066544 0.087482 0.089565
# 3 -0.008897 -0.012765 0.012840 0.013434 0.015720 0.014451
# 4 0.033203 0.066544 0.013434 -0.065172 -0.136132 -0.141289
# 5 0.037596 0.087482 0.015720 -0.136132 -0.159308 -0.183835
# 6 0.034758 0.089565 0.014451 -0.141289 -0.183835 -0.130521
#
#
# Mechanical properties :
#
#
# Convention : Reuss Voigt Hill
#
# Bulk Modulus (GPa) = -12.39237 40.10791 13.85777
# Shear Modulus (GPa) = -16.56024 24.83485 4.13731
#
# Velocity S-wave (km/s) = -2.58545 3.16616 1.29229
# Velocity P-wave (km/s) = 3.73027 5.43651 2.79649
#
# Compressibility (1/GPa) = -0.08069480
#
# Stress axis : x y z
#
# Youngs Moduli (GPa) = 304.95599 -60.67821 77.88430
#
# Poissons Ratio (x) = -1.12282 0.69293
# Poissons Ratio (y) = 5.64308 0.99420
# Poissons Ratio (z) = 2.71315 -0.77457
#
# Static dielectric constant tensor:
#      x y z
#    x 2.012220 0.003600 0.018720 
#    y 0.003600 1.999930 0.054820 
#    z 0.018720 0.054820 1.985410 
# 
# From -- ./inp_files/206176.got.cif
#   From: 2010.05.17/outbox.cif.g08.bks.cpg/sg2_104_cif.got.tgz:206176.got - 2010.06.03 11:33:40.
