data_PCOD9095486
_publ_section_title
;
Structure prediction by ZEFSAII (Michael W. Deem and Ramdas Pophale) SiO2 
 PCOD9095486
Probable space group: P -1
;
_chemical_formula_sum "Si O2"
_cell_formula_units_Z 14
_cell_length_a 9.397284
_cell_length_b 15.318573
_cell_length_c 13.932753
_cell_angle_alpha 21.676480
_cell_angle_beta 70.267094
_cell_angle_gamma 58.769015
_cell_volume 563.600208
_symmetry_space_group_name_H-M "P -1"
_symmetry_group_IT_number 2
_symmetry_cell_setting 'triclinic'
loop_
_space_group_symop_operation_xyz
x,y,z
-x,-y,-z
loop_
_atom_site_type_symbol
_atom_site_label
_atom_site_fract_x
_atom_site_fract_y
_atom_site_fract_z
Si Si1 0.913427 0.086918 0.290696
Si Si2 0.254880 0.549361 0.843042
Si Si3 0.399053 0.513638 0.184910
Si Si4 0.596628 0.908816 0.233176
Si Si5 0.022679 0.232706 0.704972
Si Si6 0.643839 0.583423 0.355799
Si Si7 0.336362 0.035347 0.440263
O O1 0.834949 0.303371 0.180596
O O2 0.820408 0.916288 0.503209
O O3 0.807914 0.279652 0.023735
O O4 0.132506 0.829999 0.514549
O O5 0.475982 0.368075 0.951682
O O6 0.241189 0.278937 0.130578
O O7 0.408163 0.313968 0.470571
O O8 0.544832 0.280642 0.311062
O O9 0.763425 0.928517 0.208256
O O10 0.635182 0.759350 0.271612
O O11 0.419820 0.228844 0.917699
O O12 0.000000 0.500000 0.500000
O O13 0.866857 0.343610 0.545414
O O14 0.000000 0.000000 0.000000
O O15 0.500000 0.500000 0.500000
O O16 0.500000 0.000000 0.500000
#
# Coordination Sequence:
#
# PCOD9095486 Si02
#       7
#     2   2   2   2   2   2   2
#     4  10  20  35  58  82 113 160 201 246 293 357
#     4  10  20  36  57  83 115 156 204 241 297 359
#     4  11  22  37  57  86 123 153 198 256 305 356
#     4  10  23  38  61  91 122 158 203 262 316 378
#     4  10  20  39  66  94 121 161 212 258 316 391
#     4  10  20  40  66  85 116 161 206 249 317 384
#     4  11  18  36  60  80 115 161 201 241 296 360
#
# _framework density 24.840304
#
# number of rings (size 3 to 8) (size 9 to 14) (size 15 to 20)
#    0.000    1.714    4.286    1.286    0.000    2.286 
#    0.000    0.000    9.429    0.000    0.000    0.000 
#    0.000    0.000    0.000    0.000    0.000    0.000 
#
# Total GULP energy -77960.960835 kJ/mol
# GULP energy per Si atom -5568.640060 kJ/mol
# Density = 2.478377 g / cm^3
# Si number density = 24.840304 Si / 1000 Ang^3
#
#
#
# Elastic Constant Matrix: (Units=GPa)
#
#
# Indices 1 2 3 4 5 6 
#
# 1 117.2458 8.3646 41.3360 3.6167 21.8257 -12.5497
# 2 8.3646 47.7616 12.5711 -2.2745 13.0132 2.0539
# 3 41.3360 12.5711 187.3570 21.8758 34.1125 -9.5636
# 4 3.6167 -2.2745 21.8758 37.6081 -5.2240 3.6798
# 5 21.8257 13.0132 34.1125 -5.2240 58.0721 -2.5725
# 6 -12.5497 2.0539 -9.5636 3.6798 -2.5725 25.3755
#
#
#
# Elastic Compliance Matrix: (Units=1/GPa)
#
#
# Indices 1 2 3 4 5 6 
#
# 1 0.010071 -0.000922 -0.001316 -0.001069 -0.002705 0.004440
# 2 -0.000922 0.022711 -0.000932 0.001748 -0.004185 -0.003323
# 3 -0.001316 -0.000932 0.007058 -0.004794 -0.003768 0.002398
# 4 -0.001069 0.001748 -0.004794 0.030955 0.005326 -0.006426
# 5 -0.002705 -0.004185 -0.003768 0.005326 0.021823 -0.000979
# 6 0.004440 -0.003323 0.002398 -0.006426 -0.000979 0.043609
#
#
# Mechanical properties :
#
#
# Convention : Reuss Voigt Hill
#
# Bulk Modulus (GPa) = 29.85197 52.98974 41.42086
# Shear Modulus (GPa) = 32.52362 43.55065 38.03714
#
# Velocity S-wave (km/s) = 3.62236 4.19170 3.91739
# Velocity P-wave (km/s) = 5.43498 6.69370 6.09691
#
# Compressibility (1/GPa) = 0.03349862
#
# Stress axis : x y z
#
# Youngs Moduli (GPa) = 99.29924 44.03235 141.67519
#
# Poissons Ratio (x) = 0.04061 0.18646
# Poissons Ratio (y) = 0.09157 0.13207
# Poissons Ratio (z) = 0.13069 0.04105
#
# Static dielectric constant tensor:
#      x y z
#    x 1.285310 -0.116260 0.060100 
#    y -0.116260 1.936160 0.022130 
#    z 0.060100 0.022130 1.955500 
# 
# From -- ./inp_files/97793.got.cif
#   From: 2010.05.17/outbox.cif.g08.bks.cpg/sg2_49_cif.got.tgz:97793.got - 2010.06.03 11:33:40.
