data_PCOD9095945
_publ_section_title
;
Structure prediction by ZEFSAII (Michael W. Deem and Ramdas Pophale) SiO2 
 PCOD9095945
Probable space group: P -1
;
_chemical_formula_sum "Si O2"
_cell_formula_units_Z 12
_cell_length_a 11.827938
_cell_length_b 12.482581
_cell_length_c 9.417925
_cell_angle_alpha 142.359577
_cell_angle_beta 54.617760
_cell_angle_gamma 133.891781
_cell_volume 610.534935
_symmetry_space_group_name_H-M "P -1"
_symmetry_group_IT_number 2
_symmetry_cell_setting 'triclinic'
loop_
_space_group_symop_operation_xyz
x,y,z
-x,-y,-z
loop_
_atom_site_type_symbol
_atom_site_label
_atom_site_fract_x
_atom_site_fract_y
_atom_site_fract_z
Si Si1 0.071762 0.918884 0.159615
Si Si2 0.753999 0.792907 0.919207
Si Si3 0.434629 0.474117 0.858081
Si Si4 0.770627 0.958231 0.534591
Si Si5 0.309532 0.904319 0.529884
Si Si6 0.845723 0.539618 0.799148
O O1 0.919554 0.934218 0.343948
O O2 0.143097 0.078399 0.149649
O O3 0.191602 0.972441 0.258851
O O4 0.011705 0.696465 0.908808
O O5 0.576203 0.641104 0.843344
O O6 0.819510 0.662900 0.819460
O O7 0.737063 0.942436 0.199134
O O8 0.379064 0.257379 0.607434
O O9 0.500000 0.500000 0.000000
O O10 0.280633 0.496788 0.021219
O O11 0.742673 0.104149 0.604130
O O12 0.207004 0.685897 0.442487
O O13 0.500000 0.000000 0.500000
#
# Coordination Sequence:
#
# PCOD9095945 Si02
#       6
#     2   2   2   2   2   2
#     4  10  22  39  58  85 124 153 185 244 291 343
#     4  11  20  38  61  89 114 148 202 242 278 337
#     4   9  15  34  58  81 108 147 192 228 274 338
#     4  10  21  39  61  85 116 159 191 229 303 345
#     4  12  21  36  66  86 111 154 201 238 283 343
#     4  10  20  35  61  86 116 153 193 234 289 345
#
# _framework density 19.654896000000001
#
# number of rings (size 3 to 8) (size 9 to 14) (size 15 to 20)
#    0.000    1.667    6.667    1.500    0.000    2.000 
#    0.000    0.833    0.000    0.000    0.000    0.000 
#    0.000    0.000    0.000    0.000    0.000    0.000 
#
# Total GULP energy -66901.477211 kJ/mol
# GULP energy per Si atom -5575.123101 kJ/mol
# Density = 1.961016 g / cm^3
# Si number density = 19.654896 Si / 1000 Ang^3
#
#
#
# Elastic Constant Matrix: (Units=GPa)
#
#
# Indices 1 2 3 4 5 6 
#
# 1 88.0246 35.4630 40.4099 16.9954 28.8564 -14.3456
# 2 35.4630 120.6707 53.9032 36.7351 25.0882 2.7877
# 3 40.4099 53.9032 61.4412 26.6212 16.4562 -9.8444
# 4 16.9954 36.7351 26.6212 32.6958 0.0778 -2.0062
# 5 28.8564 25.0882 16.4562 0.0778 26.6936 7.5753
# 6 -14.3456 2.7877 -9.8444 -2.0062 7.5753 28.7871
#
#
#
# Elastic Compliance Matrix: (Units=1/GPa)
#
#
# Indices 1 2 3 4 5 6 
#
# 1 0.035760 0.007901 -0.000209 -0.025356 -0.054249 0.029492
# 2 0.007901 0.020496 -0.006154 -0.021756 -0.025367 0.005007
# 3 -0.000209 -0.006154 0.044626 -0.027957 -0.027382 0.021010
# 4 -0.025356 -0.021756 -0.027957 0.088742 0.074332 -0.033465
# 5 -0.054249 -0.025367 -0.027382 0.074332 0.156459 -0.069934
# 6 0.029492 0.005007 0.021010 -0.033465 -0.069934 0.072206
#
#
# Mechanical properties :
#
#
# Convention : Reuss Voigt Hill
#
# Bulk Modulus (GPa) = 9.61945 58.85430 34.23688
# Shear Modulus (GPa) = 11.11444 26.99266 19.05355
#
# Velocity S-wave (km/s) = 2.38056 3.70987 3.11690
# Velocity P-wave (km/s) = 3.53000 6.95411 5.51455
#
# Compressibility (1/GPa) = 0.10395600
#
# Stress axis : x y z
#
# Youngs Moduli (GPa) = 27.96456 48.79055 22.40845
#
# Poissons Ratio (x) = -0.38547 0.00468
# Poissons Ratio (y) = -0.22094 0.13791
# Poissons Ratio (z) = 0.00584 0.30028
#
# Static dielectric constant tensor:
#      x y z
#    x 1.724830 0.036280 -0.011350 
#    y 0.036280 1.729820 0.022040 
#    z -0.011350 0.022040 1.731090 
# 
# From -- ./inp_files/184768.got.cif
#   From: 2010.05.17/outbox.cif.g08.bks.cpg/sg2_93_cif.got.tgz:184768.got - 2010.06.03 11:33:40.
