data_PCOD9095955
_publ_section_title
;
Structure prediction by ZEFSAII (Michael W. Deem and Ramdas Pophale) SiO2 
 PCOD9095955
Probable space group: P -1
;
_chemical_formula_sum "Si O2"
_cell_formula_units_Z 16
_cell_length_a 16.311888
_cell_length_b 11.028455
_cell_length_c 9.162701
_cell_angle_alpha 119.566239
_cell_angle_beta 67.262409
_cell_angle_gamma 63.351422
_cell_volume 798.867665
_symmetry_space_group_name_H-M "P -1"
_symmetry_group_IT_number 2
_symmetry_cell_setting 'triclinic'
loop_
_space_group_symop_operation_xyz
x,y,z
-x,-y,-z
loop_
_atom_site_type_symbol
_atom_site_label
_atom_site_fract_x
_atom_site_fract_y
_atom_site_fract_z
Si Si1 0.661095 0.933834 0.751893
Si Si2 0.036397 0.343109 0.507511
Si Si3 0.761432 0.338602 0.421946
Si Si4 0.532459 0.809146 0.688934
Si Si5 0.059522 0.141580 0.099071
Si Si6 0.107732 0.343511 0.971339
Si Si7 0.553097 0.588273 0.978431
Si Si8 0.551208 0.095152 0.516609
O O1 0.826416 0.774693 0.563237
O O2 0.629182 0.830315 0.626964
O O3 0.566970 0.176167 0.892887
O O4 0.599163 0.987327 0.989731
O O5 0.076999 0.162617 0.269906
O O6 0.000000 0.500000 0.500000
O O7 0.907252 0.508146 0.814909
O O8 0.633612 0.565360 0.546586
O O9 0.899831 0.269490 0.278145
O O10 0.697816 0.405082 0.669212
O O11 0.818292 0.121196 0.191987
O O12 0.464968 0.844314 0.605123
O O13 0.065611 0.262007 0.051805
O O14 0.278369 0.108697 0.673159
O O15 0.000000 0.500000 0.000000
O O16 0.554206 0.677312 0.177886
O O17 0.500000 0.500000 0.000000
O O18 0.500000 0.000000 0.500000
#
# Coordination Sequence:
#
# PCOD9095955 Si02
#       8
#     2   2   2   2   2   2   2   2
#     4  10  20  37  61  92 119 166 209 264 304 385
#     4  10  20  35  61  87 120 159 211 256 310 367
#     4  10  23  41  65  89 124 175 208 270 316 383
#     4  10  20  37  63  90 125 159 217 258 319 364
#     4  10  22  42  63  90 126 164 226 255 318 384
#     4  11  24  40  65  95 130 168 207 264 323 375
#     4  11  24  42  64  90 132 167 205 261 332 373
#     4  12  25  39  64  99 132 164 217 264 313 388
#
# _framework density 20.028348999999999
#
# number of rings (size 3 to 8) (size 9 to 14) (size 15 to 20)
#    0.000    1.500    1.250    4.500    3.500    1.000 
#    0.000    3.125    0.000    3.750    0.000    0.000 
#    0.000    0.000    0.000    0.000    0.000    0.000 
#
# Total GULP energy -89297.815587 kJ/mol
# GULP energy per Si atom -5581.113474 kJ/mol
# Density = 1.998276 g / cm^3
# Si number density = 20.028349 Si / 1000 Ang^3
#
#
#
# Elastic Constant Matrix: (Units=GPa)
#
#
# Indices 1 2 3 4 5 6 
#
# 1 72.4800 31.8374 37.2616 -3.4942 22.4215 5.9681
# 2 31.8374 80.8617 27.6344 -9.4601 8.5032 -3.9882
# 3 37.2616 27.6344 129.5879 -10.7981 27.6619 -1.2067
# 4 -3.4942 -9.4601 -10.7981 30.9814 -6.5912 0.0998
# 5 22.4215 8.5032 27.6619 -6.5912 33.7121 -3.8511
# 6 5.9681 -3.9882 -1.2067 0.0998 -3.8511 36.9334
#
#
#
# Elastic Compliance Matrix: (Units=1/GPa)
#
#
# Indices 1 2 3 4 5 6 
#
# 1 0.022460 -0.007325 -0.002604 -0.003196 -0.012238 -0.005773
# 2 -0.007325 0.016119 -0.001668 0.004220 0.003367 0.003209
# 3 -0.002604 -0.001668 0.010213 0.001493 -0.005942 -0.000049
# 4 -0.003196 0.004220 0.001493 0.035189 0.006904 0.001646
# 5 -0.012238 0.003367 -0.005942 0.006904 0.043945 0.006711
# 6 -0.005773 0.003209 -0.000049 0.001646 0.006711 0.029049
#
#
# Mechanical properties :
#
#
# Convention : Reuss Voigt Hill
#
# Bulk Modulus (GPa) = 39.06479 52.93293 45.99886
# Shear Modulus (GPa) = 26.49663 32.73846 29.61755
#
# Velocity S-wave (km/s) = 3.64119 4.04741 3.84966
# Velocity P-wave (km/s) = 6.10121 6.95187 6.54038
#
# Compressibility (1/GPa) = 0.02559850
#
# Stress axis : x y z
#
# Youngs Moduli (GPa) = 44.52305 62.03878 97.90999
#
# Poissons Ratio (x) = 0.45444 0.25494
# Poissons Ratio (y) = 0.32613 0.16334
# Poissons Ratio (z) = 0.11593 0.10349
#
# Static dielectric constant tensor:
#      x y z
#    x 1.708850 -0.000750 0.006320 
#    y -0.000750 1.702690 -0.026760 
#    z 0.006320 -0.026760 1.769290 
# 
# From -- ./inp_files/308303.got.cif
#   From: 2010.05.17/outbox.cif.g08.bks.cpg/sg2_155_cif.got.tgz:308303.got - 2010.06.03 11:33:40.
