data_PCOD9095204
_publ_section_title
;
Structure prediction by ZEFSAII (Michael W. Deem and Ramdas Pophale) SiO2 
 PCOD9095204
Probable space group: P -1
;
_chemical_formula_sum "Si O2"
_cell_formula_units_Z 12
_cell_length_a 5.209928
_cell_length_b 17.845442
_cell_length_c 13.520009
_cell_angle_alpha 152.720243
_cell_angle_beta 73.872129
_cell_angle_gamma 100.106194
_cell_volume 546.126367
_symmetry_space_group_name_H-M "P -1"
_symmetry_group_IT_number 2
_symmetry_cell_setting 'triclinic'
loop_
_space_group_symop_operation_xyz
x,y,z
-x,-y,-z
loop_
_atom_site_type_symbol
_atom_site_label
_atom_site_fract_x
_atom_site_fract_y
_atom_site_fract_z
Si Si1 0.603060 0.887238 0.956223
Si Si2 0.226202 0.763438 0.004453
Si Si3 0.886149 0.386502 0.744724
Si Si4 0.210591 0.462871 0.522531
Si Si5 0.012990 0.044529 0.219243
Si Si6 0.333321 0.605746 0.009374
O O1 0.749547 0.733485 0.695672
O O2 0.308408 0.980415 0.063642
O O3 0.503157 0.792523 0.954148
O O4 0.789723 0.008016 0.123323
O O5 0.142289 0.592974 0.771198
O O6 0.272163 0.742322 0.090766
O O7 0.021461 0.918976 0.165367
O O8 0.961023 0.228347 0.481845
O O9 0.646375 0.520619 0.881261
O O10 0.149697 0.466160 0.837455
O O11 0.760914 0.334504 0.800980
O O12 0.500000 0.500000 0.500000
O O13 0.000000 0.500000 0.500000
#
# Coordination Sequence:
#
# PCOD9095204 Si02
#       6
#     2   2   2   2   2   2
#     4   9  18  31  52  84 104 134 168 218 261 304
#     4   9  21  31  59  82 101 134 180 224 243 306
#     4  10  22  39  54  74 106 149 165 217 265 318
#     4  10  16  30  50  81 107 134 164 215 260 306
#     4  10  19  33  55  78 106 137 172 213 268 299
#     4  10  22  38  56  75 105 138 186 205 262 315
#
# _framework density 21.972936000000001
#
# number of rings (size 3 to 8) (size 9 to 14) (size 15 to 20)
#    1.000    1.333    1.667    1.000    2.333    0.667 
#    0.000    0.833    0.000    6.000    0.000    0.000 
#    0.000    0.000    0.000    0.000    0.000    0.000 
#
# Total GULP energy -66976.355268 kJ/mol
# GULP energy per Si atom -5581.362939 kJ/mol
# Density = 2.192292 g / cm^3
# Si number density = 21.972936 Si / 1000 Ang^3
#
#
#
# Elastic Constant Matrix: (Units=GPa)
#
#
# Indices 1 2 3 4 5 6 
#
# 1 113.5129 2.4177 36.3345 -15.7482 8.8095 -25.8187
# 2 2.4177 96.7794 11.1525 -7.0958 -9.6069 -21.3466
# 3 36.3345 11.1525 108.1338 -5.9668 7.0786 1.9627
# 4 -15.7482 -7.0958 -5.9668 25.5140 -2.0421 -0.8257
# 5 8.8095 -9.6069 7.0786 -2.0421 25.0843 -2.2368
# 6 -25.8187 -21.3466 1.9627 -0.8257 -2.2368 31.5315
#
#
#
# Elastic Compliance Matrix: (Units=1/GPa)
#
#
# Indices 1 2 3 4 5 6 
#
# 1 0.015645 0.004664 -0.005485 0.010220 0.000151 0.016588
# 2 0.004664 0.015164 -0.003462 0.007339 0.007081 0.014995
# 3 -0.005485 -0.003462 0.011706 -0.002152 -0.003580 -0.007874
# 4 0.010220 0.007339 -0.002152 0.047935 0.005076 0.015086
# 5 0.000151 0.007081 -0.003580 0.005076 0.044701 0.008444
# 6 0.016588 0.014995 -0.007874 0.015086 0.008444 0.056933
#
#
# Mechanical properties :
#
#
# Convention : Reuss Voigt Hill
#
# Bulk Modulus (GPa) = 29.45520 46.47063 37.96291
# Shear Modulus (GPa) = 23.58876 34.32737 28.95807
#
# Velocity S-wave (km/s) = 3.28004 3.95683 3.63422
# Velocity P-wave (km/s) = 5.27060 6.48616 5.90972
#
# Compressibility (1/GPa) = 0.03394986
#
# Stress axis : x y z
#
# Youngs Moduli (GPa) = 63.91774 65.94756 85.42297
#
# Poissons Ratio (x) = -0.30761 0.46855
# Poissons Ratio (y) = -0.29814 0.29573
# Poissons Ratio (z) = 0.35059 0.22831
#
# Static dielectric constant tensor:
#      x y z
#    x 1.779230 0.075390 -0.015010 
#    y 0.075390 1.961620 0.005580 
#    z -0.015010 0.005580 1.773970 
# 
# From -- ./inp_files/49244.got.cif
#   From: 2010.05.17/outbox.cif.g08.bks.cpg/sg2_25_cif.got.tgz:49244.got - 2010.06.03 11:33:40.
