data_PCOD9095598
_publ_section_title
;
Structure prediction by ZEFSAII (Michael W. Deem and Ramdas Pophale) SiO2 
 PCOD9095598
Probable space group: P -1
;
_chemical_formula_sum "Si O2"
_cell_formula_units_Z 16
_cell_length_a 5.547867
_cell_length_b 9.042957
_cell_length_c 20.683465
_cell_angle_alpha 60.190518
_cell_angle_beta 123.948126
_cell_angle_gamma 106.773773
_cell_volume 746.809102
_symmetry_space_group_name_H-M "P -1"
_symmetry_group_IT_number 2
_symmetry_cell_setting 'triclinic'
loop_
_space_group_symop_operation_xyz
x,y,z
-x,-y,-z
loop_
_atom_site_type_symbol
_atom_site_label
_atom_site_fract_x
_atom_site_fract_y
_atom_site_fract_z
Si Si1 0.844844 0.467027 0.553953
Si Si2 0.214355 0.671023 0.197716
Si Si3 0.156544 0.023255 0.868654
Si Si4 0.343598 0.850285 0.548018
Si Si5 0.189726 0.846275 0.032835
Si Si6 0.147104 0.363465 0.347532
Si Si7 0.200815 0.163817 0.712201
Si Si8 0.804778 0.019494 0.374264
O O1 0.500000 0.500000 0.500000
O O2 0.954326 0.576575 0.609544
O O3 0.000000 0.500000 0.500000
O O4 0.921593 0.272327 0.626528
O O5 0.142273 0.684107 0.107679
O O6 0.106314 0.508276 0.256690
O O7 0.557399 0.702930 0.253922
O O8 0.067654 0.836325 0.171321
O O9 0.475759 0.099147 0.917427
O O10 0.139218 0.024903 0.788570
O O11 0.124772 0.854268 0.944802
O O12 0.510172 0.681304 0.590527
O O13 0.396804 0.900432 0.619267
O O14 0.500000 0.000000 0.500000
O O15 0.008321 0.881596 0.471651
O O16 0.000000 0.000000 0.000000
O O17 0.991244 0.185773 0.344976
O O18 0.321300 0.074471 0.685786
#
# Coordination Sequence:
#
# PCOD9095598 Si02
#       8
#     2   2   2   2   2   2   2   2
#     4  12  27  40  61  89 127 164 211 272 326 359
#     4  10  20  35  58  91 121 152 200 255 313 365
#     4   9  17  34  57  87 123 148 197 248 310 367
#     4   9  21  39  58  74 111 159 216 249 300 364
#     4   8  16  31  57  89 119 154 184 246 309 378
#     4  11  23  40  58  84 118 159 206 257 307 372
#     4  11  23  37  58  88 121 159 209 259 306 373
#     4  10  23  38  58  78 114 164 211 251 308 365
#
# _framework density 21.424485000000001
#
# number of rings (size 3 to 8) (size 9 to 14) (size 15 to 20)
#    0.000    2.000    1.250    1.500    8.750    2.000 
#    0.000    0.000    0.000    0.750    0.000   30.625 
#    0.000    0.000    0.000    0.000    0.000    0.000 
#
# Total GULP energy -89211.226762 kJ/mol
# GULP energy per Si atom -5575.701673 kJ/mol
# Density = 2.137572 g / cm^3
# Si number density = 21.424485 Si / 1000 Ang^3
#
#
#
# Elastic Constant Matrix: (Units=GPa)
#
#
# Indices 1 2 3 4 5 6 
#
# 1 97.0998 6.8731 53.2061 -3.0435 -9.9420 -19.6059
# 2 6.8731 48.7305 38.1620 -6.7516 -12.7340 -10.9837
# 3 53.2061 38.1620 160.1053 -15.1105 -44.3959 -5.0256
# 4 -3.0435 -6.7516 -15.1105 19.6127 0.7552 -9.4135
# 5 -9.9420 -12.7340 -44.3959 0.7552 55.7185 -0.4594
# 6 -19.6059 -10.9837 -5.0256 -9.4135 -0.4594 32.1969
#
#
#
# Elastic Compliance Matrix: (Units=1/GPa)
#
#
# Indices 1 2 3 4 5 6 
#
# 1 0.015686 0.005796 -0.005773 0.005929 -0.000455 0.012355
# 2 0.005796 0.031831 -0.006728 0.015104 0.002890 0.017795
# 3 -0.005773 -0.006728 0.012054 0.004617 0.006954 -0.002480
# 4 0.005929 0.015104 0.004617 0.075588 0.007425 0.031690
# 5 -0.000455 0.002890 0.006954 0.007425 0.024002 0.004308
# 6 0.012355 0.017795 -0.002480 0.031690 0.004308 0.053592
#
#
# Mechanical properties :
#
#
# Convention : Reuss Voigt Hill
#
# Bulk Modulus (GPa) = 21.66320 55.82423 38.74372
# Shear Modulus (GPa) = 20.69964 35.35190 28.02577
#
# Velocity S-wave (km/s) = 3.11170 4.06651 3.62072
# Velocity P-wave (km/s) = 4.80037 6.93985 5.96679
#
# Compressibility (1/GPa) = 0.04616123
#
# Stress axis : x y z
#
# Youngs Moduli (GPa) = 63.75314 31.41595 82.95956
#
# Poissons Ratio (x) = -0.18208 0.47891
# Poissons Ratio (y) = -0.36950 0.55812
# Poissons Ratio (z) = 0.36803 0.21135
#
# Static dielectric constant tensor:
#      x y z
#    x 1.922840 0.081060 0.006140 
#    y 0.081060 1.805160 0.027310 
#    z 0.006140 0.027310 1.846020 
# 
# From -- ./inp_files/113167.got.cif
#   From: 2010.05.17/outbox.cif.g08.bks.cpg/sg2_57_cif.got.tgz:113167.got - 2010.06.03 11:33:40.
