data_PCOD9095048
_publ_section_title
;
Structure prediction by ZEFSAII (Michael W. Deem and Ramdas Pophale) SiO2 
 PCOD9095048
Probable space group: P -1
;
_chemical_formula_sum "Si O2"
_cell_formula_units_Z 16
_cell_length_a 21.019187
_cell_length_b 23.563244
_cell_length_c 11.589606
_cell_angle_alpha 151.958661
_cell_angle_beta 142.162382
_cell_angle_gamma 19.273067
_cell_volume 855.152233
_symmetry_space_group_name_H-M "P -1"
_symmetry_group_IT_number 2
_symmetry_cell_setting 'triclinic'
loop_
_space_group_symop_operation_xyz
x,y,z
-x,-y,-z
loop_
_atom_site_type_symbol
_atom_site_label
_atom_site_fract_x
_atom_site_fract_y
_atom_site_fract_z
Si Si1 0.168848 0.555568 0.870925
Si Si2 0.766079 0.784485 0.056926
Si Si3 0.850351 0.500982 0.842187
Si Si4 0.580358 0.562351 0.647251
Si Si5 0.659520 0.810773 0.708081
Si Si6 0.233339 0.735080 0.395513
Si Si7 0.267409 0.255155 0.656990
Si Si8 0.256151 0.068316 0.144363
O O1 0.258687 0.389731 0.596472
O O2 0.189111 0.444876 0.809772
O O3 0.934343 0.808151 0.961407
O O4 0.271878 0.577815 0.091261
O O5 0.915738 0.742164 0.229663
O O6 0.550220 0.014546 0.218664
O O7 0.836210 0.587754 0.859612
O O8 0.772319 0.759130 0.884319
O O9 0.720594 0.510258 0.679515
O O10 0.770275 0.672328 0.135457
O O11 0.416899 0.648791 0.494379
O O12 0.724367 0.346847 0.556271
O O13 0.436130 0.796246 0.934238
O O14 0.669164 0.905121 0.793077
O O15 0.000000 0.000000 0.500000
O O16 0.179331 0.218431 0.415182
O O17 0.500000 0.000000 0.500000
#
# Coordination Sequence:
#
# PCOD9095048 Si02
#       8
#     2   2   2   2   2   2   2   2
#     4  11  20  34  57  82 118 148 186 242 296 344
#     4  10  21  32  54  82 118 156 192 219 282 347
#     4  11  19  35  52  81 117 155 185 231 278 346
#     4  11  22  37  57  85 118 148 192 234 286 347
#     4  10  20  35  53  88 118 150 189 233 283 349
#     4  11  23  38  58  86 116 152 192 237 298 343
#     4  11  18  30  53  85 117 145 176 230 305 353
#     4  11  19  33  56  87 117 148 180 235 304 354
#
# _framework density 18.710121000000001
#
# number of rings (size 3 to 8) (size 9 to 14) (size 15 to 20)
#    0.000    1.250    5.000    3.750    0.000    0.000 
#    0.000    0.000    0.000    1.500    0.000    0.000 
#    0.000    0.000    0.000    0.000    0.000    0.000 
#
# Total GULP energy -89109.523113 kJ/mol
# GULP energy per Si atom -5569.345195 kJ/mol
# Density = 1.866754 g / cm^3
# Si number density = 18.710121 Si / 1000 Ang^3
#
#
#
# Elastic Constant Matrix: (Units=GPa)
#
#
# Indices 1 2 3 4 5 6 
#
# 1 56.6498 33.4194 16.2685 -7.0226 -0.8682 -6.7873
# 2 33.4194 129.9940 30.1264 -12.9285 13.0215 -10.0190
# 3 16.2685 30.1264 62.7002 -11.7559 5.6347 -9.8917
# 4 -7.0226 -12.9285 -11.7559 31.4368 -6.9415 9.2252
# 5 -0.8682 13.0215 5.6347 -6.9415 26.7512 -8.3271
# 6 -6.7873 -10.0190 -9.8917 9.2252 -8.3271 37.6160
#
#
#
# Elastic Compliance Matrix: (Units=1/GPa)
#
#
# Indices 1 2 3 4 5 6 
#
# 1 0.022169 -0.005126 -0.002960 0.002153 0.005166 0.002472
# 2 -0.005126 0.010233 -0.003038 0.001037 -0.004302 -0.000205
# 3 -0.002960 -0.003038 0.019480 0.004465 -0.000780 0.002512
# 4 0.002153 0.001037 0.004465 0.037568 0.006527 -0.005930
# 5 0.005166 -0.004302 -0.000780 0.006527 0.043897 0.007698
# 6 0.002472 -0.000205 0.002512 -0.005930 0.007698 0.030795
#
#
# Mechanical properties :
#
#
# Convention : Reuss Voigt Hill
#
# Bulk Modulus (GPa) = 33.74493 45.44138 39.59316
# Shear Modulus (GPa) = 25.47546 30.46278 27.96912
#
# Velocity S-wave (km/s) = 3.69397 4.03940 3.87054
# Velocity P-wave (km/s) = 6.02235 6.78937 6.41733
#
# Compressibility (1/GPa) = 0.02963408
#
# Stress axis : x y z
#
# Youngs Moduli (GPa) = 45.10900 97.72432 51.33477
#
# Poissons Ratio (x) = 0.50095 0.15193
# Poissons Ratio (y) = 0.23124 0.15595
# Poissons Ratio (z) = 0.13350 0.29688
#
# Static dielectric constant tensor:
#      x y z
#    x 1.620380 0.004000 0.015680 
#    y 0.004000 1.805050 -0.012050 
#    z 0.015680 -0.012050 1.658110 
# 
# From -- ./inp_files/472899.got.cif
#   From: 2010.05.17/outbox.cif.g08.bks.cpg/sg2_237_cif.got.tgz:472899.got - 2010.06.03 11:33:40.
