data_PCOD9095819
_publ_section_title
;
Structure prediction by ZEFSAII (Michael W. Deem and Ramdas Pophale) SiO2 
 PCOD9095819
Probable space group: P -1
;
_chemical_formula_sum "Si O2"
_cell_formula_units_Z 16
_cell_length_a 8.723908
_cell_length_b 7.918264
_cell_length_c 15.643460
_cell_angle_alpha 103.224935
_cell_angle_beta 125.232789
_cell_angle_gamma 107.779450
_cell_volume 717.623140
_symmetry_space_group_name_H-M "P -1"
_symmetry_group_IT_number 2
_symmetry_cell_setting 'triclinic'
loop_
_space_group_symop_operation_xyz
x,y,z
-x,-y,-z
loop_
_atom_site_type_symbol
_atom_site_label
_atom_site_fract_x
_atom_site_fract_y
_atom_site_fract_z
Si Si1 0.682398 0.602126 0.191762
Si Si2 0.855650 0.201682 0.917389
Si Si3 0.437654 0.849827 0.344420
Si Si4 0.495873 0.248796 0.229912
Si Si5 0.964851 0.361694 0.389719
Si Si6 0.591785 0.567947 0.441987
Si Si7 0.145937 0.775066 0.403638
Si Si8 0.745419 0.458466 0.014913
O O1 0.548796 0.416269 0.194148
O O2 0.512150 0.661342 0.112306
O O3 0.918567 0.771211 0.329787
O O4 0.746609 0.521041 0.119762
O O5 0.689142 0.200255 0.791562
O O6 0.847275 0.323025 0.010627
O O7 0.744530 0.962838 0.875430
O O8 0.098306 0.333110 0.966783
O O9 0.495237 0.686396 0.376609
O O10 0.273340 0.849612 0.362990
O O11 0.672119 0.072587 0.450803
O O12 0.697702 0.210771 0.277567
O O13 0.524075 0.364987 0.341559
O O14 0.000000 0.500000 0.500000
O O15 0.136280 0.291396 0.447534
O O16 0.063171 0.536743 0.367141
O O17 0.500000 0.500000 0.500000
#
# Coordination Sequence:
#
# PCOD9095819 Si02
#       8
#     2   2   2   2   2   2   2   2
#     4  10  21  44  64  91 119 162 201 254 307 354
#     4  11  23  42  62  93 119 163 205 250 304 362
#     4  11  21  34  60  90 122 154 200 247 297 361
#     4  10  23  39  61  85 126 158 202 251 308 356
#     4   9  18  36  53  80 122 164 189 237 300 361
#     4  11  21  34  56  90 125 164 202 244 295 366
#     4  10  20  35  60  87 120 160 192 244 306 359
#     4  10  23  41  69  86 121 159 209 254 297 360
#
# _framework density 22.295822999999999
#
# number of rings (size 3 to 8) (size 9 to 14) (size 15 to 20)
#    0.000    1.750    2.500    2.250    1.750    2.000 
#    0.000    8.125    0.000    0.000    0.000    0.000 
#    0.000    0.000    0.000    0.000    0.000    0.000 
#
# Total GULP energy -89377.480189 kJ/mol
# GULP energy per Si atom -5586.092512 kJ/mol
# Density = 2.224508 g / cm^3
# Si number density = 22.295823 Si / 1000 Ang^3
#
#
#
# Elastic Constant Matrix: (Units=GPa)
#
#
# Indices 1 2 3 4 5 6 
#
# 1 78.7066 21.9956 32.4778 -1.5104 -5.9638 17.8782
# 2 21.9956 60.1308 5.8881 15.1383 -0.9502 15.2855
# 3 32.4778 5.8881 53.8777 10.4769 21.6122 7.3947
# 4 -1.5104 15.1383 10.4769 35.5727 2.5670 2.7186
# 5 -5.9638 -0.9502 21.6122 2.5670 43.7731 -9.8331
# 6 17.8782 15.2855 7.3947 2.7186 -9.8331 21.2371
#
#
#
# Elastic Compliance Matrix: (Units=1/GPa)
#
#
# Indices 1 2 3 4 5 6 
#
# 1 0.025866 -0.008914 -0.021094 0.010496 0.012308 -0.003659
# 2 -0.008914 0.026547 0.011361 -0.012925 -0.009613 -0.018355
# 3 -0.021094 0.011361 0.047431 -0.016185 -0.029229 -0.018397
# 4 0.010496 -0.012925 -0.016185 0.037864 0.008038 0.004977
# 5 0.012308 -0.009613 -0.029229 0.008038 0.044147 0.026147
# 6 -0.003659 -0.018355 -0.018397 0.004977 0.026147 0.081254
#
#
# Mechanical properties :
#
#
# Convention : Reuss Voigt Hill
#
# Bulk Modulus (GPa) = 15.98716 34.82645 25.40681
# Shear Modulus (GPa) = 15.56409 28.94015 22.25212
#
# Velocity S-wave (km/s) = 2.64497 3.60670 3.16260
# Velocity P-wave (km/s) = 4.06373 5.74443 4.97555
#
# Compressibility (1/GPa) = 0.06255018
#
# Stress axis : x y z
#
# Youngs Moduli (GPa) = 38.66088 37.66963 21.08309
#
# Poissons Ratio (x) = 0.33578 0.44472
# Poissons Ratio (y) = 0.34461 -0.23952
# Poissons Ratio (z) = 0.81550 -0.42795
#
# Static dielectric constant tensor:
#      x y z
#    x 1.829930 -0.009780 0.034630 
#    y -0.009780 1.829830 -0.015170 
#    z 0.034630 -0.015170 1.835980 
# 
# From -- ./inp_files/185758.got.cif
#   From: 2010.05.17/outbox.cif.g08.bks.cpg/sg2_93_cif.got.tgz:185758.got - 2010.06.03 11:33:40.
