data_PCOD9095570
_publ_section_title
;
Structure prediction by ZEFSAII (Michael W. Deem and Ramdas Pophale) SiO2 
 PCOD9095570
Probable space group: P -1
;
_chemical_formula_sum "Si O2"
_cell_formula_units_Z 16
_cell_length_a 14.991737
_cell_length_b 11.998126
_cell_length_c 9.494462
_cell_angle_alpha 107.260429
_cell_angle_beta 124.257153
_cell_angle_gamma 118.548797
_cell_volume 777.104612
_symmetry_space_group_name_H-M "P -1"
_symmetry_group_IT_number 2
_symmetry_cell_setting 'triclinic'
loop_
_space_group_symop_operation_xyz
x,y,z
-x,-y,-z
loop_
_atom_site_type_symbol
_atom_site_label
_atom_site_fract_x
_atom_site_fract_y
_atom_site_fract_z
Si Si1 0.621862 0.447035 0.496753
Si Si2 0.350399 0.379118 0.123942
Si Si3 0.542246 0.173907 0.775326
Si Si4 0.977149 0.911964 0.678922
Si Si5 0.174688 0.978362 0.446028
Si Si6 0.849369 0.621897 0.238647
Si Si7 0.589178 0.951063 0.713514
Si Si8 0.971633 0.196400 0.064594
O O1 0.534041 0.462091 0.315960
O O2 0.648385 0.544813 0.701399
O O3 0.819358 0.571258 0.671519
O O4 0.482466 0.218910 0.320252
O O5 0.313472 0.438014 0.991324
O O6 0.172879 0.136077 0.879970
O O7 0.533537 0.029155 0.746644
O O8 0.378168 0.100334 0.680190
O O9 0.499827 0.144973 0.558167
O O10 0.746366 0.407644 0.074729
O O11 0.918193 0.740756 0.487453
O O12 0.010973 0.906979 0.868473
O O13 0.833134 0.887944 0.502932
O O14 0.024406 0.789820 0.349720
O O15 0.096392 0.886811 0.185198
O O16 0.812303 0.136109 0.966701
#
# Coordination Sequence:
#
# PCOD9095570 Si02
#       8
#     2   2   2   2   2   2   2   2
#     4  11  20  34  62  87 118 151 196 244 298 342
#     4  10  20  35  58  88 121 154 186 244 299 348
#     4  10  22  38  63  86 117 161 201 242 292 346
#     4  11  22  37  59  90 130 150 188 246 302 354
#     4  10  21  37  62  87 121 152 199 242 293 354
#     4  11  22  41  56  89 126 160 186 239 305 357
#     4  10  21  40  59  90 121 148 204 259 280 335
#     4  11  21  36  61  92 115 156 198 241 294 347
#
# _framework density 20.589248999999999
#
# number of rings (size 3 to 8) (size 9 to 14) (size 15 to 20)
#    0.000    1.500    5.000    1.875    1.750    1.500 
#    2.250    4.375    0.000    1.500    0.000    0.000 
#    0.000    0.000    0.000    0.000    0.000    0.000 
#
# Total GULP energy -89343.391725 kJ/mol
# GULP energy per Si atom -5583.961983 kJ/mol
# Density = 2.054239 g / cm^3
# Si number density = 20.589249 Si / 1000 Ang^3
#
#
#
# Elastic Constant Matrix: (Units=GPa)
#
#
# Indices 1 2 3 4 5 6 
#
# 1 84.4287 12.7006 40.4445 14.3186 17.7117 -2.8601
# 2 12.7006 20.6315 25.4695 9.9473 6.7515 -4.1281
# 3 40.4445 25.4695 37.3987 13.8247 -3.5877 0.0764
# 4 14.3186 9.9473 13.8247 24.6555 2.3899 -1.7098
# 5 17.7117 6.7515 -3.5877 2.3899 20.9440 6.1743
# 6 -2.8601 -4.1281 0.0764 -1.7098 6.1743 20.8582
#
#
#
# Elastic Compliance Matrix: (Units=1/GPa)
#
#
# Indices 1 2 3 4 5 6 
#
# 1 0.004192 -0.033261 0.020434 -0.002559 0.014050 -0.010452
# 2 -0.033261 -0.013335 0.054434 -0.012281 0.049992 -0.023205
# 3 0.020434 0.054434 -0.034013 -0.008249 -0.047716 0.027148
# 4 -0.002559 -0.012281 -0.008249 0.051943 -0.001820 0.002045
# 5 0.014050 0.049992 -0.047716 -0.001820 0.009083 0.009158
# 6 -0.010452 -0.023205 0.027148 0.002045 0.009158 0.039274
#
#
# Mechanical properties :
#
#
# Convention : Reuss Voigt Hill
#
# Bulk Modulus (GPa) = 24.96448 33.29867 29.13157
# Shear Modulus (GPa) = -393.21561 17.54783 -187.83389
#
# Velocity S-wave (km/s) = -13.83458 2.92255 -9.56176
# Velocity P-wave (km/s) = 15.58983 5.25322 10.37898
#
# Compressibility (1/GPa) = 0.04005692
#
# Stress axis : x y z
#
# Youngs Moduli (GPa) = 238.56433 -74.99190 -29.40052
#
# Poissons Ratio (x) = -2.49427 0.60076
# Poissons Ratio (y) = 7.93479 1.60037
# Poissons Ratio (z) = -4.87471 4.08208
#
# Static dielectric constant tensor:
#      x y z
#    x 1.742320 0.018910 0.000550 
#    y 0.018910 1.728170 -0.003730 
#    z 0.000550 -0.003730 1.749600 
# 
# From -- ./inp_files/308163.got.cif
#   From: 2010.05.17/outbox.cif.g08.bks.cpg/sg2_155_cif.got.tgz:308163.got - 2010.06.03 11:33:40.
