data_PCOD9095839
_publ_section_title
;
Structure prediction by ZEFSAII (Michael W. Deem and Ramdas Pophale) SiO2 
 PCOD9095839
Probable space group: P -1
;
_chemical_formula_sum "Si O2"
_cell_formula_units_Z 16
_cell_length_a 17.830183
_cell_length_b 8.774093
_cell_length_c 23.726914
_cell_angle_alpha 41.500827
_cell_angle_beta 160.323209
_cell_angle_gamma 139.443559
_cell_volume 803.056756
_symmetry_space_group_name_H-M "P -1"
_symmetry_group_IT_number 2
_symmetry_cell_setting 'triclinic'
loop_
_space_group_symop_operation_xyz
x,y,z
-x,-y,-z
loop_
_atom_site_type_symbol
_atom_site_label
_atom_site_fract_x
_atom_site_fract_y
_atom_site_fract_z
Si Si1 0.329412 0.605930 0.150051
Si Si2 0.558331 0.358912 0.025843
Si Si3 0.031182 0.267870 0.845543
Si Si4 0.254070 0.969077 0.675112
Si Si5 0.895720 0.792839 0.806663
Si Si6 0.755831 0.417895 0.321596
Si Si7 0.368500 0.239345 0.186977
Si Si8 0.453827 0.871266 0.441569
O O1 0.229964 0.407583 0.181987
O O2 0.379458 0.473243 0.166581
O O3 0.562924 0.793124 0.280996
O O4 0.120192 0.729469 0.958311
O O5 0.781785 0.520462 0.108685
O O6 0.623152 0.123273 0.158715
O O7 0.500000 0.500000 0.000000
O O8 0.344156 0.363688 0.832516
O O9 0.784897 0.324289 0.665868
O O10 0.139528 0.192839 0.000116
O O11 0.984252 0.041425 0.833352
O O12 0.232771 0.763433 0.670526
O O13 0.000000 0.000000 0.500000
O O14 0.692090 0.804785 0.616328
O O15 0.573744 0.282521 0.275748
O O16 0.000000 0.500000 0.500000
O O17 0.396406 0.043008 0.305875
O O18 0.500000 0.000000 0.500000
#
# Coordination Sequence:
#
# PCOD9095839 Si02
#       8
#     2   2   2   2   2   2   2   2
#     4  11  22  38  59  88 126 156 197 239 317 355
#     4   9  20  38  62  87 117 162 203 248 293 366
#     4  10  20  38  63  87 118 152 213 248 299 350
#     4  11  24  41  65  91 123 164 200 248 305 368
#     4  10  22  38  61  87 119 160 201 250 292 365
#     4  10  22  41  63  90 117 159 209 252 294 355
#     4  11  21  38  63  88 121 158 196 256 300 356
#     4  10  20  35  60  89 111 160 210 242 287 361
#
# _framework density 19.923871999999999
#
# number of rings (size 3 to 8) (size 9 to 14) (size 15 to 20)
#    0.000    1.750    2.500    3.375    1.750    5.000 
#    0.000    8.750    0.000    0.000    0.000    0.000 
#    0.000    0.000    0.000    0.000    0.000    0.000 
#
# Total GULP energy -89256.486670 kJ/mol
# GULP energy per Si atom -5578.530417 kJ/mol
# Density = 1.987852 g / cm^3
# Si number density = 19.923872 Si / 1000 Ang^3
#
#
#
# Elastic Constant Matrix: (Units=GPa)
#
#
# Indices 1 2 3 4 5 6 
#
# 1 61.9969 5.2716 27.0454 0.1949 3.1591 1.6414
# 2 5.2716 42.8592 24.9441 7.2548 7.8752 -3.3820
# 3 27.0454 24.9441 133.6347 22.9798 8.2231 -8.6717
# 4 0.1949 7.2548 22.9798 30.0787 1.8582 3.6648
# 5 3.1591 7.8752 8.2231 1.8582 35.0169 -5.7776
# 6 1.6414 -3.3820 -8.6717 3.6648 -5.7776 19.1445
#
#
#
# Elastic Compliance Matrix: (Units=1/GPa)
#
#
# Indices 1 2 3 4 5 6 
#
# 1 0.018364 -0.000409 -0.004590 0.004189 -0.001533 -0.004990
# 2 -0.000409 0.027326 -0.003970 -0.003558 -0.004599 0.002357
# 3 -0.004590 -0.003970 0.010950 -0.008156 0.000204 0.006275
# 4 0.004189 -0.003558 -0.008156 0.042067 -0.002100 -0.013369
# 5 -0.001533 -0.004599 0.000204 -0.002100 0.031323 0.009266
# 6 -0.004990 0.002357 0.006275 -0.013369 0.009266 0.061276
#
#
# Mechanical properties :
#
#
# Convention : Reuss Voigt Hill
#
# Bulk Modulus (GPa) = 25.83788 39.22367 32.53077
# Shear Modulus (GPa) = 22.50781 28.93001 25.71891
#
# Velocity S-wave (km/s) = 3.36473 3.81468 3.59675
# Velocity P-wave (km/s) = 5.30016 6.25555 5.79757
#
# Compressibility (1/GPa) = 0.03870287
#
# Stress axis : x y z
#
# Youngs Moduli (GPa) = 54.45423 36.59457 91.32228
#
# Poissons Ratio (x) = 0.01495 0.41919
# Poissons Ratio (y) = 0.02225 0.36257
# Poissons Ratio (z) = 0.24996 0.14529
#
# Static dielectric constant tensor:
#      x y z
#    x 1.760760 0.056430 0.062810 
#    y 0.056430 1.747160 0.028830 
#    z 0.062810 0.028830 1.808430 
# 
# From -- ./inp_files/563230.got.cif
#   From: 2010.05.17/outbox.cif.g08.bks.cpg/sg2_282_cif.got.tgz:563230.got - 2010.06.03 11:33:40.
