data_PCOD9095289
_publ_section_title
;
Structure prediction by ZEFSAII (Michael W. Deem and Ramdas Pophale) SiO2 
 PCOD9095289
Probable space group: P -1
;
_chemical_formula_sum "Si O2"
_cell_formula_units_Z 14
_cell_length_a 7.814083
_cell_length_b 5.531246
_cell_length_c 23.288227
_cell_angle_alpha 60.675782
_cell_angle_beta 140.605317
_cell_angle_gamma 120.065629
_cell_volume 543.138337
_symmetry_space_group_name_H-M "P -1"
_symmetry_group_IT_number 2
_symmetry_cell_setting 'triclinic'
loop_
_space_group_symop_operation_xyz
x,y,z
-x,-y,-z
loop_
_atom_site_type_symbol
_atom_site_label
_atom_site_fract_x
_atom_site_fract_y
_atom_site_fract_z
Si Si1 0.263734 0.858050 0.589179
Si Si2 0.209244 0.645261 0.368084
Si Si3 0.374264 0.343147 0.202980
Si Si4 0.707888 0.557156 0.100351
Si Si5 0.807481 0.089894 0.889953
Si Si6 0.568555 0.320157 0.459076
Si Si7 0.839918 0.993414 0.177361
O O1 0.360399 0.731371 0.687380
O O2 0.285019 0.640308 0.568314
O O3 0.522994 0.114730 0.609752
O O4 0.000000 0.000000 0.500000
O O5 0.269315 0.397758 0.371898
O O6 0.239484 0.548777 0.452451
O O7 0.957255 0.780021 0.273104
O O8 0.359312 0.675086 0.159518
O O9 0.341648 0.191958 0.150281
O O10 0.103368 0.179196 0.188375
O O11 0.649872 0.778810 0.107511
O O12 0.994540 0.729301 0.128007
O O13 0.730620 0.233437 0.155793
O O14 0.500000 0.500000 0.000000
O O15 0.000000 0.000000 0.000000
O O16 0.500000 0.000000 0.500000
#
# Coordination Sequence:
#
# PCOD9095289 Si02
#       7
#     2   2   2   2   2   2   2
#     4  10  21  35  57  85 121 154 192 246 294 341
#     4   9  19  35  57  84 107 157 202 232 285 345
#     4   9  20  35  58  87 108 152 203 231 285 367
#     4  10  20  35  56  86 112 143 188 244 301 345
#     4  10  20  38  62  80 111 154 195 243 295 356
#     4   9  19  34  57  78 115 146 198 236 282 347
#     4   9  19  32  59  81 111 147 192 239 281 355
#
# _framework density 25.776119000000001
#
# number of rings (size 3 to 8) (size 9 to 14) (size 15 to 20)
#    0.000    2.571    0.000    0.857   12.000    0.571 
#    0.000    1.429    6.286    0.000    0.000    0.000 
#    0.000    0.000    0.000    0.000    0.000    0.000 
#
# Total GULP energy -78190.971406 kJ/mol
# GULP energy per Si atom -5585.069386 kJ/mol
# Density = 2.571745 g / cm^3
# Si number density = 25.776119 Si / 1000 Ang^3
#
#
#
# Elastic Constant Matrix: (Units=GPa)
#
#
# Indices 1 2 3 4 5 6 
#
# 1 97.6119 22.2432 25.6272 -2.4429 -2.8563 -27.1235
# 2 22.2432 128.4201 49.4333 -23.8712 -1.4040 -8.2928
# 3 25.6272 49.4333 169.3141 -18.8383 -0.9376 -27.9149
# 4 -2.4429 -23.8712 -18.8383 48.6871 -0.8606 1.7505
# 5 -2.8563 -1.4040 -0.9376 -0.8606 34.6994 -3.1671
# 6 -27.1235 -8.2928 -27.9149 1.7505 -3.1671 40.4330
#
#
#
# Elastic Compliance Matrix: (Units=1/GPa)
#
#
# Indices 1 2 3 4 5 6 
#
# 1 0.013071 -0.001748 -0.000116 -0.000520 0.001764 0.008491
# 2 -0.001748 0.009610 -0.002271 0.003782 0.000194 -0.000918
# 3 -0.000116 -0.002271 0.007536 0.001640 0.000566 0.004632
# 4 -0.000520 0.003782 0.001640 0.022993 0.000782 0.000625
# 5 0.001764 0.000194 0.000566 0.000782 0.029361 0.003880
# 6 0.008491 -0.000918 0.004632 0.000625 0.003880 0.033715
#
#
# Mechanical properties :
#
#
# Convention : Reuss Voigt Hill
#
# Bulk Modulus (GPa) = 45.56527 65.55039 55.55783
# Shear Modulus (GPa) = 37.91550 44.63339 41.27445
#
# Velocity S-wave (km/s) = 3.83946 4.16574 4.00592
# Velocity P-wave (km/s) = 6.11318 6.97307 6.55724
#
# Compressibility (1/GPa) = 0.02194654
#
# Stress axis : x y z
#
# Youngs Moduli (GPa) = 76.50239 104.06277 132.69491
#
# Poissons Ratio (x) = 0.18195 0.01543
# Poissons Ratio (y) = 0.13376 0.30129
# Poissons Ratio (z) = 0.00890 0.23628
#
# Static dielectric constant tensor:
#      x y z
#    x 2.193000 -0.180770 0.046790 
#    y -0.180770 2.108310 0.053500 
#    z 0.046790 0.053500 2.017340 
# 
# From -- ./inp_files/47014.got.cif
#   From: 2010.05.17/outbox.cif.g08.bks.cpg/sg2_24_cif.got.tgz:47014.got - 2010.06.03 11:33:40.
