data_PCOD9095661
_publ_section_title
;
Structure prediction by ZEFSAII (Michael W. Deem and Ramdas Pophale) SiO2 
 PCOD9095661
Probable space group: P -1
;
_chemical_formula_sum "Si O2"
_cell_formula_units_Z 16
_cell_length_a 17.342680
_cell_length_b 5.343370
_cell_length_c 26.207304
_cell_angle_alpha 103.466566
_cell_angle_beta 16.906169
_cell_angle_gamma 100.701825
_cell_volume 680.887935
_symmetry_space_group_name_H-M "P -1"
_symmetry_group_IT_number 2
_symmetry_cell_setting 'triclinic'
loop_
_space_group_symop_operation_xyz
x,y,z
-x,-y,-z
loop_
_atom_site_type_symbol
_atom_site_label
_atom_site_fract_x
_atom_site_fract_y
_atom_site_fract_z
Si Si1 0.129149 0.367328 0.719379
Si Si2 0.619625 0.731800 0.345393
Si Si3 0.061236 0.041367 0.109129
Si Si4 0.538552 0.337986 0.216808
Si Si5 0.777498 0.242431 0.159533
Si Si6 0.022558 0.170498 0.573929
Si Si7 0.759235 0.328702 0.654135
Si Si8 0.750986 0.926906 0.470802
O O1 0.388492 0.305261 0.590127
O O2 0.992858 0.659670 0.827841
O O3 0.192195 0.298509 0.617860
O O4 0.952078 0.150640 0.842950
O O5 0.775932 0.463697 0.213260
O O6 0.813150 0.956338 0.229001
O O7 0.351870 0.821471 0.487217
O O8 0.328109 0.938410 0.903661
O O9 0.732624 0.397951 0.141860
O O10 0.248087 0.358119 0.428682
O O11 0.499903 0.523414 0.201672
O O12 0.509022 0.112720 0.333703
O O13 0.000000 0.000000 0.000000
O O14 0.021240 0.094391 0.630638
O O15 0.760465 0.275718 0.711662
O O16 0.146127 0.923328 0.451085
O O17 0.000000 0.500000 0.500000
#
# Coordination Sequence:
#
# PCOD9095661 Si02
#       8
#     2   2   2   2   2   2   2   2
#     4  10  24  41  58  84 119 163 210 243 286 343
#     4  10  22  36  57  81 121 160 202 240 289 346
#     4  10  24  40  60  85 120 162 206 247 284 353
#     4  10  20  35  59  85 116 157 190 245 303 358
#     4  11  23  35  55  88 126 153 199 247 301 353
#     4   9  20  35  60  88 118 145 190 250 302 359
#     4   9  18  36  56  90 115 148 190 236 309 367
#     4  11  22  37  59  84 116 159 199 249 294 349
#
# _framework density 23.498723999999999
#
# number of rings (size 3 to 8) (size 9 to 14) (size 15 to 20)
#    0.750    1.250    0.000    3.375    3.500    4.000 
#    0.000    0.000    0.000    1.500    0.000    0.000 
#    0.000    0.000    0.000    0.000    0.000    0.000 
#
# Total GULP energy -89230.638950 kJ/mol
# GULP energy per Si atom -5576.914934 kJ/mol
# Density = 2.344524 g / cm^3
# Si number density = 23.498724 Si / 1000 Ang^3
#
#
#
# Elastic Constant Matrix: (Units=GPa)
#
#
# Indices 1 2 3 4 5 6 
#
# 1 200.1503 24.5492 32.0273 30.5754 -6.4390 -26.8446
# 2 24.5492 88.3005 17.5523 25.4578 -1.9864 -8.9948
# 3 32.0273 17.5523 50.3022 23.2858 11.6815 -6.4938
# 4 30.5754 25.4578 23.2858 41.7800 -1.3216 3.9098
# 5 -6.4390 -1.9864 11.6815 -1.3216 24.5083 9.7048
# 6 -26.8446 -8.9948 -6.4938 3.9098 9.7048 31.8268
#
#
#
# Elastic Compliance Matrix: (Units=1/GPa)
#
#
# Indices 1 2 3 4 5 6 
#
# 1 0.006757 0.000495 -0.001115 -0.005239 -0.000469 0.006399
# 2 0.000495 0.014672 0.000794 -0.010444 -0.002277 0.006703
# 3 -0.001115 0.000794 0.041494 -0.025573 -0.029227 0.019804
# 4 -0.005239 -0.010444 -0.025573 0.051541 0.023016 -0.025938
# 5 -0.000469 -0.002277 -0.029227 0.023016 0.067738 -0.030485
# 6 0.006399 0.006703 0.019804 -0.025938 -0.030485 0.055234
#
#
# Mechanical properties :
#
#
# Convention : Reuss Voigt Hill
#
# Bulk Modulus (GPa) = 15.80464 54.11231 34.95848
# Shear Modulus (GPa) = 19.36631 37.26463 28.31547
#
# Velocity S-wave (km/s) = 2.87390 3.98655 3.47505
# Velocity P-wave (km/s) = 4.21340 6.65341 5.56869
#
# Compressibility (1/GPa) = 0.06327257
#
# Stress axis : x y z
#
# Youngs Moduli (GPa) = 147.98700 68.15540 24.09959
#
# Poissons Ratio (x) = -0.03371 0.02687
# Poissons Ratio (y) = -0.07319 -0.01914
# Poissons Ratio (z) = 0.16497 -0.05414
#
# Static dielectric constant tensor:
#      x y z
#    x 2.013810 -0.040120 -0.065020 
#    y -0.040120 2.015990 -0.059630 
#    z -0.065020 -0.059630 1.918360 
# 
# From -- ./inp_files/620148.got.cif
#   From: 2010.05.17/outbox.cif.g08.bks.cpg/sg2_311_cif.got.tgz:620148.got - 2010.06.03 11:33:40.
