data_PCOD9095736
_publ_section_title
;
Structure prediction by ZEFSAII (Michael W. Deem and Ramdas Pophale) SiO2 
 PCOD9095736
Probable space group: P -1
;
_chemical_formula_sum "Si O2"
_cell_formula_units_Z 14
_cell_length_a 5.443137
_cell_length_b 12.354216
_cell_length_c 10.843903
_cell_angle_alpha 106.484926
_cell_angle_beta 116.983426
_cell_angle_gamma 75.341220
_cell_volume 616.482766
_symmetry_space_group_name_H-M "P -1"
_symmetry_group_IT_number 2
_symmetry_cell_setting 'triclinic'
loop_
_space_group_symop_operation_xyz
x,y,z
-x,-y,-z
loop_
_atom_site_type_symbol
_atom_site_label
_atom_site_fract_x
_atom_site_fract_y
_atom_site_fract_z
Si Si1 0.775081 0.908082 0.535751
Si Si2 0.160965 0.352886 0.114291
Si Si3 0.932619 0.880788 0.298662
Si Si4 0.294390 0.701318 0.184300
Si Si5 0.134350 0.132800 0.192184
Si Si6 0.365680 0.520802 0.840270
Si Si7 0.606140 0.113268 0.933335
O O1 0.810635 0.849934 0.392396
O O2 0.788851 0.838397 0.642180
O O3 0.500000 0.000000 0.500000
O O4 0.011437 0.990253 0.632422
O O5 0.208216 0.227960 0.145813
O O6 0.450326 0.396208 0.161527
O O7 0.954395 0.429492 0.188907
O O8 0.974575 0.352919 0.946112
O O9 0.723954 0.880966 0.135652
O O10 0.196625 0.788697 0.298994
O O11 0.547404 0.603346 0.240240
O O12 0.359688 0.779506 0.110450
O O13 0.284572 0.006184 0.148944
O O14 0.805817 0.124868 0.096692
O O15 0.500000 0.500000 0.000000
#
# Coordination Sequence:
#
# PCOD9095736 Si02
#       7
#     2   2   2   2   2   2   2
#     4  11  22  42  56  89 130 169 218 249 320 389
#     4  10  23  37  60  95 129 172 205 264 330 373
#     4  11  22  35  64  89 122 170 214 259 312 389
#     4  10  20  35  59  90 124 159 216 265 311 374
#     4  10  21  40  59  90 137 160 204 273 317 396
#     4  10  21  39  61  91 131 167 215 263 317 379
#     4  10  21  37  58  96 122 163 207 262 334 369
#
# _framework density 22.709475000000001
#
# number of rings (size 3 to 8) (size 9 to 14) (size 15 to 20)
#    0.000    1.714    2.857    1.714    8.000    1.714 
#    0.000    0.000    0.000    1.714    0.000    0.000 
#    0.000    0.000    0.000    0.000    0.000    0.000 
#
# Total GULP energy -78215.965492 kJ/mol
# GULP energy per Si atom -5586.854678 kJ/mol
# Density = 2.265779 g / cm^3
# Si number density = 22.709475 Si / 1000 Ang^3
#
#
#
# Elastic Constant Matrix: (Units=GPa)
#
#
# Indices 1 2 3 4 5 6 
#
# 1 88.5412 27.4488 15.3176 -0.3505 -4.4720 -0.8940
# 2 27.4488 94.6384 12.8382 5.9120 -4.9301 5.1997
# 3 15.3176 12.8382 63.5754 -17.4204 -4.8115 2.8279
# 4 -0.3505 5.9120 -17.4204 23.9863 -1.3755 -9.7515
# 5 -4.4720 -4.9301 -4.8115 -1.3755 26.7881 3.4880
# 6 -0.8940 5.1997 2.8279 -9.7515 3.4880 38.4621
#
#
#
# Elastic Compliance Matrix: (Units=1/GPa)
#
#
# Indices 1 2 3 4 5 6 
#
# 1 0.012816 -0.003341 -0.002497 -0.000450 0.000958 0.000732
# 2 -0.003341 0.012690 -0.003424 -0.006985 0.001250 -0.003426
# 3 -0.002497 -0.003424 0.022185 0.018388 0.003476 0.003121
# 4 -0.000450 -0.006985 0.018388 0.063166 0.003192 0.015307
# 5 0.000958 0.001250 0.003476 0.003192 0.038915 -0.003122
# 6 0.000732 -0.003426 0.003121 0.015307 -0.003122 0.030414
#
#
# Mechanical properties :
#
#
# Convention : Reuss Voigt Hill
#
# Bulk Modulus (GPa) = 34.28517 39.77381 37.02949
# Shear Modulus (GPa) = 23.98877 30.59066 27.28972
#
# Velocity S-wave (km/s) = 3.25365 3.67419 3.47030
# Velocity P-wave (km/s) = 5.40787 5.96253 5.69196
#
# Compressibility (1/GPa) = 0.02916713
#
# Stress axis : x y z
#
# Youngs Moduli (GPa) = 78.02937 78.80447 45.07536
#
# Poissons Ratio (x) = 0.26325 0.11253
# Poissons Ratio (y) = 0.26066 0.15436
# Poissons Ratio (z) = 0.19480 0.26987
#
# Static dielectric constant tensor:
#      x y z
#    x 1.953780 0.004440 0.011780 
#    y 0.004440 1.897100 0.051820 
#    z 0.011780 0.051820 1.878360 
# 
# From -- ./inp_files/65491.got.cif
#   From: 2010.05.17/outbox.cif.g08.bks.cpg/sg2_33_cif.got.tgz:65491.got - 2010.06.03 11:33:40.
