data_PCOD9095066
_publ_section_title
;
Structure prediction by ZEFSAII (Michael W. Deem and Ramdas Pophale) SiO2 
 PCOD9095066
Probable space group: P -1
;
_chemical_formula_sum "Si O2"
_cell_formula_units_Z 16
_cell_length_a 18.411551
_cell_length_b 23.108095
_cell_length_c 10.010978
_cell_angle_alpha 149.558655
_cell_angle_beta 141.764572
_cell_angle_gamma 17.934027
_cell_volume 647.757803
_symmetry_space_group_name_H-M "P -1"
_symmetry_group_IT_number 2
_symmetry_cell_setting 'triclinic'
loop_
_space_group_symop_operation_xyz
x,y,z
-x,-y,-z
loop_
_atom_site_type_symbol
_atom_site_label
_atom_site_fract_x
_atom_site_fract_y
_atom_site_fract_z
Si Si1 0.649348 0.195660 0.862265
Si Si2 0.207925 0.379633 0.887892
Si Si3 0.252789 0.327876 0.335767
Si Si4 0.368868 0.024312 0.511575
Si Si5 0.694964 0.956121 0.047445
Si Si6 0.027101 0.954827 0.147983
Si Si7 0.186505 0.627508 0.238223
Si Si8 0.932233 0.807984 0.842458
O O1 0.411915 0.430362 0.070111
O O2 0.875885 0.028355 0.954232
O O3 0.643787 0.063321 0.569770
O O4 0.717477 0.211673 0.863852
O O5 0.290548 0.222162 0.809721
O O6 0.940777 0.571351 0.838655
O O7 0.378889 0.201378 0.653183
O O8 0.229469 0.498260 0.162310
O O9 0.124749 0.548457 0.648322
O O10 0.474434 0.176086 0.261411
O O11 0.311090 0.177760 0.226860
O O12 0.176867 0.144529 0.359937
O O13 0.944659 0.787633 0.137168
O O14 0.715565 0.990799 0.999289
O O15 0.868405 0.197921 0.448692
O O16 0.040769 0.841066 0.047473
#
# Coordination Sequence:
#
# PCOD9095066 Si02
#       8
#     2   2   2   2   2   2   2   2
#     4   9  19  37  57  77 106 139 173 220 264 308
#     4   8  15  32  54  78 106 132 167 221 265 306
#     4   9  19  37  56  76 105 139 177 217 261 311
#     4   8  15  32  56  81 107 135 174 217 266 316
#     4  10  21  36  55  79 107 139 177 216 258 313
#     4  10  21  36  56  80 104 138 180 214 261 318
#     4  10  20  35  54  78 109 139 172 217 263 309
#     4  10  20  35  55  77 107 144 175 214 261 308
#
# _framework density 24.700590999999999
#
# number of rings (size 3 to 8) (size 9 to 14) (size 15 to 20)
#    0.000    2.750    0.000    0.750    0.000    2.500 
#    0.000   30.000    0.000    0.000    0.000    0.000 
#    0.000    0.000    0.000    0.000    0.000    0.000 
#
# Total GULP energy -89474.604051 kJ/mol
# GULP energy per Si atom -5592.162753 kJ/mol
# Density = 2.464437 g / cm^3
# Si number density = 24.700591 Si / 1000 Ang^3
#
#
#
# Elastic Constant Matrix: (Units=GPa)
#
#
# Indices 1 2 3 4 5 6 
#
# 1 128.6244 25.2933 68.5958 -1.1622 27.4492 -35.7318
# 2 25.2933 68.3102 4.1408 5.8589 4.9746 -28.8591
# 3 68.5958 4.1408 87.7095 -3.0728 27.9722 -11.3345
# 4 -1.1622 5.8589 -3.0728 28.7614 -8.0561 -1.5274
# 5 27.4492 4.9746 27.9722 -8.0561 36.5770 -5.3718
# 6 -35.7318 -28.8591 -11.3345 -1.5274 -5.3718 39.6107
#
#
#
# Elastic Compliance Matrix: (Units=1/GPa)
#
#
# Indices 1 2 3 4 5 6 
#
# 1 0.018089 -0.000607 -0.011634 -0.000568 -0.002940 0.012126
# 2 -0.000607 0.021818 0.002202 -0.004215 -0.002859 0.015428
# 3 -0.011634 0.002202 0.023083 -0.001476 -0.010092 -0.003710
# 4 -0.000568 -0.004215 -0.001476 0.038300 0.010400 -0.001118
# 5 -0.002940 -0.002859 -0.010092 0.010400 0.039672 -0.001841
# 6 0.012126 0.015428 -0.003710 -0.001118 -0.001841 0.046070
#
#
# Mechanical properties :
#
#
# Convention : Reuss Voigt Hill
#
# Bulk Modulus (GPa) = 23.30264 53.41156 38.35710
# Shear Modulus (GPa) = 22.58208 33.43078 28.00643
#
# Velocity S-wave (km/s) = 3.02691 3.68290 3.37090
# Velocity P-wave (km/s) = 4.65519 6.30520 5.54195
#
# Compressibility (1/GPa) = 0.04291359
#
# Stress axis : x y z
#
# Youngs Moduli (GPa) = 55.28202 45.83347 43.32169
#
# Poissons Ratio (x) = 0.02782 0.50400
# Poissons Ratio (y) = 0.03356 -0.09542
# Poissons Ratio (z) = 0.64314 -0.10095
#
# Static dielectric constant tensor:
#      x y z
#    x 2.009840 0.082540 0.028130 
#    y 0.082540 2.053820 -0.019130 
#    z 0.028130 -0.019130 1.951130 
# 
# From -- ./inp_files/366941.got.cif
#   From: 2010.05.17/outbox.cif.g08.bks.cpg/sg2_184_cif.got.tgz:366941.got - 2010.06.03 11:33:40.
