data_PCOD9095488
_publ_section_title
;
Structure prediction by ZEFSAII (Michael W. Deem and Ramdas Pophale) SiO2 
 PCOD9095488
Probable space group: P -1
;
_chemical_formula_sum "Si O2"
_cell_formula_units_Z 16
_cell_length_a 11.744385
_cell_length_b 12.107411
_cell_length_c 12.896583
_cell_angle_alpha 86.758693
_cell_angle_beta 146.844966
_cell_angle_gamma 115.873717
_cell_volume 702.589395
_symmetry_space_group_name_H-M "P -1"
_symmetry_group_IT_number 2
_symmetry_cell_setting 'triclinic'
loop_
_space_group_symop_operation_xyz
x,y,z
-x,-y,-z
loop_
_atom_site_type_symbol
_atom_site_label
_atom_site_fract_x
_atom_site_fract_y
_atom_site_fract_z
Si Si1 0.757750 0.324634 0.232472
Si Si2 0.856093 0.306127 0.526448
Si Si3 0.367493 0.372195 0.996198
Si Si4 0.513074 0.657358 0.501869
Si Si5 0.160245 0.664209 0.926069
Si Si6 0.388800 0.532102 0.188421
Si Si7 0.080924 0.769051 0.048499
Si Si8 0.681138 0.921498 0.724703
O O1 0.839196 0.276962 0.392709
O O2 0.767653 0.263529 0.136120
O O3 0.983576 0.512521 0.367185
O O4 0.472158 0.287911 0.056039
O O5 0.543915 0.197132 0.349572
O O6 0.027252 0.278049 0.725295
O O7 0.500000 0.500000 0.000000
O O8 0.475738 0.461676 0.185093
O O9 0.545031 0.624362 0.410495
O O10 0.573449 0.811142 0.549611
O O11 0.774252 0.705060 0.769772
O O12 0.187383 0.499396 0.306278
O O13 0.245665 0.780988 0.075288
O O14 0.358239 0.628874 0.090170
O O15 0.052537 0.378042 0.975629
O O16 0.266130 0.928027 0.243919
O O17 0.000000 0.000000 0.000000
#
# Coordination Sequence:
#
# PCOD9095488 Si02
#       8
#     2   2   2   2   2   2   2   2
#     4  10  21  35  66  89 121 158 200 259 298 350
#     4  10  20  37  61  90 119 157 202 252 297 356
#     4  10  20  36  57  96 120 148 203 256 302 345
#     4  10  20  35  58  82 117 157 198 246 297 353
#     4  11  19  38  55  90 119 147 204 252 299 348
#     4  11  20  35  57  86 121 148 197 260 289 353
#     4  10  23  34  59  85 118 164 194 244 303 361
#     4  10  21  39  58  88 125 161 202 240 301 379
#
# _framework density 22.772905000000002
#
# number of rings (size 3 to 8) (size 9 to 14) (size 15 to 20)
#    0.000    1.750    3.750    3.000    3.500    4.000 
#    0.000    6.250    0.000    0.750    0.000    0.000 
#    0.000    0.000    0.000    0.000    0.000    0.000 
#
# Total GULP energy -89255.333137 kJ/mol
# GULP energy per Si atom -5578.458321 kJ/mol
# Density = 2.272107 g / cm^3
# Si number density = 22.772905 Si / 1000 Ang^3
#
#
#
# Elastic Constant Matrix: (Units=GPa)
#
#
# Indices 1 2 3 4 5 6 
#
# 1 141.2539 12.8497 42.6438 1.8097 -28.2316 2.7240
# 2 12.8497 41.4303 23.7147 2.9544 -14.4021 -11.6597
# 3 42.6438 23.7147 93.5236 -4.1171 -5.6177 -0.4442
# 4 1.8097 2.9544 -4.1171 26.0488 -1.8926 -7.7329
# 5 -28.2316 -14.4021 -5.6177 -1.8926 52.3692 0.5161
# 6 2.7240 -11.6597 -0.4442 -7.7329 0.5161 37.4193
#
#
#
# Elastic Compliance Matrix: (Units=1/GPa)
#
#
# Indices 1 2 3 4 5 6 
#
# 1 0.009260 0.001147 -0.004285 -0.001311 0.004807 -0.000705
# 2 0.001147 0.035057 -0.008892 -0.001756 0.009141 0.010246
# 3 -0.004285 -0.008892 0.014841 0.002947 -0.003041 -0.001632
# 4 -0.001311 -0.001756 0.002947 0.041612 0.000550 0.008175
# 5 0.004807 0.009141 -0.003041 0.000550 0.023872 0.002247
# 6 -0.000705 0.010246 -0.001632 0.008175 0.002247 0.031607
#
#
# Mechanical properties :
#
#
# Convention : Reuss Voigt Hill
#
# Bulk Modulus (GPa) = 28.49213 48.29157 38.39185
# Shear Modulus (GPa) = 26.04038 36.30076 31.17057
#
# Velocity S-wave (km/s) = 3.38521 3.99687 3.70369
# Velocity P-wave (km/s) = 5.27429 6.52316 5.93168
#
# Compressibility (1/GPa) = 0.03509741
#
# Stress axis : x y z
#
# Youngs Moduli (GPa) = 107.99073 28.52465 67.38273
#
# Poissons Ratio (x) = -0.03273 0.28877
# Poissons Ratio (y) = -0.12390 0.59918
# Poissons Ratio (z) = 0.46279 0.25365
#
# Static dielectric constant tensor:
#      x y z
#    x 1.817980 -0.098890 0.116830 
#    y -0.098890 1.870260 -0.029570 
#    z 0.116830 -0.029570 1.884490 
# 
# From -- ./inp_files/434074.got.cif
#   From: 2010.05.17/outbox.cif.g08.bks.cpg/sg2_218_cif.got.tgz:434074.got - 2010.06.03 11:33:40.
