data_PCOD9095434
_publ_section_title
;
Structure prediction by ZEFSAII (Michael W. Deem and Ramdas Pophale) SiO2 
 PCOD9095434
Probable space group: P -1
;
_chemical_formula_sum "Si O2"
_cell_formula_units_Z 15
_cell_length_a 11.608192
_cell_length_b 7.556946
_cell_length_c 8.747988
_cell_angle_alpha 77.433467
_cell_angle_beta 68.476588
_cell_angle_gamma 115.030953
_cell_volume 580.128350
_symmetry_space_group_name_H-M "P -1"
_symmetry_group_IT_number 2
_symmetry_cell_setting 'triclinic'
loop_
_space_group_symop_operation_xyz
x,y,z
-x,-y,-z
loop_
_atom_site_type_symbol
_atom_site_label
_atom_site_fract_x
_atom_site_fract_y
_atom_site_fract_z
Si Si1 0.165332 0.499781 0.684165
Si Si2 0.336963 0.546211 0.312860
Si Si3 0.352302 0.372432 0.811920
Si Si4 0.929248 0.043175 0.878631
Si Si5 0.652058 0.060041 0.330305
Si Si6 0.000000 0.000000 0.500000
Si Si7 0.261999 0.083754 0.420318
Si Si8 0.443539 0.780999 0.904750
O O1 0.235190 0.577189 0.468753
O O2 0.265821 0.412639 0.716009
O O3 0.211546 0.704630 0.726309
O O4 0.996454 0.299350 0.806517
O O5 0.487604 0.585758 0.307254
O O6 0.242568 0.286697 0.359564
O O7 0.394519 0.709783 0.113223
O O8 0.381264 0.552544 0.889320
O O9 0.243839 0.135313 0.980177
O O10 0.980929 0.003189 0.700108
O O11 0.000000 0.000000 0.000000
O O12 0.618951 0.089411 0.168770
O O13 0.500000 0.000000 0.500000
O O14 0.687916 0.904295 0.430961
O O15 0.902172 0.109146 0.502938
O O16 0.383500 0.099033 0.246545
#
# Coordination Sequence:
#
# PCOD9095434 Si02
#       8
#     2   2   2   2   2   1   2   2
#     4  10  20  35  57  88 122 155 200 256 304 372
#     4  11  18  33  61  96 111 146 215 260 290 358
#     4   9  18  31  54  86 121 155 195 259 303 348
#     4  10  21  36  56  91 126 157 203 260 306 363
#     4   9  20  40  59  83 126 166 190 246 325 368
#     4  12  20  36  64  88 120 164 208 248 308 362
#     4  10  20  35  62  90 116 163 206 247 305 375
#     4   9  18  34  59  87 121 155 198 252 307 361
#
# _framework density 25.856345999999998
#
# number of rings (size 3 to 8) (size 9 to 14) (size 15 to 20)
#    0.000    2.133    1.333    4.400    0.000    0.000 
#    0.000    3.333    2.933   11.200    6.933    0.000 
#    0.000    0.000    0.000    0.000    0.000    0.000 
#
# Total GULP energy -83651.339769 kJ/mol
# GULP energy per Si atom -5576.755985 kJ/mol
# Density = 2.579750 g / cm^3
# Si number density = 25.856346 Si / 1000 Ang^3
#
#
#
# Elastic Constant Matrix: (Units=GPa)
#
#
# Indices 1 2 3 4 5 6 
#
# 1 90.1130 5.6880 40.7835 4.7059 25.4875 -8.4986
# 2 5.6880 90.3561 19.6099 -13.1356 -10.6051 2.8385
# 3 40.7835 19.6099 120.5957 -16.3573 17.8345 -18.9058
# 4 4.7059 -13.1356 -16.3573 33.6746 6.5030 -3.4267
# 5 25.4875 -10.6051 17.8345 6.5030 47.1730 -7.6501
# 6 -8.4986 2.8385 -18.9058 -3.4267 -7.6501 17.7551
#
#
#
# Elastic Compliance Matrix: (Units=1/GPa)
#
#
# Indices 1 2 3 4 5 6 
#
# 1 0.015181 -0.001203 -0.004652 -0.003720 -0.006355 -0.000951
# 2 -0.001203 0.012547 -0.002165 0.003065 0.003408 -0.002827
# 3 -0.004652 -0.002165 0.013764 0.008273 -0.002136 0.013452
# 4 -0.003720 0.003065 0.008273 0.037367 -0.003602 0.012198
# 5 -0.006355 0.003408 -0.002136 -0.003602 0.027565 0.005321
# 6 -0.000951 -0.002827 0.013452 0.012198 0.005321 0.075289
#
#
# Mechanical properties :
#
#
# Convention : Reuss Voigt Hill
#
# Bulk Modulus (GPa) = 39.28888 48.13642 43.71265
# Shear Modulus (GPa) = 24.24389 35.38610 29.81500
#
# Velocity S-wave (km/s) = 3.06541 3.70343 3.39942
# Velocity P-wave (km/s) = 5.26849 6.07819 5.68777
#
# Compressibility (1/GPa) = 0.02545250
#
# Stress axis : x y z
#
# Youngs Moduli (GPa) = 65.87368 79.69834 72.65132
#
# Poissons Ratio (x) = 0.09586 0.33798
# Poissons Ratio (y) = 0.07923 0.15729
# Poissons Ratio (z) = 0.30645 0.17255
#
# Static dielectric constant tensor:
#      x y z
#    x 1.851040 -0.130750 0.108120 
#    y -0.130750 1.963820 0.035280 
#    z 0.108120 0.035280 2.019100 
# 
# From -- ./inp_files/237599.got.cif
#   From: 2010.05.17/outbox.cif.g08.bks.cpg/sg2_119_cif.got.tgz:237599.got - 2010.06.03 11:33:40.
