data_PCOD9095642
_publ_section_title
;
Structure prediction by ZEFSAII (Michael W. Deem and Ramdas Pophale) SiO2 
 PCOD9095642
Probable space group: P -1
;
_chemical_formula_sum "Si O2"
_cell_formula_units_Z 12
_cell_length_a 6.785362
_cell_length_b 12.294796
_cell_length_c 8.787467
_cell_angle_alpha 126.739328
_cell_angle_beta 50.179274
_cell_angle_gamma 119.589149
_cell_volume 443.850714
_symmetry_space_group_name_H-M "P -1"
_symmetry_group_IT_number 2
_symmetry_cell_setting 'triclinic'
loop_
_space_group_symop_operation_xyz
x,y,z
-x,-y,-z
loop_
_atom_site_type_symbol
_atom_site_label
_atom_site_fract_x
_atom_site_fract_y
_atom_site_fract_z
Si Si1 0.477504 0.895101 0.283574
Si Si2 0.898753 0.829923 0.798419
Si Si3 0.282649 0.482704 0.413254
Si Si4 0.211671 0.733734 0.821778
Si Si5 0.719719 0.914152 0.670031
Si Si6 0.335205 0.301506 0.762932
O O1 0.470197 0.750272 0.252429
O O2 0.500000 0.000000 0.500000
O O3 0.282056 0.944030 0.299670
O O4 0.739204 0.902440 0.059781
O O5 0.738801 0.679913 0.702465
O O6 0.933124 0.914592 0.696239
O O7 0.137122 0.788392 0.738002
O O8 0.298019 0.585293 0.635844
O O9 0.517752 0.551074 0.244719
O O10 0.000000 0.500000 0.500000
O O11 0.449267 0.855630 0.845671
O O12 0.946422 0.708501 0.027958
O O13 0.712038 0.798975 0.445047
#
# Coordination Sequence:
#
# PCOD9095642 Si02
#       6
#     2   2   2   2   2   2
#     4   9  19  36  59  82 112 150 186 231 280 329
#     4  10  20  35  59  84 111 149 188 231 277 332
#     4   9  19  36  58  84 114 147 186 229 281 332
#     4   9  20  37  58  83 115 151 183 228 281 330
#     4  10  20  38  58  83 116 149 186 228 280 330
#     4   9  19  36  58  84 115 148 185 231 277 331
#
# _framework density 27.03612
#
# number of rings (size 3 to 8) (size 9 to 14) (size 15 to 20)
#    0.000    2.667    0.000    0.500    0.000   11.333 
#    0.000   16.667    0.000   23.000    0.000    0.000 
#    0.000    0.000    0.000    0.000    0.000    0.000 
#
# Total GULP energy -67147.099348 kJ/mol
# GULP energy per Si atom -5595.591612 kJ/mol
# Density = 2.697458 g / cm^3
# Si number density = 27.036120 Si / 1000 Ang^3
#
#
#
# Elastic Constant Matrix: (Units=GPa)
#
#
# Indices 1 2 3 4 5 6 
#
# 1 131.3880 51.7945 34.9546 -7.1295 12.7478 -8.3841
# 2 51.7945 113.3861 66.0047 -8.4805 -20.4776 -13.7172
# 3 34.9546 66.0047 161.3137 -19.6635 -0.4935 -4.2581
# 4 -7.1295 -8.4805 -19.6635 57.3411 6.1321 -3.5272
# 5 12.7478 -20.4776 -0.4935 6.1321 35.4465 -11.4057
# 6 -8.3841 -13.7172 -4.2581 -3.5272 -11.4057 60.2013
#
#
#
# Elastic Compliance Matrix: (Units=1/GPa)
#
#
# Indices 1 2 3 4 5 6 
#
# 1 0.011079 -0.007103 0.000604 0.001380 -0.008842 -0.001627
# 2 -0.007103 0.019130 -0.006273 -0.001522 0.015648 0.005802
# 3 0.000604 -0.006273 0.008900 0.002606 -0.004631 -0.001440
# 4 0.001380 -0.001522 0.002606 0.018778 -0.004498 0.000278
# 5 -0.008842 0.015648 -0.004631 -0.004498 0.044414 0.010158
# 6 -0.001627 0.005802 -0.001440 0.000278 0.010158 0.019545
#
#
# Mechanical properties :
#
#
# Convention : Reuss Voigt Hill
#
# Bulk Modulus (GPa) = 73.71559 79.06617 76.39088
# Shear Modulus (GPa) = 32.91387 47.48669 40.20028
#
# Velocity S-wave (km/s) = 3.49292 4.19551 3.86023
# Velocity P-wave (km/s) = 6.60243 7.26484 6.94154
#
# Compressibility (1/GPa) = 0.01356565
#
# Stress axis : x y z
#
# Youngs Moduli (GPa) = 90.25759 52.27483 112.35528
#
# Poissons Ratio (x) = 0.37131 -0.06783
# Poissons Ratio (y) = 0.64110 0.70476
# Poissons Ratio (z) = -0.05449 0.32790
#
# Static dielectric constant tensor:
#      x y z
#    x 2.147900 0.015870 -0.007030 
#    y 0.015870 2.063020 0.021390 
#    z -0.007030 0.021390 2.124290 
# 
# From -- ./inp_files/165878.got.cif
#   From: 2010.05.17/outbox.cif.g08.bks.cpg/sg2_83_cif.got.tgz:165878.got - 2010.06.03 11:33:40.
