data_PCOD9095956
_publ_section_title
;
Structure prediction by ZEFSAII (Michael W. Deem and Ramdas Pophale) SiO2 
 PCOD9095956
Probable space group: P -1
;
_chemical_formula_sum "Si O2"
_cell_formula_units_Z 16
_cell_length_a 14.377901
_cell_length_b 8.369231
_cell_length_c 16.267910
_cell_angle_alpha 32.450533
_cell_angle_beta 43.920263
_cell_angle_gamma 37.915731
_cell_volume 636.548185
_symmetry_space_group_name_H-M "P -1"
_symmetry_group_IT_number 2
_symmetry_cell_setting 'triclinic'
loop_
_space_group_symop_operation_xyz
x,y,z
-x,-y,-z
loop_
_atom_site_type_symbol
_atom_site_label
_atom_site_fract_x
_atom_site_fract_y
_atom_site_fract_z
Si Si1 0.107278 0.507544 0.014094
Si Si2 0.863757 0.288544 0.260662
Si Si3 0.431226 0.739897 0.548618
Si Si4 0.334392 0.230326 0.242163
Si Si5 0.965925 0.762725 0.566880
Si Si6 0.411899 0.312430 0.983907
Si Si7 0.704685 0.266841 0.819332
Si Si8 0.282736 0.349084 0.506870
O O1 0.956259 0.485770 0.148903
O O2 0.214931 0.138290 0.061038
O O3 0.077940 0.770602 0.844976
O O4 0.231755 0.517200 0.991581
O O5 0.678075 0.435088 0.312261
O O6 0.915899 0.950447 0.428585
O O7 0.610292 0.576149 0.531134
O O8 0.410360 0.939019 0.389743
O O9 0.359937 0.001199 0.557364
O O10 0.181221 0.240429 0.303977
O O11 0.275270 0.586178 0.172573
O O12 0.434118 0.192253 0.115988
O O13 0.123308 0.411775 0.618209
O O14 0.000000 0.000000 0.500000
O O15 0.518708 0.483264 0.831814
O O16 0.500000 0.000000 0.000000
O O17 0.764813 0.370919 0.656286
#
# Coordination Sequence:
#
# PCOD9095956 Si02
#       8
#     2   2   2   2   2   2   2   2
#     4  10  20  35  61  87 121 167 205 242 303 368
#     4  10  20  37  59  88 122 159 208 247 296 364
#     4   9  21  38  63  95 125 156 206 263 302 371
#     4  10  22  38  63  96 118 163 209 256 312 360
#     4  11  23  39  63  90 130 161 203 256 306 378
#     4  10  21  38  61  86 122 163 205 254 311 367
#     4  10  20  36  65  89 121 163 206 254 300 374
#     4  10  20  39  63  94 124 164 199 251 326 354
#
# _framework density 25.135569
#
# number of rings (size 3 to 8) (size 9 to 14) (size 15 to 20)
#    0.000    2.000    1.250    1.875    3.500    1.500 
#    4.500    1.250    0.000    2.250    0.000    0.000 
#    0.000    0.000    0.000    0.000    0.000    0.000 
#
# Total GULP energy -89257.732115 kJ/mol
# GULP energy per Si atom -5578.608257 kJ/mol
# Density = 2.507836 g / cm^3
# Si number density = 25.135569 Si / 1000 Ang^3
#
#
#
# Elastic Constant Matrix: (Units=GPa)
#
#
# Indices 1 2 3 4 5 6 
#
# 1 92.5215 15.2015 -16.4874 -4.0281 -4.4270 -1.2988
# 2 15.2015 53.1739 -0.4774 5.9618 7.9878 -3.7640
# 3 -16.4874 -0.4774 61.6313 7.1401 16.3308 4.0126
# 4 -4.0281 5.9618 7.1401 9.0363 7.8335 0.6108
# 5 -4.4270 7.9878 16.3308 7.8335 40.8955 1.3356
# 6 -1.2988 -3.7640 4.0126 0.6108 1.3356 24.7398
#
#
#
# Elastic Compliance Matrix: (Units=1/GPa)
#
#
# Indices 1 2 3 4 5 6 
#
# 1 0.012219 -0.004206 0.002561 0.006293 -0.000066 -0.000566
# 2 -0.004206 0.022406 0.001297 -0.015807 -0.002436 0.003499
# 3 0.002561 0.001297 0.019798 -0.010114 -0.005869 -0.002313
# 4 0.006293 -0.015807 -0.010114 0.150177 -0.020860 -0.003016
# 5 -0.000066 -0.002436 -0.005869 -0.020860 0.031280 -0.000596
# 6 -0.000566 0.003499 -0.002313 -0.003016 -0.000596 0.041405
#
#
# Mechanical properties :
#
#
# Convention : Reuss Voigt Hill
#
# Bulk Modulus (GPa) = 18.61198 22.64448 20.62823
# Shear Modulus (GPa) = 16.89822 28.87367 22.88594
#
# Velocity S-wave (km/s) = 2.59566 3.39295 3.02072
# Velocity P-wave (km/s) = 4.05018 4.93741 4.51564
#
# Compressibility (1/GPa) = 0.05372883
#
# Stress axis : x y z
#
# Youngs Moduli (GPa) = 81.84217 44.63043 50.50953
#
# Poissons Ratio (x) = 0.18771 -0.12937
# Poissons Ratio (y) = 0.34422 -0.06553
# Poissons Ratio (z) = -0.20962 -0.05791
#
# Static dielectric constant tensor:
#      x y z
#    x 1.902050 0.094160 -0.067480 
#    y 0.094160 1.942510 -0.000810 
#    z -0.067480 -0.000810 1.950300 
# 
# From -- ./inp_files/529286.got.cif
#   From: 2010.05.17/outbox.cif.g08.bks.cpg/sg2_265_cif.got.tgz:529286.got - 2010.06.03 11:33:40.
