data_PCOD9095709
_publ_section_title
;
Structure prediction by ZEFSAII (Michael W. Deem and Ramdas Pophale) SiO2 
 PCOD9095709
Probable space group: P -1
;
_chemical_formula_sum "Si O2"
_cell_formula_units_Z 16
_cell_length_a 10.743553
_cell_length_b 13.533032
_cell_length_c 8.876177
_cell_angle_alpha 54.150747
_cell_angle_beta 64.991382
_cell_angle_gamma 99.977994
_cell_volume 776.966603
_symmetry_space_group_name_H-M "P -1"
_symmetry_group_IT_number 2
_symmetry_cell_setting 'triclinic'
loop_
_space_group_symop_operation_xyz
x,y,z
-x,-y,-z
loop_
_atom_site_type_symbol
_atom_site_label
_atom_site_fract_x
_atom_site_fract_y
_atom_site_fract_z
Si Si1 0.066483 0.940992 0.889173
Si Si2 0.227891 0.539891 0.393680
Si Si3 0.174693 0.122521 0.380545
Si Si4 0.812695 0.391505 0.125272
Si Si5 0.141004 0.717463 0.088720
Si Si6 0.698688 0.567605 0.833174
Si Si7 0.417285 0.611667 0.531570
Si Si8 0.284995 0.274315 0.893910
O O1 0.904936 0.813416 0.989184
O O2 0.186947 0.053636 0.592737
O O3 0.144526 0.860827 0.997166
O O4 0.000000 0.000000 0.000000
O O5 0.241390 0.675857 0.180710
O O6 0.253465 0.443240 0.350828
O O7 0.362731 0.598478 0.399983
O O8 0.047647 0.430809 0.661499
O O9 0.191159 0.267372 0.305717
O O10 0.294666 0.190467 0.110043
O O11 0.000000 0.000000 0.500000
O O12 0.674661 0.330595 0.380280
O O13 0.809631 0.277071 0.115410
O O14 0.755517 0.477205 0.976471
O O15 0.000000 0.500000 0.000000
O O16 0.500000 0.500000 0.000000
O O17 0.351806 0.442630 0.758408
O O18 0.615135 0.714369 0.318187
#
# Coordination Sequence:
#
# PCOD9095709 Si02
#       8
#     2   2   2   2   2   2   2   2
#     4  11  22  40  64  89 124 164 212 254 309 391
#     4  10  20  35  59  88 127 154 199 271 312 367
#     4  10  22  38  60  92 128 169 207 263 314 390
#     4  11  21  36  61  93 128 163 212 269 320 378
#     4  10  21  37  55  90 120 159 211 252 317 369
#     4  11  23  38  62  97 128 161 216 272 331 365
#     4  11  20  36  65  89 125 155 203 274 313 371
#     4  10  21  37  58  93 121 156 210 255 317 361
#
# _framework density 20.592904999999998
#
# number of rings (size 3 to 8) (size 9 to 14) (size 15 to 20)
#    0.000    1.500    3.750    1.500    3.500    0.000 
#    0.000    0.000    0.000   13.500    0.000    0.000 
#    0.000    0.000    0.000    0.000    0.000    0.000 
#
# Total GULP energy -89143.168517 kJ/mol
# GULP energy per Si atom -5571.448032 kJ/mol
# Density = 2.054603 g / cm^3
# Si number density = 20.592905 Si / 1000 Ang^3
#
#
#
# Elastic Constant Matrix: (Units=GPa)
#
#
# Indices 1 2 3 4 5 6 
#
# 1 65.9349 13.1756 15.9886 -1.1988 9.7641 -7.9089
# 2 13.1756 112.5903 31.3015 13.4720 3.9753 -15.2428
# 3 15.9886 31.3015 96.5608 15.8343 5.2666 -7.2582
# 4 -1.1988 13.4720 15.8343 36.7955 -7.6696 -0.6399
# 5 9.7641 3.9753 5.2666 -7.6696 29.0368 6.8760
# 6 -7.9089 -15.2428 -7.2582 -0.6399 6.8760 27.2086
#
#
#
# Elastic Compliance Matrix: (Units=1/GPa)
#
#
# Indices 1 2 3 4 5 6 
#
# 1 0.017471 -0.000478 -0.001960 0.000273 -0.006806 0.006015
# 2 -0.000478 0.010947 -0.002222 -0.003661 -0.003361 0.006164
# 3 -0.001960 -0.002222 0.012621 -0.005323 -0.003265 0.002252
# 4 0.000273 -0.003661 -0.005323 0.033102 0.011420 -0.005499
# 5 -0.006806 -0.003361 -0.003265 0.011420 0.044518 -0.015714
# 6 0.006015 0.006164 0.002252 -0.005499 -0.015714 0.046397
#
#
# Mechanical properties :
#
#
# Convention : Reuss Voigt Hill
#
# Bulk Modulus (GPa) = 31.52603 44.00194 37.76399
# Shear Modulus (GPa) = 27.03439 32.91622 29.97531
#
# Velocity S-wave (km/s) = 3.62719 4.00237 3.81939
# Velocity P-wave (km/s) = 5.73449 6.54007 6.15049
#
# Compressibility (1/GPa) = 0.03171982
#
# Stress axis : x y z
#
# Youngs Moduli (GPa) = 57.23618 91.35119 79.23086
#
# Poissons Ratio (x) = 0.04366 0.15525
# Poissons Ratio (y) = 0.02735 0.17609
# Poissons Ratio (z) = 0.11216 0.20302
#
# Static dielectric constant tensor:
#      x y z
#    x 1.798570 -0.036960 -0.031460 
#    y -0.036960 1.666980 -0.026630 
#    z -0.031460 -0.026630 1.750990 
# 
# From -- ./inp_files/261538.got.cif
#   From: 2010.05.17/outbox.cif.g08.bks.cpg/sg2_131_cif.got.tgz:261538.got - 2010.06.03 11:33:40.
