data_PCOD9095234
_publ_section_title
;
Structure prediction by ZEFSAII (Michael W. Deem and Ramdas Pophale) SiO2 
 PCOD9095234
Probable space group: P -1
;
_chemical_formula_sum "Si O2"
_cell_formula_units_Z 16
_cell_length_a 7.568628
_cell_length_b 7.685348
_cell_length_c 23.289929
_cell_angle_alpha 67.578472
_cell_angle_beta 124.508219
_cell_angle_gamma 141.718769
_cell_volume 686.266608
_symmetry_space_group_name_H-M "P -1"
_symmetry_group_IT_number 2
_symmetry_cell_setting 'triclinic'
loop_
_space_group_symop_operation_xyz
x,y,z
-x,-y,-z
loop_
_atom_site_type_symbol
_atom_site_label
_atom_site_fract_x
_atom_site_fract_y
_atom_site_fract_z
Si Si1 0.538713 0.047103 0.718546
Si Si2 0.769789 0.021589 0.059185
Si Si3 0.771486 0.788242 0.296234
Si Si4 0.381699 0.404283 0.055464
Si Si5 0.199525 0.593970 0.799765
Si Si6 0.849058 0.906005 0.568571
Si Si7 0.516746 0.291913 0.581405
Si Si8 0.908337 0.766840 0.788889
O O1 0.387062 0.131623 0.711835
O O2 0.571034 0.138928 0.647481
O O3 0.897564 0.257819 0.781890
O O4 0.326186 0.738628 0.742288
O O5 0.002357 0.162425 0.028819
O O6 0.014315 0.215066 0.132764
O O7 0.565479 0.704131 0.077887
O O8 0.500000 0.000000 0.000000
O O9 0.462922 0.457373 0.270330
O O10 0.067098 0.941723 0.374700
O O11 0.907158 0.936760 0.241442
O O12 0.520207 0.310276 0.122980
O O13 0.500000 0.500000 0.000000
O O14 0.059316 0.685483 0.794262
O O15 0.771449 0.629370 0.595437
O O16 0.558075 0.786450 0.489728
O O17 0.180430 0.150441 0.563441
#
# Coordination Sequence:
#
# PCOD9095234 Si02
#       8
#     2   2   2   2   2   2   2   2
#     4   9  16  28  47  73 107 148 188 229 280 336
#     4  12  26  44  65  90 119 151 191 239 296 356
#     4   9  16  28  47  73 107 148 188 229 280 336
#     4  12  26  44  65  90 119 151 191 239 296 356
#     4  10  20  35  56  81 112 148 189 233 284 344
#     4   9  15  23  38  66 107 151 189 228 280 337
#     4   9  15  23  38  66 107 151 189 228 280 337
#     4  10  20  35  56  81 112 148 189 233 284 344
#
# _framework density 23.314554999999999
#
# number of rings (size 3 to 8) (size 9 to 14) (size 15 to 20)
#    0.000    2.000    0.000    6.750    0.000    3.000 
#    0.000    0.000    0.000    0.000    0.000    0.000 
#    0.000   20.000    0.000    0.000    0.000    0.000 
#
# Total GULP energy -89298.814484 kJ/mol
# GULP energy per Si atom -5581.175905 kJ/mol
# Density = 2.326149 g / cm^3
# Si number density = 23.314555 Si / 1000 Ang^3
#
#
#
# Elastic Constant Matrix: (Units=GPa)
#
#
# Indices 1 2 3 4 5 6 
#
# 1 56.0404 13.7762 13.4930 -4.1885 -10.9653 7.2558
# 2 13.7762 107.8894 6.4437 -4.4310 -1.1798 31.1894
# 3 13.4930 6.4437 133.4531 -11.1617 -12.4956 11.4000
# 4 -4.1885 -4.4310 -11.1617 38.1389 2.1711 -1.1717
# 5 -10.9653 -1.1798 -12.4956 2.1711 18.8897 -0.2887
# 6 7.2558 31.1894 11.4000 -1.1717 -0.2887 23.9452
#
#
#
# Elastic Compliance Matrix: (Units=1/GPa)
#
#
# Indices 1 2 3 4 5 6 
#
# 1 0.021218 -0.001236 -0.000514 0.001236 0.011691 -0.004374
# 2 -0.001236 0.015170 0.001263 0.001350 0.000606 -0.019913
# 3 -0.000514 0.001263 0.008609 0.002150 0.005145 -0.005421
# 4 0.001236 0.001350 0.002150 0.027138 -0.000923 -0.001840
# 5 0.011691 0.000606 0.005145 -0.000923 0.063180 -0.006065
# 6 -0.004374 -0.019913 -0.005421 -0.001840 -0.006065 0.071442
#
#
# Mechanical properties :
#
#
# Convention : Reuss Voigt Hill
#
# Bulk Modulus (GPa) = 22.71489 40.53429 31.62459
# Shear Modulus (GPa) = 22.48164 33.77277 28.12720
#
# Velocity S-wave (km/s) = 3.10865 3.81014 3.47713
# Velocity P-wave (km/s) = 4.75908 6.06463 5.45108
#
# Compressibility (1/GPa) = 0.04402398
#
# Stress axis : x y z
#
# Youngs Moduli (GPa) = 47.12986 65.92119 116.15835
#
# Poissons Ratio (x) = 0.08145 0.05970
# Poissons Ratio (y) = 0.05823 -0.14673
# Poissons Ratio (z) = 0.02422 -0.08327
#
# Static dielectric constant tensor:
#      x y z
#    x 1.946520 -0.004680 -0.024360 
#    y -0.004680 1.848670 0.018630 
#    z -0.024360 0.018630 1.965340 
# 
# From -- ./inp_files/606400.got.cif
#   From: 2010.05.17/outbox.cif.g08.bks.cpg/sg2_304_cif.got.tgz:606400.got - 2010.06.03 11:33:40.
