data_PCOD9095996
_publ_section_title
;
Structure prediction by ZEFSAII (Michael W. Deem and Ramdas Pophale) SiO2 
 PCOD9095996
Probable space group: P -1
;
_chemical_formula_sum "Si O2"
_cell_formula_units_Z 16
_cell_length_a 13.502956
_cell_length_b 15.391469
_cell_length_c 10.221780
_cell_angle_alpha 105.867306
_cell_angle_beta 148.610324
_cell_angle_gamma 53.261796
_cell_volume 729.623834
_symmetry_space_group_name_H-M "P -1"
_symmetry_group_IT_number 2
_symmetry_cell_setting 'triclinic'
loop_
_space_group_symop_operation_xyz
x,y,z
-x,-y,-z
loop_
_atom_site_type_symbol
_atom_site_label
_atom_site_fract_x
_atom_site_fract_y
_atom_site_fract_z
Si Si1 0.258313 0.845764 0.203063
Si Si2 0.187237 0.835616 0.823254
Si Si3 0.319128 0.152200 0.401468
Si Si4 0.528313 0.092599 0.899571
Si Si5 0.335725 0.635425 0.291255
Si Si6 0.822603 0.826563 0.231370
Si Si7 0.656669 0.445799 0.350536
Si Si8 0.284734 0.452008 0.787804
O O1 0.523079 0.817101 0.469034
O O2 0.324521 0.747659 0.346986
O O3 0.164291 0.835563 0.952961
O O4 0.000000 0.000000 0.000000
O O5 0.981424 0.842544 0.513803
O O6 0.210013 0.932053 0.843313
O O7 0.491264 0.695288 0.072259
O O8 0.345775 0.155807 0.589552
O O9 0.500000 0.000000 0.500000
O O10 0.993688 0.268713 0.048821
O O11 0.358067 0.172834 0.873701
O O12 0.627970 0.955882 0.977687
O O13 0.500000 0.500000 0.500000
O O14 0.517174 0.566691 0.334635
O O15 0.050800 0.700281 0.345339
O O16 0.732227 0.463004 0.303207
O O17 0.420912 0.451198 0.067718
O O18 0.000000 0.500000 0.500000
#
# Coordination Sequence:
#
# PCOD9095996 Si02
#       8
#     2   2   2   2   2   2   2   2
#     4  11  23  43  68  98 127 180 230 272 329 403
#     4  10  20  36  60  90 124 157 210 259 314 384
#     4  11  25  43  70  92 127 181 229 272 330 403
#     4  10  22  37  64  91 126 163 218 254 327 391
#     4  12  27  45  67  98 137 175 225 287 334 390
#     4  10  21  38  59  94 131 164 198 272 323 392
#     4  10  23  37  62  91 128 163 209 261 335 384
#     4  10  20  35  61  91 121 161 204 255 320 392
#
# _framework density 21.929106000000001
#
# number of rings (size 3 to 8) (size 9 to 14) (size 15 to 20)
#    0.000    1.500    2.500    1.875    8.750    0.500 
#    0.000    0.000    0.000    0.000    0.000    0.000 
#    0.000    0.000    0.000    0.000    0.000    0.000 
#
# Total GULP energy -89230.428720 kJ/mol
# GULP energy per Si atom -5576.901795 kJ/mol
# Density = 2.187919 g / cm^3
# Si number density = 21.929106 Si / 1000 Ang^3
#
#
#
# Elastic Constant Matrix: (Units=GPa)
#
#
# Indices 1 2 3 4 5 6 
#
# 1 55.7784 11.9823 30.8058 -7.0056 3.3694 32.2729
# 2 11.9823 67.4059 18.7599 -24.0309 -3.8318 14.8026
# 3 30.8058 18.7599 97.9406 -26.8331 17.4051 19.1624
# 4 -7.0056 -24.0309 -26.8331 39.3837 2.4261 3.9660
# 5 3.3694 -3.8318 17.4051 2.4261 28.9713 -0.4075
# 6 32.2729 14.8026 19.1624 3.9660 -0.4075 33.2288
#
#
#
# Elastic Compliance Matrix: (Units=1/GPa)
#
#
# Indices 1 2 3 4 5 6 
#
# 1 0.053389 0.011485 0.000625 0.023481 -0.007879 -0.060229
# 2 0.011485 0.026045 0.003642 0.023353 -0.002424 -0.027675
# 3 0.000625 0.003642 0.019794 0.018245 -0.013235 -0.015984
# 4 0.023481 0.023353 0.018245 0.062442 -0.016555 -0.051386
# 5 -0.007879 -0.002424 -0.013235 -0.016555 0.044716 0.018889
# 6 -0.060229 -0.027675 -0.015984 -0.051386 0.018889 0.116502
#
#
# Mechanical properties :
#
#
# Convention : Reuss Voigt Hill
#
# Bulk Modulus (GPa) = 7.64919 38.24679 22.94799
# Shear Modulus (GPa) = 14.92708 30.95522 22.94115
#
# Velocity S-wave (km/s) = 2.61185 3.76121 3.23793
# Velocity P-wave (km/s) = 3.54843 6.02837 4.94634
#
# Compressibility (1/GPa) = 0.13073284
#
# Stress axis : x y z
#
# Youngs Moduli (GPa) = 18.73049 38.39439 50.52034
#
# Poissons Ratio (x) = -0.44098 -0.03156
# Poissons Ratio (y) = -0.21513 -0.18400
# Poissons Ratio (z) = -0.01170 -0.13984
#
# Static dielectric constant tensor:
#      x y z
#    x 1.884040 0.040400 -0.031860 
#    y 0.040400 1.926020 -0.011790 
#    z -0.031860 -0.011790 1.810830 
# 
# From -- ./inp_files/455763.got.cif
#   From: 2010.05.17/outbox.cif.g08.bks.cpg/sg2_228_cif.got.tgz:455763.got - 2010.06.03 11:33:40.
