data_PCOD9095382
_publ_section_title
;
Structure prediction by ZEFSAII (Michael W. Deem and Ramdas Pophale) SiO2 
 PCOD9095382
Probable space group: P -1
;
_chemical_formula_sum "Si O2"
_cell_formula_units_Z 16
_cell_length_a 11.077465
_cell_length_b 12.463962
_cell_length_c 9.213246
_cell_angle_alpha 36.519622
_cell_angle_beta 86.236467
_cell_angle_gamma 85.080550
_cell_volume 754.203018
_symmetry_space_group_name_H-M "P -1"
_symmetry_group_IT_number 2
_symmetry_cell_setting 'triclinic'
loop_
_space_group_symop_operation_xyz
x,y,z
-x,-y,-z
loop_
_atom_site_type_symbol
_atom_site_label
_atom_site_fract_x
_atom_site_fract_y
_atom_site_fract_z
Si Si1 0.648207 0.385005 0.739504
Si Si2 0.116382 0.229573 0.689608
Si Si3 0.733410 0.365229 0.276829
Si Si4 0.523753 0.929289 0.916402
Si Si5 0.748076 0.588149 0.779003
Si Si6 0.293055 0.355383 0.762278
Si Si7 0.160691 0.828639 0.251951
Si Si8 0.492289 0.185225 0.393077
O O1 0.700096 0.450347 0.814428
O O2 0.617055 0.566449 0.451749
O O3 0.744829 0.281034 0.739967
O O4 0.550438 0.241708 0.935188
O O5 0.175882 0.281936 0.472615
O O6 0.169837 0.348504 0.686343
O O7 0.972584 0.246402 0.667222
O O8 0.150339 0.027215 0.964884
O O9 0.705497 0.518121 0.235742
O O10 0.795716 0.206580 0.545981
O O11 0.614452 0.294587 0.280603
O O12 0.807980 0.465600 0.036817
O O13 0.482800 0.102127 0.642249
O O14 0.659965 0.846250 0.980169
O O15 0.500000 0.000000 0.000000
O O16 0.631885 0.694932 0.747602
O O17 0.500000 0.000000 0.500000
#
# Coordination Sequence:
#
# PCOD9095382 Si02
#       8
#     2   2   2   2   2   2   2   2
#     4  10  20  35  57  84 119 155 194 240 290 346
#     4  10  22  41  63  87 117 154 197 244 293 343
#     4  11  23  39  60  87 119 155 196 239 290 350
#     4  12  20  32  56  86 116 151 198 237 281 347
#     4  11  23  39  60  87 119 155 196 239 290 350
#     4  10  20  35  57  84 119 155 194 240 290 346
#     4  10  22  41  63  87 117 154 197 244 293 343
#     4  12  24  38  58  84 123 159 188 235 299 353
#
# _framework density 21.214448000000001
#
# number of rings (size 3 to 8) (size 9 to 14) (size 15 to 20)
#    0.000    1.250    0.000    8.250    0.000    5.000 
#    0.000    0.000    0.000    3.750    0.000    0.000 
#    0.000    0.000    0.000    0.000    0.000    0.000 
#
# Total GULP energy -89167.941790 kJ/mol
# GULP energy per Si atom -5572.996362 kJ/mol
# Density = 2.116616 g / cm^3
# Si number density = 21.214448 Si / 1000 Ang^3
#
#
#
# Elastic Constant Matrix: (Units=GPa)
#
#
# Indices 1 2 3 4 5 6 
#
# 1 86.5528 2.6024 23.8794 0.7754 -12.0961 11.6139
# 2 2.6024 68.1020 17.0302 19.3334 -5.6867 6.6773
# 3 23.8794 17.0302 145.6220 16.1218 -2.5738 2.8748
# 4 0.7754 19.3334 16.1218 34.9365 0.5296 -0.4291
# 5 -12.0961 -5.6867 -2.5738 0.5296 27.1001 -9.6284
# 6 11.6139 6.6773 2.8748 -0.4291 -9.6284 20.2708
#
#
#
# Elastic Compliance Matrix: (Units=1/GPa)
#
#
# Indices 1 2 3 4 5 6 
#
# 1 0.013444 0.000903 -0.002132 0.000055 0.003913 -0.005838
# 2 0.000903 0.018451 -0.001065 -0.009844 0.002409 -0.005508
# 3 -0.002132 -0.001065 0.007650 -0.002886 -0.000290 0.000289
# 4 0.000055 -0.009844 -0.002886 0.035471 -0.001751 0.003540
# 5 0.003913 0.002409 -0.000290 -0.001751 0.045813 0.018729
# 6 -0.005838 -0.005508 0.000289 0.003540 0.018729 0.063422
#
#
# Mechanical properties :
#
#
# Convention : Reuss Voigt Hill
#
# Bulk Modulus (GPa) = 28.60561 43.03344 35.81953
# Shear Modulus (GPa) = 24.93866 33.57911 29.25889
#
# Velocity S-wave (km/s) = 3.43235 3.98281 3.71778
# Velocity P-wave (km/s) = 5.40568 6.44045 5.94562
#
# Compressibility (1/GPa) = 0.03495818
#
# Stress axis : x y z
#
# Youngs Moduli (GPa) = 74.38057 54.19653 130.72130
#
# Poissons Ratio (x) = -0.04894 0.27868
# Poissons Ratio (y) = -0.06716 0.13919
# Poissons Ratio (z) = 0.15857 0.05771
#
# Static dielectric constant tensor:
#      x y z
#    x 1.801750 0.042510 -0.006150 
#    y 0.042510 1.777280 0.032340 
#    z -0.006150 0.032340 1.903390 
# 
# From -- ./inp_files/196904.got.cif
#   From: 2010.05.17/outbox.cif.g08.bks.cpg/sg2_99_cif.got.tgz:196904.got - 2010.06.03 11:33:40.
