data_PCOD9095284
_publ_section_title
;
Structure prediction by ZEFSAII (Michael W. Deem and Ramdas Pophale) SiO2 
 PCOD9095284
Probable space group: P -1
;
_chemical_formula_sum "Si O2"
_cell_formula_units_Z 16
_cell_length_a 11.840837
_cell_length_b 11.910152
_cell_length_c 7.582498
_cell_angle_alpha 115.570874
_cell_angle_beta 63.136792
_cell_angle_gamma 118.916242
_cell_volume 803.300485
_symmetry_space_group_name_H-M "P -1"
_symmetry_group_IT_number 2
_symmetry_cell_setting 'triclinic'
loop_
_space_group_symop_operation_xyz
x,y,z
-x,-y,-z
loop_
_atom_site_type_symbol
_atom_site_label
_atom_site_fract_x
_atom_site_fract_y
_atom_site_fract_z
Si Si1 0.547118 0.988215 0.757806
Si Si2 0.905222 0.950867 0.268192
Si Si3 0.103690 0.474861 0.271667
Si Si4 0.064281 0.749815 0.989311
Si Si5 0.270893 0.987204 0.848729
Si Si6 0.189781 0.751975 0.272731
Si Si7 0.739562 0.877956 0.671595
Si Si8 0.088579 0.242319 0.356693
O O1 0.420026 0.982017 0.724827
O O2 0.678011 0.117346 0.700491
O O3 0.602806 0.866421 0.656106
O O4 0.500000 0.000000 0.000000
O O5 0.964294 0.832343 0.146394
O O6 0.781737 0.937404 0.213017
O O7 0.855488 0.962217 0.509727
O O8 0.024349 0.089786 0.227957
O O9 0.145767 0.360151 0.255850
O O10 0.000000 0.500000 0.500000
O O11 0.791787 0.382023 0.761282
O O12 0.019572 0.398881 0.111019
O O13 0.158765 0.750159 0.086388
O O14 0.165064 0.835248 0.824288
O O15 0.264992 0.049636 0.089986
O O16 0.045186 0.746231 0.451049
O O17 0.788686 0.757232 0.603472
#
# Coordination Sequence:
#
# PCOD9095284 Si02
#       8
#     2   2   2   2   2   2   2   2
#     4  10  20  35  56  85 119 155 185 233 291 340
#     4  12  20  33  61  91 115 142 188 250 296 335
#     4  10  24  35  54  85 118 155 184 241 288 342
#     4  12  19  36  59  88 115 141 198 237 290 346
#     4  11  22  33  56  91 119 150 181 235 296 344
#     4  11  20  37  58  83 118 155 190 224 292 350
#     4  11  20  35  56  84 122 144 182 250 291 335
#     4  11  18  36  57  86 117 142 188 245 295 330
#
# _framework density 19.917829000000001
#
# number of rings (size 3 to 8) (size 9 to 14) (size 15 to 20)
#    0.000    1.000    7.500    1.875    0.000    0.500 
#    0.000    0.000    0.000    6.750    0.000    6.125 
#    0.000    0.000    0.000    0.000    0.000    0.000 
#
# Total GULP energy -89150.191606 kJ/mol
# GULP energy per Si atom -5571.886975 kJ/mol
# Density = 1.987249 g / cm^3
# Si number density = 19.917829 Si / 1000 Ang^3
#
#
#
# Elastic Constant Matrix: (Units=GPa)
#
#
# Indices 1 2 3 4 5 6 
#
# 1 139.8197 22.1507 21.2588 -8.8672 -14.8715 -19.0957
# 2 22.1507 76.2496 10.8167 -4.8035 -1.0395 -18.8146
# 3 21.2588 10.8167 54.2922 -3.6996 -2.0182 -4.1868
# 4 -8.8672 -4.8035 -3.6996 24.8177 -2.7586 5.8592
# 5 -14.8715 -1.0395 -2.0182 -2.7586 30.2404 -5.7092
# 6 -19.0957 -18.8146 -4.1868 5.8592 -5.7092 25.7995
#
#
#
# Elastic Compliance Matrix: (Units=1/GPa)
#
#
# Indices 1 2 3 4 5 6 
#
# 1 0.009333 -0.000387 -0.002687 0.001844 0.005901 0.007076
# 2 -0.000387 0.016516 -0.002112 0.000207 0.002506 0.011923
# 3 -0.002687 -0.002112 0.019957 0.001768 -0.000033 -0.000699
# 4 0.001844 0.000207 0.001768 0.043369 0.003621 -0.007245
# 5 0.005901 0.002506 -0.000033 0.003621 0.039029 0.014005
# 6 0.007076 0.011923 -0.000699 -0.007245 0.014005 0.057324
#
#
# Mechanical properties :
#
#
# Convention : Reuss Voigt Hill
#
# Bulk Modulus (GPa) = 28.22148 42.09044 35.15596
# Shear Modulus (GPa) = 24.07182 30.58054 27.32618
#
# Velocity S-wave (km/s) = 3.48020 3.92259 3.70800
# Velocity P-wave (km/s) = 5.50897 6.45705 6.00176
#
# Compressibility (1/GPa) = 0.03543400
#
# Stress axis : x y z
#
# Youngs Moduli (GPa) = 107.14634 60.54691 50.10788
#
# Poissons Ratio (x) = 0.02346 0.13462
# Poissons Ratio (y) = 0.04151 0.10583
# Poissons Ratio (z) = 0.28785 0.12788
#
# Static dielectric constant tensor:
#      x y z
#    x 1.772170 -0.039360 0.015300 
#    y -0.039360 1.705180 0.012470 
#    z 0.015300 0.012470 1.799850 
# 
# From -- ./inp_files/254494.got.cif
#   From: 2010.05.17/outbox.cif.g08.bks.cpg/sg2_128_cif.got.tgz:254494.got - 2010.06.03 11:33:40.
