data_PCOD9095961
_publ_section_title
;
Structure prediction by ZEFSAII (Michael W. Deem and Ramdas Pophale) SiO2 
 PCOD9095961
Probable space group: P -1
;
_chemical_formula_sum "Si O2"
_cell_formula_units_Z 14
_cell_length_a 16.305198
_cell_length_b 6.857280
_cell_length_c 11.243453
_cell_angle_alpha 63.687735
_cell_angle_beta 39.847216
_cell_angle_gamma 43.738483
_cell_volume 538.981187
_symmetry_space_group_name_H-M "P -1"
_symmetry_group_IT_number 2
_symmetry_cell_setting 'triclinic'
loop_
_space_group_symop_operation_xyz
x,y,z
-x,-y,-z
loop_
_atom_site_type_symbol
_atom_site_label
_atom_site_fract_x
_atom_site_fract_y
_atom_site_fract_z
Si Si1 0.224549 0.623567 0.563332
Si Si2 0.617158 0.280285 0.214125
Si Si3 0.317990 0.071038 0.053415
Si Si4 0.902218 0.683094 0.179769
Si Si5 0.972707 0.770281 0.512293
Si Si6 0.236674 0.506183 0.860063
Si Si7 0.680164 0.515034 0.879301
O O1 0.423821 0.431037 0.363963
O O2 0.147054 0.476937 0.650456
O O3 0.224324 0.596239 0.714489
O O4 0.119585 0.952219 0.547947
O O5 0.633852 0.475747 0.225743
O O6 0.728665 0.988174 0.245822
O O7 0.700509 0.276674 0.000816
O O8 0.155829 0.118520 0.265500
O O9 0.313652 0.286382 0.089577
O O10 0.308039 0.187131 0.902250
O O11 0.493402 0.747985 0.968310
O O12 0.000000 0.500000 0.000000
O O13 0.039607 0.699347 0.076634
O O14 0.000000 0.500000 0.500000
O O15 0.166618 0.636589 0.343686
#
# Coordination Sequence:
#
# PCOD9095961 Si02
#       7
#     2   2   2   2   2   2   2
#     4  11  22  40  61  92 126 161 202 252 313 371
#     4  11  20  37  65  93 119 160 211 256 298 363
#     4   9  18  35  54  87 119 153 200 254 298 351
#     4  10  22  39  59  85 126 165 201 247 316 370
#     4  10  20  35  61  88 117 163 207 246 301 372
#     4  10  22  38  62  92 124 155 208 260 300 357
#     4   9  17  32  58  83 120 156 199 248 304 352
#
# _framework density 25.974933
#
# number of rings (size 3 to 8) (size 9 to 14) (size 15 to 20)
#    0.000    2.000    1.429    3.000    2.000    2.286 
#    2.571    0.714    0.000    4.286    0.000    0.000 
#    0.000    0.000    0.000    0.000    0.000    0.000 
#
# Total GULP energy -78351.526470 kJ/mol
# GULP energy per Si atom -5596.537605 kJ/mol
# Density = 2.591581 g / cm^3
# Si number density = 25.974933 Si / 1000 Ang^3
#
#
#
# Elastic Constant Matrix: (Units=GPa)
#
#
# Indices 1 2 3 4 5 6 
#
# 1 54.0603 15.2768 33.9439 -3.2354 -10.1428 -3.8149
# 2 15.2768 197.1980 82.6087 -21.4715 -8.6614 -19.7453
# 3 33.9439 82.6087 199.3704 -3.1796 -14.9444 -12.1192
# 4 -3.2354 -21.4715 -3.1796 60.2820 -14.1972 -11.6096
# 5 -10.1428 -8.6614 -14.9444 -14.1972 45.0105 -7.4116
# 6 -3.8149 -19.7453 -12.1192 -11.6096 -7.4116 45.2553
#
#
#
# Elastic Compliance Matrix: (Units=1/GPa)
#
#
# Indices 1 2 3 4 5 6 
#
# 1 0.021805 0.000543 -0.003319 0.002986 0.005323 0.002824
# 2 0.000543 0.006959 -0.002510 0.003661 0.002399 0.003742
# 3 -0.003319 -0.002510 0.006715 -0.000403 0.000950 0.000475
# 4 0.002986 0.003661 -0.000403 0.022039 0.009674 0.008979
# 5 0.005323 0.002399 0.000950 0.009674 0.028716 0.008934
# 6 0.002824 0.003742 0.000475 0.008979 0.008934 0.027862
#
#
# Mechanical properties :
#
#
# Convention : Reuss Voigt Hill
#
# Bulk Modulus (GPa) = 40.15087 79.36527 59.75807
# Shear Modulus (GPa) = 37.60210 51.36284 44.48247
#
# Velocity S-wave (km/s) = 3.80890 4.45162 4.14274
# Velocity P-wave (km/s) = 5.90210 7.55271 6.77784
#
# Compressibility (1/GPa) = 0.02490606
#
# Stress axis : x y z
#
# Youngs Moduli (GPa) = 45.86068 143.69272 148.92763
#
# Poissons Ratio (x) = -0.07801 0.49431
# Poissons Ratio (y) = -0.02490 0.37386
# Poissons Ratio (z) = 0.15222 0.36071
#
# Static dielectric constant tensor:
#      x y z
#    x 2.188770 0.034280 -0.021220 
#    y 0.034280 2.007840 -0.023290 
#    z -0.021220 -0.023290 1.973320 
# 
# From -- ./inp_files/195286.got.cif
#   From: 2010.05.17/outbox.cif.g08.bks.cpg/sg2_98_cif.got.tgz:195286.got - 2010.06.03 11:33:40.
