data_PCOD9095413
_publ_section_title
;
Structure prediction by ZEFSAII (Michael W. Deem and Ramdas Pophale) SiO2 
 PCOD9095413
Probable space group: P -1
;
_chemical_formula_sum "Si O2"
_cell_formula_units_Z 12
_cell_length_a 8.757292
_cell_length_b 11.365836
_cell_length_c 4.774422
_cell_angle_alpha 101.171674
_cell_angle_beta 114.990256
_cell_angle_gamma 82.568920
_cell_volume 421.962386
_symmetry_space_group_name_H-M "P -1"
_symmetry_group_IT_number 2
_symmetry_cell_setting 'triclinic'
loop_
_space_group_symop_operation_xyz
x,y,z
-x,-y,-z
loop_
_atom_site_type_symbol
_atom_site_label
_atom_site_fract_x
_atom_site_fract_y
_atom_site_fract_z
Si Si1 0.113547 0.399209 0.720552
Si Si2 0.160265 0.744373 0.664493
Si Si3 0.120901 0.109607 0.179635
Si Si4 0.387630 0.257772 0.452060
Si Si5 0.630015 0.435618 0.860343
Si Si6 0.625625 0.054311 0.346532
O O1 0.262283 0.322357 0.620624
O O2 0.000000 0.500000 0.500000
O O3 0.958460 0.323635 0.675820
O O4 0.226213 0.472272 0.059272
O O5 0.253651 0.854615 0.666752
O O6 0.015006 0.793437 0.776679
O O7 0.281999 0.662455 0.910341
O O8 0.248866 0.187830 0.128516
O O9 0.252311 0.048817 0.474463
O O10 0.000000 0.000000 0.000000
O O11 0.516626 0.362189 0.521697
O O12 0.525844 0.142993 0.532930
O O13 0.500000 0.500000 0.000000
O O14 0.500000 0.000000 0.000000
#
# Coordination Sequence:
#
# PCOD9095413 Si02
#       6
#     2   2   2   2   2   2
#     4   8  17  35  58  82 111 154 200 240 291 360
#     4  10  20  35  57  86 119 153 195 250 299 341
#     4  11  22  39  60  83 117 165 206 236 286 362
#     4  10  20  35  59  84 114 158 199 235 290 360
#     4   9  17  36  61  84 112 156 202 242 291 362
#     4  12  24  38  57  91 127 156 195 251 298 341
#
# _framework density 28.438555000000001
#
# number of rings (size 3 to 8) (size 9 to 14) (size 15 to 20)
#    0.000    2.000    0.000    4.000    0.000    0.000 
#    0.000    8.333    0.000    0.000    0.000    0.000 
#    0.000    0.000    0.000    0.000    0.000    0.000 
#
# Total GULP energy -66893.423708 kJ/mol
# GULP energy per Si atom -5574.451976 kJ/mol
# Density = 2.837383 g / cm^3
# Si number density = 28.438555 Si / 1000 Ang^3
#
#
#
# Elastic Constant Matrix: (Units=GPa)
#
#
# Indices 1 2 3 4 5 6 
#
# 1 152.7124 70.3691 77.7084 9.7092 39.3682 5.5967
# 2 70.3691 130.0845 72.4477 4.3663 19.2937 -25.7208
# 3 77.7084 72.4477 154.1478 15.2979 59.3930 23.0608
# 4 9.7092 4.3663 15.2979 63.1262 8.5022 27.4737
# 5 39.3682 19.2937 59.3930 8.5022 68.1049 33.4685
# 6 5.5967 -25.7208 23.0608 27.4737 33.4685 111.9928
#
#
#
# Elastic Compliance Matrix: (Units=1/GPa)
#
#
# Indices 1 2 3 4 5 6 
#
# 1 0.010202 -0.003862 -0.002195 -0.000387 -0.002840 -0.000001
# 2 -0.003862 0.013489 -0.005352 -0.001074 0.001083 0.004333
# 3 -0.002195 -0.005352 0.013611 -0.000946 -0.008385 -0.001184
# 4 -0.000387 -0.001074 -0.000946 0.018149 0.001513 -0.004937
# 5 -0.002840 0.001083 -0.008385 0.001513 0.026119 -0.006060
# 6 -0.000001 0.004333 -0.001184 -0.004937 -0.006060 0.013190
#
#
# Mechanical properties :
#
#
# Convention : Reuss Voigt Hill
#
# Bulk Modulus (GPa) = 69.04201 97.55503 83.29852
# Shear Modulus (GPa) = 40.84808 63.07275 51.96042
#
# Velocity S-wave (km/s) = 3.79405 4.71453 4.27911
# Velocity P-wave (km/s) = 6.59723 8.00087 7.33271
#
# Compressibility (1/GPa) = 0.01448394
#
# Stress axis : x y z
#
# Youngs Moduli (GPa) = 98.02448 74.13372 73.47252
#
# Poissons Ratio (x) = 0.28632 0.16125
# Poissons Ratio (y) = 0.37860 0.39320
# Poissons Ratio (z) = 0.21514 0.39674
#
# Static dielectric constant tensor:
#      x y z
#    x 2.193240 0.121940 0.055250 
#    y 0.121940 2.312130 0.087210 
#    z 0.055250 0.087210 2.310830 
# 
# From -- ./inp_files/28794.got.cif
#   From: 2010.05.17/outbox.cif.g08.bks.cpg/sg2_15_cif.got.tgz:28794.got - 2010.06.03 11:33:40.
