data_PCOD9095562
_publ_section_title
;
Structure prediction by ZEFSAII (Michael W. Deem and Ramdas Pophale) SiO2 
 PCOD9095562
Probable space group: P -1
;
_chemical_formula_sum "Si O2"
_cell_formula_units_Z 16
_cell_length_a 9.729524
_cell_length_b 17.613023
_cell_length_c 8.233716
_cell_angle_alpha 39.992899
_cell_angle_beta 105.652826
_cell_angle_gamma 124.693994
_cell_volume 707.728195
_symmetry_space_group_name_H-M "P -1"
_symmetry_group_IT_number 2
_symmetry_cell_setting 'triclinic'
loop_
_space_group_symop_operation_xyz
x,y,z
-x,-y,-z
loop_
_atom_site_type_symbol
_atom_site_label
_atom_site_fract_x
_atom_site_fract_y
_atom_site_fract_z
Si Si1 0.682500 0.015643 0.027969
Si Si2 0.993749 0.663878 0.360352
Si Si3 0.006836 0.598368 0.090607
Si Si4 0.362846 0.826115 0.726259
Si Si5 0.314350 0.321384 0.864026
Si Si6 0.491635 0.754768 0.181803
Si Si7 0.379650 0.554614 0.750145
Si Si8 0.626214 0.809744 0.626695
O O1 0.655316 0.909091 0.048655
O O2 0.707773 0.949985 0.307605
O O3 0.500000 0.000000 0.000000
O O4 0.837002 0.182303 0.779801
O O5 0.013696 0.644387 0.205832
O O6 0.967075 0.531017 0.672570
O O7 0.832302 0.677879 0.281477
O O8 0.808397 0.535748 0.074362
O O9 0.152455 0.732570 0.803503
O O10 0.450972 0.783423 0.692364
O O11 0.500000 0.000000 0.500000
O O12 0.379144 0.776305 0.989547
O O13 0.261976 0.189252 0.189592
O O14 0.442755 0.323596 0.773098
O O15 0.398643 0.455000 0.797231
O O16 0.373884 0.662745 0.447276
O O17 0.551741 0.668051 0.722580
#
# Coordination Sequence:
#
# PCOD9095562 Si02
#       8
#     2   2   2   2   2   2   2   2
#     4  11  21  38  62  84 113 154 195 237 284 337
#     4  10  20  36  59  85 116 150 193 241 283 333
#     4  10  20  35  58  88 112 146 196 238 283 339
#     4  11  21  36  57  84 118 149 184 237 294 342
#     4  10  21  36  56  85 119 153 189 239 290 337
#     4  10  21  36  58  84 111 153 199 229 280 352
#     4  10  20  38  61  83 114 152 195 241 282 338
#     4  10  22  36  56  85 115 152 193 231 290 352
#
# _framework density 22.607548999999999
#
# number of rings (size 3 to 8) (size 9 to 14) (size 15 to 20)
#    0.000    1.750    0.000    6.750    0.000    2.500 
#    0.000    1.250    0.000    3.000    0.000    0.000 
#    0.000    0.000    0.000    0.000    0.000    0.000 
#
# Total GULP energy -89316.954096 kJ/mol
# GULP energy per Si atom -5582.309631 kJ/mol
# Density = 2.255609 g / cm^3
# Si number density = 22.607549 Si / 1000 Ang^3
#
#
#
# Elastic Constant Matrix: (Units=GPa)
#
#
# Indices 1 2 3 4 5 6 
#
# 1 64.6065 9.9818 20.1016 -11.9415 5.6698 7.7235
# 2 9.9818 49.4502 23.3052 -21.8126 -3.4586 -3.4303
# 3 20.1016 23.3052 78.1208 -19.8858 -1.8914 9.8936
# 4 -11.9415 -21.8126 -19.8858 40.8447 6.8515 2.7855
# 5 5.6698 -3.4586 -1.8914 6.8515 23.8779 -1.6470
# 6 7.7235 -3.4303 9.8936 2.7855 -1.6470 18.6020
#
#
#
# Elastic Compliance Matrix: (Units=1/GPa)
#
#
# Indices 1 2 3 4 5 6 
#
# 1 0.019024 -0.001489 -0.002154 0.005480 -0.007061 -0.008474
# 2 -0.001489 0.029142 -0.006409 0.011241 0.001382 0.007840
# 3 -0.002154 -0.006409 0.018065 0.005716 -0.001376 -0.010874
# 4 0.005480 0.011241 0.005716 0.037316 -0.010601 -0.009769
# 5 -0.007061 0.001382 -0.001376 -0.010601 0.047358 0.009699
# 6 -0.008474 0.007840 -0.010874 -0.009769 0.009699 0.066826
#
#
# Mechanical properties :
#
#
# Convention : Reuss Voigt Hill
#
# Bulk Modulus (GPa) = 21.67856 33.21718 27.44787
# Shear Modulus (GPa) = 19.74634 25.91752 22.83193
#
# Velocity S-wave (km/s) = 2.95861 3.38954 3.18138
# Velocity P-wave (km/s) = 4.61314 5.48120 5.06579
#
# Compressibility (1/GPa) = 0.04612852
#
# Stress axis : x y z
#
# Youngs Moduli (GPa) = 52.56497 34.31444 55.35449
#
# Poissons Ratio (x) = 0.05111 0.11921
# Poissons Ratio (y) = 0.07829 0.35474
# Poissons Ratio (z) = 0.11320 0.21991
#
# Static dielectric constant tensor:
#      x y z
#    x 1.897400 0.040010 0.019900 
#    y 0.040010 1.907120 -0.024950 
#    z 0.019900 -0.024950 1.942350 
# 
# From -- ./inp_files/216535.got.cif
#   From: 2010.05.17/outbox.cif.g08.bks.cpg/sg2_109_cif.got.tgz:216535.got - 2010.06.03 11:33:40.
