data_PCOD9095317
_publ_section_title
;
Structure prediction by ZEFSAII (Michael W. Deem and Ramdas Pophale) SiO2 
 PCOD9095317
Probable space group: P -1
;
_chemical_formula_sum "Si O2"
_cell_formula_units_Z 16
_cell_length_a 14.718300
_cell_length_b 14.545524
_cell_length_c 5.160396
_cell_angle_alpha 99.058191
_cell_angle_beta 68.486809
_cell_angle_gamma 142.309522
_cell_volume 611.037797
_symmetry_space_group_name_H-M "P -1"
_symmetry_group_IT_number 2
_symmetry_cell_setting 'triclinic'
loop_
_space_group_symop_operation_xyz
x,y,z
-x,-y,-z
loop_
_atom_site_type_symbol
_atom_site_label
_atom_site_fract_x
_atom_site_fract_y
_atom_site_fract_z
Si Si1 0.750197 0.211010 0.624022
Si Si2 0.943182 0.635856 0.372467
Si Si3 0.665224 0.524580 0.888156
Si Si4 0.219573 0.188311 0.103264
Si Si5 0.154087 0.032067 0.598578
Si Si6 0.610022 0.379008 0.388248
Si Si7 0.478023 0.123834 0.046315
Si Si8 0.200312 0.899077 0.849263
O O1 0.653673 0.231453 0.789178
O O2 0.777756 0.192339 0.298734
O O3 0.923290 0.331955 0.636602
O O4 0.620154 0.036054 0.790164
O O5 0.794553 0.482346 0.291323
O O6 0.046959 0.785225 0.150710
O O7 0.844264 0.616499 0.686878
O O8 0.674167 0.640401 0.875251
O O9 0.621022 0.469168 0.203573
O O10 0.565320 0.389937 0.717723
O O11 0.227896 0.117221 0.285471
O O12 0.235007 0.158277 0.788765
O O13 0.034454 0.084948 0.262960
O O14 0.169666 0.939948 0.650875
O O15 0.509216 0.223676 0.278472
O O16 0.361120 0.053651 0.895601
#
# Coordination Sequence:
#
# PCOD9095317 Si02
#       8
#     2   2   2   2   2   2   2   2
#     4  10  21  41  63  89 124 160 206 264 308 356
#     4   9  21  35  62  92 121 165 199 255 307 362
#     4  10  21  39  63  87 131 158 204 244 320 354
#     4  10  20  35  56  94 121 158 197 258 300 363
#     4  10  22  31  59  91 125 155 202 250 308 358
#     4  10  22  39  64  92 119 173 201 253 300 374
#     4  10  24  40  62  90 120 167 212 250 306 373
#     4  11  22  38  61  90 128 162 202 256 315 363
#
# _framework density 26.18496
#
# number of rings (size 3 to 8) (size 9 to 14) (size 15 to 20)
#    0.750    1.250    0.000    3.375   10.500    0.500 
#    0.000    1.250    0.000    4.500    0.000    0.000 
#    0.000    0.000    0.000    0.000    0.000    0.000 
#
# Total GULP energy -89579.953599 kJ/mol
# GULP energy per Si atom -5598.747100 kJ/mol
# Density = 2.612536 g / cm^3
# Si number density = 26.184960 Si / 1000 Ang^3
#
#
#
# Elastic Constant Matrix: (Units=GPa)
#
#
# Indices 1 2 3 4 5 6 
#
# 1 61.2854 31.0918 16.6793 11.0503 -7.3594 26.2673
# 2 31.0918 96.6923 7.3347 24.7184 20.3593 32.5756
# 3 16.6793 7.3347 107.9778 20.1033 13.0413 -5.3751
# 4 11.0503 24.7184 20.1033 44.8904 3.9276 6.3186
# 5 -7.3594 20.3593 13.0413 3.9276 36.6980 2.8257
# 6 26.2673 32.5756 -5.3751 6.3186 2.8257 44.2911
#
#
#
# Elastic Compliance Matrix: (Units=1/GPa)
#
#
# Indices 1 2 3 4 5 6 
#
# 1 0.028946 -0.007071 -0.006305 0.000372 0.012976 -0.013612
# 2 -0.007071 0.019660 0.002234 -0.007923 -0.011646 -0.008122
# 3 -0.006305 0.002234 0.012080 -0.005174 -0.006606 0.004722
# 4 0.000372 -0.007923 -0.005174 0.028485 0.003206 0.000711
# 5 0.012976 -0.011646 -0.006606 0.003206 0.038536 -0.002848
# 6 -0.013612 -0.008122 0.004722 0.000711 -0.002848 0.037278
#
#
# Mechanical properties :
#
#
# Convention : Reuss Voigt Hill
#
# Bulk Modulus (GPa) = 26.04038 41.79635 33.91836
# Shear Modulus (GPa) = 24.99144 39.23254 32.11199
#
# Velocity S-wave (km/s) = 3.09272 3.87497 3.50573
# Velocity P-wave (km/s) = 4.76651 6.00143 5.41926
#
# Compressibility (1/GPa) = 0.03840190
#
# Stress axis : x y z
#
# Youngs Moduli (GPa) = 34.54738 50.86420 82.78365
#
# Poissons Ratio (x) = 0.35966 0.52196
# Poissons Ratio (y) = 0.24428 -0.18496
# Poissons Ratio (z) = 0.21783 -0.11364
#
# Static dielectric constant tensor:
#      x y z
#    x 2.114650 0.009830 -0.065340 
#    y 0.009830 2.045250 -0.022010 
#    z -0.065340 -0.022010 2.054410 
# 
# From -- ./inp_files/97162.got.cif
#   From: 2010.05.17/outbox.cif.g08.bks.cpg/sg2_49_cif.got.tgz:97162.got - 2010.06.03 11:33:40.
