data_PCOD9095862
_publ_section_title
;
Structure prediction by ZEFSAII (Michael W. Deem and Ramdas Pophale) SiO2 
 PCOD9095862
Probable space group: P -1
;
_chemical_formula_sum "Si O2"
_cell_formula_units_Z 16
_cell_length_a 5.107608
_cell_length_b 20.942734
_cell_length_c 7.610878
_cell_angle_alpha 91.641685
_cell_angle_beta 111.902248
_cell_angle_gamma 117.686795
_cell_volume 648.340583
_symmetry_space_group_name_H-M "P -1"
_symmetry_group_IT_number 2
_symmetry_cell_setting 'triclinic'
loop_
_space_group_symop_operation_xyz
x,y,z
-x,-y,-z
loop_
_atom_site_type_symbol
_atom_site_label
_atom_site_fract_x
_atom_site_fract_y
_atom_site_fract_z
Si Si1 0.917341 0.514470 0.199036
Si Si2 0.730718 0.229324 0.094746
Si Si3 0.362306 0.917472 0.386744
Si Si4 0.084053 0.084988 0.029712
Si Si5 0.454798 0.571259 0.579958
Si Si6 0.162796 0.140787 0.456859
Si Si7 0.461466 0.274678 0.337762
Si Si8 0.914004 0.380449 0.043584
O O1 0.298246 0.544509 0.347785
O O2 0.772178 0.433666 0.064853
O O3 0.742164 0.495997 0.339834
O O4 0.904865 0.576679 0.086069
O O5 0.434698 0.143861 0.029745
O O6 0.690223 0.255994 0.279215
O O7 0.093916 0.242609 0.158771
O O8 0.701893 0.290816 0.973663
O O9 0.638419 0.896530 0.423440
O O10 0.123467 0.871274 0.484854
O O11 0.500000 0.000000 0.500000
O O12 0.174186 0.909380 0.159285
O O13 0.069671 0.106824 0.231513
O O14 0.000000 0.000000 0.000000
O O15 0.392523 0.638915 0.602720
O O16 0.826497 0.604951 0.735829
O O17 0.391754 0.228673 0.493673
#
# Coordination Sequence:
#
# PCOD9095862 Si02
#       8
#     2   2   2   2   2   2   2   2
#     4  10  20  35  60  90 119 165 213 254 324 373
#     4  10  22  42  64  96 127 174 217 267 329 392
#     4  12  26  44  69 101 132 171 223 277 330 405
#     4  11  25  45  73  99 135 177 224 276 339 397
#     4  10  20  36  59  89 122 163 213 258 313 384
#     4  11  25  46  67  98 135 173 222 272 334 392
#     4  10  21  41  68  90 134 174 212 269 330 377
#     4  10  20  37  60  83 128 161 209 263 319 373
#
# _framework density 24.67839
#
# number of rings (size 3 to 8) (size 9 to 14) (size 15 to 20)
#    0.000    1.500    2.500    2.625    0.000    4.500 
#    0.000    2.500    2.750    0.000    0.000    0.000 
#    0.000    0.000    0.000    0.000    0.000    0.000 
#
# Total GULP energy -89304.713967 kJ/mol
# GULP energy per Si atom -5581.544623 kJ/mol
# Density = 2.462222 g / cm^3
# Si number density = 24.678390 Si / 1000 Ang^3
#
#
#
# Elastic Constant Matrix: (Units=GPa)
#
#
# Indices 1 2 3 4 5 6 
#
# 1 52.0451 6.5115 13.5164 6.4439 2.2455 -5.8543
# 2 6.5115 172.1284 20.2854 -21.3006 3.8759 -7.8483
# 3 13.5164 20.2854 119.1049 5.2676 6.3122 -5.9257
# 4 6.4439 -21.3006 5.2676 26.5877 -0.3790 5.8984
# 5 2.2455 3.8759 6.3122 -0.3790 20.2278 -1.0074
# 6 -5.8543 -7.8483 -5.9257 5.8984 -1.0074 27.8363
#
#
#
# Elastic Compliance Matrix: (Units=1/GPa)
#
#
# Indices 1 2 3 4 5 6 
#
# 1 0.021293 -0.001216 -0.001559 -0.007009 -0.001515 0.005234
# 2 -0.001216 0.006753 -0.001233 0.005916 -0.000658 0.000108
# 3 -0.001559 -0.001233 0.009125 -0.002848 -0.002403 0.001783
# 4 -0.007009 0.005916 -0.002848 0.046916 0.000898 -0.010321
# 5 -0.001515 -0.000658 -0.002403 0.000898 0.050529 0.000623
# 6 0.005234 0.000108 0.001783 -0.010321 0.000623 0.039645
#
#
# Mechanical properties :
#
#
# Convention : Reuss Voigt Hill
#
# Bulk Modulus (GPa) = 34.30083 47.10056 40.70070
# Shear Modulus (GPa) = 26.04228 35.12803 30.58515
#
# Velocity S-wave (km/s) = 3.25201 3.77693 3.52426
# Velocity P-wave (km/s) = 5.29434 6.17637 5.75229
#
# Compressibility (1/GPa) = 0.02915382
#
# Stress axis : x y z
#
# Youngs Moduli (GPa) = 46.96389 148.08649 109.58979
#
# Poissons Ratio (x) = 0.18014 0.17080
# Poissons Ratio (y) = 0.05713 0.13517
# Poissons Ratio (z) = 0.07320 0.18266
#
# Static dielectric constant tensor:
#      x y z
#    x 1.992650 0.067290 0.032460 
#    y 0.067290 1.971190 -0.010220 
#    z 0.032460 -0.010220 1.972930 
# 
# From -- ./inp_files/142285.got.cif
#   From: 2010.05.17/outbox.cif.g08.bks.cpg/sg2_72_cif.got.tgz:142285.got - 2010.06.03 11:33:40.
