data_PCOD9095167
_publ_section_title
;
Structure prediction by ZEFSAII (Michael W. Deem and Ramdas Pophale) SiO2 
 PCOD9095167
Probable space group: P -1
;
_chemical_formula_sum "Si O2"
_cell_formula_units_Z 12
_cell_length_a 8.715235
_cell_length_b 12.974148
_cell_length_c 5.634234
_cell_angle_alpha 102.054979
_cell_angle_beta 116.166922
_cell_angle_gamma 73.896056
_cell_volume 546.576459
_symmetry_space_group_name_H-M "P -1"
_symmetry_group_IT_number 2
_symmetry_cell_setting 'triclinic'
loop_
_space_group_symop_operation_xyz
x,y,z
-x,-y,-z
loop_
_atom_site_type_symbol
_atom_site_label
_atom_site_fract_x
_atom_site_fract_y
_atom_site_fract_z
Si Si1 0.030385 0.166556 0.679896
Si Si2 0.540768 0.709905 0.608121
Si Si3 0.851800 0.003939 0.706044
Si Si4 0.616134 0.933808 0.845347
Si Si5 0.886104 0.615186 0.049080
Si Si6 0.462303 0.382195 0.940212
O O1 0.004690 0.294606 0.758640
O O2 0.874521 0.105994 0.611913
O O3 0.098092 0.110566 0.450685
O O4 0.198166 0.121728 0.937825
O O5 0.532002 0.835690 0.666595
O O6 0.477919 0.676238 0.295389
O O7 0.748031 0.655309 0.760152
O O8 0.461315 0.673507 0.784101
O O9 0.670222 0.007169 0.712547
O O10 0.000000 0.000000 0.000000
O O11 0.500000 0.000000 0.000000
O O12 0.745946 0.610164 0.160853
O O13 0.000000 0.500000 0.000000
O O14 0.500000 0.500000 0.000000
#
# Coordination Sequence:
#
# PCOD9095167 Si02
#       6
#     2   2   2   2   2   2
#     4   9  18  37  55  80 109 149 185 229 283 334
#     4   9  21  38  60  81 115 150 186 234 286 335
#     4   9  18  34  58  76 111 147 184 229 281 338
#     4  10  20  35  55  84 110 146 185 233 285 336
#     4   9  20  36  58  85 111 148 189 237 282 335
#     4  10  20  39  61  79 114 153 189 232 284 336
#
# _framework density 21.954844999999999
#
# number of rings (size 3 to 8) (size 9 to 14) (size 15 to 20)
#    1.000    1.667    0.000    1.500    0.000    1.333 
#    3.000    3.333    0.000    0.000    0.000    0.000 
#    0.000    0.000    0.000    0.000    0.000    0.000 
#
# Total GULP energy -66865.625416 kJ/mol
# GULP energy per Si atom -5572.135451 kJ/mol
# Density = 2.190487 g / cm^3
# Si number density = 21.954845 Si / 1000 Ang^3
#
#
#
# Elastic Constant Matrix: (Units=GPa)
#
#
# Indices 1 2 3 4 5 6 
#
# 1 89.1144 48.6226 27.9339 0.1781 -22.2340 22.5792
# 2 48.6226 155.0248 56.0735 27.8042 -19.2168 17.9242
# 3 27.9339 56.0735 131.2089 18.1799 -29.6046 12.5790
# 4 0.1781 27.8042 18.1799 41.3899 -1.4946 4.8481
# 5 -22.2340 -19.2168 -29.6046 -1.4946 35.8354 -11.1827
# 6 22.5792 17.9242 12.5790 4.8481 -11.1827 27.3260
#
#
#
# Elastic Compliance Matrix: (Units=1/GPa)
#
#
# Indices 1 2 3 4 5 6 
#
# 1 0.017581 -0.004352 -0.000313 0.004363 0.005341 -0.010117
# 2 -0.004352 0.009743 -0.002402 -0.005386 0.000099 -0.000693
# 3 -0.000313 -0.002402 0.010745 -0.002888 0.007409 0.000432
# 4 0.004363 -0.005386 -0.002888 0.029530 -0.002955 -0.005191
# 5 0.005341 0.000099 0.007409 -0.002955 0.040092 0.009042
# 6 -0.010117 -0.000693 0.000432 -0.005191 0.009042 0.049832
#
#
# Mechanical properties :
#
#
# Convention : Reuss Voigt Hill
#
# Bulk Modulus (GPa) = 41.77835 71.17867 56.47851
# Shear Modulus (GPa) = 27.83439 37.09148 32.46294
#
# Velocity S-wave (km/s) = 3.56448 4.11474 3.84946
# Velocity P-wave (km/s) = 6.00094 7.42063 6.74822
#
# Compressibility (1/GPa) = 0.02393584
#
# Stress axis : x y z
#
# Youngs Moduli (GPa) = 56.87865 102.63968 93.06733
#
# Poissons Ratio (x) = 0.44667 0.02910
# Poissons Ratio (y) = 0.24753 0.22356
# Poissons Ratio (z) = 0.01778 0.24655
#
# Static dielectric constant tensor:
#      x y z
#    x 1.834240 0.019790 -0.005060 
#    y 0.019790 1.807520 -0.059140 
#    z -0.005060 -0.059140 1.895070 
# 
# From -- ./inp_files/28406.got.cif
#   From: 2010.05.17/outbox.cif.g08.bks.cpg/sg2_15_cif.got.tgz:28406.got - 2010.06.03 11:33:40.
