data_PCOD9095814
_publ_section_title
;
Structure prediction by ZEFSAII (Michael W. Deem and Ramdas Pophale) SiO2 
 PCOD9095814
Probable space group: P -1
;
_chemical_formula_sum "Si O2"
_cell_formula_units_Z 16
_cell_length_a 15.269948
_cell_length_b 8.994033
_cell_length_c 18.278879
_cell_angle_alpha 48.656946
_cell_angle_beta 156.565442
_cell_angle_gamma 133.596976
_cell_volume 719.647946
_symmetry_space_group_name_H-M "P -1"
_symmetry_group_IT_number 2
_symmetry_cell_setting 'triclinic'
loop_
_space_group_symop_operation_xyz
x,y,z
-x,-y,-z
loop_
_atom_site_type_symbol
_atom_site_label
_atom_site_fract_x
_atom_site_fract_y
_atom_site_fract_z
Si Si1 0.596919 0.894037 0.857419
Si Si2 0.725829 0.605350 0.570989
Si Si3 0.824541 0.316152 0.204300
Si Si4 0.228637 0.624644 0.177973
Si Si5 0.525683 0.491369 0.192209
Si Si6 0.792862 0.896108 0.320396
Si Si7 0.815344 0.628831 0.220256
Si Si8 0.143547 0.947429 0.448422
O O1 0.571408 0.756087 0.807903
O O2 0.743432 0.131456 0.887756
O O3 0.338988 0.911983 0.662424
O O4 0.693265 0.772004 0.033266
O O5 0.468298 0.575778 0.352668
O O6 0.766824 0.436068 0.713092
O O7 0.770922 0.815840 0.585961
O O8 0.923298 0.652557 0.646201
O O9 0.834916 0.441224 0.246200
O O10 0.670484 0.078136 0.170962
O O11 0.692729 0.423729 0.012514
O O12 0.000000 0.500000 0.000000
O O13 0.669660 0.653470 0.309405
O O14 0.674771 0.541814 0.214176
O O15 0.000000 0.000000 0.500000
O O16 0.911724 0.921273 0.324120
O O17 0.068033 0.770536 0.388127
#
# Coordination Sequence:
#
# PCOD9095814 Si02
#       8
#     2   2   2   2   2   2   2   2
#     4  10  20  35  60  87 107 152 205 232 285 355
#     4   9  20  40  59  89 119 142 193 252 295 341
#     4  10  20  38  55  87 119 154 193 243 288 337
#     4  10  20  39  67  86 111 151 196 246 303 356
#     4  10  22  38  56  82 124 168 188 233 288 340
#     4  10  22  33  53  85 118 155 197 238 281 337
#     4  10  21  36  60  82 125 164 191 226 286 347
#     4   9  20  36  56  84 117 152 192 239 285 350
#
# _framework density 22.233094000000001
#
# number of rings (size 3 to 8) (size 9 to 14) (size 15 to 20)
#    0.000    2.250    0.000    2.625    5.250    1.000 
#    6.750    2.500    0.000   15.750    0.000    0.000 
#    0.000    0.000    0.000    0.000    0.000    0.000 
#
# Total GULP energy -89107.836883 kJ/mol
# GULP energy per Si atom -5569.239805 kJ/mol
# Density = 2.218249 g / cm^3
# Si number density = 22.233094 Si / 1000 Ang^3
#
#
#
# Elastic Constant Matrix: (Units=GPa)
#
#
# Indices 1 2 3 4 5 6 
#
# 1 54.2806 33.4202 19.4507 2.7238 -2.3708 -5.5819
# 2 33.4202 189.8859 52.7289 17.1607 -9.7191 -13.6457
# 3 19.4507 52.7289 96.7481 22.7514 2.3948 -6.3481
# 4 2.7238 17.1607 22.7514 44.9312 -0.9282 -6.0155
# 5 -2.3708 -9.7191 2.3948 -0.9282 21.4083 -0.7979
# 6 -5.5819 -13.6457 -6.3481 -6.0155 -0.7979 23.2474
#
#
#
# Elastic Compliance Matrix: (Units=1/GPa)
#
#
# Indices 1 2 3 4 5 6 
#
# 1 0.021550 -0.002787 -0.003060 0.001773 0.001660 0.003219
# 2 -0.002787 0.007004 -0.003039 -0.000554 0.003283 0.002582
# 3 -0.003060 -0.003039 0.014059 -0.005890 -0.003559 -0.000326
# 4 0.001773 -0.000554 -0.005890 0.026094 0.001933 0.005311
# 5 0.001660 0.003283 -0.003559 0.001933 0.048999 0.003536
# 6 0.003219 0.002582 -0.000326 0.005311 0.003536 0.046710
#
#
# Mechanical properties :
#
#
# Convention : Reuss Voigt Hill
#
# Bulk Modulus (GPa) = 40.25530 61.34604 50.80067
# Shear Modulus (GPa) = 26.25095 33.60504 29.92799
#
# Velocity S-wave (km/s) = 3.43988 3.89200 3.67291
# Velocity P-wave (km/s) = 5.82429 6.91730 6.39419
#
# Compressibility (1/GPa) = 0.02484145
#
# Stress axis : x y z
#
# Youngs Moduli (GPa) = 46.40405 142.76975 71.12688
#
# Poissons Ratio (x) = 0.39789 0.21768
# Poissons Ratio (y) = 0.12932 0.21613
# Poissons Ratio (z) = 0.14202 0.43384
#
# Static dielectric constant tensor:
#      x y z
#    x 1.835020 -0.003760 -0.014400 
#    y -0.003760 1.966360 -0.024240 
#    z -0.014400 -0.024240 1.950190 
# 
# From -- ./inp_files/599735.got.cif
#   From: 2010.05.17/outbox.cif.g08.bks.cpg/sg2_300_cif.got.tgz:599735.got - 2010.06.03 11:33:40.
