data_PCOD9095332
_publ_section_title
;
Structure prediction by ZEFSAII (Michael W. Deem and Ramdas Pophale) SiO2 
 PCOD9095332
Probable space group: P -1
;
_chemical_formula_sum "Si O2"
_cell_formula_units_Z 12
_cell_length_a 11.748541
_cell_length_b 6.965729
_cell_length_c 13.072332
_cell_angle_alpha 99.814566
_cell_angle_beta 31.025112
_cell_angle_gamma 113.183767
_cell_volume 474.373879
_symmetry_space_group_name_H-M "P -1"
_symmetry_group_IT_number 2
_symmetry_cell_setting 'triclinic'
loop_
_space_group_symop_operation_xyz
x,y,z
-x,-y,-z
loop_
_atom_site_type_symbol
_atom_site_label
_atom_site_fract_x
_atom_site_fract_y
_atom_site_fract_z
Si Si1 0.065244 0.766159 0.097372
Si Si2 0.104497 0.259356 0.562620
Si Si3 0.669285 0.588065 0.224812
Si Si4 0.039289 0.765094 0.551535
Si Si5 0.020507 0.212692 0.186450
Si Si6 0.503767 0.940573 0.333616
O O1 0.058947 0.716689 0.217701
O O2 0.803714 0.597580 0.228431
O O3 0.080656 0.010254 0.112184
O O4 0.293090 0.821806 0.847696
O O5 0.391378 0.397608 0.393131
O O6 0.057047 0.331263 0.494547
O O7 0.051530 0.007249 0.568037
O O8 0.636630 0.809434 0.265635
O O9 0.862108 0.629042 0.986388
O O10 0.884915 0.661349 0.765757
O O11 0.323972 0.816220 0.362258
O O12 0.716718 0.092712 0.421364
#
# Coordination Sequence:
#
# PCOD9095332 Si02
#       6
#     2   2   2   2   2   2
#     4  10  20  35  57  80 112 147 171 215 277 323
#     4  10  20  38  54  81 114 139 178 224 269 322
#     4  11  21  33  58  85 110 136 178 231 266 306
#     4   8  19  39  59  74 104 153 179 212 277 316
#     4   8  18  37  55  81 103 142 180 220 262 315
#     4   9  19  38  57  83  99 147 188 212 267 318
#
# _framework density 25.296503000000001
#
# number of rings (size 3 to 8) (size 9 to 14) (size 15 to 20)
#    1.000    1.667    0.000    2.500    0.000    4.667 
#    3.000    0.833    0.000    0.000    0.000    0.000 
#    0.000    0.000    0.000    0.000    0.000    0.000 
#
# Total GULP energy -66996.114358 kJ/mol
# GULP energy per Si atom -5583.009530 kJ/mol
# Density = 2.523893 g / cm^3
# Si number density = 25.296503 Si / 1000 Ang^3
#
#
#
# Elastic Constant Matrix: (Units=GPa)
#
#
# Indices 1 2 3 4 5 6 
#
# 1 79.3253 22.2796 -6.9080 15.1285 16.9507 -2.0881
# 2 22.2796 70.7698 16.5197 5.2546 17.0449 9.8486
# 3 -6.9080 16.5197 115.0210 10.6039 13.2915 1.0206
# 4 15.1285 5.2546 10.6039 26.6911 4.6642 7.9683
# 5 16.9507 17.0449 13.2915 4.6642 37.1949 3.9226
# 6 -2.0881 9.8486 1.0206 7.9683 3.9226 29.6937
#
#
#
# Elastic Compliance Matrix: (Units=1/GPa)
#
#
# Indices 1 2 3 4 5 6 
#
# 1 0.018110 -0.005061 0.003570 -0.011583 -0.006474 0.006793
# 2 -0.005061 0.018154 -0.002585 0.003095 -0.004793 -0.006486
# 3 0.003570 -0.002585 0.010210 -0.005763 -0.003662 0.002788
# 4 -0.011583 0.003095 -0.005763 0.050041 0.001252 -0.015237
# 5 -0.006474 -0.004793 -0.003662 0.001252 0.033554 -0.003508
# 6 0.006793 -0.006486 0.002788 -0.015237 -0.003508 0.040762
#
#
# Mechanical properties :
#
#
# Convention : Reuss Voigt Hill
#
# Bulk Modulus (GPa) = 26.09471 36.54430 31.31950
# Shear Modulus (GPa) = 26.07466 34.26428 30.16947
#
# Velocity S-wave (km/s) = 3.21403 3.68435 3.45720
# Velocity P-wave (km/s) = 4.91032 5.70763 5.32392
#
# Compressibility (1/GPa) = 0.03832194
#
# Stress axis : x y z
#
# Youngs Moduli (GPa) = 55.21847 55.08351 97.94775
#
# Poissons Ratio (x) = 0.27877 -0.34969
# Poissons Ratio (y) = 0.27945 0.25322
# Poissons Ratio (z) = -0.19714 0.14240
#
# Static dielectric constant tensor:
#      x y z
#    x 2.001210 -0.048360 0.031810 
#    y -0.048360 2.058420 0.036920 
#    z 0.031810 0.036920 2.034080 
# 
# From -- ./inp_files/155382.got.cif
#   From: 2010.05.17/outbox.cif.g08.bks.cpg/sg2_78_cif.got.tgz:155382.got - 2010.06.03 11:33:40.
