data_PCOD9095930
_publ_section_title
;
Structure prediction by ZEFSAII (Michael W. Deem and Ramdas Pophale) SiO2 
 PCOD9095930
Probable space group: P -1
;
_chemical_formula_sum "Si O2"
_cell_formula_units_Z 16
_cell_length_a 8.338329
_cell_length_b 12.139326
_cell_length_c 11.027135
_cell_angle_alpha 88.645728
_cell_angle_beta 95.423016
_cell_angle_gamma 34.749839
_cell_volume 623.200105
_symmetry_space_group_name_H-M "P -1"
_symmetry_group_IT_number 2
_symmetry_cell_setting 'triclinic'
loop_
_space_group_symop_operation_xyz
x,y,z
-x,-y,-z
loop_
_atom_site_type_symbol
_atom_site_label
_atom_site_fract_x
_atom_site_fract_y
_atom_site_fract_z
Si Si1 0.231103 0.238394 0.674737
Si Si2 0.967105 0.411847 0.276272
Si Si3 0.187612 0.026939 0.747858
Si Si4 0.543336 0.139006 0.477461
Si Si5 0.447260 0.212526 0.993768
Si Si6 0.228281 0.787155 0.086236
Si Si7 0.073761 0.238158 0.037177
Si Si8 0.657852 0.518065 0.470611
O O1 0.492398 0.097642 0.598888
O O2 0.182588 0.381654 0.733929
O O3 0.945555 0.379360 0.571438
O O4 0.237788 0.129315 0.764004
O O5 0.261061 0.272008 0.373916
O O6 0.047260 0.293341 0.170535
O O7 0.761201 0.453748 0.342593
O O8 0.213881 0.000376 0.605573
O O9 0.436308 0.834822 0.857362
O O10 0.892088 0.155440 0.786510
O O11 0.532569 0.267849 0.523508
O O12 0.485194 0.308955 0.927364
O O13 0.670122 0.996982 0.956887
O O14 0.154523 0.308571 0.977721
O O15 0.189505 0.686293 0.033223
O O16 0.000000 0.000000 0.000000
O O17 0.500000 0.500000 0.500000
#
# Coordination Sequence:
#
# PCOD9095930 Si02
#       8
#     2   2   2   2   2   2   2   2
#     4   9  19  32  49  72 102 127 161 209 244 296
#     4   9  17  32  50  72  93 131 170 197 242 302
#     4  10  16  30  53  73 100 129 158 205 262 280
#     4   9  17  31  52  73  92 133 166 196 240 304
#     4   9  18  30  50  78 101 129 168 211 241 296
#     4   8  18  30  47  78 102 127 167 209 241 298
#     4   9  15  30  52  72  97 128 173 200 244 291
#     4   9  19  33  50  69 100 129 170 201 241 300
#
# _framework density 25.673936000000001
#
# number of rings (size 3 to 8) (size 9 to 14) (size 15 to 20)
#    0.000    3.250    1.250    1.875    0.000    3.000 
#    0.000    3.125   27.500    0.750    0.000    0.000 
#    0.000    0.000    0.000    0.000    0.000    0.000 
#
# Total GULP energy -89338.496860 kJ/mol
# GULP energy per Si atom -5583.656054 kJ/mol
# Density = 2.561550 g / cm^3
# Si number density = 25.673936 Si / 1000 Ang^3
#
#
#
# Elastic Constant Matrix: (Units=GPa)
#
#
# Indices 1 2 3 4 5 6 
#
# 1 204.3749 26.1106 80.8420 7.8203 -43.5046 29.0806
# 2 26.1106 61.5269 25.3070 8.6909 -8.2180 18.1508
# 3 80.8420 25.3070 149.8382 26.4089 -30.7301 19.8240
# 4 7.8203 8.6909 26.4089 33.9240 9.0091 3.5044
# 5 -43.5046 -8.2180 -30.7301 9.0091 56.8354 -11.9346
# 6 29.0806 18.1508 19.8240 3.5044 -11.9346 28.8643
#
#
#
# Elastic Compliance Matrix: (Units=1/GPa)
#
#
# Indices 1 2 3 4 5 6 
#
# 1 0.007235 -0.000407 -0.002676 0.000069 0.003207 -0.003878
# 2 -0.000407 0.020735 -0.001190 -0.003160 0.000158 -0.011362
# 3 -0.002676 -0.001190 0.011028 -0.008870 0.004936 -0.001012
# 4 0.000069 -0.003160 -0.008870 0.040565 -0.012027 -0.001888
# 5 0.003207 0.000158 0.004936 -0.012027 0.025781 0.005399
# 6 -0.003878 -0.011362 -0.001012 -0.001888 0.005399 0.048854
#
#
# Mechanical properties :
#
#
# Convention : Reuss Voigt Hill
#
# Bulk Modulus (GPa) = 32.83820 75.58433 54.21126
# Shear Modulus (GPa) = 28.91929 42.82343 35.87136
#
# Velocity S-wave (km/s) = 3.35984 4.08851 3.74196
# Velocity P-wave (km/s) = 5.27917 7.19666 6.31116
#
# Compressibility (1/GPa) = 0.03045234
#
# Stress axis : x y z
#
# Youngs Moduli (GPa) = 138.20782 48.22847 90.67751
#
# Poissons Ratio (x) = 0.01963 0.24267
# Poissons Ratio (y) = 0.05626 0.10787
# Poissons Ratio (z) = 0.36988 0.05737
#
# Static dielectric constant tensor:
#      x y z
#    x 2.047680 -0.090800 -0.001100 
#    y -0.090800 2.061890 -0.029100 
#    z -0.001100 -0.029100 2.092690 
# 
# From -- ./inp_files/390200.got.cif
#   From: 2010.05.17/outbox.cif.g08.bks.cpg/sg2_196_cif.got.tgz:390200.got - 2010.06.03 11:33:40.
