data_PCOD9095752
_publ_section_title
;
Structure prediction by ZEFSAII (Michael W. Deem and Ramdas Pophale) SiO2 
 PCOD9095752
Probable space group: P -1
;
_chemical_formula_sum "Si O2"
_cell_formula_units_Z 16
_cell_length_a 11.954127
_cell_length_b 11.231360
_cell_length_c 16.337222
_cell_angle_alpha 145.636002
_cell_angle_beta 49.643304
_cell_angle_gamma 142.370224
_cell_volume 755.802632
_symmetry_space_group_name_H-M "P -1"
_symmetry_group_IT_number 2
_symmetry_cell_setting 'triclinic'
loop_
_space_group_symop_operation_xyz
x,y,z
-x,-y,-z
loop_
_atom_site_type_symbol
_atom_site_label
_atom_site_fract_x
_atom_site_fract_y
_atom_site_fract_z
Si Si1 0.935790 0.675094 0.661472
Si Si2 0.414126 0.802494 0.684929
Si Si3 0.605883 0.545349 0.851610
Si Si4 0.463334 0.726348 0.886645
Si Si5 0.735517 0.905910 0.144192
Si Si6 0.187173 0.954770 0.366576
Si Si7 0.201700 0.397296 0.697529
Si Si8 0.740286 0.703470 0.632166
O O1 0.739133 0.526754 0.717675
O O2 0.910416 0.788678 0.655821
O O3 0.000000 0.500000 0.500000
O O4 0.081873 0.906032 0.783763
O O5 0.631558 0.028843 0.706235
O O6 0.355215 0.634206 0.700584
O O7 0.358055 0.590196 0.520611
O O8 0.300505 0.912158 0.785583
O O9 0.519628 0.678851 0.921449
O O10 0.431940 0.270336 0.812981
O O11 0.721481 0.714127 0.972814
O O12 0.259348 0.499469 0.820637
O O13 0.598638 0.708297 0.756021
O O14 0.500000 0.000000 0.000000
O O15 0.193055 0.137835 0.538503
O O16 0.206214 0.111872 0.365350
O O17 0.990104 0.680536 0.292162
#
# Coordination Sequence:
#
# PCOD9095752 Si02
#       8
#     2   2   2   2   2   2   2   2
#     4  11  23  43  67  99 129 171 217 271 324 380
#     4  11  19  39  64  91 131 164 208 263 325 385
#     4  10  26  44  65  96 131 175 222 263 321 392
#     4  11  21  40  65  88 129 171 210 262 327 379
#     4  11  24  45  68  91 132 180 215 265 324 389
#     4  10  20  35  61  93 126 157 205 266 325 375
#     4  10  20  35  59  92 122 165 201 263 324 374
#     4  10  20  39  60  94 131 160 208 273 319 377
#
# _framework density 21.169547000000001
#
# number of rings (size 3 to 8) (size 9 to 14) (size 15 to 20)
#    0.000    1.500    3.750    1.875    1.750    1.500 
#    2.250    5.625    0.000    0.000    0.000    0.000 
#    0.000    0.000    0.000    0.000    0.000    0.000 
#
# Total GULP energy -89265.508354 kJ/mol
# GULP energy per Si atom -5579.094272 kJ/mol
# Density = 2.112136 g / cm^3
# Si number density = 21.169547 Si / 1000 Ang^3
#
#
#
# Elastic Constant Matrix: (Units=GPa)
#
#
# Indices 1 2 3 4 5 6 
#
# 1 116.3322 7.8505 16.1993 11.3726 24.9804 16.4343
# 2 7.8505 60.4527 14.6958 -2.6735 8.1605 11.5231
# 3 16.1993 14.6958 47.7116 -0.8015 12.0052 -0.3288
# 4 11.3726 -2.6735 -0.8015 20.9741 3.8287 3.2205
# 5 24.9804 8.1605 12.0052 3.8287 35.2017 3.1452
# 6 16.4343 11.5231 -0.3288 3.2205 3.1452 29.8032
#
#
#
# Elastic Compliance Matrix: (Units=1/GPa)
#
#
# Indices 1 2 3 4 5 6 
#
# 1 0.011500 0.000911 -0.002655 -0.004174 -0.006514 -0.005585
# 2 0.000911 0.019970 -0.005707 0.003662 -0.002981 -0.008368
# 3 -0.002655 -0.005707 0.025194 0.002102 -0.006003 0.004355
# 4 -0.004174 0.003662 0.002102 0.051851 -0.003860 -0.004287
# 5 -0.006514 -0.002981 -0.006003 -0.003860 0.036073 0.001288
# 6 -0.005585 -0.008368 0.004355 -0.004287 0.001288 0.040243
#
#
# Mechanical properties :
#
#
# Convention : Reuss Voigt Hill
#
# Bulk Modulus (GPa) = 23.94422 33.55419 28.74920
# Shear Modulus (GPa) = 23.40233 29.57919 26.49076
#
# Velocity S-wave (km/s) = 3.32847 3.74204 3.54130
# Velocity P-wave (km/s) = 5.10949 5.87836 5.50736
#
# Compressibility (1/GPa) = 0.04176374
#
# Stress axis : x y z
#
# Youngs Moduli (GPa) = 86.95667 50.07474 39.69169
#
# Poissons Ratio (x) = -0.04562 0.10537
# Poissons Ratio (y) = -0.07923 0.22650
# Poissons Ratio (z) = 0.23085 0.28576
#
# Static dielectric constant tensor:
#      x y z
#    x 1.695620 -0.027840 -0.103890 
#    y -0.027840 1.755520 -0.081000 
#    z -0.103890 -0.081000 1.645930 
# 
# From -- ./inp_files/568983.got.cif
#   From: 2010.05.17/outbox.cif.g08.bks.cpg/sg2_285_cif.got.tgz:568983.got - 2010.06.03 11:33:40.
