data_PCOD9095193
_publ_section_title
;
Structure prediction by ZEFSAII (Michael W. Deem and Ramdas Pophale) SiO2 
 PCOD9095193
Probable space group: P -1
;
_chemical_formula_sum "Si O2"
_cell_formula_units_Z 16
_cell_length_a 12.413883
_cell_length_b 14.321707
_cell_length_c 10.628708
_cell_angle_alpha 59.251617
_cell_angle_beta 145.302833
_cell_angle_gamma 97.326879
_cell_volume 740.561870
_symmetry_space_group_name_H-M "P -1"
_symmetry_group_IT_number 2
_symmetry_cell_setting 'triclinic'
loop_
_space_group_symop_operation_xyz
x,y,z
-x,-y,-z
loop_
_atom_site_type_symbol
_atom_site_label
_atom_site_fract_x
_atom_site_fract_y
_atom_site_fract_z
Si Si1 0.024903 0.893983 0.774481
Si Si2 0.636885 0.750448 0.294024
Si Si3 0.786947 0.495142 0.751894
Si Si4 0.009640 0.109870 0.855027
Si Si5 0.116505 0.224828 0.101250
Si Si6 0.572580 0.119907 0.737534
Si Si7 0.846516 0.333400 0.140760
Si Si8 0.715850 0.199100 0.278659
O O1 0.843682 0.895715 0.690482
O O2 0.075264 0.797144 0.776920
O O3 0.928199 0.045199 0.544008
O O4 0.263691 0.830080 0.126491
O O5 0.627359 0.632973 0.427105
O O6 0.523542 0.861765 0.223044
O O7 0.906618 0.692494 0.572396
O O8 0.502020 0.786589 0.007793
O O9 0.000000 0.500000 0.000000
O O10 0.906993 0.365728 0.865368
O O11 0.703191 0.461521 0.820347
O O12 0.774268 0.188823 0.489134
O O13 0.047224 0.200376 0.918032
O O14 0.240467 0.027915 0.041423
O O15 0.000000 0.000000 0.000000
O O16 0.357057 0.206889 0.373547
O O17 0.726858 0.317626 0.154468
#
# Coordination Sequence:
#
# PCOD9095193 Si02
#       8
#     2   2   2   2   2   2   2   2
#     4  10  20  35  55  88 123 151 187 254 293 356
#     4  11  22  38  61  95 118 154 199 245 306 350
#     4   9  19  39  64  88 121 150 199 256 284 354
#     4  11  24  42  57  84 129 160 202 243 284 365
#     4  11  20  42  62  85 120 163 199 241 297 350
#     4  11  20  35  65  87 116 156 197 239 312 348
#     4  10  20  36  57  89 124 149 193 247 306 342
#     4  11  23  36  57  86 127 155 192 250 299 354
#
# _framework density 21.605215999999999
#
# number of rings (size 3 to 8) (size 9 to 14) (size 15 to 20)
#    0.000    1.500    7.500    0.750    1.750    3.000 
#    2.250    0.625    0.000    3.000    0.000    0.000 
#    0.000    0.000    0.000    0.000    0.000    0.000 
#
# Total GULP energy -89127.267477 kJ/mol
# GULP energy per Si atom -5570.454217 kJ/mol
# Density = 2.155604 g / cm^3
# Si number density = 21.605216 Si / 1000 Ang^3
#
#
#
# Elastic Constant Matrix: (Units=GPa)
#
#
# Indices 1 2 3 4 5 6 
#
# 1 31.8593 16.6704 20.2169 6.8206 -13.9412 2.6078
# 2 16.6704 97.2936 42.8245 23.6725 -13.4847 -8.4968
# 3 20.2169 42.8245 110.9312 36.5774 -18.5098 -9.4572
# 4 6.8206 23.6725 36.5774 40.3687 -4.6125 -6.4067
# 5 -13.9412 -13.4847 -18.5098 -4.6125 33.9519 1.1018
# 6 2.6078 -8.4968 -9.4572 -6.4067 1.1018 31.3939
#
#
#
# Elastic Compliance Matrix: (Units=1/GPa)
#
#
# Indices 1 2 3 4 5 6 
#
# 1 0.042926 -0.003977 -0.004418 -0.000378 0.013799 -0.006534
# 2 -0.003977 0.013607 -0.002605 -0.004394 0.001680 0.002273
# 3 -0.004418 -0.002605 0.015177 -0.010729 0.003906 0.001907
# 4 -0.000378 -0.004394 -0.010729 0.037344 -0.002784 0.003329
# 5 0.013799 0.001680 0.003906 -0.002784 0.037584 -0.001402
# 6 -0.006534 0.002273 0.001907 0.003329 -0.001402 0.034314
#
#
# Mechanical properties :
#
#
# Convention : Reuss Voigt Hill
#
# Bulk Modulus (GPa) = 20.11620 44.38974 32.25297
# Shear Modulus (GPa) = 22.77676 31.83439 27.30558
#
# Velocity S-wave (km/s) = 3.25041 3.84273 3.55891
# Velocity P-wave (km/s) = 4.83920 6.34659 5.64345
#
# Compressibility (1/GPa) = 0.04971119
#
# Stress axis : x y z
#
# Youngs Moduli (GPa) = 23.29570 73.49346 65.88713
#
# Poissons Ratio (x) = 0.29226 0.29109
# Poissons Ratio (y) = 0.09264 0.17164
# Poissons Ratio (z) = 0.10292 0.19146
#
# Static dielectric constant tensor:
#      x y z
#    x 1.859640 0.015400 -0.009610 
#    y 0.015400 1.790460 0.012520 
#    z -0.009610 0.012520 1.857020 
# 
# From -- ./inp_files/453739.got.cif
#   From: 2010.05.17/outbox.cif.g08.bks.cpg/sg2_227_cif.got.tgz:453739.got - 2010.06.03 11:33:40.
