data_PCOD9095069
_publ_section_title
;
Structure prediction by ZEFSAII (Michael W. Deem and Ramdas Pophale) SiO2 
 PCOD9095069
Probable space group: P -1
;
_chemical_formula_sum "Si O2"
_cell_formula_units_Z 16
_cell_length_a 12.804926
_cell_length_b 8.217863
_cell_length_c 15.146751
_cell_angle_alpha 93.122529
_cell_angle_beta 141.865432
_cell_angle_gamma 113.188563
_cell_volume 693.960361
_symmetry_space_group_name_H-M "P -1"
_symmetry_group_IT_number 2
_symmetry_cell_setting 'triclinic'
loop_
_space_group_symop_operation_xyz
x,y,z
-x,-y,-z
loop_
_atom_site_type_symbol
_atom_site_label
_atom_site_fract_x
_atom_site_fract_y
_atom_site_fract_z
Si Si1 0.834128 0.776379 0.255252
Si Si2 0.178101 0.709978 0.254115
Si Si3 0.156434 0.264163 0.542789
Si Si4 0.363008 0.174652 0.392177
Si Si5 0.640072 0.063616 0.231751
Si Si6 0.473677 0.482824 0.333845
Si Si7 0.405390 0.690109 0.914492
Si Si8 0.315178 0.708239 0.150006
O O1 0.739147 0.715242 0.292596
O O2 0.819626 0.576892 0.218429
O O3 0.641633 0.738900 0.067505
O O4 0.073522 0.043008 0.429965
O O5 0.377257 0.739236 0.437978
O O6 0.260913 0.760759 0.207522
O O7 0.186495 0.906001 0.290567
O O8 0.919313 0.451376 0.072379
O O9 0.339835 0.475160 0.606598
O O10 0.910799 0.188921 0.399013
O O11 0.315154 0.242574 0.272993
O O12 0.389039 0.324613 0.491504
O O13 0.633955 0.245034 0.201259
O O14 0.533541 0.941026 0.251022
O O15 0.470361 0.856155 0.041426
O O16 0.353624 0.545131 0.198644
#
# Coordination Sequence:
#
# PCOD9095069 Si02
#       8
#     2   2   2   2   2   2   2   2
#     4   9  18  34  52  73 105 143 180 217 260 313
#     4   9  20  38  58  81 107 138 177 225 275 321
#     4  10  20  35  54  78 111 146 180 218 262 315
#     4   9  20  38  58  81 107 137 179 225 272 321
#     4  10  21  36  53  79 113 146 179 217 264 320
#     4  10  20  36  57  80 108 143 180 221 267 318
#     4   9  19  34  51  74 106 142 180 219 261 311
#     4  10  20  36  57  80 109 141 177 222 271 320
#
# _framework density 23.056070999999999
#
# number of rings (size 3 to 8) (size 9 to 14) (size 15 to 20)
#    0.000    2.500    0.000    2.250    0.000    6.000 
#    0.000    5.000    0.000    0.000    0.000    0.000 
#    0.000    0.000    0.000    0.000    0.000    0.000 
#
# Total GULP energy -89297.078396 kJ/mol
# GULP energy per Si atom -5581.067400 kJ/mol
# Density = 2.300359 g / cm^3
# Si number density = 23.056071 Si / 1000 Ang^3
#
#
#
# Elastic Constant Matrix: (Units=GPa)
#
#
# Indices 1 2 3 4 5 6 
#
# 1 46.3777 14.5396 1.2512 1.8592 9.5924 6.4310
# 2 14.5396 104.5806 4.7345 -22.3026 8.8782 1.5582
# 3 1.2512 4.7345 60.2530 -10.0461 -2.6634 -4.6495
# 4 1.8592 -22.3026 -10.0461 23.0315 -3.6242 -5.7991
# 5 9.5924 8.8782 -2.6634 -3.6242 20.2739 10.8103
# 6 6.4310 1.5582 -4.6495 -5.7991 10.8103 23.7317
#
#
#
# Elastic Compliance Matrix: (Units=1/GPa)
#
#
# Indices 1 2 3 4 5 6 
#
# 1 0.026465 -0.005045 -0.002901 -0.011256 -0.009627 -0.005774
# 2 -0.005045 0.013741 0.001941 0.015557 -0.004058 0.006495
# 3 -0.002901 0.001941 0.019166 0.012422 0.001703 0.006673
# 4 -0.011256 0.015557 0.012422 0.070327 0.001551 0.020941
# 5 -0.009627 -0.004058 0.001703 0.001551 0.071646 -0.029049
# 6 -0.005774 0.006495 0.006673 0.020941 -0.029049 0.062933
#
#
# Mechanical properties :
#
#
# Convention : Reuss Voigt Hill
#
# Bulk Modulus (GPa) = 21.11456 28.02908 24.57182
# Shear Modulus (GPa) = 17.11888 26.11981 21.61934
#
# Velocity S-wave (km/s) = 2.72782 3.36948 3.06549
# Velocity P-wave (km/s) = 4.37026 5.22697 4.81769
#
# Compressibility (1/GPa) = 0.04736069
#
# Stress axis : x y z
#
# Youngs Moduli (GPa) = 37.78573 72.77594 52.17650
#
# Poissons Ratio (x) = 0.36717 0.15136
# Poissons Ratio (y) = 0.19063 -0.10126
# Poissons Ratio (z) = 0.10961 -0.14123
#
# Static dielectric constant tensor:
#      x y z
#    x 1.892190 -0.053240 -0.012960 
#    y -0.053240 1.908590 0.003950 
#    z -0.012960 0.003950 1.872390 
# 
# From -- ./inp_files/572656.got.cif
#   From: 2010.05.17/outbox.cif.g08.bks.cpg/sg2_287_cif.got.tgz:572656.got - 2010.06.03 11:33:40.
