data_PCOD9095852
_publ_section_title
;
Structure prediction by ZEFSAII (Michael W. Deem and Ramdas Pophale) SiO2 
 PCOD9095852
Probable space group: P -1
;
_chemical_formula_sum "Si O2"
_cell_formula_units_Z 16
_cell_length_a 8.049602
_cell_length_b 11.360252
_cell_length_c 12.586671
_cell_angle_alpha 100.055140
_cell_angle_beta 39.038055
_cell_angle_gamma 117.844957
_cell_volume 603.291067
_symmetry_space_group_name_H-M "P -1"
_symmetry_group_IT_number 2
_symmetry_cell_setting 'triclinic'
loop_
_space_group_symop_operation_xyz
x,y,z
-x,-y,-z
loop_
_atom_site_type_symbol
_atom_site_label
_atom_site_fract_x
_atom_site_fract_y
_atom_site_fract_z
Si Si1 0.258749 0.223849 0.620052
Si Si2 0.811508 0.726775 0.820631
Si Si3 0.077985 0.021430 0.087520
Si Si4 0.694542 0.455665 0.775635
Si Si5 0.379052 0.718146 0.853370
Si Si6 0.329381 0.040376 0.397911
Si Si7 0.676343 0.544573 0.244679
Si Si8 0.240855 0.793714 0.296504
O O1 0.067437 0.122035 0.798221
O O2 0.031329 0.222233 0.643367
O O3 0.387692 0.134978 0.486542
O O4 0.431054 0.383134 0.605354
O O5 0.921641 0.620828 0.716911
O O6 0.658456 0.756663 0.800919
O O7 0.024285 0.876015 0.795201
O O8 0.526641 0.627729 0.027275
O O9 0.453320 0.118022 0.915498
O O10 0.000000 0.000000 0.000000
O O11 0.469304 0.448814 0.793766
O O12 0.828713 0.359575 0.662679
O O13 0.421165 0.853111 0.795335
O O14 0.390303 0.613496 0.744129
O O15 0.052530 0.637022 0.063903
O O16 0.306853 0.892078 0.382388
O O17 0.000000 0.000000 0.500000
#
# Coordination Sequence:
#
# PCOD9095852 Si02
#       8
#     2   2   2   2   2   2   2   2
#     4  11  21  36  58  81 110 152 192 233 286 342
#     4   9  17  32  54  80 112 146 182 228 286 332
#     4  11  21  35  59  87 113 143 191 244 284 331
#     4   9  18  32  54  84 115 142 180 239 291 336
#     4  10  20  37  61  86 114 150 193 241 281 337
#     4  10  22  37  56  80 114 155 196 232 277 343
#     4  10  20  35  60  90 114 143 193 244 288 329
#     4  10  20  36  56  81 113 149 190 235 283 340
#
# _framework density 26.521196
#
# number of rings (size 3 to 8) (size 9 to 14) (size 15 to 20)
#    0.000    2.000    0.000    5.625    0.000    1.500 
#    0.000    2.500    0.000   24.750    0.000    0.000 
#    0.000    3.000    0.000    0.000    0.000    0.000 
#
# Total GULP energy -89561.222162 kJ/mol
# GULP energy per Si atom -5597.576385 kJ/mol
# Density = 2.646083 g / cm^3
# Si number density = 26.521196 Si / 1000 Ang^3
#
#
#
# Elastic Constant Matrix: (Units=GPa)
#
#
# Indices 1 2 3 4 5 6 
#
# 1 61.5733 43.9897 19.1021 4.3093 1.8459 -9.0045
# 2 43.9897 244.3828 26.5996 49.2522 19.3934 -13.3567
# 3 19.1021 26.5996 63.4890 12.4544 2.7377 -2.5270
# 4 4.3093 49.2522 12.4544 57.7742 -1.5995 5.9417
# 5 1.8459 19.3934 2.7377 -1.5995 27.8687 8.2279
# 6 -9.0045 -13.3567 -2.5270 5.9417 8.2279 39.7295
#
#
#
# Elastic Compliance Matrix: (Units=1/GPa)
#
#
# Indices 1 2 3 4 5 6 
#
# 1 0.020545 -0.003557 -0.005094 0.002360 0.000989 0.002579
# 2 -0.003557 0.006553 -0.000158 -0.005796 -0.005653 0.003424
# 3 -0.005094 -0.000158 0.018154 -0.003535 -0.001788 0.000846
# 4 0.002360 -0.005796 -0.003535 0.023741 0.007582 -0.006759
# 5 0.000989 -0.005653 -0.001788 0.007582 0.043910 -0.012018
# 6 0.002579 0.003424 0.000846 -0.006759 -0.012018 0.030459
#
#
# Mechanical properties :
#
#
# Convention : Reuss Voigt Hill
#
# Bulk Modulus (GPa) = 36.18834 60.98088 48.58461
# Shear Modulus (GPa) = 29.37867 43.72471 36.55169
#
# Velocity S-wave (km/s) = 3.33189 4.06479 3.71645
# Velocity P-wave (km/s) = 5.33635 6.71366 6.06423
#
# Compressibility (1/GPa) = 0.02763321
#
# Stress axis : x y z
#
# Youngs Moduli (GPa) = 48.67468 152.59607 55.08422
#
# Poissons Ratio (x) = 0.54275 0.28060
# Poissons Ratio (y) = 0.17313 0.00873
# Poissons Ratio (z) = 0.24795 0.02417
#
# Static dielectric constant tensor:
#      x y z
#    x 2.017090 -0.000280 -0.056610 
#    y -0.000280 2.110720 0.081860 
#    z -0.056610 0.081860 2.139070 
# 
# From -- ./inp_files/390349.got.cif
#   From: 2010.05.17/outbox.cif.g08.bks.cpg/sg2_196_cif.got.tgz:390349.got - 2010.06.03 11:33:40.
