data_PCOD9095401
_publ_section_title
;
Structure prediction by ZEFSAII (Michael W. Deem and Ramdas Pophale) SiO2 
 PCOD9095401
Probable space group: P -1
;
_chemical_formula_sum "Si O2"
_cell_formula_units_Z 16
_cell_length_a 11.923789
_cell_length_b 19.877112
_cell_length_c 13.723130
_cell_angle_alpha 150.356325
_cell_angle_beta 156.092858
_cell_angle_gamma 27.948534
_cell_volume 584.442088
_symmetry_space_group_name_H-M "P -1"
_symmetry_group_IT_number 2
_symmetry_cell_setting 'triclinic'
loop_
_space_group_symop_operation_xyz
x,y,z
-x,-y,-z
loop_
_atom_site_type_symbol
_atom_site_label
_atom_site_fract_x
_atom_site_fract_y
_atom_site_fract_z
Si Si1 0.265829 0.544735 0.239067
Si Si2 0.770469 0.273767 0.986550
Si Si3 0.227412 0.229530 0.557370
Si Si4 0.306163 0.496208 0.640301
Si Si5 0.313339 0.765629 0.752627
Si Si6 0.733804 0.993261 0.845134
Si Si7 0.694403 0.178803 0.590458
Si Si8 0.806996 0.853855 0.211579
O O1 0.383452 0.520027 0.190071
O O2 0.551095 0.414365 0.356984
O O3 0.086862 0.726245 0.338460
O O4 0.000000 0.500000 0.000000
O O5 0.512405 0.266575 0.845741
O O6 0.713286 0.246356 0.795573
O O7 0.753085 0.433594 0.209733
O O8 0.083341 0.130089 0.082801
O O9 0.384140 0.091434 0.431018
O O10 0.973223 0.377109 0.483982
O O11 0.044247 0.187418 0.443562
O O12 0.388140 0.317952 0.477425
O O13 0.528645 0.809126 0.905196
O O14 0.422964 0.840267 0.024172
O O15 0.000000 0.000000 0.000000
O O16 0.005585 0.146202 0.736653
O O17 0.693062 0.015252 0.378582
#
# Coordination Sequence:
#
# PCOD9095401 Si02
#       8
#     2   2   2   2   2   2   2   2
#     4   8  15  31  58  81 107 148 188 234 289 340
#     4  11  21  35  57  88 121 152 194 241 293 353
#     4   9  19  34  57  88 118 151 187 236 299 350
#     4   9  19  36  57  87 118 151 195 241 289 342
#     4   9  16  32  55  80 109 143 189 238 286 339
#     4   9  19  34  53  83 120 152 186 236 295 351
#     4  10  20  35  57  85 118 160 201 236 283 346
#     4   9  18  34  59  85 113 157 200 235 286 345
#
# _framework density 27.376533999999999
#
# number of rings (size 3 to 8) (size 9 to 14) (size 15 to 20)
#    0.000    2.750    0.000    1.875    0.000    2.500 
#    0.000    9.375    0.000   29.250    0.000    0.000 
#    0.000    0.000    0.000    0.000    0.000    0.000 
#
# Total GULP energy -89169.378767 kJ/mol
# GULP energy per Si atom -5573.086173 kJ/mol
# Density = 2.731422 g / cm^3
# Si number density = 27.376534 Si / 1000 Ang^3
#
#
#
# Elastic Constant Matrix: (Units=GPa)
#
#
# Indices 1 2 3 4 5 6 
#
# 1 91.6986 51.8489 27.3253 8.8412 13.4497 -23.9808
# 2 51.8489 210.8503 55.5015 25.7037 -10.4766 -24.2275
# 3 27.3253 55.5015 71.0556 25.8551 12.1732 -9.0104
# 4 8.8412 25.7037 25.8551 52.5905 -17.6538 3.4794
# 5 13.4497 -10.4766 12.1732 -17.6538 40.3253 4.2163
# 6 -23.9808 -24.2275 -9.0104 3.4794 4.2163 48.7719
#
#
#
# Elastic Compliance Matrix: (Units=1/GPa)
#
#
# Indices 1 2 3 4 5 6 
#
# 1 0.016486 -0.003177 0.000776 -0.005394 -0.009745 0.007898
# 2 -0.003177 0.007172 -0.005900 0.001730 0.005428 0.000318
# 3 0.000776 -0.005900 0.029113 -0.018404 -0.019244 0.005806
# 4 -0.005394 0.001730 -0.018404 0.037230 0.025151 -0.010023
# 5 -0.009745 0.005428 -0.019244 0.025151 0.047486 -0.011550
# 6 0.007898 0.000318 0.005806 -0.010023 -0.011550 0.027331
#
#
# Mechanical properties :
#
#
# Convention : Reuss Voigt Hill
#
# Bulk Modulus (GPa) = 27.64823 71.43954 49.54389
# Shear Modulus (GPa) = 25.84291 44.26613 35.05452
#
# Velocity S-wave (km/s) = 3.07576 4.02548 3.58223
# Velocity P-wave (km/s) = 4.76811 6.91070 5.93686
#
# Compressibility (1/GPa) = 0.03616868
#
# Stress axis : x y z
#
# Youngs Moduli (GPa) = 60.65933 139.42590 34.34869
#
# Poissons Ratio (x) = 0.44299 -0.02665
# Poissons Ratio (y) = 0.19273 0.20265
# Poissons Ratio (z) = -0.04706 0.82257
#
# Static dielectric constant tensor:
#      x y z
#    x 2.230010 0.025740 -0.003130 
#    y 0.025740 2.212970 0.045140 
#    z -0.003130 0.045140 2.218940 
# 
# From -- ./inp_files/524114.got.cif
#   From: 2010.05.17/outbox.cif.g08.bks.cpg/sg2_263_cif.got.tgz:524114.got - 2010.06.03 11:33:40.
