data_PCOD9095305
_publ_section_title
;
Structure prediction by ZEFSAII (Michael W. Deem and Ramdas Pophale) SiO2 
 PCOD9095305
Probable space group: P -1
;
_chemical_formula_sum "Si O2"
_cell_formula_units_Z 16
_cell_length_a 21.452636
_cell_length_b 5.077113
_cell_length_c 11.997085
_cell_angle_alpha 63.229161
_cell_angle_beta 138.153324
_cell_angle_gamma 111.735462
_cell_volume 776.979473
_symmetry_space_group_name_H-M "P -1"
_symmetry_group_IT_number 2
_symmetry_cell_setting 'triclinic'
loop_
_space_group_symop_operation_xyz
x,y,z
-x,-y,-z
loop_
_atom_site_type_symbol
_atom_site_label
_atom_site_fract_x
_atom_site_fract_y
_atom_site_fract_z
Si Si1 0.139075 0.537138 0.404167
Si Si2 0.279580 0.830082 0.357616
Si Si3 0.887207 0.543406 0.358046
Si Si4 0.126156 0.548768 0.051177
Si Si5 0.467407 0.683757 0.564843
Si Si6 0.814642 0.184068 0.130602
Si Si7 0.349909 0.467701 0.237179
Si Si8 0.046305 0.097736 0.188829
O O1 0.149700 0.468662 0.561326
O O2 0.107002 0.251610 0.342121
O O3 0.220713 0.732176 0.409334
O O4 0.054758 0.754788 0.257977
O O5 0.291264 0.159673 0.252994
O O6 0.223839 0.641409 0.223499
O O7 0.385721 0.731905 0.535489
O O8 0.836069 0.286319 0.264852
O O9 0.000000 0.500000 0.500000
O O10 0.852764 0.865006 0.214007
O O11 0.092690 0.235648 0.113490
O O12 0.127388 0.585715 0.915163
O O13 0.054548 0.779389 0.957768
O O14 0.409849 0.526780 0.417507
O O15 0.568118 0.555541 0.742862
O O16 0.500000 0.000000 0.500000
O O17 0.711509 0.266536 0.937612
#
# Coordination Sequence:
#
# PCOD9095305 Si02
#       8
#     2   2   2   2   2   2   2   2
#     4  11  23  40  57  81 118 166 214 243 292 348
#     4  10  20  35  60  89 125 153 196 247 309 379
#     4  12  26  42  59  83 120 173 217 250 285 335
#     4  10  20  35  56  90 118 150 194 247 320 351
#     4   9  19  36  59  94 127 148 180 244 321 393
#     4  12  23  38  63  85 121 156 205 255 290 360
#     4  10  20  36  62  96 121 151 191 244 328 365
#     4  10  22  36  57  83 121 156 194 257 299 363
#
# _framework density 20.592566000000001
#
# number of rings (size 3 to 8) (size 9 to 14) (size 15 to 20)
#    0.000    1.500    1.250    4.125    3.500    6.500 
#    0.000    0.000    0.000    1.500    0.000    0.000 
#    0.000    0.000    0.000    0.000    0.000    0.000 
#
# Total GULP energy -89127.963273 kJ/mol
# GULP energy per Si atom -5570.497705 kJ/mol
# Density = 2.054570 g / cm^3
# Si number density = 20.592566 Si / 1000 Ang^3
#
#
#
# Elastic Constant Matrix: (Units=GPa)
#
#
# Indices 1 2 3 4 5 6 
#
# 1 113.5726 18.7416 39.6763 -2.3751 13.0000 10.8274
# 2 18.7416 43.1590 17.7752 0.0579 8.3444 -9.3910
# 3 39.6763 17.7752 67.5395 -18.5582 17.6675 5.0355
# 4 -2.3751 0.0579 -18.5582 27.7104 -10.2630 4.0389
# 5 13.0000 8.3444 17.6675 -10.2630 52.2243 3.4926
# 6 10.8274 -9.3910 5.0355 4.0389 3.4926 25.3388
#
#
#
# Elastic Compliance Matrix: (Units=1/GPa)
#
#
# Indices 1 2 3 4 5 6 
#
# 1 0.012085 -0.003498 -0.006469 -0.002794 -0.000498 -0.004661
# 2 -0.003498 0.033845 -0.010228 -0.011631 -0.004604 0.018559
# 3 -0.006469 -0.010228 0.027572 0.018606 -0.001810 -0.009222
# 4 -0.002794 -0.011631 0.018606 0.053660 0.007905 -0.016457
# 5 -0.000498 -0.004604 -0.001810 0.007905 0.022541 -0.005501
# 6 -0.004661 0.018559 -0.009222 -0.016457 -0.005501 0.053549
#
#
# Mechanical properties :
#
#
# Convention : Reuss Voigt Hill
#
# Bulk Modulus (GPa) = 30.19960 41.85081 36.02520
# Shear Modulus (GPa) = 19.63259 30.92659 25.27959
#
# Velocity S-wave (km/s) = 3.09104 3.87955 3.50752
# Velocity P-wave (km/s) = 5.23799 6.35887 5.82545
#
# Compressibility (1/GPa) = 0.03311303
#
# Stress axis : x y z
#
# Youngs Moduli (GPa) = 82.74793 29.54607 36.26918
#
# Poissons Ratio (x) = 0.10334 0.23462
# Poissons Ratio (y) = 0.28942 0.37096
# Poissons Ratio (z) = 0.53528 0.30220
#
# Static dielectric constant tensor:
#      x y z
#    x 1.865780 -0.067260 0.034140 
#    y -0.067260 1.677460 -0.075720 
#    z 0.034140 -0.075720 1.779340 
# 
# From -- ./inp_files/83321.got.cif
#   From: 2010.05.17/outbox.cif.g08.bks.cpg/sg2_42_cif.got.tgz:83321.got - 2010.06.03 11:33:40.
