data_PCOD9095097
_publ_section_title
;
Structure prediction by ZEFSAII (Michael W. Deem and Ramdas Pophale) SiO2 
 PCOD9095097
Probable space group: P -1
;
_chemical_formula_sum "Si O2"
_cell_formula_units_Z 14
_cell_length_a 11.479624
_cell_length_b 14.293185
_cell_length_c 22.459272
_cell_angle_alpha 161.352091
_cell_angle_beta 149.981503
_cell_angle_gamma 30.753738
_cell_volume 571.735700
_symmetry_space_group_name_H-M "P -1"
_symmetry_group_IT_number 2
_symmetry_cell_setting 'triclinic'
loop_
_space_group_symop_operation_xyz
x,y,z
-x,-y,-z
loop_
_atom_site_type_symbol
_atom_site_label
_atom_site_fract_x
_atom_site_fract_y
_atom_site_fract_z
Si Si1 0.474260 0.647520 0.747521
Si Si2 0.743690 0.744289 0.034216
Si Si3 0.915980 0.324688 0.590968
Si Si4 0.384106 0.914581 0.598221
Si Si5 0.419826 0.386115 0.991889
Si Si6 0.047965 0.202564 0.008152
Si Si7 0.061108 0.716271 0.810126
O O1 0.455829 0.330277 0.521410
O O2 0.713561 0.736259 0.879385
O O3 0.264245 0.931853 0.804962
O O4 0.550166 0.623967 0.836071
O O5 0.650082 0.794086 0.090718
O O6 0.000000 0.500000 0.000000
O O7 0.979917 0.567934 0.810534
O O8 0.902197 0.486676 0.619482
O O9 0.685545 0.252075 0.474698
O O10 0.137163 0.035181 0.524053
O O11 0.462083 0.190256 0.831091
O O12 0.194946 0.669476 0.058098
O O13 0.667685 0.462520 0.163337
O O14 0.057634 0.873843 0.839967
O O15 0.000000 0.000000 0.000000
#
# Coordination Sequence:
#
# PCOD9095097 Si02
#       7
#     2   2   2   2   2   2   2
#     4  10  20  38  56  85 124 149 191 247 295 341
#     4  11  22  35  58  90 115 158 198 238 290 351
#     4   8  17  32  54  83 121 153 179 234 303 342
#     4   9  19  36  60  90 118 147 192 250 296 335
#     4  11  21  36  62  91 117 149 201 245 283 349
#     4   9  17  33  53  82 116 148 192 235 282 341
#     4  10  20  35  54  85 123 161 187 232 300 350
#
# _framework density 24.486840999999998
#
# number of rings (size 3 to 8) (size 9 to 14) (size 15 to 20)
#    0.000    2.286    2.857    0.857    0.000    5.714 
#    0.000    0.000    0.000    0.857    0.000    4.000 
#    0.000    0.000    0.000    0.000    0.000    0.000 
#
# Total GULP energy -78128.839183 kJ/mol
# GULP energy per Si atom -5580.631370 kJ/mol
# Density = 2.443111 g / cm^3
# Si number density = 24.486841 Si / 1000 Ang^3
#
#
#
# Elastic Constant Matrix: (Units=GPa)
#
#
# Indices 1 2 3 4 5 6 
#
# 1 54.2207 15.9428 19.9608 4.7601 -8.7985 10.3727
# 2 15.9428 132.7685 19.1469 1.1305 -5.1833 -1.3983
# 3 19.9608 19.1469 49.7026 8.5448 -9.2679 4.0070
# 4 4.7601 1.1305 8.5448 26.8126 0.9111 -0.2840
# 5 -8.7985 -5.1833 -9.2679 0.9111 49.1000 4.4501
# 6 10.3727 -1.3983 4.0070 -0.2840 4.4501 34.0657
#
#
#
# Elastic Compliance Matrix: (Units=1/GPa)
#
#
# Indices 1 2 3 4 5 6 
#
# 1 0.023675 -0.001711 -0.007333 -0.001980 0.003337 -0.006869
# 2 -0.001711 0.008129 -0.002699 0.000837 -0.000081 0.001190
# 3 -0.007333 -0.002699 0.026104 -0.007041 0.003593 -0.001477
# 4 -0.001980 0.000837 -0.007041 0.039965 -0.002530 0.002129
# 5 0.003337 -0.000081 0.003593 -0.002530 0.022075 -0.004347
# 6 -0.006869 0.001190 -0.001477 0.002129 -0.004347 0.032255
#
#
# Mechanical properties :
#
#
# Convention : Reuss Voigt Hill
#
# Bulk Modulus (GPa) = 29.05067 38.53252 33.79159
# Shear Modulus (GPa) = 26.71493 34.10507 30.41000
#
# Velocity S-wave (km/s) = 3.30660 3.73606 3.52787
# Velocity P-wave (km/s) = 5.14467 5.86353 5.51583
#
# Compressibility (1/GPa) = 0.03442262
#
# Stress axis : x y z
#
# Youngs Moduli (GPa) = 42.23869 123.01886 38.30859
#
# Poissons Ratio (x) = 0.21044 0.28090
# Poissons Ratio (y) = 0.07226 0.10341
# Poissons Ratio (z) = 0.30972 0.33207
#
# Static dielectric constant tensor:
#      x y z
#    x 2.024240 0.018040 0.022700 
#    y 0.018040 2.030240 -0.004190 
#    z 0.022700 -0.004190 1.989340 
# 
# From -- ./inp_files/610576.got.cif
#   From: 2010.05.17/outbox.cif.g08.bks.cpg/sg2_306_cif.got.tgz:610576.got - 2010.06.03 11:33:40.
