data_PCOD9095201
_publ_section_title
;
Structure prediction by ZEFSAII (Michael W. Deem and Ramdas Pophale) SiO2 
 PCOD9095201
Probable space group: P -1
;
_chemical_formula_sum "Si O2"
_cell_formula_units_Z 16
_cell_length_a 15.592504
_cell_length_b 13.929367
_cell_length_c 12.610699
_cell_angle_alpha 151.463691
_cell_angle_beta 38.516877
_cell_angle_gamma 133.985652
_cell_volume 814.595867
_symmetry_space_group_name_H-M "P -1"
_symmetry_group_IT_number 2
_symmetry_cell_setting 'triclinic'
loop_
_space_group_symop_operation_xyz
x,y,z
-x,-y,-z
loop_
_atom_site_type_symbol
_atom_site_label
_atom_site_fract_x
_atom_site_fract_y
_atom_site_fract_z
Si Si1 0.026247 0.158572 0.223081
Si Si2 0.320725 0.374392 0.115861
Si Si3 0.914135 0.805635 0.435933
Si Si4 0.789352 0.425927 0.785402
Si Si5 0.938071 0.581333 0.994769
Si Si6 0.371049 0.812470 0.569221
Si Si7 0.410928 0.889743 0.366239
Si Si8 0.858177 0.068008 0.926727
O O1 0.176896 0.263194 0.173024
O O2 0.915270 0.332395 0.506345
O O3 0.025460 0.034036 0.212222
O O4 0.000000 0.000000 0.000000
O O5 0.302004 0.447166 0.083630
O O6 0.346823 0.575572 0.353554
O O7 0.452551 0.241345 0.878239
O O8 0.009803 0.637486 0.233280
O O9 0.821243 0.906707 0.714077
O O10 0.000000 0.000000 0.500000
O O11 0.858437 0.688549 0.272327
O O12 0.695885 0.232038 0.721089
O O13 0.850069 0.551836 0.945503
O O14 0.072240 0.725472 0.983032
O O15 0.344204 0.892307 0.551500
O O16 0.525354 0.897500 0.524724
O O17 0.267283 0.889557 0.832494
#
# Coordination Sequence:
#
# PCOD9095201 Si02
#       8
#     2   2   2   2   2   2   2   2
#     4  12  22  33  53  87 124 152 189 242 281 335
#     4  11  22  39  54  79 121 164 198 227 278 342
#     4   9  20  38  59  85 115 146 184 244 308 351
#     4  11  21  35  56  85 115 154 195 241 287 333
#     4  10  20  38  58  86 117 144 193 246 294 349
#     4  10  20  35  56  76 111 160 199 227 266 344
#     4  10  22  39  54  79 122 163 202 226 275 338
#     4  11  20  35  57  86 115 155 189 233 294 338
#
# _framework density 19.641639999999999
#
# number of rings (size 3 to 8) (size 9 to 14) (size 15 to 20)
#    0.000    1.500    2.500    4.875    1.750    0.000 
#    2.250    0.000    0.000    0.750    0.000   11.375 
#    0.000    0.000    0.000    0.000    0.000    0.000 
#
# Total GULP energy -89261.269485 kJ/mol
# GULP energy per Si atom -5578.829343 kJ/mol
# Density = 1.959694 g / cm^3
# Si number density = 19.641640 Si / 1000 Ang^3
#
#
#
# Elastic Constant Matrix: (Units=GPa)
#
#
# Indices 1 2 3 4 5 6 
#
# 1 44.9358 25.0729 45.8612 -0.0935 18.1339 18.2458
# 2 25.0729 105.4786 42.1206 13.8893 3.6023 17.5467
# 3 45.8612 42.1206 158.9453 1.3952 29.7160 16.2072
# 4 -0.0935 13.8893 1.3952 31.0800 3.0651 -0.1649
# 5 18.1339 3.6023 29.7160 3.0651 37.5561 6.1714
# 6 18.2458 17.5467 16.2072 -0.1649 6.1714 31.8992
#
#
#
# Elastic Compliance Matrix: (Units=1/GPa)
#
#
# Indices 1 2 3 4 5 6 
#
# 1 0.044453 -0.004900 -0.007519 0.003822 -0.012655 -0.016443
# 2 -0.004900 0.012886 -0.002314 -0.006095 0.004105 -0.003936
# 3 -0.007519 -0.002314 0.009690 0.000992 -0.004135 0.001455
# 4 0.003822 -0.006095 0.000992 0.035393 -0.005240 0.001860
# 5 -0.012655 0.004105 -0.004135 -0.005240 0.036029 0.000084
# 6 -0.016443 -0.003936 0.001455 0.001860 0.000084 0.042173
#
#
# Mechanical properties :
#
#
# Convention : Reuss Voigt Hill
#
# Bulk Modulus (GPa) = 26.62089 59.49656 43.05872
# Shear Modulus (GPa) = 22.46080 33.19407 27.82744
#
# Velocity S-wave (km/s) = 3.38528 4.11540 3.76807
# Velocity P-wave (km/s) = 5.37242 7.27591 6.39538
#
# Compressibility (1/GPa) = 0.03756448
#
# Stress axis : x y z
#
# Youngs Moduli (GPa) = 22.49572 77.60074 103.19951
#
# Poissons Ratio (x) = 0.38025 0.77592
# Poissons Ratio (y) = 0.11023 0.23877
# Poissons Ratio (z) = 0.16914 0.17954
#
# Static dielectric constant tensor:
#      x y z
#    x 1.695600 -0.009240 0.019050 
#    y -0.009240 1.778470 0.031600 
#    z 0.019050 0.031600 1.743890 
# 
# From -- ./inp_files/455985.got.cif
#   From: 2010.05.17/outbox.cif.g08.bks.cpg/sg2_228_cif.got.tgz:455985.got - 2010.06.03 11:33:40.
