data_PCOD9095495
_publ_section_title
;
Structure prediction by ZEFSAII (Michael W. Deem and Ramdas Pophale) SiO2 
 PCOD9095495
Probable space group: P -1
;
_chemical_formula_sum "Si O2"
_cell_formula_units_Z 16
_cell_length_a 17.184689
_cell_length_b 23.760148
_cell_length_c 11.004234
_cell_angle_alpha 19.722239
_cell_angle_beta 148.865548
_cell_angle_gamma 152.749423
_cell_volume 688.948731
_symmetry_space_group_name_H-M "P -1"
_symmetry_group_IT_number 2
_symmetry_cell_setting 'triclinic'
loop_
_space_group_symop_operation_xyz
x,y,z
-x,-y,-z
loop_
_atom_site_type_symbol
_atom_site_label
_atom_site_fract_x
_atom_site_fract_y
_atom_site_fract_z
Si Si1 0.223046 0.311768 0.738081
Si Si2 0.579477 0.271347 0.952923
Si Si3 0.711649 0.688942 0.637416
Si Si4 0.904195 0.275231 0.295698
Si Si5 0.484691 0.753244 0.802878
Si Si6 0.388823 0.805704 0.317915
Si Si7 0.910962 0.174439 0.231951
Si Si8 0.322787 0.276122 0.195155
O O1 0.310809 0.500102 0.388353
O O2 0.020295 0.206075 0.665360
O O3 0.318633 0.193413 0.067902
O O4 0.273379 0.371933 0.823311
O O5 0.400505 0.217572 0.756627
O O6 0.705364 0.196491 0.221439
O O7 0.549072 0.221926 0.154186
O O8 0.708099 0.696851 0.761952
O O9 0.905287 0.777459 0.671892
O O10 0.619614 0.472975 0.905293
O O11 0.924863 0.246897 0.239938
O O12 0.000000 0.500000 0.000000
O O13 0.418831 0.837864 0.436377
O O14 0.482352 0.684596 0.646740
O O15 0.193381 0.738708 0.158463
O O16 0.500000 0.000000 0.000000
O O17 0.796657 0.947827 0.535259
#
# Coordination Sequence:
#
# PCOD9095495 Si02
#       8
#     2   2   2   2   2   2   2   2
#     4   9  19  36  58  83 114 147 191 234 281 336
#     4  10  20  36  59  87 116 145 187 241 285 330
#     4  11  21  35  58  88 117 148 192 236 281 337
#     4  10  20  35  58  83 112 148 188 234 283 333
#     4  10  20  36  61  87 114 149 187 235 287 333
#     4   9  21  40  60  82 116 152 188 230 284 341
#     4  11  22  38  58  82 116 154 189 235 286 336
#     4  10  22  38  58  82 114 157 193 230 283 338
#
# _framework density 23.223787999999999
#
# number of rings (size 3 to 8) (size 9 to 14) (size 15 to 20)
#    0.000    2.000    0.000    4.875    0.000    8.500 
#    0.000    1.250    0.000   10.500    0.000    0.000 
#    0.000    0.000    0.000    0.000    0.000    0.000 
#
# Total GULP energy -89470.491454 kJ/mol
# GULP energy per Si atom -5591.905716 kJ/mol
# Density = 2.317093 g / cm^3
# Si number density = 23.223788 Si / 1000 Ang^3
#
#
#
# Elastic Constant Matrix: (Units=GPa)
#
#
# Indices 1 2 3 4 5 6 
#
# 1 219.0537 80.5519 76.0097 46.0612 -10.4489 -3.3691
# 2 80.5519 114.8710 50.1359 32.4595 9.4985 2.4259
# 3 76.0097 50.1359 106.1201 48.1574 -10.2610 2.6764
# 4 46.0612 32.4595 48.1574 56.6193 1.4979 9.8193
# 5 -10.4489 9.4985 -10.2610 1.4979 41.6102 17.7467
# 6 -3.3691 2.4259 2.6764 9.8193 17.7467 47.6720
#
#
#
# Elastic Compliance Matrix: (Units=1/GPa)
#
#
# Indices 1 2 3 4 5 6 
#
# 1 0.007249 -0.003657 -0.002453 -0.001854 0.001899 0.000511
# 2 -0.003657 0.013843 -0.003563 -0.002088 -0.005634 0.001765
# 3 -0.002453 -0.003563 0.018894 -0.012069 0.005563 -0.000638
# 4 -0.001854 -0.002088 -0.012069 0.031574 -0.001910 -0.005140
# 5 0.001899 -0.005634 0.005563 -0.001910 0.032122 -0.011456
# 6 0.000511 0.001765 -0.000638 -0.005140 -0.011456 0.026282
#
#
# Mechanical properties :
#
#
# Convention : Reuss Voigt Hill
#
# Bulk Modulus (GPa) = 48.44429 94.82665 71.63547
# Shear Modulus (GPa) = 32.01214 44.73677 38.37446
#
# Velocity S-wave (km/s) = 3.71674 4.39376 4.06935
# Velocity P-wave (km/s) = 6.27088 8.16459 7.27958
#
# Compressibility (1/GPa) = 0.02064227
#
# Stress axis : x y z
#
# Youngs Moduli (GPa) = 137.94837 72.23655 52.92621
#
# Poissons Ratio (x) = 0.26416 0.12981
# Poissons Ratio (y) = 0.50447 0.18856
# Poissons Ratio (z) = 0.33834 0.25736
#
# Static dielectric constant tensor:
#      x y z
#    x 1.844930 0.009860 0.058720 
#    y 0.009860 1.927490 -0.035860 
#    z 0.058720 -0.035860 1.976590 
# 
# From -- ./inp_files/319192.got.cif
#   From: 2010.05.17/outbox.cif.g08.bks.cpg/sg2_160_cif.got.tgz:319192.got - 2010.06.03 11:33:40.
