data_PCOD9095384
_publ_section_title
;
Structure prediction by ZEFSAII (Michael W. Deem and Ramdas Pophale) SiO2 
 PCOD9095384
Probable space group: P -1
;
_chemical_formula_sum "Si O2"
_cell_formula_units_Z 16
_cell_length_a 19.982962
_cell_length_b 17.915425
_cell_length_c 14.816457
_cell_angle_alpha 20.098324
_cell_angle_beta 35.489430
_cell_angle_gamma 28.778548
_cell_volume 876.246658
_symmetry_space_group_name_H-M "P -1"
_symmetry_group_IT_number 2
_symmetry_cell_setting 'triclinic'
loop_
_space_group_symop_operation_xyz
x,y,z
-x,-y,-z
loop_
_atom_site_type_symbol
_atom_site_label
_atom_site_fract_x
_atom_site_fract_y
_atom_site_fract_z
Si Si1 0.034598 0.836512 0.238000
Si Si2 0.258615 0.284823 0.672973
Si Si3 0.145140 0.343435 0.275055
Si Si4 0.562207 0.830432 0.881707
Si Si5 0.074493 0.067536 0.111671
Si Si6 0.521256 0.408203 0.477402
Si Si7 0.226041 0.502232 0.658716
Si Si8 0.260814 0.163240 0.167053
O O1 0.182377 0.553309 0.395425
O O2 0.923982 0.762761 0.465209
O O3 0.036627 0.997791 0.137356
O O4 0.000000 0.000000 0.000000
O O5 0.196136 0.116661 0.908083
O O6 0.215200 0.381336 0.714675
O O7 0.424337 0.100576 0.697114
O O8 0.302476 0.245749 0.237558
O O9 0.156666 0.235083 0.283453
O O10 0.052209 0.658052 0.021434
O O11 0.613391 0.843670 0.911249
O O12 0.531568 0.608390 0.175159
O O13 0.130421 0.815998 0.399330
O O14 0.500000 0.500000 0.500000
O O15 0.385749 0.413714 0.592701
O O16 0.663877 0.123375 0.632860
O O17 0.196456 0.381822 0.913022
#
# Coordination Sequence:
#
# PCOD9095384 Si02
#       8
#     2   2   2   2   2   2   2   2
#     4  10  23  44  68  85 109 147 193 246 303 365
#     4  10  20  38  59  91 117 149 201 241 282 343
#     4   9  22  40  57  87 121 157 189 242 296 342
#     4  10  20  35  57  84 120 158 190 238 288 329
#     4  10  22  38  62  84 115 153 200 234 293 360
#     4  12  19  30  56  84 118 170 209 227 278 331
#     4  11  19  33  54  86 121 161 203 237 265 337
#     4  10  22  33  53  85 129 161 195 243 274 328
#
# _framework density 18.259698
#
# number of rings (size 3 to 8) (size 9 to 14) (size 15 to 20)
#    0.750    1.000    3.750    1.125    1.750    2.500 
#    0.000    6.250    0.000    1.500    0.000    0.000 
#    0.000    0.000    0.000    0.000    0.000    0.000 
#
# Total GULP energy -89213.675364 kJ/mol
# GULP energy per Si atom -5575.854710 kJ/mol
# Density = 1.821814 g / cm^3
# Si number density = 18.259698 Si / 1000 Ang^3
#
#
#
# Elastic Constant Matrix: (Units=GPa)
#
#
# Indices 1 2 3 4 5 6 
#
# 1 39.8192 16.6999 33.3887 -1.5671 13.6437 -3.7811
# 2 16.6999 97.5766 61.6927 -20.0397 16.7581 -7.9404
# 3 33.3887 61.6927 130.3695 -11.9073 29.0565 7.9772
# 4 -1.5671 -20.0397 -11.9073 29.5720 -1.0128 -2.8061
# 5 13.6437 16.7581 29.0565 -1.0128 36.6338 -2.8318
# 6 -3.7811 -7.9404 7.9772 -2.8061 -2.8318 21.0386
#
#
#
# Elastic Compliance Matrix: (Units=1/GPa)
#
#
# Indices 1 2 3 4 5 6 
#
# 1 0.034850 0.001379 -0.008849 -0.000097 -0.005872 0.009336
# 2 0.001379 0.018897 -0.008879 0.010413 -0.000899 0.012014
# 3 -0.008849 -0.008879 0.016200 -0.001336 -0.006467 -0.012133
# 4 -0.000097 0.010413 -0.001336 0.041186 -0.001781 0.009673
# 5 -0.005872 -0.000899 -0.006467 -0.001781 0.035407 0.005586
# 6 0.009336 0.012014 -0.012133 0.009673 0.005586 0.060386
#
#
# Mechanical properties :
#
#
# Convention : Reuss Voigt Hill
#
# Bulk Modulus (GPa) = 26.84716 54.59201 40.71958
# Shear Modulus (GPa) = 19.83801 27.84781 23.84291
#
# Velocity S-wave (km/s) = 3.29969 3.90949 3.61746
# Velocity P-wave (km/s) = 5.40853 7.09515 6.30846
#
# Compressibility (1/GPa) = 0.03724788
#
# Stress axis : x y z
#
# Youngs Moduli (GPa) = 28.69425 52.91926 61.72750
#
# Poissons Ratio (x) = -0.07295 0.54623
# Poissons Ratio (y) = -0.03956 0.54808
# Poissons Ratio (z) = 0.25392 0.46987
#
# Static dielectric constant tensor:
#      x y z
#    x 1.639230 -0.019140 -0.021350 
#    y -0.019140 1.637130 -0.016690 
#    z -0.021350 -0.016690 1.616420 
# 
# From -- ./inp_files/76359.got.cif
#   From: 2010.05.17/outbox.cif.g08.bks.cpg/sg2_39_cif.got.tgz:76359.got - 2010.06.03 11:33:40.
