data_PCOD9095212
_publ_section_title
;
Structure prediction by ZEFSAII (Michael W. Deem and Ramdas Pophale) SiO2 
 PCOD9095212
Probable space group: P -1
;
_chemical_formula_sum "Si O2"
_cell_formula_units_Z 16
_cell_length_a 8.804737
_cell_length_b 9.006278
_cell_length_c 12.643969
_cell_angle_alpha 62.983799
_cell_angle_beta 107.143011
_cell_angle_gamma 93.265470
_cell_volume 850.053643
_symmetry_space_group_name_H-M "P -1"
_symmetry_group_IT_number 2
_symmetry_cell_setting 'triclinic'
loop_
_space_group_symop_operation_xyz
x,y,z
-x,-y,-z
loop_
_atom_site_type_symbol
_atom_site_label
_atom_site_fract_x
_atom_site_fract_y
_atom_site_fract_z
Si Si1 0.525181 0.236986 0.522375
Si Si2 0.137388 0.643076 0.099784
Si Si3 0.196101 0.499684 0.929535
Si Si4 0.890319 0.132215 0.296409
Si Si5 0.754546 0.043271 0.087606
Si Si6 0.578540 0.749103 0.065264
Si Si7 0.447981 0.603113 0.300602
Si Si8 0.241317 0.020835 0.469265
O O1 0.519323 0.417910 0.406871
O O2 0.532842 0.274177 0.636562
O O3 0.671440 0.112166 0.550830
O O4 0.366739 0.150615 0.486185
O O5 0.261363 0.602183 0.232679
O O6 0.959373 0.597262 0.096303
O O7 0.198544 0.535363 0.043738
O O8 0.150145 0.834960 0.005295
O O9 0.169969 0.679164 0.809270
O O10 0.350812 0.390612 0.955410
O O11 0.844298 0.018850 0.224870
O O12 0.809183 0.075209 0.404989
O O13 0.080270 0.112301 0.358298
O O14 0.710311 0.877492 0.074500
O O15 0.582209 0.146151 0.041480
O O16 0.531811 0.668186 0.192711
#
# Coordination Sequence:
#
# PCOD9095212 Si02
#       8
#     2   2   2   2   2   2   2   2
#     4  10  21  36  55  78 105 140 178 217 261 306
#     4   9  20  36  53  79 110 137 170 214 261 311
#     4  10  20  35  56  80 106 138 174 213 260 312
#     4  10  20  36  55  78 108 138 175 218 258 309
#     4   9  20  36  53  79 110 137 170 214 261 311
#     4  10  20  35  56  80 106 138 174 213 260 312
#     4  10  20  36  55  78 108 138 175 218 258 309
#     4  10  21  36  55  78 105 140 178 217 261 306
#
# _framework density 18.822344000000001
#
# number of rings (size 3 to 8) (size 9 to 14) (size 15 to 20)
#    0.000    2.250    0.000    2.250    0.000    7.000 
#    0.000   15.000    0.000    8.250    0.000    0.000 
#    0.000    0.000    0.000    0.000    0.000    0.000 
#
# Total GULP energy -89353.056694 kJ/mol
# GULP energy per Si atom -5584.566043 kJ/mol
# Density = 1.877950 g / cm^3
# Si number density = 18.822344 Si / 1000 Ang^3
#
#
#
# Elastic Constant Matrix: (Units=GPa)
#
#
# Indices 1 2 3 4 5 6 
#
# 1 16.1766 36.9184 2.9532 0.4062 -1.0462 1.6309
# 2 36.9184 88.5877 17.8706 5.5121 9.3201 -2.1294
# 3 2.9532 17.8706 50.0437 11.3591 9.1424 -11.4830
# 4 0.4062 5.5121 11.3591 15.4813 4.1195 3.6964
# 5 -1.0462 9.3201 9.1424 4.1195 17.7184 1.1216
# 6 1.6309 -2.1294 -11.4830 3.6964 1.1216 34.2608
#
#
#
# Elastic Compliance Matrix: (Units=1/GPa)
#
#
# Indices 1 2 3 4 5 6 
#
# 1 -0.986133 0.449679 -0.016670 -0.069171 -0.275507 0.085786
# 2 0.449679 -0.192536 0.004062 0.030955 0.121022 -0.039312
# 3 -0.016670 0.004062 0.030681 -0.023077 -0.014491 0.014293
# 4 -0.069171 0.030955 -0.023077 0.081969 -0.026853 -0.010483
# 5 -0.275507 0.121022 -0.014491 -0.026853 -0.010972 0.019036
# 6 0.085786 -0.039312 0.014293 -0.010483 0.019036 0.027959
#
#
# Mechanical properties :
#
#
# Convention : Reuss Voigt Hill
#
# Bulk Modulus (GPa) = -3.65170 30.03248 13.19039
# Shear Modulus (GPa) = -2.48206 19.96315 8.74054
#
# Velocity S-wave (km/s) = -1.14958 3.26023 2.15726
# Velocity P-wave (km/s) = 1.92519 5.49204 3.63705
#
# Compressibility (1/GPa) = -0.27384482
#
# Stress axis : x y z
#
# Youngs Moduli (GPa) = -1.01406 -5.19383 32.59343
#
# Poissons Ratio (x) = 2.33556 0.54333
# Poissons Ratio (y) = 0.45600 -0.13239
# Poissons Ratio (z) = -0.01690 0.02110
#
# Static dielectric constant tensor:
#      x y z
#    x 1.641010 0.017310 0.003060 
#    y 0.017310 1.643940 -0.000600 
#    z 0.003060 -0.000600 1.630030 
# 
# From -- ./inp_files/175131.got.cif
#   From: 2010.05.17/outbox.cif.g08.bks.cpg/sg2_88_cif.got.tgz:175131.got - 2010.06.03 11:33:40.
