data_PCOD9095653
_publ_section_title
;
Structure prediction by ZEFSAII (Michael W. Deem and Ramdas Pophale) SiO2 
 PCOD9095653
Probable space group: P -1
;
_chemical_formula_sum "Si O2"
_cell_formula_units_Z 10
_cell_length_a 6.174521
_cell_length_b 9.084913
_cell_length_c 7.852072
_cell_angle_alpha 106.232329
_cell_angle_beta 79.496139
_cell_angle_gamma 75.359475
_cell_volume 393.710489
_symmetry_space_group_name_H-M "P -1"
_symmetry_group_IT_number 2
_symmetry_cell_setting 'triclinic'
loop_
_space_group_symop_operation_xyz
x,y,z
-x,-y,-z
loop_
_atom_site_type_symbol
_atom_site_label
_atom_site_fract_x
_atom_site_fract_y
_atom_site_fract_z
Si Si1 0.281432 0.108980 0.459354
Si Si2 0.280509 0.757311 0.830054
Si Si3 0.821127 0.569081 0.294098
Si Si4 0.666604 0.604805 0.958242
Si Si5 0.013961 0.952352 0.232406
O O1 0.271438 0.294414 0.506278
O O2 0.056403 0.127403 0.618757
O O3 0.500000 0.000000 0.500000
O O4 0.223570 0.020309 0.274760
O O5 0.267445 0.584577 0.716602
O O6 0.515987 0.736774 0.891964
O O7 0.084767 0.827632 0.027247
O O8 0.202796 0.893654 0.742810
O O9 0.097363 0.496648 0.202069
O O10 0.726674 0.653726 0.152705
O O11 0.500000 0.500000 0.000000
#
# Coordination Sequence:
#
# PCOD9095653 Si02
#       5
#     2   2   2   2   2
#     4  11  23  40  58  82 118 154 184 230 288 338
#     4  10  21  39  61  85 113 147 190 239 277 327
#     4  10  20  35  59  85 109 148 197 227 272 343
#     4   9  17  32  57  85 111 144 186 234 276 324
#     4  10  23  39  57  86 118 147 187 233 285 336
#
# _framework density 25.399376
#
# number of rings (size 3 to 8) (size 9 to 14) (size 15 to 20)
#    0.000    2.000    0.000    4.800    0.000    7.200 
#    0.000    7.000    0.000    0.000    0.000    0.000 
#    0.000    0.000    0.000    0.000    0.000    0.000 
#
# Total GULP energy -55955.981910 kJ/mol
# GULP energy per Si atom -5595.598191 kJ/mol
# Density = 2.534157 g / cm^3
# Si number density = 25.399376 Si / 1000 Ang^3
#
#
#
# Elastic Constant Matrix: (Units=GPa)
#
#
# Indices 1 2 3 4 5 6 
#
# 1 85.8302 17.7445 3.4173 -4.6714 17.1825 -24.5842
# 2 17.7445 98.2642 38.0817 14.8596 15.4954 -8.1118
# 3 3.4173 38.0817 69.5345 15.7999 2.8347 11.1902
# 4 -4.6714 14.8596 15.7999 46.3777 2.0896 9.9383
# 5 17.1825 15.4954 2.8347 2.0896 32.6824 -9.5352
# 6 -24.5842 -8.1118 11.1902 9.9383 -9.5352 43.2505
#
#
#
# Elastic Compliance Matrix: (Units=1/GPa)
#
#
# Indices 1 2 3 4 5 6 
#
# 1 0.015130 -0.000854 -0.001470 0.000945 -0.005314 0.007431
# 2 -0.000854 0.014876 -0.007924 -0.002802 -0.004573 0.003990
# 3 -0.001470 -0.007924 0.020561 -0.003228 0.001005 -0.006678
# 4 0.000945 -0.002802 -0.003228 0.024886 -0.002032 -0.005319
# 5 -0.005314 -0.004573 0.001005 -0.002032 0.036905 0.004465
# 6 0.007431 0.003990 -0.006678 -0.005319 0.004465 0.032028
#
#
# Mechanical properties :
#
#
# Convention : Reuss Voigt Hill
#
# Bulk Modulus (GPa) = 33.25539 41.34621 37.30080
# Shear Modulus (GPa) = 28.58677 37.42116 33.00396
#
# Velocity S-wave (km/s) = 3.35847 3.84254 3.60863
# Velocity P-wave (km/s) = 5.30665 6.00005 5.66397
#
# Compressibility (1/GPa) = 0.03007031
#
# Stress axis : x y z
#
# Youngs Moduli (GPa) = 66.09437 67.22157 48.63642
#
# Poissons Ratio (x) = 0.05740 0.07149
# Poissons Ratio (y) = 0.05644 0.38541
# Poissons Ratio (z) = 0.09716 0.53269
#
# Static dielectric constant tensor:
#      x y z
#    x 2.046280 0.039230 0.017070 
#    y 0.039230 2.003190 -0.008360 
#    z 0.017070 -0.008360 1.982360 
# 
# From -- ./inp_files/15869.got.cif
#   From: 2010.05.17/outbox.cif.g08.bks.cpg/sg2_8_cif.got.tgz:15869.got - 2010.06.03 11:33:40.
