data_PCOD9095058
_publ_section_title
;
Structure prediction by ZEFSAII (Michael W. Deem and Ramdas Pophale) SiO2 
 PCOD9095058
Probable space group: P -1
;
_chemical_formula_sum "Si O2"
_cell_formula_units_Z 14
_cell_length_a 7.403282
_cell_length_b 18.515891
_cell_length_c 5.216450
_cell_angle_alpha 88.198506
_cell_angle_beta 70.492380
_cell_angle_gamma 77.202961
_cell_volume 656.569858
_symmetry_space_group_name_H-M "P -1"
_symmetry_group_IT_number 2
_symmetry_cell_setting 'triclinic'
loop_
_space_group_symop_operation_xyz
x,y,z
-x,-y,-z
loop_
_atom_site_type_symbol
_atom_site_label
_atom_site_fract_x
_atom_site_fract_y
_atom_site_fract_z
Si Si1 0.752478 0.689517 0.833308
Si Si2 0.647716 0.948035 0.629391
Si Si3 0.772493 0.335800 0.418322
Si Si4 0.418241 0.895709 0.138055
Si Si5 0.470620 0.235009 0.564044
Si Si6 0.025365 0.947558 0.239578
Si Si7 0.549455 0.412150 0.018650
O O1 0.651526 0.737889 0.634338
O O2 0.653499 0.617605 0.876022
O O3 0.989846 0.677139 0.708829
O O4 0.661925 0.728700 0.135054
O O5 0.835492 0.913838 0.376514
O O6 0.500000 0.000000 0.500000
O O7 0.662598 0.015357 0.810849
O O8 0.582170 0.889259 0.849177
O O9 0.673694 0.263997 0.455610
O O10 0.670583 0.386429 0.224020
O O11 0.684815 0.374459 0.721225
O O12 0.475624 0.851634 0.374979
O O13 0.214668 0.880167 0.136000
O O14 0.000000 0.000000 0.500000
O O15 0.000000 0.000000 0.000000
O O16 0.500000 0.500000 0.000000
#
# Coordination Sequence:
#
# PCOD9095058 Si02
#       7
#     2   2   2   2   2   2   2
#     4  10  22  40  61  86 122 160 198 241 287 344
#     4  10  20  36  58  79 110 142 184 240 302 352
#     4  10  21  40  60  86 124 160 197 242 288 341
#     4  10  22  37  54  82 111 144 189 243 293 352
#     4  10  23  39  58  84 116 156 202 244 289 351
#     4  10  20  35  54  77 105 138 173 226 290 345
#     4  10  21  37  62  95 125 156 197 241 287 341
#
# _framework density 21.322942000000001
#
# number of rings (size 3 to 8) (size 9 to 14) (size 15 to 20)
#    0.000    2.000    1.429    1.286    2.000    2.286 
#    0.000    0.000    0.000    0.000    0.000    0.000 
#    0.000    0.000    0.000    0.000    0.000    0.000 
#
# Total GULP energy -77976.436438 kJ/mol
# GULP energy per Si atom -5569.745460 kJ/mol
# Density = 2.127441 g / cm^3
# Si number density = 21.322942 Si / 1000 Ang^3
#
#
#
# Elastic Constant Matrix: (Units=GPa)
#
#
# Indices 1 2 3 4 5 6 
#
# 1 117.2670 44.1935 58.1302 -14.5096 -28.2541 -8.6549
# 2 44.1935 91.6557 40.2227 -29.1269 -9.8308 7.2186
# 3 58.1302 40.2227 152.1891 -29.3762 -8.8552 -0.5173
# 4 -14.5096 -29.1269 -29.3762 30.5430 -5.9159 5.6086
# 5 -28.2541 -9.8308 -8.8552 -5.9159 56.9316 0.4790
# 6 -8.6549 7.2186 -0.5173 5.6086 0.4790 11.0664
#
#
#
# Elastic Compliance Matrix: (Units=1/GPa)
#
#
# Indices 1 2 3 4 5 6 
#
# 1 0.016865 -0.011059 -0.005452 -0.011727 0.004176 0.025912
# 2 -0.011059 0.030694 0.003316 0.036783 0.004548 -0.047355
# 3 -0.005452 0.003316 0.010287 0.012948 0.000918 -0.012547
# 4 -0.011727 0.036783 0.012948 0.091794 0.012754 -0.079635
# 5 0.004176 0.004548 0.000918 0.012754 0.021950 -0.007072
# 6 0.025912 -0.047355 -0.012547 -0.079635 -0.007072 0.181598
#
#
# Mechanical properties :
#
#
# Convention : Reuss Voigt Hill
#
# Bulk Modulus (GPa) = 31.79039 71.80052 51.79545
# Shear Modulus (GPa) = 12.81838 34.27923 23.54881
#
# Velocity S-wave (km/s) = 2.45451 4.01387 3.32684
# Velocity P-wave (km/s) = 4.79314 7.43152 6.25307
#
# Compressibility (1/GPa) = 0.03145605
#
# Stress axis : x y z
#
# Youngs Moduli (GPa) = 59.29378 32.57928 97.21223
#
# Poissons Ratio (x) = 0.36030 0.52996
# Poissons Ratio (y) = 0.65574 -0.32231
# Poissons Ratio (z) = 0.32324 -0.10802
#
# Static dielectric constant tensor:
#      x y z
#    x 2.174170 0.134740 -0.120980 
#    y 0.134740 1.814680 0.008280 
#    z -0.120980 0.008280 1.789580 
# 
# From -- ./inp_files/46958.got.cif
#   From: 2010.05.17/outbox.cif.g08.bks.cpg/sg2_24_cif.got.tgz:46958.got - 2010.06.03 11:33:40.
