data_PCOD9095992
_publ_section_title
;
Structure prediction by ZEFSAII (Michael W. Deem and Ramdas Pophale) SiO2 
 PCOD9095992
Probable space group: P -1
;
_chemical_formula_sum "Si O2"
_cell_formula_units_Z 16
_cell_length_a 21.379353
_cell_length_b 9.545163
_cell_length_c 10.149946
_cell_angle_alpha 38.294579
_cell_angle_beta 36.032611
_cell_angle_gamma 42.104851
_cell_volume 721.656779
_symmetry_space_group_name_H-M "P -1"
_symmetry_group_IT_number 2
_symmetry_cell_setting 'triclinic'
loop_
_space_group_symop_operation_xyz
x,y,z
-x,-y,-z
loop_
_atom_site_type_symbol
_atom_site_label
_atom_site_fract_x
_atom_site_fract_y
_atom_site_fract_z
Si Si1 0.368181 0.008017 0.882985
Si Si2 0.613413 0.331971 0.222993
Si Si3 0.571092 0.683115 0.654450
Si Si4 0.767299 0.284196 0.744079
Si Si5 0.084020 0.738426 0.073393
Si Si6 0.747034 0.985984 0.440266
Si Si7 0.925255 0.483302 0.456361
Si Si8 0.389155 0.182388 0.998276
O O1 0.479326 0.780299 0.853705
O O2 0.381756 0.120479 0.637126
O O3 0.253422 0.941271 0.124784
O O4 0.376560 0.161858 0.879731
O O5 0.500294 0.377883 0.299023
O O6 0.643544 0.100512 0.435190
O O7 0.712766 0.292296 0.976437
O O8 0.609883 0.561946 0.143538
O O9 0.679411 0.494207 0.662298
O O10 0.885791 0.327055 0.530407
O O11 0.078367 0.645846 0.301017
O O12 0.040702 0.550280 0.202245
O O13 0.197107 0.800337 0.802334
O O14 0.000000 0.000000 0.000000
O O15 0.831929 0.742287 0.421263
O O16 0.707779 0.902539 0.704694
O O17 0.500000 0.000000 0.000000
#
# Coordination Sequence:
#
# PCOD9095992 Si02
#       8
#     2   2   2   2   2   2   2   2
#     4  10  23  35  51  79 112 155 198 235 281 334
#     4  11  22  36  57  83 116 160 201 234 287 335
#     4  10  22  37  54  75 117 157 201 241 279 332
#     4  11  20  35  57  82 115 149 192 241 289 339
#     4   9  19  36  59  91 117 141 186 247 301 344
#     4  11  21  36  59  84 122 152 192 244 290 343
#     4  10  20  35  61  91 115 145 190 244 298 344
#     4  12  23  36  54  82 119 161 202 239 280 340
#
# _framework density 22.171203999999999
#
# number of rings (size 3 to 8) (size 9 to 14) (size 15 to 20)
#    0.000    1.500    2.500    3.750    5.250    3.000 
#    0.000    0.000    0.000    0.750    0.000   13.125 
#    0.000    0.000    0.000    0.000    0.000    0.000 
#
# Total GULP energy -89278.452144 kJ/mol
# GULP energy per Si atom -5579.903259 kJ/mol
# Density = 2.212074 g / cm^3
# Si number density = 22.171204 Si / 1000 Ang^3
#
#
#
# Elastic Constant Matrix: (Units=GPa)
#
#
# Indices 1 2 3 4 5 6 
#
# 1 104.1127 25.3816 28.2886 -15.3259 -13.0413 17.6202
# 2 25.3816 49.2829 3.9457 -17.0889 9.5467 13.2444
# 3 28.2886 3.9457 76.5088 -22.9164 -10.9567 6.8035
# 4 -15.3259 -17.0889 -22.9164 27.2767 0.8049 5.0105
# 5 -13.0413 9.5467 -10.9567 0.8049 48.4794 -15.3613
# 6 17.6202 13.2444 6.8035 5.0105 -15.3613 40.4709
#
#
#
# Elastic Compliance Matrix: (Units=1/GPa)
#
#
# Indices 1 2 3 4 5 6 
#
# 1 0.012945 -0.006505 -0.003746 0.000248 0.003400 -0.001618
# 2 -0.006505 0.047948 0.012481 0.042325 -0.017589 -0.026874
# 3 -0.003746 0.012481 0.022342 0.026437 -0.002114 -0.010285
# 4 0.000248 0.042325 0.026437 0.092511 -0.015107 -0.035591
# 5 0.003400 -0.017589 -0.002114 -0.015107 0.030508 0.018081
# 6 -0.001618 -0.026874 -0.010285 -0.035591 0.018081 0.047206
#
#
# Mechanical properties :
#
#
# Convention : Reuss Voigt Hill
#
# Bulk Modulus (GPa) = 11.40323 38.34845 24.87584
# Shear Modulus (GPa) = 17.97065 34.73130 26.35098
#
# Velocity S-wave (km/s) = 2.85009 3.96220 3.45124
# Velocity P-wave (km/s) = 3.99814 6.18596 5.20823
#
# Compressibility (1/GPa) = 0.08769445
#
# Stress axis : x y z
#
# Youngs Moduli (GPa) = 77.25184 20.85607 44.75862
#
# Poissons Ratio (x) = 0.13567 0.16766
# Poissons Ratio (y) = 0.50252 -0.55862
# Poissons Ratio (z) = 0.28937 -0.26030
#
# Static dielectric constant tensor:
#      x y z
#    x 1.870440 0.001510 -0.063130 
#    y 0.001510 1.855850 -0.035980 
#    z -0.063130 -0.035980 1.880330 
# 
# From -- ./inp_files/216965.got.cif
#   From: 2010.05.17/outbox.cif.g08.bks.cpg/sg2_109_cif.got.tgz:216965.got - 2010.06.03 11:33:40.
