data_PCOD9095117
_publ_section_title
;
Structure prediction by ZEFSAII (Michael W. Deem and Ramdas Pophale) SiO2 
 PCOD9095117
Probable space group: P -1
;
_chemical_formula_sum "Si O2"
_cell_formula_units_Z 16
_cell_length_a 14.101916
_cell_length_b 29.569886
_cell_length_c 7.900728
_cell_angle_alpha 133.694309
_cell_angle_beta 131.041426
_cell_angle_gamma 20.102823
_cell_volume 818.320244
_symmetry_space_group_name_H-M "P -1"
_symmetry_group_IT_number 2
_symmetry_cell_setting 'triclinic'
loop_
_space_group_symop_operation_xyz
x,y,z
-x,-y,-z
loop_
_atom_site_type_symbol
_atom_site_label
_atom_site_fract_x
_atom_site_fract_y
_atom_site_fract_z
Si Si1 0.210940 0.162164 0.629516
Si Si2 0.759795 0.704502 0.522643
Si Si3 0.582840 0.470432 0.286196
Si Si4 0.932003 0.398748 0.728381
Si Si5 0.436333 0.347869 0.842147
Si Si6 0.506656 0.936742 0.961174
Si Si7 0.272440 0.513818 0.833150
Si Si8 0.070650 0.792800 0.838629
O O1 0.146345 0.254765 0.691093
O O2 0.982861 0.214429 0.426830
O O3 0.500000 0.000000 0.500000
O O4 0.250530 0.159476 0.865744
O O5 0.924906 0.638599 0.369948
O O6 0.609660 0.704918 0.356113
O O7 0.562179 0.851241 0.694030
O O8 0.977656 0.616313 0.703360
O O9 0.628928 0.494169 0.239675
O O10 0.816661 0.313468 0.183580
O O11 0.654084 0.483786 0.562649
O O12 0.318039 0.545629 0.117938
O O13 0.826428 0.501910 0.987966
O O14 0.448991 0.376446 0.748462
O O15 0.707587 0.250343 0.007155
O O16 0.500000 0.000000 0.000000
O O17 0.220844 0.057064 0.038575
#
# Coordination Sequence:
#
# PCOD9095117 Si02
#       8
#     2   2   2   2   2   2   2   2
#     4   9  18  35  59  83 105 134 180 229 271 316
#     4  11  22  35  53  79 112 146 183 221 266 326
#     4   8  16  32  53  80 109 134 174 229 271 312
#     4  10  20  35  55  78 108 146 183 223 269 317
#     4  11  22  35  52  77 114 152 180 217 267 326
#     4  11  21  37  62  83 104 136 177 231 277 318
#     4   9  17  31  52  79 108 137 176 222 270 313
#     4   9  20  36  55  82 110 140 182 222 271 322
#
# _framework density 19.552249
#
# number of rings (size 3 to 8) (size 9 to 14) (size 15 to 20)
#    0.000    2.250    0.000    4.500    0.000    6.000 
#    0.000    2.500    0.000    6.750    0.000    0.000 
#    0.000    0.000    0.000    0.000    0.000    0.000 
#
# Total GULP energy -89201.679773 kJ/mol
# GULP energy per Si atom -5575.104986 kJ/mol
# Density = 1.950775 g / cm^3
# Si number density = 19.552249 Si / 1000 Ang^3
#
#
#
# Elastic Constant Matrix: (Units=GPa)
#
#
# Indices 1 2 3 4 5 6 
#
# 1 80.2233 29.0541 63.0780 -12.0717 17.8193 13.4782
# 2 29.0541 90.2309 48.2242 -13.2143 11.1012 8.0447
# 3 63.0780 48.2242 137.5420 -4.6509 27.8296 12.6380
# 4 -12.0717 -13.2143 -4.6509 35.9259 0.9485 -4.9449
# 5 17.8193 11.1012 27.8296 0.9485 42.3472 -2.7407
# 6 13.4782 8.0447 12.6380 -4.9449 -2.7407 26.6432
#
#
#
# Elastic Compliance Matrix: (Units=1/GPa)
#
#
# Indices 1 2 3 4 5 6 
#
# 1 0.022008 -0.000859 -0.008171 0.005244 -0.004201 -0.006457
# 2 -0.000859 0.014479 -0.004263 0.004342 -0.000807 -0.001192
# 3 -0.008171 -0.004263 0.013482 -0.002719 -0.004368 -0.001928
# 4 0.005244 0.004342 -0.002719 0.031299 -0.002070 0.002922
# 5 -0.004201 -0.000807 -0.004368 -0.002070 0.028966 0.007036
# 6 -0.006457 -0.001192 -0.001928 0.002922 0.007036 0.043340
#
#
# Mechanical properties :
#
#
# Convention : Reuss Voigt Hill
#
# Bulk Modulus (GPa) = 42.76721 65.41209 54.08965
# Shear Modulus (GPa) = 26.60214 32.15925 29.38070
#
# Velocity S-wave (km/s) = 3.69259 4.06000 3.88064
# Velocity P-wave (km/s) = 6.33254 7.45022 6.91400
#
# Compressibility (1/GPa) = 0.02338240
#
# Stress axis : x y z
#
# Youngs Moduli (GPa) = 45.43741 69.06473 74.17506
#
# Poissons Ratio (x) = 0.05932 0.60612
# Poissons Ratio (y) = 0.03903 0.31621
# Poissons Ratio (z) = 0.37129 0.29442
#
# Static dielectric constant tensor:
#      x y z
#    x 1.696220 -0.021270 -0.037350 
#    y -0.021270 1.739770 -0.002680 
#    z -0.037350 -0.002680 1.712240 
# 
# From -- ./inp_files/321103.got.cif
#   From: 2010.05.17/outbox.cif.g08.bks.cpg/sg2_161_cif.got.tgz:321103.got - 2010.06.03 11:33:40.
