data_PCOD9095296
_publ_section_title
;
Structure prediction by ZEFSAII (Michael W. Deem and Ramdas Pophale) SiO2 
 PCOD9095296
Probable space group: P -1
;
_chemical_formula_sum "Si O2"
_cell_formula_units_Z 16
_cell_length_a 12.082057
_cell_length_b 5.327588
_cell_length_c 13.222527
_cell_angle_alpha 45.808833
_cell_angle_beta 80.501939
_cell_angle_gamma 71.431339
_cell_volume 576.458427
_symmetry_space_group_name_H-M "P -1"
_symmetry_group_IT_number 2
_symmetry_cell_setting 'triclinic'
loop_
_space_group_symop_operation_xyz
x,y,z
-x,-y,-z
loop_
_atom_site_type_symbol
_atom_site_label
_atom_site_fract_x
_atom_site_fract_y
_atom_site_fract_z
Si Si1 0.054798 0.322865 0.437457
Si Si2 0.540855 0.643998 0.822579
Si Si3 0.464828 0.571338 0.346040
Si Si4 0.145236 0.257146 0.763228
Si Si5 0.708749 0.248347 0.409686
Si Si6 0.256865 0.151593 0.185371
Si Si7 0.996784 0.415981 0.907163
Si Si8 0.308967 0.493711 0.897686
O O1 0.000000 0.500000 0.500000
O O2 0.987066 0.657127 0.282194
O O3 0.193581 0.138569 0.479560
O O4 0.000000 0.000000 0.500000
O O5 0.543102 0.586456 0.718905
O O6 0.673852 0.570409 0.860364
O O7 0.444405 0.445746 0.925103
O O8 0.491452 0.063502 0.750983
O O9 0.577906 0.284040 0.459579
O O10 0.327022 0.765613 0.333574
O O11 0.226686 0.465748 0.636344
O O12 0.113876 0.439277 0.827203
O O13 0.216879 0.841885 0.864840
O O14 0.689660 0.382465 0.255906
O O15 0.122204 0.291861 0.193775
O O16 0.278572 0.163772 0.056868
O O17 0.000000 0.500000 0.000000
O O18 0.000000 0.000000 0.000000
#
# Coordination Sequence:
#
# PCOD9095296 Si02
#       8
#     2   2   2   2   2   2   2   2
#     4  10  21  35  59  84 115 147 184 236 293 337
#     4   9  20  33  51  80 106 145 179 229 280 331
#     4   9  20  33  55  76 110 143 179 231 283 329
#     4  11  21  37  57  84 118 151 191 233 283 338
#     4  10  20  35  56  87 115 142 185 236 295 339
#     4  10  22  36  52  79 112 151 193 224 272 338
#     4  12  27  40  58  81 115 163 195 226 272 337
#     4  11  18  33  56  80 116 144 183 233 287 340
#
# _framework density 27.755690000000001
#
# number of rings (size 3 to 8) (size 9 to 14) (size 15 to 20)
#    0.750    1.000    3.750    1.125    1.750    3.000 
#    0.000    0.000    0.000    0.750    0.000    3.500 
#    0.000    0.000    0.000    0.000    0.000    0.000 
#
# Total GULP energy -89214.294198 kJ/mol
# GULP energy per Si atom -5575.893387 kJ/mol
# Density = 2.769252 g / cm^3
# Si number density = 27.755690 Si / 1000 Ang^3
#
#
#
# Elastic Constant Matrix: (Units=GPa)
#
#
# Indices 1 2 3 4 5 6 
#
# 1 111.4168 60.6351 27.0593 -24.9392 16.9412 -34.6119
# 2 60.6351 160.8724 39.5061 -8.3579 16.0086 -17.9294
# 3 27.0593 39.5061 109.6888 -10.7640 23.7408 -6.2663
# 4 -24.9392 -8.3579 -10.7640 33.8115 -11.4590 23.6681
# 5 16.9412 16.0086 23.7408 -11.4590 54.0030 -11.7486
# 6 -34.6119 -17.9294 -6.2663 23.6681 -11.7486 49.3065
#
#
#
# Elastic Compliance Matrix: (Units=1/GPa)
#
#
# Indices 1 2 3 4 5 6 
#
# 1 0.014643 -0.004255 -0.001147 0.004964 -0.000448 0.006096
# 2 -0.004255 0.008341 -0.002024 -0.002524 -0.000597 0.000858
# 3 -0.001147 -0.002024 0.011079 0.002419 -0.003880 -0.002219
# 4 0.004964 -0.002524 0.002419 0.048330 0.004178 -0.019330
# 5 -0.000448 -0.000597 -0.003880 0.004178 0.021904 0.002189
# 6 0.006096 0.000858 -0.002219 -0.019330 0.002189 0.034391
#
#
# Mechanical properties :
#
#
# Convention : Reuss Voigt Hill
#
# Bulk Modulus (GPa) = 52.05654 70.70877 61.38265
# Shear Modulus (GPa) = 31.26107 44.40938 37.83522
#
# Velocity S-wave (km/s) = 3.35967 4.00435 3.69609
# Velocity P-wave (km/s) = 5.81772 6.84912 6.35438
#
# Compressibility (1/GPa) = 0.01920988
#
# Stress axis : x y z
#
# Youngs Moduli (GPa) = 68.29245 119.89051 90.26053
#
# Poissons Ratio (x) = 0.51019 0.10354
# Poissons Ratio (y) = 0.29062 0.18267
# Poissons Ratio (z) = 0.07834 0.24264
#
# Static dielectric constant tensor:
#      x y z
#    x 2.164300 -0.036070 0.022770 
#    y -0.036070 2.083310 0.091060 
#    z 0.022770 0.091060 2.417410 
# 
# From -- ./inp_files/441737.got.cif
#   From: 2010.05.17/outbox.cif.g08.bks.cpg/sg2_221_cif.got.tgz:441737.got - 2010.06.03 11:33:40.
