data_PCOD9095158
_publ_section_title
;
Structure prediction by ZEFSAII (Michael W. Deem and Ramdas Pophale) SiO2 
 PCOD9095158
Probable space group: P -1
;
_chemical_formula_sum "Si O2"
_cell_formula_units_Z 16
_cell_length_a 24.476339
_cell_length_b 9.245062
_cell_length_c 5.344321
_cell_angle_alpha 80.170636
_cell_angle_beta 97.047346
_cell_angle_gamma 150.589711
_cell_volume 584.294765
_symmetry_space_group_name_H-M "P -1"
_symmetry_group_IT_number 2
_symmetry_cell_setting 'triclinic'
loop_
_space_group_symop_operation_xyz
x,y,z
-x,-y,-z
loop_
_atom_site_type_symbol
_atom_site_label
_atom_site_fract_x
_atom_site_fract_y
_atom_site_fract_z
Si Si1 0.467535 0.713245 0.832256
Si Si2 0.662023 0.051631 0.532182
Si Si3 0.691524 0.932781 0.090412
Si Si4 0.859110 0.081067 0.166131
Si Si5 0.348145 0.730829 0.880235
Si Si6 0.821907 0.823285 0.719498
Si Si7 0.051391 0.324011 0.197406
Si Si8 0.071678 0.260233 0.721109
O O1 0.543074 0.851996 0.594900
O O2 0.391067 0.394171 0.922184
O O3 0.395784 0.695617 0.787235
O O4 0.551729 0.944689 0.037804
O O5 0.657739 0.925755 0.338470
O O6 0.718410 0.324397 0.340508
O O7 0.686799 0.026949 0.817230
O O8 0.811618 0.133408 0.138581
O O9 0.807149 0.873693 0.436093
O O10 0.988989 0.334148 0.178828
O O11 0.825027 0.944801 0.914501
O O12 0.271684 0.505766 0.140050
O O13 0.943891 0.031833 0.722745
O O14 0.952390 0.968064 0.250162
O O15 0.118703 0.450111 0.449446
O O16 0.115594 0.418045 0.962194
#
# Coordination Sequence:
#
# PCOD9095158 Si02
#       8
#     2   2   2   2   2   2   2   2
#     4  11  25  43  62  84 108 151 194 243 286 337
#     4  12  26  44  58  85 112 150 194 242 283 341
#     4  12  25  41  63  81 115 151 193 236 288 331
#     4  10  20  35  55  84 113 148 187 226 280 331
#     4  11  25  41  62  85 116 148 191 237 292 337
#     4  10  20  35  55  83 115 146 185 229 280 339
#     4   8  14  26  47  76 111 140 175 221 271 328
#     4   8  14  26  47  76 110 143 171 220 279 321
#
# _framework density 27.383437000000001
#
# number of rings (size 3 to 8) (size 9 to 14) (size 15 to 20)
#    0.000    1.750    2.500    1.875    3.500    1.000 
#    0.000    0.000    0.000    0.000    0.000    1.750 
#    0.000    0.125    0.000    0.000    0.000    0.000 
#
# Total GULP energy -89587.970289 kJ/mol
# GULP energy per Si atom -5599.248143 kJ/mol
# Density = 2.732111 g / cm^3
# Si number density = 27.383437 Si / 1000 Ang^3
#
#
#
# Elastic Constant Matrix: (Units=GPa)
#
#
# Indices 1 2 3 4 5 6 
#
# 1 167.2612 20.9584 95.1024 16.7328 2.6583 -39.1014
# 2 20.9584 83.7787 50.0505 5.2116 4.2258 -24.1793
# 3 95.1024 50.0505 236.7720 20.1729 -18.8443 -19.0021
# 4 16.7328 5.2116 20.1729 47.4828 -2.0592 -1.0577
# 5 2.6583 4.2258 -18.8443 -2.0592 52.9661 1.1268
# 6 -39.1014 -24.1793 -19.0021 -1.0577 1.1268 34.8578
#
#
#
# Elastic Compliance Matrix: (Units=1/GPa)
#
#
# Indices 1 2 3 4 5 6 
#
# 1 0.011248 0.003763 -0.004294 -0.002385 -0.002760 0.012903
# 2 0.003763 0.018002 -0.004330 -0.001294 -0.003523 0.014423
# 3 -0.004294 -0.004330 0.006843 -0.000880 0.003051 -0.004215
# 4 -0.002385 -0.001294 -0.000880 0.022378 0.000852 -0.003401
# 5 -0.002760 -0.003523 0.003051 0.000852 0.020514 -0.004513
# 6 0.012903 0.014423 -0.004215 -0.003401 -0.004513 0.050912
#
#
# Mechanical properties :
#
#
# Convention : Reuss Voigt Hill
#
# Bulk Modulus (GPa) = 37.91948 91.11495 64.51722
# Shear Modulus (GPa) = 33.69096 48.50804 41.09950
#
# Velocity S-wave (km/s) = 3.51143 4.21341 3.87833
# Velocity P-wave (km/s) = 5.50616 7.55092 6.60811
#
# Compressibility (1/GPa) = 0.02637167
#
# Stress axis : x y z
#
# Youngs Moduli (GPa) = 88.90807 55.54911 146.13436
#
# Poissons Ratio (x) = -0.20904 0.62752
# Poissons Ratio (y) = -0.33457 0.63269
# Poissons Ratio (z) = 0.38178 0.24050
#
# Static dielectric constant tensor:
#      x y z
#    x 2.178170 0.120820 -0.021540 
#    y 0.120820 2.222880 -0.078570 
#    z -0.021540 -0.078570 2.182200 
# 
# From -- ./inp_files/116671.got.cif
#   From: 2010.05.17/outbox.cif.g08.bks.cpg/sg2_59_cif.got.tgz:116671.got - 2010.06.03 11:33:40.
