data_PCOD9095187
_publ_section_title
;
Structure prediction by ZEFSAII (Michael W. Deem and Ramdas Pophale) SiO2 
 PCOD9095187
Probable space group: P -1
;
_chemical_formula_sum "Si O2"
_cell_formula_units_Z 16
_cell_length_a 13.476078
_cell_length_b 14.620789
_cell_length_c 11.364042
_cell_angle_alpha 132.401370
_cell_angle_beta 38.722781
_cell_angle_gamma 155.214621
_cell_volume 582.228787
_symmetry_space_group_name_H-M "P -1"
_symmetry_group_IT_number 2
_symmetry_cell_setting 'triclinic'
loop_
_space_group_symop_operation_xyz
x,y,z
-x,-y,-z
loop_
_atom_site_type_symbol
_atom_site_label
_atom_site_fract_x
_atom_site_fract_y
_atom_site_fract_z
Si Si1 0.271089 0.805024 0.677993
Si Si2 0.683103 0.920803 0.223444
Si Si3 0.799851 0.892004 0.455017
Si Si4 0.425338 0.266595 0.091421
Si Si5 0.942927 0.747774 0.304604
Si Si6 0.426585 0.011958 0.952920
Si Si7 0.531709 0.582348 0.167985
Si Si8 0.797795 0.481362 0.421928
O O1 0.444367 0.841324 0.449231
O O2 0.076496 0.569596 0.704411
O O3 0.135346 0.842342 0.781560
O O4 0.467464 0.976503 0.756096
O O5 0.745456 0.835931 0.167436
O O6 0.582966 0.796986 0.086285
O O7 0.729681 0.716402 0.431240
O O8 0.531899 0.752381 0.505842
O O9 0.101101 0.079635 0.273242
O O10 0.840659 0.021640 0.627477
O O11 0.573804 0.495864 0.144497
O O12 0.530530 0.220772 0.033537
O O13 0.900671 0.614722 0.324964
O O14 0.087215 0.792527 0.091877
O O15 0.500000 0.000000 0.000000
O O16 0.235832 0.450189 0.375472
O O17 0.500000 0.500000 0.000000
#
# Coordination Sequence:
#
# PCOD9095187 Si02
#       8
#     2   2   2   2   2   2   2   2
#     4   9  18  33  52  83 107 148 194 226 279 338
#     4   8  16  32  58  79 108 147 187 236 287 329
#     4  10  20  35  55  86 120 148 189 232 285 339
#     4   9  17  34  59  84 114 149 185 236 290 333
#     4  10  21  36  55  82 119 155 186 235 281 333
#     4  10  20  35  56  81 117 156 186 228 286 340
#     4   9  17  33  57  87 109 145 189 239 288 330
#     4  11  20  34  59  84 114 151 191 231 284 343
#
# _framework density 27.480606000000002
#
# number of rings (size 3 to 8) (size 9 to 14) (size 15 to 20)
#    0.000    2.500    1.250    1.125    0.000    0.500 
#    2.250    5.625    0.000    0.750   16.250    0.000 
#    0.000    0.000    0.000    0.000    0.000    0.000 
#
# Total GULP energy -89207.644241 kJ/mol
# GULP energy per Si atom -5575.477765 kJ/mol
# Density = 2.741806 g / cm^3
# Si number density = 27.480606 Si / 1000 Ang^3
#
#
#
# Elastic Constant Matrix: (Units=GPa)
#
#
# Indices 1 2 3 4 5 6 
#
# 1 132.7954 79.6438 32.2010 15.3402 -1.1180 -53.3578
# 2 79.6438 128.0547 58.1778 -4.3106 -17.1668 -75.2306
# 3 32.2010 58.1778 134.7648 8.2110 15.4246 -16.0147
# 4 15.3402 -4.3106 8.2110 43.7872 -11.5331 -6.8924
# 5 -1.1180 -17.1668 15.4246 -11.5331 36.4453 18.9797
# 6 -53.3578 -75.2306 -16.0147 -6.8924 18.9797 83.3604
#
#
#
# Elastic Compliance Matrix: (Units=1/GPa)
#
#
# Indices 1 2 3 4 5 6 
#
# 1 0.015672 -0.012638 0.003661 -0.010093 -0.010701 0.000931
# 2 -0.012638 0.036298 -0.013529 0.018372 0.018113 0.019464
# 3 0.003661 -0.013529 0.013740 -0.009248 -0.012299 -0.005191
# 4 -0.010093 0.018372 -0.009248 0.036308 0.020239 0.006738
# 5 -0.010701 0.018113 -0.012299 0.020239 0.048404 -0.002213
# 6 0.000931 0.019464 -0.005191 0.006738 -0.002213 0.030222
#
#
# Mechanical properties :
#
#
# Convention : Reuss Voigt Hill
#
# Bulk Modulus (GPa) = 48.31295 81.74001 65.02648
# Shear Modulus (GPa) = 21.50029 47.75807 34.62918
#
# Velocity S-wave (km/s) = 2.80014 4.17331 3.55368
# Velocity P-wave (km/s) = 5.29842 7.28226 6.36807
#
# Compressibility (1/GPa) = 0.02069838
#
# Stress axis : x y z
#
# Youngs Moduli (GPa) = 63.80764 27.55003 72.77814
#
# Poissons Ratio (x) = 0.34817 -0.26647
# Poissons Ratio (y) = 0.80638 0.98465
# Poissons Ratio (z) = -0.23362 0.37274
#
# Static dielectric constant tensor:
#      x y z
#    x 2.183260 -0.043410 -0.070630 
#    y -0.043410 2.226300 -0.064940 
#    z -0.070630 -0.064940 2.256270 
# 
# From -- ./inp_files/455873.got.cif
#   From: 2010.05.17/outbox.cif.g08.bks.cpg/sg2_228_cif.got.tgz:455873.got - 2010.06.03 11:33:40.
