data_PCOD9095028
_publ_section_title
;
Structure prediction by ZEFSAII (Michael W. Deem and Ramdas Pophale) SiO2 
 PCOD9095028
Probable space group: P -1
;
_chemical_formula_sum "Si O2"
_cell_formula_units_Z 12
_cell_length_a 5.180594
_cell_length_b 10.923074
_cell_length_c 9.500572
_cell_angle_alpha 74.291778
_cell_angle_beta 78.650488
_cell_angle_gamma 63.905236
_cell_volume 462.904648
_symmetry_space_group_name_H-M "P -1"
_symmetry_group_IT_number 2
_symmetry_cell_setting 'triclinic'
loop_
_space_group_symop_operation_xyz
x,y,z
-x,-y,-z
loop_
_atom_site_type_symbol
_atom_site_label
_atom_site_fract_x
_atom_site_fract_y
_atom_site_fract_z
Si Si1 0.792815 0.376743 0.564015
Si Si2 0.690468 0.761644 0.913770
Si Si3 0.693952 0.164382 0.460720
Si Si4 0.300209 0.032700 0.687373
Si Si5 0.245487 0.416269 0.291759
Si Si6 0.920883 0.165027 0.936867
O O1 0.500000 0.500000 0.500000
O O2 0.779932 0.233711 0.561535
O O3 0.794776 0.429573 0.707912
O O4 0.044093 0.386200 0.437540
O O5 0.812195 0.625368 0.843761
O O6 0.539870 0.899804 0.786622
O O7 0.425341 0.763039 0.037588
O O8 0.933988 0.779667 0.974698
O O9 0.459654 0.109640 0.557589
O O10 0.561654 0.299097 0.330145
O O11 0.863407 0.039041 0.372383
O O12 0.104317 0.146856 0.781975
O O13 0.000000 0.000000 0.000000
#
# Coordination Sequence:
#
# PCOD9095028 Si02
#       6
#     2   2   2   2   2   2
#     4   9  18  33  54  76 103 135 177 228 272 314
#     4  10  21  35  57  79 110 143 184 220 260 316
#     4   9  18  34  51  80 110 140 169 221 275 321
#     4   9  18  34  51  80 113 139 176 212 270 326
#     4   9  19  33  54  82  99 137 183 224 269 316
#     4  10  20  35  53  79 109 150 181 216 256 318
#
# _framework density 25.923261
#
# number of rings (size 3 to 8) (size 9 to 14) (size 15 to 20)
#    0.000    2.667    0.000    2.000    9.333    0.000 
#    9.000    2.500    0.000    2.000    0.000    0.000 
#    0.000    0.000    0.000    0.000    0.000    0.000 
#
# Total GULP energy -67029.603266 kJ/mol
# GULP energy per Si atom -5585.800272 kJ/mol
# Density = 2.586426 g / cm^3
# Si number density = 25.923261 Si / 1000 Ang^3
#
#
#
# Elastic Constant Matrix: (Units=GPa)
#
#
# Indices 1 2 3 4 5 6 
#
# 1 85.3891 38.6993 23.4321 26.2250 9.7599 27.0080
# 2 38.6993 215.1577 45.2186 67.7932 10.7020 23.3445
# 3 23.4321 45.2186 89.6744 45.9266 11.1797 16.6462
# 4 26.2250 67.7932 45.9266 63.4408 7.6150 16.8644
# 5 9.7599 10.7020 11.1797 7.6150 53.2425 14.2242
# 6 27.0080 23.3445 16.6462 16.8644 14.2242 41.7348
#
#
#
# Elastic Compliance Matrix: (Units=1/GPa)
#
#
# Indices 1 2 3 4 5 6 
#
# 1 0.015812 -0.000891 -0.000659 -0.002903 0.000056 -0.008317
# 2 -0.000891 0.007114 0.000618 -0.007513 -0.000174 -0.000554
# 3 -0.000659 0.000618 0.018083 -0.012925 -0.001586 -0.001369
# 4 -0.002903 -0.007513 -0.012925 0.035116 0.000575 -0.003150
# 5 0.000056 -0.000174 -0.001586 0.000575 0.020831 -0.006639
# 6 -0.008317 -0.000554 -0.001369 -0.003150 -0.006639 0.033734
#
#
# Mechanical properties :
#
#
# Convention : Reuss Voigt Hill
#
# Bulk Modulus (GPa) = 25.54632 67.21347 46.37990
# Shear Modulus (GPa) = 34.34009 50.54170 42.44090
#
# Velocity S-wave (km/s) = 3.64357 4.42029 4.05059
# Velocity P-wave (km/s) = 5.25136 7.21361 6.30924
#
# Compressibility (1/GPa) = 0.03914458
#
# Stress axis : x y z
#
# Youngs Moduli (GPa) = 63.24505 140.56402 55.29999
#
# Poissons Ratio (x) = 0.12529 0.03642
# Poissons Ratio (y) = 0.05637 -0.03416
# Poissons Ratio (z) = 0.04165 -0.08684
#
# Static dielectric constant tensor:
#      x y z
#    x 2.078510 -0.080500 0.065640 
#    y -0.080500 2.279850 0.141440 
#    z 0.065640 0.141440 2.369980 
# 
# From -- ./inp_files/64782.got.cif
#   From: 2010.05.17/outbox.cif.g08.bks.cpg/sg2_33_cif.got.tgz:64782.got - 2010.06.03 11:33:40.
