data_PCOD9095917
_publ_section_title
;
Structure prediction by ZEFSAII (Michael W. Deem and Ramdas Pophale) SiO2 
 PCOD9095917
Probable space group: P -1
;
_chemical_formula_sum "Si O2"
_cell_formula_units_Z 12
_cell_length_a 9.177135
_cell_length_b 9.637630
_cell_length_c 11.091229
_cell_angle_alpha 104.609946
_cell_angle_beta 41.039977
_cell_angle_gamma 128.104314
_cell_volume 461.661777
_symmetry_space_group_name_H-M "P -1"
_symmetry_group_IT_number 2
_symmetry_cell_setting 'triclinic'
loop_
_space_group_symop_operation_xyz
x,y,z
-x,-y,-z
loop_
_atom_site_type_symbol
_atom_site_label
_atom_site_fract_x
_atom_site_fract_y
_atom_site_fract_z
Si Si1 0.252254 0.228362 0.884763
Si Si2 0.142299 0.262566 0.219028
Si Si3 0.172678 0.786383 0.143380
Si Si4 0.182217 0.109870 0.537104
Si Si5 0.642865 0.420644 0.146554
Si Si6 0.875881 0.445381 0.432198
O O1 0.318861 0.273144 0.997209
O O2 0.166211 0.351017 0.921220
O O3 0.522194 0.299046 0.644354
O O4 0.000000 0.000000 0.000000
O O5 0.374357 0.351098 0.205635
O O6 0.011552 0.357379 0.277439
O O7 0.851991 0.050774 0.402634
O O8 0.973854 0.842056 0.268551
O O9 0.014524 0.643680 0.325740
O O10 0.213479 0.663789 0.008437
O O11 0.500000 0.000000 0.000000
O O12 0.494213 0.311407 0.342447
O O13 0.000000 0.000000 0.500000
O O14 0.000000 0.500000 0.500000
#
# Coordination Sequence:
#
# PCOD9095917 Si02
#       6
#     2   2   2   2   2   2
#     4  12  26  43  63  93 135 175 209 259 322 379
#     4  11  22  39  66  96 125 163 220 266 312 374
#     4  12  21  33  62  98 128 158 201 265 329 360
#     4  10  20  35  60  96 129 160 206 267 321 369
#     4  11  21  39  63  95 130 164 211 268 313 375
#     4  12  23  38  67  98 125 161 219 267 312 373
#
# _framework density 25.993057
#
# number of rings (size 3 to 8) (size 9 to 14) (size 15 to 20)
#    0.000    0.667    8.333    2.500    0.000    0.667 
#    0.000    0.833    0.000    2.000    0.000    0.000 
#    0.000    0.000    0.000    0.000    0.000    0.000 
#
# Total GULP energy -67098.884575 kJ/mol
# GULP energy per Si atom -5591.573715 kJ/mol
# Density = 2.593390 g / cm^3
# Si number density = 25.993057 Si / 1000 Ang^3
#
#
#
# Elastic Constant Matrix: (Units=GPa)
#
#
# Indices 1 2 3 4 5 6 
#
# 1 56.8603 32.0955 27.0166 -10.7498 -9.3661 -13.5953
# 2 32.0955 180.0014 66.8545 -17.5979 -5.3943 -21.7817
# 3 27.0166 66.8545 173.9573 -19.0230 10.9544 -3.9584
# 4 -10.7498 -17.5979 -19.0230 72.2913 -17.3252 19.0231
# 5 -9.3661 -5.3943 10.9544 -17.3252 32.0719 3.0642
# 6 -13.5953 -21.7817 -3.9584 19.0231 3.0642 36.5146
#
#
#
# Elastic Compliance Matrix: (Units=1/GPa)
#
#
# Indices 1 2 3 4 5 6 
#
# 1 0.023234 -0.001887 -0.002989 0.002982 0.008629 0.004924
# 2 -0.001887 0.007260 -0.002476 0.000376 0.001428 0.003044
# 3 -0.002989 -0.002476 0.007396 0.000577 -0.003331 -0.001809
# 4 0.002982 0.000376 0.000577 0.020235 0.012643 -0.010206
# 5 0.008629 0.001428 -0.003331 0.012643 0.042524 -0.006452
# 6 0.004924 0.003044 -0.001809 -0.010206 -0.006452 0.036697
#
#
# Mechanical properties :
#
#
# Convention : Reuss Voigt Hill
#
# Bulk Modulus (GPa) = 43.12924 73.63914 58.38419
# Shear Modulus (GPa) = 31.29313 47.16572 39.22943
#
# Velocity S-wave (km/s) = 3.47350 4.26438 3.88909
# Velocity P-wave (km/s) = 5.71975 7.25523 6.53276
#
# Compressibility (1/GPa) = 0.02318613
#
# Stress axis : x y z
#
# Youngs Moduli (GPa) = 43.03976 137.74746 135.20678
#
# Poissons Ratio (x) = 0.25993 0.40407
# Poissons Ratio (y) = 0.08122 0.33484
# Poissons Ratio (z) = 0.12862 0.34113
#
# Static dielectric constant tensor:
#      x y z
#    x 2.128520 0.069040 -0.070850 
#    y 0.069040 1.859160 0.022580 
#    z -0.070850 0.022580 2.124830 
# 
# From -- ./inp_files/349349.got.cif
#   From: 2010.05.17/outbox.cif.g08.bks.cpg/sg2_175_cif.got.tgz:349349.got - 2010.06.03 11:33:40.
