data_PCOD9095667
_publ_section_title
;
Structure prediction by ZEFSAII (Michael W. Deem and Ramdas Pophale) SiO2 
 PCOD9095667
Probable space group: P -1
;
_chemical_formula_sum "Si O2"
_cell_formula_units_Z 16
_cell_length_a 9.031727
_cell_length_b 12.824019
_cell_length_c 9.033407
_cell_angle_alpha 117.274750
_cell_angle_beta 103.170541
_cell_angle_gamma 42.373102
_cell_volume 615.951043
_symmetry_space_group_name_H-M "P -1"
_symmetry_group_IT_number 2
_symmetry_cell_setting 'triclinic'
loop_
_space_group_symop_operation_xyz
x,y,z
-x,-y,-z
loop_
_atom_site_type_symbol
_atom_site_label
_atom_site_fract_x
_atom_site_fract_y
_atom_site_fract_z
Si Si1 0.297634 0.595736 0.655922
Si Si2 0.331695 0.188332 0.012479
Si Si3 0.016976 0.167329 0.991316
Si Si4 0.404616 0.798865 0.747495
Si Si5 0.591078 0.829404 0.328032
Si Si6 0.332794 0.613110 0.171762
Si Si7 0.795279 0.026827 0.493129
Si Si8 0.937600 0.368455 0.652780
O O1 0.370741 0.679345 0.657266
O O2 0.510044 0.427840 0.687379
O O3 0.187436 0.574707 0.495586
O O4 0.115319 0.736828 0.827109
O O5 0.102781 0.247772 0.014429
O O6 0.395981 0.169608 0.845295
O O7 0.363813 0.284009 0.184793
O O8 0.500000 0.000000 0.000000
O O9 0.866148 0.211588 0.848106
O O10 0.215546 0.961547 0.918484
O O11 0.346532 0.892100 0.639068
O O12 0.396513 0.850103 0.345682
O O13 0.852233 0.660753 0.320590
O O14 0.500000 0.000000 0.500000
O O15 0.222779 0.561125 0.194004
O O16 0.500000 0.500000 0.000000
O O17 0.000000 0.000000 0.500000
O O18 0.924120 0.833502 0.431209
#
# Coordination Sequence:
#
# PCOD9095667 Si02
#       8
#     2   2   2   2   2   2   2   2
#     4  11  24  34  61  92 121 155 202 253 300 349
#     4  10  20  35  59  85 121 156 202 241 298 360
#     4  10  20  38  61  85 121 159 199 246 298 359
#     4  11  22  37  57  94 125 150 198 255 302 358
#     4  10  21  35  58  90 120 158 198 248 302 358
#     4  10  21  41  60  86 117 164 207 247 296 359
#     4  11  22  36  59  92 130 150 188 252 316 355
#     4  11  20  39  61  85 120 159 207 245 293 362
#
# _framework density 25.976088000000001
#
# number of rings (size 3 to 8) (size 9 to 14) (size 15 to 20)
#    0.000    1.500    3.750    3.000    8.750    1.000 
#    0.000    0.625    0.000    0.750    0.000    0.000 
#    0.000    0.000    0.000    0.000    0.000    0.000 
#
# Total GULP energy -89410.620002 kJ/mol
# GULP energy per Si atom -5588.163750 kJ/mol
# Density = 2.591697 g / cm^3
# Si number density = 25.976088 Si / 1000 Ang^3
#
#
#
# Elastic Constant Matrix: (Units=GPa)
#
#
# Indices 1 2 3 4 5 6 
#
# 1 138.2392 30.4423 60.5484 -8.0061 -9.6837 -30.8166
# 2 30.4423 64.2901 32.3267 -28.8486 6.1303 -18.1392
# 3 60.5484 32.3267 180.1477 -28.8305 -9.8218 -22.6837
# 4 -8.0061 -28.8486 -28.8305 49.6804 -8.1974 7.1515
# 5 -9.6837 6.1303 -9.8218 -8.1974 56.7878 8.8560
# 6 -30.8166 -18.1392 -22.6837 7.1515 8.8560 50.3808
#
#
#
# Elastic Compliance Matrix: (Units=1/GPa)
#
#
# Indices 1 2 3 4 5 6 
#
# 1 0.009880 -0.003401 -0.002556 -0.002313 0.000671 0.003878
# 2 -0.003401 0.024739 -0.000829 0.012192 -0.002437 0.005151
# 3 -0.002556 -0.000829 0.007267 0.003438 0.001299 0.000694
# 4 -0.002313 0.012192 0.003438 0.029381 0.003157 -0.000203
# 5 0.000671 -0.002437 0.001299 0.003157 0.019246 -0.003714
# 6 0.003878 0.005151 0.000694 -0.000203 -0.003714 0.025070
#
#
# Mechanical properties :
#
#
# Convention : Reuss Voigt Hill
#
# Bulk Modulus (GPa) = 35.31818 69.92354 52.62086
# Shear Modulus (GPa) = 36.07700 48.66042 42.36871
#
# Velocity S-wave (km/s) = 3.73078 4.33283 4.04303
# Velocity P-wave (km/s) = 5.67311 7.21167 6.48816
#
# Compressibility (1/GPa) = 0.02831403
#
# Stress axis : x y z
#
# Youngs Moduli (GPa) = 101.21698 40.42268 137.60448
#
# Poissons Ratio (x) = 0.13748 0.35167
# Poissons Ratio (y) = 0.34423 0.11410
# Poissons Ratio (z) = 0.25867 0.03352
#
# Static dielectric constant tensor:
#      x y z
#    x 2.226620 -0.114440 0.044800 
#    y -0.114440 2.245400 0.110270 
#    z 0.044800 0.110270 2.045620 
# 
# From -- ./inp_files/208378.got.cif
#   From: 2010.05.17/outbox.cif.g08.bks.cpg/sg2_105_cif.got.tgz:208378.got - 2010.06.03 11:33:40.
