data_PCOD9095543
_publ_section_title
;
Structure prediction by ZEFSAII (Michael W. Deem and Ramdas Pophale) SiO2 
 PCOD9095543
Probable space group: P -1
;
_chemical_formula_sum "Si O2"
_cell_formula_units_Z 16
_cell_length_a 11.447492
_cell_length_b 25.183558
_cell_length_c 14.976575
_cell_angle_alpha 149.588086
_cell_angle_beta 29.728460
_cell_angle_gamma 154.475838
_cell_volume 857.574930
_symmetry_space_group_name_H-M "P -1"
_symmetry_group_IT_number 2
_symmetry_cell_setting 'triclinic'
loop_
_space_group_symop_operation_xyz
x,y,z
-x,-y,-z
loop_
_atom_site_type_symbol
_atom_site_label
_atom_site_fract_x
_atom_site_fract_y
_atom_site_fract_z
Si Si1 0.839469 0.326905 0.520219
Si Si2 0.089613 0.856468 0.187719
Si Si3 0.278952 0.698703 0.915177
Si Si4 0.347373 0.486723 0.840731
Si Si5 0.700407 0.386584 0.419827
Si Si6 0.404833 0.386281 0.324556
Si Si7 0.558609 0.845197 0.613412
Si Si8 0.611560 0.627400 0.048458
O O1 0.648357 0.198425 0.399159
O O2 0.613669 0.336548 0.739936
O O3 0.013134 0.460299 0.536776
O O4 0.080296 0.332308 0.427351
O O5 0.829564 0.842681 0.398296
O O6 0.916730 0.750233 0.068411
O O7 0.303172 0.007997 0.234464
O O8 0.262773 0.817248 0.074720
O O9 0.274693 0.640446 0.738119
O O10 0.548068 0.715861 0.813285
O O11 0.975136 0.590215 0.012859
O O12 0.422391 0.386925 0.623383
O O13 0.396926 0.555717 0.813253
O O14 0.584448 0.585471 0.903063
O O15 0.639479 0.269583 0.350042
O O16 0.500000 0.500000 0.500000
O O17 0.500000 0.500000 0.000000
#
# Coordination Sequence:
#
# PCOD9095543 Si02
#       8
#     2   2   2   2   2   2   2   2
#     4  10  20  35  58  86 122 151 199 248 293 349
#     4  10  22  37  61  85 124 158 199 242 299 364
#     4  12  21  38  57  89 119 157 199 241 294 355
#     4  11  20  36  60  88 121 157 188 250 300 342
#     4  11  20  35  61  88 120 150 195 247 306 347
#     4  11  22  37  56  88 120 155 202 246 291 347
#     4  10  21  39  58  89 119 162 195 245 305 353
#     4  11  18  35  60  90 121 150 196 243 302 358
#
# _framework density 18.657260999999998
#
# number of rings (size 3 to 8) (size 9 to 14) (size 15 to 20)
#    0.000    1.250    6.250    1.500    0.000    3.500 
#    0.000    0.625    0.000    0.000    0.000    6.125 
#    0.000    0.000    0.000    0.000    0.000    0.000 
#
# Total GULP energy -89252.031799 kJ/mol
# GULP energy per Si atom -5578.251987 kJ/mol
# Density = 1.861480 g / cm^3
# Si number density = 18.657261 Si / 1000 Ang^3
#
#
#
# Elastic Constant Matrix: (Units=GPa)
#
#
# Indices 1 2 3 4 5 6 
#
# 1 98.1857 35.5797 59.6706 3.9229 -11.7910 -4.1125
# 2 35.5797 55.5115 32.4535 12.7220 1.2765 5.7104
# 3 59.6706 32.4535 101.5001 -7.9587 -8.2679 1.5387
# 4 3.9229 12.7220 -7.9587 30.2041 -4.6076 3.9245
# 5 -11.7910 1.2765 -8.2679 -4.6076 42.6830 -3.9590
# 6 -4.1125 5.7104 1.5387 3.9245 -3.9590 20.6850
#
#
#
# Elastic Compliance Matrix: (Units=1/GPa)
#
#
# Indices 1 2 3 4 5 6 
#
# 1 0.019205 -0.007646 -0.008760 -0.001929 0.004350 0.007779
# 2 -0.007646 0.031197 -0.006991 -0.013935 -0.006668 -0.008245
# 3 -0.008760 -0.006991 0.018195 0.009532 0.002104 -0.002571
# 4 -0.001929 -0.013935 0.009532 0.043213 0.005996 -0.004297
# 5 0.004350 -0.006668 0.002104 0.005996 0.026486 0.006481
# 6 0.007779 -0.008245 -0.002571 -0.004297 0.006481 0.054414
#
#
# Mechanical properties :
#
#
# Convention : Reuss Voigt Hill
#
# Bulk Modulus (GPa) = 45.86535 56.73388 51.29961
# Shear Modulus (GPa) = 20.26171 27.21400 23.73786
#
# Velocity S-wave (km/s) = 3.29902 3.82334 3.57082
# Velocity P-wave (km/s) = 6.25683 7.06860 6.67506
#
# Compressibility (1/GPa) = 0.02180295
#
# Stress axis : x y z
#
# Youngs Moduli (GPa) = 52.07057 32.05447 54.95893
#
# Poissons Ratio (x) = 0.24508 0.48147
# Poissons Ratio (y) = 0.39811 0.38421
# Poissons Ratio (z) = 0.45616 0.22409
#
# Static dielectric constant tensor:
#      x y z
#    x 1.659110 -0.002940 -0.012350 
#    y -0.002940 1.647310 -0.019290 
#    z -0.012350 -0.019290 1.683090 
# 
# From -- ./inp_files/423565.got.cif
#   From: 2010.05.17/outbox.cif.g08.bks.cpg/sg2_212_cif.got.tgz:423565.got - 2010.06.03 11:33:40.
