data_PCOD9095808
_publ_section_title
;
Structure prediction by ZEFSAII (Michael W. Deem and Ramdas Pophale) SiO2 
 PCOD9095808
Probable space group: P -1
;
_chemical_formula_sum "Si O2"
_cell_formula_units_Z 16
_cell_length_a 17.338392
_cell_length_b 10.989432
_cell_length_c 7.281091
_cell_angle_alpha 89.127152
_cell_angle_beta 104.969861
_cell_angle_gamma 31.085965
_cell_volume 609.311683
_symmetry_space_group_name_H-M "P -1"
_symmetry_group_IT_number 2
_symmetry_cell_setting 'triclinic'
loop_
_space_group_symop_operation_xyz
x,y,z
-x,-y,-z
loop_
_atom_site_type_symbol
_atom_site_label
_atom_site_fract_x
_atom_site_fract_y
_atom_site_fract_z
Si Si1 0.650811 0.136049 0.118167
Si Si2 0.491112 0.653113 0.566419
Si Si3 0.385166 0.306234 0.806569
Si Si4 0.620769 0.933096 0.683849
Si Si5 0.923414 0.419258 0.341218
Si Si6 0.966952 0.493936 0.722701
Si Si7 0.183744 0.704992 0.385302
Si Si8 0.835601 0.098316 0.279973
O O1 0.613850 0.194233 0.312575
O O2 0.684541 0.230604 0.080562
O O3 0.479734 0.296458 0.943241
O O4 0.831172 0.828170 0.157645
O O5 0.500000 0.500000 0.500000
O O6 0.697616 0.409779 0.703002
O O7 0.414013 0.874073 0.393962
O O8 0.233438 0.451846 0.828819
O O9 0.277297 0.462490 0.542664
O O10 0.555216 0.003002 0.850242
O O11 0.827134 0.635096 0.779725
O O12 0.500000 0.000000 0.500000
O O13 0.871720 0.584517 0.469028
O O14 0.017703 0.381180 0.260475
O O15 0.056477 0.150909 0.534894
O O16 0.977651 0.965121 0.234968
O O17 0.207006 0.758406 0.578766
#
# Coordination Sequence:
#
# PCOD9095808 Si02
#       8
#     2   2   2   2   2   2   2   2
#     4  11  23  37  58  91 127 158 201 258 315 360
#     4  11  22  39  61  95 120 164 208 256 299 374
#     4  10  22  37  57  92 123 159 197 262 314 356
#     4  11  22  41  65  91 120 163 214 253 299 376
#     4   9  17  34  57  84 116 154 204 243 300 361
#     4  10  20  35  60  86 114 166 203 251 298 368
#     4   9  19  36  61  84 113 162 208 244 297 368
#     4   9  17  34  59  84 111 159 206 246 293 369
#
# _framework density 26.259139999999999
#
# number of rings (size 3 to 8) (size 9 to 14) (size 15 to 20)
#    0.000    2.000    2.500    2.250    1.750    1.500 
#    0.000    1.250    0.000    6.750    0.000    0.000 
#    0.000    0.000    0.000    0.000    0.000    0.000 
#
# Total GULP energy -89080.029504 kJ/mol
# GULP energy per Si atom -5567.501844 kJ/mol
# Density = 2.619937 g / cm^3
# Si number density = 26.259140 Si / 1000 Ang^3
#
#
#
# Elastic Constant Matrix: (Units=GPa)
#
#
# Indices 1 2 3 4 5 6 
#
# 1 137.2008 55.8175 34.6138 -19.1203 52.9260 -28.3337
# 2 55.8175 127.3321 21.1369 -4.5471 14.0979 -24.8634
# 3 34.6138 21.1369 63.0265 -14.7217 28.2806 -2.2676
# 4 -19.1203 -4.5471 -14.7217 23.6673 -5.4069 6.9372
# 5 52.9260 14.0979 28.2806 -5.4069 49.9483 -11.6761
# 6 -28.3337 -24.8634 -2.2676 6.9372 -11.6761 72.2907
#
#
#
# Elastic Compliance Matrix: (Units=1/GPa)
#
#
# Indices 1 2 3 4 5 6 
#
# 1 0.016750 -0.005319 0.002146 0.009795 -0.016107 0.001261
# 2 -0.005319 0.010629 -0.003745 -0.004239 0.004918 0.002655
# 3 0.002146 -0.003745 0.026101 0.014802 -0.015212 -0.003506
# 4 0.009795 -0.004239 0.014802 0.057071 -0.012472 -0.004646
# 5 -0.016107 0.004918 -0.015212 -0.012472 0.043701 0.003157
# 6 0.001261 0.002655 -0.003506 -0.004646 0.003157 0.016086
#
#
# Mechanical properties :
#
#
# Convention : Reuss Voigt Hill
#
# Bulk Modulus (GPa) = 25.22513 61.18841 43.20677
# Shear Modulus (GPa) = 25.33048 43.58067 34.45558
#
# Velocity S-wave (km/s) = 3.10923 4.07829 3.62627
# Velocity P-wave (km/s) = 4.74519 6.74751 5.83291
#
# Compressibility (1/GPa) = 0.03964301
#
# Stress axis : x y z
#
# Youngs Moduli (GPa) = 59.70007 94.07873 38.31277
#
# Poissons Ratio (x) = 0.50045 -0.08220
# Poissons Ratio (y) = 0.31757 0.14348
# Poissons Ratio (z) = -0.12809 0.35232
#
# Static dielectric constant tensor:
#      x y z
#    x 2.351430 0.169020 0.023040 
#    y 0.169020 2.317040 -0.035010 
#    z 0.023040 -0.035010 2.114140 
# 
# From -- ./inp_files/333391.got.cif
#   From: 2010.05.17/outbox.cif.g08.bks.cpg/sg2_167_cif.got.tgz:333391.got - 2010.06.03 11:33:40.
