data_PCOD9095065
_publ_section_title
;
Structure prediction by ZEFSAII (Michael W. Deem and Ramdas Pophale) SiO2 
 PCOD9095065
Probable space group: P -1
;
_chemical_formula_sum "Si O2"
_cell_formula_units_Z 14
_cell_length_a 17.670224
_cell_length_b 5.595012
_cell_length_c 7.828076
_cell_angle_alpha 77.664331
_cell_angle_beta 129.223972
_cell_angle_gamma 110.397467
_cell_volume 561.925912
_symmetry_space_group_name_H-M "P -1"
_symmetry_group_IT_number 2
_symmetry_cell_setting 'triclinic'
loop_
_space_group_symop_operation_xyz
x,y,z
-x,-y,-z
loop_
_atom_site_type_symbol
_atom_site_label
_atom_site_fract_x
_atom_site_fract_y
_atom_site_fract_z
Si Si1 0.618096 0.017731 0.177803
Si Si2 0.937030 0.215091 0.397645
Si Si3 0.608148 0.346659 0.606304
Si Si4 0.139447 0.067186 0.356940
Si Si5 0.326359 0.460157 0.697409
Si Si6 0.063896 0.775451 0.980999
Si Si7 0.629081 0.867343 0.606563
O O1 0.671208 0.320202 0.196290
O O2 0.639168 0.779693 0.144003
O O3 0.645829 0.946161 0.420272
O O4 0.500000 0.000000 0.000000
O O5 0.894903 0.240279 0.146218
O O6 0.000000 0.500000 0.500000
O O7 0.856953 0.110159 0.449487
O O8 0.000000 0.000000 0.500000
O O9 0.603826 0.410425 0.386361
O O10 0.664337 0.616807 0.729344
O O11 0.494433 0.238687 0.532871
O O12 0.659610 0.119132 0.724919
O O13 0.216294 0.338263 0.471337
O O14 0.024592 0.084788 0.185115
O O15 0.146519 0.929566 0.209705
O O16 0.000000 0.500000 0.000000
#
# Coordination Sequence:
#
# PCOD9095065 Si02
#       7
#     2   2   2   2   2   2   2
#     4  10  20  35  54  78 106 149 193 234 288 354
#     4  10  20  36  59  87 118 160 201 239 295 363
#     4   8  14  27  45  70  92 127 171 214 267 321
#     4  10  22  37  59  91 124 158 199 251 301 356
#     4  10  21  34  56  79 110 146 190 242 294 340
#     4  10  20  37  63  87 119 162 203 238 295 369
#     4   8  14  26  47  67  93 126 171 216 260 326
#
# _framework density 24.914318000000002
#
# number of rings (size 3 to 8) (size 9 to 14) (size 15 to 20)
#    0.000    2.571    1.429    0.429    2.000    0.000 
#    0.000    1.429    3.143    1.714    0.000    0.000 
#    0.000    0.000    0.000    0.000    0.000    0.000 
#
# Total GULP energy -78087.499840 kJ/mol
# GULP energy per Si atom -5577.678560 kJ/mol
# Density = 2.485761 g / cm^3
# Si number density = 24.914318 Si / 1000 Ang^3
#
#
#
# Elastic Constant Matrix: (Units=GPa)
#
#
# Indices 1 2 3 4 5 6 
#
# 1 37.7010 29.5191 29.9050 -0.6657 -8.5597 -16.9051
# 2 29.5191 203.9898 36.8930 26.6141 -14.1453 -47.8862
# 3 29.9050 36.8930 106.9228 17.6628 -2.4945 4.4738
# 4 -0.6657 26.6141 17.6628 31.9253 4.0076 -7.9726
# 5 -8.5597 -14.1453 -2.4945 4.0076 39.8123 -3.8991
# 6 -16.9051 -47.8862 4.4738 -7.9726 -3.8991 51.0881
#
#
#
# Elastic Compliance Matrix: (Units=1/GPa)
#
#
# Indices 1 2 3 4 5 6 
#
# 1 0.054257 -0.000653 -0.018267 0.015979 0.010861 0.022264
# 2 -0.000653 0.007756 -0.002021 -0.004095 0.003573 0.006864
# 3 -0.018267 -0.002021 0.017314 -0.010669 -0.003603 -0.011395
# 4 0.015979 -0.004095 -0.010669 0.043496 -0.002185 0.009004
# 5 0.010861 0.003573 -0.003603 -0.002185 0.029616 0.009178
# 6 0.022264 0.006864 -0.011395 0.009004 0.009178 0.036478
#
#
# Mechanical properties :
#
#
# Convention : Reuss Voigt Hill
#
# Bulk Modulus (GPa) = 26.70626 60.13865 43.42246
# Shear Modulus (GPa) = 20.55250 41.38489 30.96869
#
# Velocity S-wave (km/s) = 2.87527 4.08007 3.52946
# Velocity P-wave (km/s) = 4.66534 6.81077 5.83746
#
# Compressibility (1/GPa) = 0.03744440
#
# Stress axis : x y z
#
# Youngs Moduli (GPa) = 18.43089 128.94049 57.75640
#
# Poissons Ratio (x) = 0.08417 1.05506
# Poissons Ratio (y) = 0.01203 0.11671
# Poissons Ratio (z) = 0.33669 0.26055
#
# Static dielectric constant tensor:
#      x y z
#    x 1.737560 0.117210 -0.105150 
#    y 0.117210 1.958830 0.047040 
#    z -0.105150 0.047040 1.902240 
# 
# From -- ./inp_files/34749.got.cif
#   From: 2010.05.17/outbox.cif.g08.bks.cpg/sg2_18_cif.got.tgz:34749.got - 2010.06.03 11:33:40.
