data_PCOD9095119
_publ_section_title
;
Structure prediction by ZEFSAII (Michael W. Deem and Ramdas Pophale) SiO2 
 PCOD9095119
Probable space group: P -1
;
_chemical_formula_sum "Si O2"
_cell_formula_units_Z 16
_cell_length_a 10.404433
_cell_length_b 13.745977
_cell_length_c 14.163601
_cell_angle_alpha 33.305545
_cell_angle_beta 82.714936
_cell_angle_gamma 57.340205
_cell_volume 667.536028
_symmetry_space_group_name_H-M "P -1"
_symmetry_group_IT_number 2
_symmetry_cell_setting 'triclinic'
loop_
_space_group_symop_operation_xyz
x,y,z
-x,-y,-z
loop_
_atom_site_type_symbol
_atom_site_label
_atom_site_fract_x
_atom_site_fract_y
_atom_site_fract_z
Si Si1 0.181857 0.298934 0.566963
Si Si2 0.054664 0.147589 0.227545
Si Si3 0.362237 0.544850 0.083442
Si Si4 0.340677 0.801455 0.326113
Si Si5 0.128370 0.475052 0.902285
Si Si6 0.089621 0.766461 0.105002
Si Si7 0.432338 0.096361 0.035269
Si Si8 0.545198 0.167258 0.216805
O O1 0.175505 0.504775 0.364054
O O2 0.378229 0.009427 0.844756
O O3 0.000000 0.500000 0.500000
O O4 0.225873 0.148744 0.586453
O O5 0.046828 0.361696 0.015103
O O6 0.267212 0.836895 0.410963
O O7 0.854339 0.251859 0.124025
O O8 0.029995 0.210829 0.289899
O O9 0.275743 0.626574 0.130993
O O10 0.513657 0.226369 0.284094
O O11 0.469380 0.617035 0.996785
O O12 0.500000 0.500000 0.500000
O O13 0.435761 0.893401 0.239588
O O14 0.117575 0.053254 0.085338
O O15 0.349837 0.260924 0.117383
O O16 0.209211 0.414979 0.836219
O O17 0.000000 0.000000 0.000000
O O18 0.500000 0.000000 0.000000
#
# Coordination Sequence:
#
# PCOD9095119 Si02
#       8
#     2   2   2   2   2   2   2   2
#     4  11  22  36  56  83 116 153 194 239 289 343
#     4   8  15  30  53  78 104 139 182 226 273 328
#     4   9  18  33  54  82 115 150 188 233 285 340
#     4  10  20  35  55  79 107 143 184 228 278 335
#     4   8  15  30  53  78 104 139 182 226 273 328
#     4  11  22  36  56  83 116 153 194 239 289 343
#     4  10  20  35  55  79 107 143 184 228 278 335
#     4   9  18  33  54  82 115 150 188 233 285 340
#
# _framework density 23.968741999999999
#
# number of rings (size 3 to 8) (size 9 to 14) (size 15 to 20)
#    0.000    2.500    0.000    2.250    0.000    2.500 
#    0.000    0.000    0.000    5.250    0.000    0.000 
#    0.000    0.000    0.000    0.000    0.000    0.000 
#
# Total GULP energy -89144.372555 kJ/mol
# GULP energy per Si atom -5571.523285 kJ/mol
# Density = 2.391419 g / cm^3
# Si number density = 23.968742 Si / 1000 Ang^3
#
#
#
# Elastic Constant Matrix: (Units=GPa)
#
#
# Indices 1 2 3 4 5 6 
#
# 1 90.0161 12.4050 16.8177 -0.1703 5.3101 -3.0492
# 2 12.4050 263.8349 34.7899 -52.1828 -5.2358 -9.9724
# 3 16.8177 34.7899 33.2136 -9.3180 6.3461 4.7878
# 4 -0.1703 -52.1828 -9.3180 33.0873 3.6396 -9.4283
# 5 5.3101 -5.2358 6.3461 3.6396 34.1768 -4.8340
# 6 -3.0492 -9.9724 4.7878 -9.4283 -4.8340 40.0108
#
#
#
# Elastic Compliance Matrix: (Units=1/GPa)
#
#
# Indices 1 2 3 4 5 6 
#
# 1 0.012454 0.000143 -0.006959 -0.001212 -0.000280 0.001498
# 2 0.000143 0.006755 -0.005243 0.010419 0.001579 0.004968
# 3 -0.006959 -0.005243 0.042626 0.002573 -0.008959 -0.007414
# 4 -0.001212 0.010419 0.002573 0.051633 -0.002198 0.014098
# 5 -0.000280 0.001579 -0.008959 -0.002198 0.032123 0.004807
# 6 0.001498 0.004968 -0.007414 0.014098 0.004807 0.031136
#
#
# Mechanical properties :
#
#
# Convention : Reuss Voigt Hill
#
# Bulk Modulus (GPa) = 26.51219 57.23221 41.87220
# Shear Modulus (GPa) = 23.42851 42.99180 33.21015
#
# Velocity S-wave (km/s) = 3.12983 4.23976 3.72635
# Velocity P-wave (km/s) = 4.91389 6.92077 6.00181
#
# Compressibility (1/GPa) = 0.03771850
#
# Stress axis : x y z
#
# Youngs Moduli (GPa) = 80.29243 148.04548 23.46003
#
# Poissons Ratio (x) = -0.02124 0.16326
# Poissons Ratio (y) = -0.01152 0.12299
# Poissons Ratio (z) = 0.55876 0.77615
#
# Static dielectric constant tensor:
#      x y z
#    x 1.863680 -0.101590 0.136270 
#    y -0.101590 2.111480 -0.084220 
#    z 0.136270 -0.084220 2.031320 
# 
# From -- ./inp_files/406408.got.cif
#   From: 2010.05.17/outbox.cif.g08.bks.cpg/sg2_204_cif.got.tgz:406408.got - 2010.06.03 11:33:40.
