data_PCOD9095695
_publ_section_title
;
Structure prediction by ZEFSAII (Michael W. Deem and Ramdas Pophale) SiO2 
 PCOD9095695
Probable space group: P -1
;
_chemical_formula_sum "Si O2"
_cell_formula_units_Z 16
_cell_length_a 9.345583
_cell_length_b 14.495429
_cell_length_c 9.121100
_cell_angle_alpha 115.738364
_cell_angle_beta 113.815030
_cell_angle_gamma 35.219653
_cell_volume 639.034260
_symmetry_space_group_name_H-M "P -1"
_symmetry_group_IT_number 2
_symmetry_cell_setting 'triclinic'
loop_
_space_group_symop_operation_xyz
x,y,z
-x,-y,-z
loop_
_atom_site_type_symbol
_atom_site_label
_atom_site_fract_x
_atom_site_fract_y
_atom_site_fract_z
Si Si1 0.795197 0.835444 0.904141
Si Si2 0.749289 0.068136 0.888197
Si Si3 0.037195 0.753220 0.249087
Si Si4 0.485027 0.225459 0.177284
Si Si5 0.036953 0.425169 0.809527
Si Si6 0.836924 0.512063 0.336413
Si Si7 0.422783 0.533959 0.660075
Si Si8 0.942810 0.118963 0.370731
O O1 0.729785 0.958287 0.849735
O O2 0.589496 0.855028 0.879402
O O3 0.000313 0.658693 0.791899
O O4 0.919835 0.824770 0.090548
O O5 0.803456 0.044477 0.719092
O O6 0.544028 0.214034 0.021043
O O7 0.000000 0.000000 0.000000
O O8 0.906023 0.721583 0.245664
O O9 0.324917 0.569969 0.219802
O O10 0.027097 0.846375 0.432425
O O11 0.244256 0.413483 0.256818
O O12 0.731487 0.139053 0.301051
O O13 0.232373 0.378140 0.749748
O O14 0.000000 0.500000 0.000000
O O15 0.640524 0.547106 0.368528
O O16 0.000000 0.500000 0.500000
O O17 0.500000 0.500000 0.500000
O O18 0.186742 0.730376 0.689672
#
# Coordination Sequence:
#
# PCOD9095695 Si02
#       8
#     2   2   2   2   2   2   2   2
#     4  11  23  40  62  93 122 159 205 260 306 357
#     4  10  22  43  63  87 117 165 219 251 286 368
#     4  11  22  38  61  94 129 156 197 257 325 360
#     4  10  21  38  65  85 119 163 208 238 305 364
#     4  11  21  39  61  94 130 160 189 261 320 363
#     4  11  22  35  59  94 126 159 207 246 305 378
#     4  10  20  35  59  87 126 160 202 239 307 368
#     4  10  20  37  63  89 117 165 204 249 299 362
#
# _framework density 25.037780000000001
#
# number of rings (size 3 to 8) (size 9 to 14) (size 15 to 20)
#    0.000    1.500    5.000    1.875    5.250    0.500 
#    4.500    3.125    0.000    0.000    0.000    0.000 
#    0.000    0.000    0.000    0.000    0.000    0.000 
#
# Total GULP energy -89341.195840 kJ/mol
# GULP energy per Si atom -5583.824740 kJ/mol
# Density = 2.498079 g / cm^3
# Si number density = 25.037780 Si / 1000 Ang^3
#
#
#
# Elastic Constant Matrix: (Units=GPa)
#
#
# Indices 1 2 3 4 5 6 
#
# 1 169.9893 3.0167 41.4502 -9.8924 -1.3569 -2.2023
# 2 3.0167 45.9257 13.6988 2.8782 -3.6591 -18.2774
# 3 41.4502 13.6988 161.4928 4.3705 11.3501 -7.7032
# 4 -9.8924 2.8782 4.3705 31.6063 -4.6657 -8.6262
# 5 -1.3569 -3.6591 11.3501 -4.6657 43.5030 14.8422
# 6 -2.2023 -18.2774 -7.7032 -8.6262 14.8422 30.2484
#
#
#
# Elastic Compliance Matrix: (Units=1/GPa)
#
#
# Indices 1 2 3 4 5 6 
#
# 1 0.006471 0.000195 -0.001779 0.002496 0.000794 0.000458
# 2 0.000195 0.029763 -0.001417 0.002504 -0.003739 0.020186
# 3 -0.001779 -0.001417 0.007086 -0.001325 -0.002782 0.001806
# 4 0.002496 0.002504 -0.001325 0.035519 0.000630 0.011177
# 5 0.000794 -0.003739 -0.002782 0.000630 0.029333 -0.017123
# 6 0.000458 0.020186 0.001806 0.011177 -0.017123 0.057340
#
#
# Mechanical properties :
#
#
# Convention : Reuss Voigt Hill
#
# Bulk Modulus (GPa) = 26.79650 54.85990 40.82820
# Shear Modulus (GPa) = 27.18092 42.35435 34.76763
#
# Velocity S-wave (km/s) = 3.29841 4.11739 3.73044
# Velocity P-wave (km/s) = 5.02312 6.67550 5.90737
#
# Compressibility (1/GPa) = 0.03731830
#
# Stress axis : x y z
#
# Youngs Moduli (GPa) = 154.54753 33.59887 141.11349
#
# Poissons Ratio (x) = -0.00654 0.25101
# Poissons Ratio (y) = -0.03008 0.19991
# Poissons Ratio (z) = 0.27490 0.04760
#
# Static dielectric constant tensor:
#      x y z
#    x 2.049370 -0.127580 0.022290 
#    y -0.127580 2.498710 -0.096220 
#    z 0.022290 -0.096220 2.017820 
# 
# From -- ./inp_files/215556.got.cif
#   From: 2010.05.17/outbox.cif.g08.bks.cpg/sg2_108_cif.got.tgz:215556.got - 2010.06.03 11:33:40.
