data_PCOD9095891
_publ_section_title
;
Structure prediction by ZEFSAII (Michael W. Deem and Ramdas Pophale) SiO2 
 PCOD9095891
Probable space group: P -1
;
_chemical_formula_sum "Si O2"
_cell_formula_units_Z 14
_cell_length_a 8.402281
_cell_length_b 9.549388
_cell_length_c 13.835038
_cell_angle_alpha 42.776090
_cell_angle_beta 110.101664
_cell_angle_gamma 88.994472
_cell_volume 641.487727
_symmetry_space_group_name_H-M "P -1"
_symmetry_group_IT_number 2
_symmetry_cell_setting 'triclinic'
loop_
_space_group_symop_operation_xyz
x,y,z
-x,-y,-z
loop_
_atom_site_type_symbol
_atom_site_label
_atom_site_fract_x
_atom_site_fract_y
_atom_site_fract_z
Si Si1 0.983506 0.738413 0.917137
Si Si2 0.559889 0.880249 0.788912
Si Si3 0.388356 0.386079 0.472667
Si Si4 0.021403 0.746275 0.133907
Si Si5 0.034165 0.132387 0.350031
Si Si6 0.731646 0.577764 0.148252
Si Si7 0.425091 0.749588 0.629385
O O1 0.764804 0.880931 0.824952
O O2 0.036176 0.864014 0.776716
O O3 0.000000 0.500000 0.000000
O O4 0.087850 0.684255 0.067338
O O5 0.523379 0.772842 0.737152
O O6 0.413960 0.140462 0.642499
O O7 0.578727 0.715188 0.966320
O O8 0.500000 0.500000 0.500000
O O9 0.177382 0.572993 0.323951
O O10 0.467140 0.321234 0.412643
O O11 0.823533 0.741014 0.122600
O O12 0.000000 0.000000 0.000000
O O13 0.916129 0.388702 0.229960
O O14 0.000000 0.000000 0.500000
O O15 0.257606 0.004167 0.452860
O O16 0.658617 0.435793 0.273836
#
# Coordination Sequence:
#
# PCOD9095891 Si02
#       7
#     2   2   2   2   2   2   2
#     4  11  19  36  63  90 122 160 206 245 298 368
#     4  11  21  36  65  93 121 158 208 253 303 361
#     4  12  25  41  63  92 125 163 210 257 302 362
#     4  11  24  42  66  86 120 167 211 247 304 375
#     4  10  20  35  60  92 128 155 198 249 306 354
#     4  10  22  41  63  94 128 157 202 254 310 366
#     4  11  23  38  65  93 128 158 202 259 311 350
#
# _framework density 21.824266999999999
#
# number of rings (size 3 to 8) (size 9 to 14) (size 15 to 20)
#    0.000    1.143    4.286    4.286    0.000    0.000 
#    0.000    3.571    0.000    0.000    0.000    0.000 
#    0.000    0.000    0.000    0.000    0.000    0.000 
#
# Total GULP energy -78044.416477 kJ/mol
# GULP energy per Si atom -5574.601177 kJ/mol
# Density = 2.177459 g / cm^3
# Si number density = 21.824267 Si / 1000 Ang^3
#
#
#
# Elastic Constant Matrix: (Units=GPa)
#
#
# Indices 1 2 3 4 5 6 
#
# 1 34.7778 -4.4419 15.1380 -3.2567 -12.6119 7.3885
# 2 -4.4419 80.1181 23.4128 -4.4936 2.6032 16.4984
# 3 15.1380 23.4128 143.8883 -4.7875 -2.7305 7.5325
# 4 -3.2567 -4.4936 -4.7875 40.8782 3.2262 1.3881
# 5 -12.6119 2.6032 -2.7305 3.2262 40.3180 -0.3938
# 6 7.3885 16.4984 7.5325 1.3881 -0.3938 23.4876
#
#
#
# Elastic Compliance Matrix: (Units=1/GPa)
#
#
# Indices 1 2 3 4 5 6 
#
# 1 0.038859 0.006290 -0.003999 0.002965 0.011091 -0.015349
# 2 0.006290 0.016327 -0.002563 0.002396 0.000423 -0.012760
# 3 -0.003999 -0.002563 0.007759 0.000336 -0.000582 0.000540
# 4 0.002965 0.002396 0.000336 0.025246 -0.001266 -0.004236
# 5 0.011091 0.000423 -0.000582 -0.001266 0.028277 -0.003051
# 6 -0.015349 -0.012760 0.000540 -0.004236 -0.003051 0.056393
#
#
# Mechanical properties :
#
#
# Convention : Reuss Voigt Hill
#
# Bulk Modulus (GPa) = 16.02530 36.33355 26.17943
# Shear Modulus (GPa) = 25.74590 35.91510 30.83050
#
# Velocity S-wave (km/s) = 3.43839 4.06106 3.76263
# Velocity P-wave (km/s) = 4.80855 6.21884 5.55861
#
# Compressibility (1/GPa) = 0.06240131
#
# Stress axis : x y z
#
# Youngs Moduli (GPa) = 25.73432 61.24667 128.87565
#
# Poissons Ratio (x) = -0.38522 0.51537
# Poissons Ratio (y) = -0.16186 0.33027
# Poissons Ratio (z) = 0.10291 0.15696
#
# Static dielectric constant tensor:
#      x y z
#    x -2.293970 11.713470 -6.737640 
#    y 11.713470 -31.159830 19.077020 
#    z -6.737640 19.077020 -9.150300 
# 
# From -- ./inp_files/183050.got.cif
#   From: 2010.05.17/outbox.cif.g08.bks.cpg/sg2_92_cif.got.tgz:183050.got - 2010.06.03 11:33:40.
