data_PCOD9095370
_publ_section_title
;
Structure prediction by ZEFSAII (Michael W. Deem and Ramdas Pophale) SiO2 
 PCOD9095370
Probable space group: P -1
;
_chemical_formula_sum "Si O2"
_cell_formula_units_Z 16
_cell_length_a 13.507986
_cell_length_b 11.941635
_cell_length_c 7.254767
_cell_angle_alpha 118.075147
_cell_angle_beta 95.430195
_cell_angle_gamma 130.183830
_cell_volume 636.405120
_symmetry_space_group_name_H-M "P -1"
_symmetry_group_IT_number 2
_symmetry_cell_setting 'triclinic'
loop_
_space_group_symop_operation_xyz
x,y,z
-x,-y,-z
loop_
_atom_site_type_symbol
_atom_site_label
_atom_site_fract_x
_atom_site_fract_y
_atom_site_fract_z
Si Si1 0.869390 0.788131 0.702204
Si Si2 0.380284 0.472477 0.072532
Si Si3 0.143859 0.022568 0.679146
Si Si4 0.273189 0.877535 0.303210
Si Si5 0.221588 0.582763 0.596431
Si Si6 0.585457 0.241280 0.894298
Si Si7 0.887214 0.281926 0.508212
Si Si8 0.311821 0.164287 0.415592
O O1 0.822311 0.602602 0.626798
O O2 0.728274 0.747276 0.625122
O O3 0.957914 0.854227 0.569371
O O4 0.000000 0.000000 0.000000
O O5 0.338716 0.550491 0.999385
O O6 0.497049 0.643680 0.380625
O O7 0.500000 0.500000 0.000000
O O8 0.237645 0.240869 0.931679
O O9 0.181928 0.927728 0.716045
O O10 0.208451 0.072948 0.520083
O O11 0.320513 0.787438 0.178514
O O12 0.112913 0.718899 0.271383
O O13 0.266953 0.974372 0.213364
O O14 0.414603 0.060926 0.617685
O O15 0.216928 0.699025 0.551057
O O16 0.066868 0.463800 0.603914
O O17 0.384460 0.733130 0.860914
#
# Coordination Sequence:
#
# PCOD9095370 Si02
#       8
#     2   2   2   2   2   2   2   2
#     4  11  23  36  53  80 111 141 179 224 267 314
#     4   9  17  32  57  81 103 134 179 223 262 311
#     4   9  18  35  57  80 105 139 183 222 263 318
#     4   9  20  36  56  84 109 136 179 224 265 312
#     4  10  21  37  54  76 110 147 179 216 268 320
#     4  10  20  35  57  84 110 137 176 224 267 316
#     4   9  20  36  53  79 111 146 180 215 263 320
#     4   9  18  35  57  78 105 141 177 220 270 317
#
# _framework density 25.141217000000001
#
# number of rings (size 3 to 8) (size 9 to 14) (size 15 to 20)
#    0.000    2.500    0.000    2.625    0.000    7.000 
#    0.000    0.625    0.000    0.000    0.000    0.000 
#    0.000    0.000    0.000    0.000    0.000    0.000 
#
# Total GULP energy -89208.649908 kJ/mol
# GULP energy per Si atom -5575.540619 kJ/mol
# Density = 2.508399 g / cm^3
# Si number density = 25.141217 Si / 1000 Ang^3
#
#
#
# Elastic Constant Matrix: (Units=GPa)
#
#
# Indices 1 2 3 4 5 6 
#
# 1 114.7816 39.1026 10.0195 13.4804 -11.0200 -47.8910
# 2 39.1026 100.1343 25.3941 28.3666 -6.5113 -40.1985
# 3 10.0195 25.3941 73.1207 9.5153 -5.2042 -24.3773
# 4 13.4804 28.3666 9.5153 25.4995 -10.5580 -8.5435
# 5 -11.0200 -6.5113 -5.2042 -10.5580 24.7540 1.1470
# 6 -47.8910 -40.1985 -24.3773 -8.5435 1.1470 60.8554
#
#
#
# Elastic Compliance Matrix: (Units=1/GPa)
#
#
# Indices 1 2 3 4 5 6 
#
# 1 0.014238 -0.000922 0.002746 -0.001415 0.005542 0.011393
# 2 -0.000922 0.019555 -0.001447 -0.019509 -0.004307 0.008954
# 3 0.002746 -0.001447 0.016845 -0.002334 0.003037 0.007568
# 4 -0.001415 -0.019509 -0.002334 0.070711 0.024160 -0.005464
# 5 0.005542 -0.004307 0.003037 0.024160 0.052437 0.005137
# 6 0.011393 0.008954 0.007568 -0.005464 0.005137 0.033481
#
#
# Mechanical properties :
#
#
# Convention : Reuss Voigt Hill
#
# Bulk Modulus (GPa) = 19.45817 48.56321 34.01069
# Shear Modulus (GPa) = 22.35687 36.45649 29.40668
#
# Velocity S-wave (km/s) = 2.98527 3.81211 3.42374
# Velocity P-wave (km/s) = 4.43157 6.22369 5.40246
#
# Compressibility (1/GPa) = 0.05139229
#
# Stress axis : x y z
#
# Youngs Moduli (GPa) = 70.23299 51.13802 59.36372
#
# Poissons Ratio (x) = 0.04713 -0.16300
# Poissons Ratio (y) = 0.06472 0.08593
# Poissons Ratio (z) = -0.19285 0.07402
#
# Static dielectric constant tensor:
#      x y z
#    x 2.085950 -0.032800 -0.015490 
#    y -0.032800 2.037320 -0.051120 
#    z -0.015490 -0.051120 2.129020 
# 
# From -- ./inp_files/257201.got.cif
#   From: 2010.05.17/outbox.cif.g08.bks.cpg/sg2_129_cif.got.tgz:257201.got - 2010.06.03 11:33:40.
