data_PCOD9095146
_publ_section_title
;
Structure prediction by ZEFSAII (Michael W. Deem and Ramdas Pophale) SiO2 
 PCOD9095146
Probable space group: P -1
;
_chemical_formula_sum "Si O2"
_cell_formula_units_Z 14
_cell_length_a 27.971024
_cell_length_b 8.909496
_cell_length_c 4.965259
_cell_angle_alpha 87.092410
_cell_angle_beta 86.829148
_cell_angle_gamma 33.628324
_cell_volume 684.192042
_symmetry_space_group_name_H-M "P -1"
_symmetry_group_IT_number 2
_symmetry_cell_setting 'triclinic'
loop_
_space_group_symop_operation_xyz
x,y,z
-x,-y,-z
loop_
_atom_site_type_symbol
_atom_site_label
_atom_site_fract_x
_atom_site_fract_y
_atom_site_fract_z
Si Si1 0.785819 0.786028 0.838838
Si Si2 0.407544 0.410430 0.986474
Si Si3 0.049849 0.723644 0.419244
Si Si4 0.434227 0.860843 0.796091
Si Si5 0.950984 0.472419 0.027577
Si Si6 0.586513 0.904496 0.724573
Si Si7 0.324586 0.887721 0.673021
O O1 0.853190 0.496689 0.701605
O O2 0.853959 0.737905 0.910398
O O3 0.715413 0.013193 0.618273
O O4 0.741296 0.857277 0.124316
O O5 0.464213 0.370792 0.169174
O O6 0.373995 0.355035 0.166081
O O7 0.341206 0.681898 0.815583
O O8 0.482661 0.155937 0.781235
O O9 0.005887 0.757446 0.174047
O O10 0.054906 0.591055 0.674401
O O11 0.000000 0.000000 0.500000
O O12 0.411448 0.758358 0.696484
O O13 0.398192 0.076650 0.577432
O O14 0.393865 0.010290 0.083288
O O15 0.000000 0.500000 0.000000
#
# Coordination Sequence:
#
# PCOD9095146 Si02
#       7
#     2   2   2   2   2   2   2
#     4  10  23  37  58  90 119 151 186 232 316 327
#     4   9  22  34  59  78 108 157 203 232 287 330
#     4  10  20  39  68  89 115 151 198 230 289 359
#     4  10  20  35  55  82 104 155 202 238 277 333
#     4  10  20  39  67  89 117 148 195 240 282 356
#     4   9  20  36  55  76 107 142 217 237 274 335
#     4  12  22  35  58  81 125 147 188 249 282 348
#
# _framework density 20.462091000000001
#
# number of rings (size 3 to 8) (size 9 to 14) (size 15 to 20)
#    1.714    0.286    1.429    2.571    2.000    0.571 
#    0.000    0.000   12.571    0.000    0.000    0.000 
#    0.000    0.000    0.000    0.000    0.000    0.000 
#
# Total GULP energy -77955.231490 kJ/mol
# GULP energy per Si atom -5568.230821 kJ/mol
# Density = 2.041552 g / cm^3
# Si number density = 20.462091 Si / 1000 Ang^3
#
#
#
# Elastic Constant Matrix: (Units=GPa)
#
#
# Indices 1 2 3 4 5 6 
#
# 1 49.3695 -0.5095 -0.4086 -0.4993 9.2990 -4.1139
# 2 -0.5095 44.1088 -5.3352 4.8793 -6.6901 3.5846
# 3 -0.4086 -5.3352 90.8221 1.1753 5.6772 -3.7812
# 4 -0.4993 4.8793 1.1753 28.3053 3.3247 1.3620
# 5 9.2990 -6.6901 5.6772 3.3247 22.4644 -9.1045
# 6 -4.1139 3.5846 -3.7812 1.3620 -9.1045 16.0270
#
#
#
# Elastic Compliance Matrix: (Units=1/GPa)
#
#
# Indices 1 2 3 4 5 6 
#
# 1 0.022150 -0.001385 0.000627 0.001738 -0.009830 0.000411
# 2 -0.001385 0.024645 0.000973 -0.005256 0.008237 -0.000512
# 3 0.000627 0.000973 0.011271 -0.000435 -0.002188 0.001397
# 4 0.001738 -0.005256 -0.000435 0.037962 -0.011023 -0.007969
# 5 -0.009830 0.008237 -0.002188 -0.011023 0.067063 0.034151
# 6 0.000411 -0.000512 0.001397 -0.007969 0.034151 0.083022
#
#
# Mechanical properties :
#
#
# Convention : Reuss Voigt Hill
#
# Bulk Modulus (GPa) = 17.09470 19.08821 18.09145
# Shear Modulus (GPa) = 18.85511 26.06292 22.45902
#
# Velocity S-wave (km/s) = 3.03886 3.57279 3.31659
# Velocity P-wave (km/s) = 4.54811 5.13504 4.85046
#
# Compressibility (1/GPa) = 0.05849767
#
# Stress axis : x y z
#
# Youngs Moduli (GPa) = 45.14721 40.57559 88.72267
#
# Poissons Ratio (x) = 0.05620 -0.05567
# Poissons Ratio (y) = 0.06253 -0.08636
# Poissons Ratio (z) = -0.02833 -0.03949
#
# Static dielectric constant tensor:
#      x y z
#    x 1.780890 -0.002720 0.012430 
#    y -0.002720 1.775460 0.038890 
#    z 0.012430 0.038890 1.752870 
# 
# From -- ./inp_files/128036.got.cif
#   From: 2010.05.17/outbox.cif.g08.bks.cpg/sg2_65_cif.got.tgz:128036.got - 2010.06.03 11:33:40.
