data_PCOD9095717
_publ_section_title
;
Structure prediction by ZEFSAII (Michael W. Deem and Ramdas Pophale) SiO2 
 PCOD9095717
Probable space group: P -1
;
_chemical_formula_sum "Si O2"
_cell_formula_units_Z 14
_cell_length_a 6.762029
_cell_length_b 9.330071
_cell_length_c 12.380240
_cell_angle_alpha 88.502705
_cell_angle_beta 96.732617
_cell_angle_gamma 129.171493
_cell_volume 600.191215
_symmetry_space_group_name_H-M "P -1"
_symmetry_group_IT_number 2
_symmetry_cell_setting 'triclinic'
loop_
_space_group_symop_operation_xyz
x,y,z
-x,-y,-z
loop_
_atom_site_type_symbol
_atom_site_label
_atom_site_fract_x
_atom_site_fract_y
_atom_site_fract_z
Si Si1 0.477296 0.977524 0.313285
Si Si2 0.545977 0.670278 0.866612
Si Si3 0.842313 0.392489 0.318831
Si Si4 0.702409 0.061829 0.914049
Si Si5 0.828185 0.054152 0.518132
Si Si6 0.750732 0.516654 0.519741
Si Si7 0.828288 0.565316 0.972567
O O1 0.720654 0.183911 0.286714
O O2 0.362566 0.869963 0.196648
O O3 0.592934 0.939744 0.420063
O O4 0.270394 0.979517 0.365197
O O5 0.292075 0.563786 0.776331
O O6 0.681864 0.887801 0.873888
O O7 0.723279 0.610113 0.861882
O O8 0.427194 0.599640 0.979050
O O9 0.726187 0.391013 0.425590
O O10 0.143494 0.509787 0.363099
O O11 0.500000 0.000000 0.000000
O O12 0.986492 0.230968 0.966440
O O13 0.010398 0.273251 0.503912
O O14 0.000000 0.000000 0.500000
O O15 0.500000 0.500000 0.500000
O O16 0.000000 0.500000 0.000000
#
# Coordination Sequence:
#
# PCOD9095717 Si02
#       7
#     2   2   2   2   2   2   2
#     4   9  21  40  62  84 125 161 203 261 306 375
#     4  10  23  43  64  90 128 171 210 271 321 380
#     4   9  20  39  59  83 119 159 202 248 317 368
#     4  11  22  44  67  94 130 178 213 264 329 385
#     4  10  20  39  59  90 123 158 204 253 313 375
#     4  10  20  35  59  89 119 155 201 253 307 380
#     4  11  23  42  65  93 127 163 220 271 317 385
#
# _framework density 23.325897999999999
#
# number of rings (size 3 to 8) (size 9 to 14) (size 15 to 20)
#    0.000    2.000    1.429    1.286    2.000    2.286 
#   12.857    0.000    0.000    0.000    0.000    0.000 
#    0.000    0.000    0.000    0.000    0.000    0.000 
#
# Total GULP energy -77947.829450 kJ/mol
# GULP energy per Si atom -5567.702104 kJ/mol
# Density = 2.327281 g / cm^3
# Si number density = 23.325898 Si / 1000 Ang^3
#
#
#
# Elastic Constant Matrix: (Units=GPa)
#
#
# Indices 1 2 3 4 5 6 
#
# 1 121.5304 7.3034 38.9342 -6.0655 23.3918 -16.5446
# 2 7.3034 73.7388 8.0525 0.3176 12.5870 6.1837
# 3 38.9342 8.0525 126.7289 -4.8519 24.2131 -1.6683
# 4 -6.0655 0.3176 -4.8519 26.8645 3.9471 10.3756
# 5 23.3918 12.5870 24.2131 3.9471 41.7671 -6.5632
# 6 -16.5446 6.1837 -1.6683 10.3756 -6.5632 36.7923
#
#
#
# Elastic Compliance Matrix: (Units=1/GPa)
#
#
# Indices 1 2 3 4 5 6 
#
# 1 0.010274 -0.000419 -0.002310 0.001079 -0.003825 0.003599
# 2 -0.000419 0.014814 0.000212 0.002161 -0.005218 -0.004209
# 3 -0.002310 0.000212 0.009617 0.002844 -0.004980 -0.002329
# 4 0.001079 0.002161 0.002844 0.044748 -0.009338 -0.014034
# 5 -0.003825 -0.005218 -0.004980 -0.009338 0.032586 0.007378
# 6 0.003599 -0.004209 -0.002329 -0.014034 0.007378 0.034673
#
#
# Mechanical properties :
#
#
# Convention : Reuss Voigt Hill
#
# Bulk Modulus (GPa) = 33.70430 47.84203 40.77317
# Shear Modulus (GPa) = 30.93372 38.93197 34.93284
#
# Velocity S-wave (km/s) = 3.64559 4.08983 3.87408
# Velocity P-wave (km/s) = 5.67460 6.54653 6.12610
#
# Compressibility (1/GPa) = 0.02966980
#
# Stress axis : x y z
#
# Youngs Moduli (GPa) = 97.33625 67.50324 103.98453
#
# Poissons Ratio (x) = 0.02827 0.24023
# Poissons Ratio (y) = 0.04077 -0.02201
# Poissons Ratio (z) = 0.22487 -0.01429
#
# Static dielectric constant tensor:
#      x y z
#    x 1.968000 -0.285820 0.071470 
#    y -0.285820 -5.203120 0.014400 
#    z 0.071470 0.014400 1.942670 
# 
# From -- ./inp_files/45321.got.cif
#   From: 2010.05.17/outbox.cif.g08.bks.cpg/sg2_23_cif.got.tgz:45321.got - 2010.06.03 11:33:40.
