data_PCOD9095183
_publ_section_title
;
Structure prediction by ZEFSAII (Michael W. Deem and Ramdas Pophale) SiO2 
 PCOD9095183
Probable space group: P -1
;
_chemical_formula_sum "Si O2"
_cell_formula_units_Z 16
_cell_length_a 13.903399
_cell_length_b 9.004033
_cell_length_c 7.242188
_cell_angle_alpha 73.467599
_cell_angle_beta 127.019507
_cell_angle_gamma 108.097150
_cell_volume 682.362574
_symmetry_space_group_name_H-M "P -1"
_symmetry_group_IT_number 2
_symmetry_cell_setting 'triclinic'
loop_
_space_group_symop_operation_xyz
x,y,z
-x,-y,-z
loop_
_atom_site_type_symbol
_atom_site_label
_atom_site_fract_x
_atom_site_fract_y
_atom_site_fract_z
Si Si1 0.144751 0.059913 0.607968
Si Si2 0.967991 0.501865 0.180209
Si Si3 0.220193 0.673362 0.495926
Si Si4 0.750337 0.224156 0.098805
Si Si5 0.239206 0.310435 0.104444
Si Si6 0.441492 0.577912 0.232163
Si Si7 0.301931 0.371630 0.588712
Si Si8 0.858645 0.017156 0.800802
O O1 0.203688 0.244107 0.632057
O O2 0.225982 0.949783 0.843470
O O3 0.159834 0.020812 0.423680
O O4 0.000000 0.000000 0.500000
O O5 0.880548 0.336826 0.172702
O O6 0.092944 0.549972 0.417695
O O7 0.888504 0.633355 0.093487
O O8 0.000000 0.500000 0.000000
O O9 0.273153 0.748702 0.720918
O O10 0.303765 0.555892 0.559107
O O11 0.180561 0.813170 0.277692
O O12 0.642066 0.294977 0.852390
O O13 0.346480 0.431594 0.086193
O O14 0.262387 0.343619 0.338678
O O15 0.222802 0.124671 0.130701
O O16 0.500000 0.500000 0.500000
O O17 0.558886 0.655179 0.222328
O O18 0.000000 0.000000 0.000000
#
# Coordination Sequence:
#
# PCOD9095183 Si02
#       8
#     2   2   2   2   2   2   2   2
#     4  10  22  38  57  88 122 148 189 241 292 353
#     4  11  19  32  59  85 113 153 196 232 287 358
#     4  11  21  34  56  88 121 151 188 241 307 339
#     4  10  23  37  57  86 121 152 190 247 296 338
#     4   9  18  35  57  84 112 152 194 244 276 340
#     4   9  20  40  62  82 111 155 211 239 280 339
#     4  10  20  37  60  81 112 159 199 235 279 349
#     4  10  20  35  55  85 120 152 182 234 297 349
#
# _framework density 23.447944
#
# number of rings (size 3 to 8) (size 9 to 14) (size 15 to 20)
#    0.000    2.000    2.500    1.125    1.750    2.000 
#    0.000    0.625    0.000    0.000    0.000    0.000 
#    0.000    0.000    0.000    0.000    0.000    0.000 
#
# Total GULP energy -89340.957544 kJ/mol
# GULP energy per Si atom -5583.809846 kJ/mol
# Density = 2.339458 g / cm^3
# Si number density = 23.447944 Si / 1000 Ang^3
#
#
#
# Elastic Constant Matrix: (Units=GPa)
#
#
# Indices 1 2 3 4 5 6 
#
# 1 68.3610 37.1200 16.9048 -5.7511 13.9208 5.0587
# 2 37.1200 135.5352 22.3517 -38.7453 2.4128 -13.8112
# 3 16.9048 22.3517 80.1233 -21.4361 14.2543 -15.1298
# 4 -5.7511 -38.7453 -21.4361 36.3578 -6.7105 -2.2347
# 5 13.9208 2.4128 14.2543 -6.7105 37.1957 3.4087
# 6 5.0587 -13.8112 -15.1298 -2.2347 3.4087 35.7555
#
#
#
# Elastic Compliance Matrix: (Units=1/GPa)
#
#
# Indices 1 2 3 4 5 6 
#
# 1 0.022132 -0.009225 -0.005712 -0.011504 -0.006729 -0.009189
# 2 -0.009225 0.015510 0.003809 0.018549 0.003440 0.009739
# 3 -0.005712 0.003809 0.019485 0.014628 -0.004021 0.011822
# 4 -0.011504 0.018549 0.014628 0.056287 0.006008 0.017927
# 5 -0.006729 0.003440 -0.004021 0.006008 0.031997 -0.002095
# 6 -0.009189 0.009739 0.011822 0.017927 -0.002095 0.039352
#
#
# Mechanical properties :
#
#
# Convention : Reuss Voigt Hill
#
# Bulk Modulus (GPa) = 28.67677 48.53027 38.60352
# Shear Modulus (GPa) = 22.86839 35.70467 29.28653
#
# Velocity S-wave (km/s) = 3.12634 3.90644 3.53796
# Velocity P-wave (km/s) = 5.02877 6.41007 5.76097
#
# Compressibility (1/GPa) = 0.03487143
#
# Stress axis : x y z
#
# Youngs Moduli (GPa) = 45.18294 64.47365 51.32280
#
# Poissons Ratio (x) = 0.59476 0.29316
# Poissons Ratio (y) = 0.41680 -0.19549
# Poissons Ratio (z) = 0.25809 -0.24558
#
# Static dielectric constant tensor:
#      x y z
#    x 1.961090 0.024700 -0.060320 
#    y 0.024700 1.907750 -0.011930 
#    z -0.060320 -0.011930 1.962570 
# 
# From -- ./inp_files/297835.got.cif
#   From: 2010.05.17/outbox.cif.g08.bks.cpg/sg2_149_cif.got.tgz:297835.got - 2010.06.03 11:33:40.
