data_PCOD9095648
_publ_section_title
;
Structure prediction by ZEFSAII (Michael W. Deem and Ramdas Pophale) SiO2 
 PCOD9095648
Probable space group: P -1
;
_chemical_formula_sum "Si O2"
_cell_formula_units_Z 14
_cell_length_a 9.890894
_cell_length_b 8.611020
_cell_length_c 10.061809
_cell_angle_alpha 93.585090
_cell_angle_beta 122.970375
_cell_angle_gamma 58.400326
_cell_volume 581.880298
_symmetry_space_group_name_H-M "P -1"
_symmetry_group_IT_number 2
_symmetry_cell_setting 'triclinic'
loop_
_space_group_symop_operation_xyz
x,y,z
-x,-y,-z
loop_
_atom_site_type_symbol
_atom_site_label
_atom_site_fract_x
_atom_site_fract_y
_atom_site_fract_z
Si Si1 0.263847 0.215136 0.407682
Si Si2 0.100253 0.804018 0.317281
Si Si3 0.918671 0.614093 0.323848
Si Si4 0.364232 0.530491 0.214682
Si Si5 0.652474 0.499009 0.181012
Si Si6 0.397276 0.874923 0.599118
Si Si7 0.954458 0.179461 0.152927
O O1 0.085774 0.437208 0.312014
O O2 0.459865 0.182621 0.455463
O O3 0.173601 0.128072 0.262743
O O4 0.309726 0.100610 0.566772
O O5 0.955970 0.771515 0.318622
O O6 0.271796 0.622683 0.312850
O O7 0.216873 0.859266 0.476391
O O8 0.972670 0.984426 0.158486
O O9 0.000000 0.500000 0.500000
O O10 0.710060 0.644655 0.190881
O O11 0.550157 0.534935 0.270770
O O12 0.453620 0.305249 0.235662
O O13 0.185938 0.670061 0.025880
O O14 0.854923 0.291378 0.245901
O O15 0.500000 0.500000 0.000000
#
# Coordination Sequence:
#
# PCOD9095648 Si02
#       7
#     2   2   2   2   2   2   2
#     4   9  20  38  54  85 118 152 190 239 287 353
#     4  11  22  37  61  89 119 150 196 246 293 339
#     4  11  22  37  61  88 118 154 197 244 295 348
#     4  11  20  36  64  86 113 152 199 241 287 340
#     4   9  21  41  58  80 121 159 191 236 293 354
#     4  10  20  35  59  84 117 149 193 242 291 337
#     4   9  21  40  59  82 123 158 191 233 297 358
#
# _framework density 24.059930000000001
#
# number of rings (size 3 to 8) (size 9 to 14) (size 15 to 20)
#    0.000    2.000    1.429    1.714    2.000    1.714 
#    2.571    7.143    0.000    0.000    0.000    0.000 
#    0.000    0.000    0.000    0.000    0.000    0.000 
#
# Total GULP energy -77968.838482 kJ/mol
# GULP energy per Si atom -5569.202749 kJ/mol
# Density = 2.400517 g / cm^3
# Si number density = 24.059930 Si / 1000 Ang^3
#
#
#
# Elastic Constant Matrix: (Units=GPa)
#
#
# Indices 1 2 3 4 5 6 
#
# 1 138.6174 23.5102 21.9684 8.4059 11.5943 36.2280
# 2 23.5102 70.0493 28.8926 -18.4439 -1.6169 35.9127
# 3 21.9684 28.8926 94.7981 -28.7265 10.0613 22.0364
# 4 8.4059 -18.4439 -28.7265 42.0579 0.8754 -5.9631
# 5 11.5943 -1.6169 10.0613 0.8754 32.3647 -1.3160
# 6 36.2280 35.9127 22.0364 -5.9631 -1.3160 48.1250
#
#
#
# Elastic Compliance Matrix: (Units=1/GPa)
#
#
# Indices 1 2 3 4 5 6 
#
# 1 0.009875 -0.000117 -0.001407 -0.003950 -0.003295 -0.007282
# 2 -0.000117 0.026122 -0.001513 0.007916 0.000883 -0.017707
# 3 -0.001407 -0.001513 0.015787 0.009944 -0.004908 -0.003942
# 4 -0.003950 0.007916 0.009944 0.034412 -0.002345 -0.003287
# 5 -0.003295 0.000883 -0.004908 -0.002345 0.033903 0.004706
# 6 -0.007282 -0.017707 -0.003942 -0.003287 0.004706 0.041002
#
#
# Mechanical properties :
#
#
# Convention : Reuss Voigt Hill
#
# Bulk Modulus (GPa) = 21.87731 50.24525 36.06128
# Shear Modulus (GPa) = 27.41059 39.78242 33.59651
#
# Velocity S-wave (km/s) = 3.37896 4.07070 3.74085
# Velocity P-wave (km/s) = 4.93313 6.55918 5.80339
#
# Compressibility (1/GPa) = 0.04570946
#
# Stress axis : x y z
#
# Youngs Moduli (GPa) = 101.26284 38.28219 63.34507
#
# Poissons Ratio (x) = 0.00446 0.08915
# Poissons Ratio (y) = 0.01181 0.09585
# Poissons Ratio (z) = 0.14252 0.05792
#
# Static dielectric constant tensor:
#      x y z
#    x 2.004490 -0.060230 -0.021380 
#    y -0.060230 2.072510 -0.030540 
#    z -0.021380 -0.030540 2.014330 
# 
# From -- ./inp_files/182323.got.cif
#   From: 2010.05.17/outbox.cif.g08.bks.cpg/sg2_92_cif.got.tgz:182323.got - 2010.06.03 11:33:40.
