data_PCOD9095963
_publ_section_title
;
Structure prediction by ZEFSAII (Michael W. Deem and Ramdas Pophale) SiO2 
 PCOD9095963
Probable space group: P -1
;
_chemical_formula_sum "Si O2"
_cell_formula_units_Z 16
_cell_length_a 9.422194
_cell_length_b 12.307682
_cell_length_c 16.127945
_cell_angle_alpha 140.117308
_cell_angle_beta 41.174383
_cell_angle_gamma 143.772747
_cell_volume 663.174326
_symmetry_space_group_name_H-M "P -1"
_symmetry_group_IT_number 2
_symmetry_cell_setting 'triclinic'
loop_
_space_group_symop_operation_xyz
x,y,z
-x,-y,-z
loop_
_atom_site_type_symbol
_atom_site_label
_atom_site_fract_x
_atom_site_fract_y
_atom_site_fract_z
Si Si1 0.982086 0.324774 0.026989
Si Si2 0.220994 0.264059 0.296234
Si Si3 0.266834 0.445303 0.814172
Si Si4 0.640497 0.009850 0.358618
Si Si5 0.512926 0.881962 0.783169
Si Si6 0.759652 0.372228 0.403367
Si Si7 0.216923 0.600746 0.235648
Si Si8 0.976031 0.175494 0.648609
O O1 0.866910 0.444969 0.103256
O O2 0.730968 0.139963 0.074499
O O3 0.182503 0.464277 0.091893
O O4 0.131210 0.312713 0.876713
O O5 0.439070 0.383728 0.201005
O O6 0.329510 0.164230 0.249342
O O7 0.220354 0.439819 0.450409
O O8 0.938387 0.101262 0.296130
O O9 0.221363 0.301609 0.673177
O O10 0.641199 0.175944 0.397560
O O11 0.500000 0.000000 0.500000
O O12 0.488373 0.790970 0.254372
O O13 0.394783 0.709709 0.663232
O O14 0.720885 0.088051 0.766894
O O15 0.054046 0.454451 0.296919
O O16 0.055747 0.700354 0.336266
O O17 0.000000 0.000000 0.500000
#
# Coordination Sequence:
#
# PCOD9095963 Si02
#       8
#     2   2   2   2   2   2   2   2
#     4   8  18  38  59  82 115 162 203 245 302 344
#     4  11  22  36  57  89 122 157 198 246 303 359
#     4   9  19  35  58  85 120 158 197 254 298 348
#     4  12  25  39  57  91 125 160 199 240 306 369
#     4  10  20  35  61  88 119 155 204 251 296 351
#     4  11  21  40  60  86 124 161 195 245 306 363
#     4  10  21  39  61  84 121 165 198 241 298 366
#     4  11  20  33  59  97 124 151 200 253 302 354
#
# _framework density 24.126387000000001
#
# number of rings (size 3 to 8) (size 9 to 14) (size 15 to 20)
#    0.000    1.750    2.500    3.000    0.000    0.500 
#    0.000    0.625    0.000    3.000    0.000    0.000 
#    0.000    0.000    0.000    0.000    0.000    0.000 
#
# Total GULP energy -89490.325128 kJ/mol
# GULP energy per Si atom -5593.145320 kJ/mol
# Density = 2.407147 g / cm^3
# Si number density = 24.126387 Si / 1000 Ang^3
#
#
#
# Elastic Constant Matrix: (Units=GPa)
#
#
# Indices 1 2 3 4 5 6 
#
# 1 95.8664 45.7695 26.1743 -10.0952 3.9401 34.8466
# 2 45.7695 142.7562 20.6977 -29.0742 8.3091 28.5521
# 3 26.1743 20.6977 37.5903 -14.8794 13.6629 3.6655
# 4 -10.0952 -29.0742 -14.8794 33.6933 -5.9604 5.4619
# 5 3.9401 8.3091 13.6629 -5.9604 14.4511 2.0770
# 6 34.8466 28.5521 3.6655 5.4619 2.0770 54.6939
#
#
#
# Elastic Compliance Matrix: (Units=1/GPa)
#
#
# Indices 1 2 3 4 5 6 
#
# 1 0.019063 -0.002374 -0.015060 0.000877 0.012270 -0.010451
# 2 -0.002374 0.010653 0.000413 0.009227 -0.001352 -0.004947
# 3 -0.015060 0.000413 0.058194 0.012256 -0.046964 0.006039
# 4 0.000877 0.009227 0.012256 0.045658 0.003263 -0.010881
# 5 0.012270 -0.001352 -0.046964 0.003263 0.113616 -0.008604
# 6 -0.010451 -0.004947 0.006039 -0.010881 -0.008604 0.028533
#
#
# Mechanical properties :
#
#
# Convention : Reuss Voigt Hill
#
# Bulk Modulus (GPa) = 18.56351 51.27734 34.92042
# Shear Modulus (GPa) = 15.25715 32.80576 24.03146
#
# Velocity S-wave (km/s) = 2.51745 3.69147 3.15947
# Velocity P-wave (km/s) = 4.02008 6.28244 5.27400
#
# Compressibility (1/GPa) = 0.05386912
#
# Stress axis : x y z
#
# Youngs Moduli (GPa) = 52.45749 93.86711 17.18388
#
# Poissons Ratio (x) = 0.22281 0.25879
# Poissons Ratio (y) = 0.12452 -0.00710
# Poissons Ratio (z) = 0.79001 -0.03876
#
# Static dielectric constant tensor:
#      x y z
#    x 1.913380 0.027440 -0.015380 
#    y 0.027440 1.927570 -0.032190 
#    z -0.015380 -0.032190 1.968920 
# 
# From -- ./inp_files/455006.got.cif
#   From: 2010.05.17/outbox.cif.g08.bks.cpg/sg2_228_cif.got.tgz:455006.got - 2010.06.03 11:33:40.
