data_PCOD9095687
_publ_section_title
;
Structure prediction by ZEFSAII (Michael W. Deem and Ramdas Pophale) SiO2 
 PCOD9095687
Probable space group: P -1
;
_chemical_formula_sum "Si O2"
_cell_formula_units_Z 16
_cell_length_a 7.509654
_cell_length_b 12.015048
_cell_length_c 8.725232
_cell_angle_alpha 69.111086
_cell_angle_beta 105.144460
_cell_angle_gamma 83.145225
_cell_volume 689.986274
_symmetry_space_group_name_H-M "P -1"
_symmetry_group_IT_number 2
_symmetry_cell_setting 'triclinic'
loop_
_space_group_symop_operation_xyz
x,y,z
-x,-y,-z
loop_
_atom_site_type_symbol
_atom_site_label
_atom_site_fract_x
_atom_site_fract_y
_atom_site_fract_z
Si Si1 0.036156 0.104354 0.765106
Si Si2 0.240213 0.367429 0.004815
Si Si3 0.525497 0.771999 0.136406
Si Si4 0.555376 0.842768 0.658172
Si Si5 0.052154 0.627717 0.812957
Si Si6 0.787211 0.144306 0.236651
Si Si7 0.755633 0.728669 0.467856
Si Si8 0.703271 0.018535 0.838737
O O1 0.111363 0.208048 0.641028
O O2 0.086232 0.981484 0.734284
O O3 0.155273 0.065882 0.967371
O O4 0.816241 0.117591 0.753487
O O5 0.302990 0.284787 0.912088
O O6 0.224699 0.509559 0.899988
O O7 0.388569 0.296889 0.197138
O O8 0.040391 0.366949 0.040927
O O9 0.598469 0.689945 0.343324
O O10 0.477358 0.905004 0.144169
O O11 0.347084 0.792575 0.968781
O O12 0.337451 0.883667 0.635880
O O13 0.638835 0.827245 0.515633
O O14 0.652348 0.930724 0.740171
O O15 0.101879 0.756634 0.736749
O O16 0.893440 0.624236 0.650464
#
# Coordination Sequence:
#
# PCOD9095687 Si02
#       8
#     2   2   2   2   2   2   2   2
#     4  10  20  35  59  87 118 152 196 238 282 345
#     4   9  20  41  63  82 114 157 195 233 286 355
#     4  10  22  37  59  85 118 152 188 235 291 342
#     4  10  21  36  57  85 120 154 192 237 291 343
#     4  10  22  40  64  87 111 151 200 241 285 341
#     4  10  21  38  60  84 113 155 196 232 285 356
#     4  11  23  37  58  90 121 151 191 245 292 332
#     4  10  21  38  58  85 119 161 194 226 286 360
#
# _framework density 23.188869
#
# number of rings (size 3 to 8) (size 9 to 14) (size 15 to 20)
#    0.000    2.000    0.000    3.750    0.000   13.000 
#    0.000    0.000    0.000    9.750    0.000    0.000 
#    0.000    0.000    0.000    0.000    0.000    0.000 
#
# Total GULP energy -89184.695091 kJ/mol
# GULP energy per Si atom -5574.043443 kJ/mol
# Density = 2.313609 g / cm^3
# Si number density = 23.188869 Si / 1000 Ang^3
#
#
#
# Elastic Constant Matrix: (Units=GPa)
#
#
# Indices 1 2 3 4 5 6 
#
# 1 60.8944 17.5271 -0.4397 8.4263 -16.9419 -18.7205
# 2 17.5271 35.2462 3.6825 -1.4399 -0.6226 -21.7755
# 3 -0.4397 3.6825 90.8520 19.8241 7.0507 -11.6498
# 4 8.4263 -1.4399 19.8241 34.1254 -7.3396 0.3672
# 5 -16.9419 -0.6226 7.0507 -7.3396 34.5522 1.0550
# 6 -18.7205 -21.7755 -11.6498 0.3672 1.0550 26.1777
#
#
#
# Elastic Compliance Matrix: (Units=1/GPa)
#
#
# Indices 1 2 3 4 5 6 
#
# 1 0.026433 -0.002502 0.003114 -0.006403 0.010375 0.017879
# 2 -0.002502 0.060172 0.004303 -0.000455 -0.002653 0.050292
# 3 0.003114 0.004303 0.015065 -0.010350 -0.004060 0.012819
# 4 -0.006403 -0.000455 -0.010350 0.038599 0.007481 -0.010406
# 5 0.010375 -0.002653 -0.004060 0.007481 0.036342 0.001836
# 6 0.017879 0.050292 0.012819 -0.010406 0.001836 0.098598
#
#
# Mechanical properties :
#
#
# Convention : Reuss Voigt Hill
#
# Bulk Modulus (GPa) = 8.96870 25.39250 17.18060
# Shear Modulus (GPa) = 16.52638 30.05257 23.28948
#
# Velocity S-wave (km/s) = 2.67251 3.60389 3.17257
# Velocity P-wave (km/s) = 3.66049 5.31897 4.56567
#
# Compressibility (1/GPa) = 0.11149893
#
# Stress axis : x y z
#
# Youngs Moduli (GPa) = 37.83085 16.61906 66.38018
#
# Poissons Ratio (x) = 0.04159 -0.20670
# Poissons Ratio (y) = 0.09466 -0.28562
# Poissons Ratio (z) = -0.11780 -0.07151
#
# Static dielectric constant tensor:
#      x y z
#    x 1.936740 0.006600 0.008880 
#    y 0.006600 1.841100 -0.019100 
#    z 0.008880 -0.019100 1.990660 
# 
# From -- ./inp_files/185954.got.cif
#   From: 2010.05.17/outbox.cif.g08.bks.cpg/sg2_93_cif.got.tgz:185954.got - 2010.06.03 11:33:40.
