data_PCOD9095105
_publ_section_title
;
Structure prediction by ZEFSAII (Michael W. Deem and Ramdas Pophale) SiO2 
 PCOD9095105
Probable space group: P -1
;
_chemical_formula_sum "Si O2"
_cell_formula_units_Z 16
_cell_length_a 10.411264
_cell_length_b 7.086483
_cell_length_c 21.067921
_cell_angle_alpha 138.606631
_cell_angle_beta 40.582659
_cell_angle_gamma 123.865388
_cell_volume 668.341880
_symmetry_space_group_name_H-M "P -1"
_symmetry_group_IT_number 2
_symmetry_cell_setting 'triclinic'
loop_
_space_group_symop_operation_xyz
x,y,z
-x,-y,-z
loop_
_atom_site_type_symbol
_atom_site_label
_atom_site_fract_x
_atom_site_fract_y
_atom_site_fract_z
Si Si1 0.096482 0.341141 0.285832
Si Si2 0.525291 0.700997 0.811881
Si Si3 0.516637 0.659075 0.390719
Si Si4 0.889960 0.122955 0.510218
Si Si5 0.064410 0.637833 0.823388
Si Si6 0.850737 0.107411 0.760070
Si Si7 0.691643 0.613072 0.489102
Si Si8 0.924058 0.232674 0.998724
O O1 0.334694 0.363547 0.194199
O O2 0.103458 0.541321 0.397611
O O3 0.905945 0.470260 0.354264
O O4 0.062463 0.017731 0.237409
O O5 0.501377 0.453818 0.704111
O O6 0.306413 0.796159 0.937613
O O7 0.637987 0.965585 0.803211
O O8 0.729928 0.540830 0.305749
O O9 0.348602 0.486865 0.448651
O O10 0.500000 0.000000 0.500000
O O11 0.695592 0.942616 0.549341
O O12 0.000000 0.000000 0.500000
O O13 0.008042 0.023612 0.379986
O O14 0.059049 0.706401 0.917441
O O15 0.877915 0.441712 0.829998
O O16 0.043479 0.935016 0.869018
O O17 0.500000 0.500000 0.500000
O O18 0.000000 0.500000 0.000000
#
# Coordination Sequence:
#
# PCOD9095105 Si02
#       8
#     2   2   2   2   2   2   2   2
#     4   9  21  37  59  84 133 179 216 254 334 407
#     4   9  22  39  70  92 125 183 222 279 342 409
#     4  11  23  40  63  98 135 185 227 266 347 424
#     4  10  20  35  54  90 138 180 207 263 331 405
#     4  10  23  43  69  97 133 180 230 294 350 412
#     4  10  20  39  63  93 129 173 227 270 344 411
#     4  11  23  33  52  90 135 175 221 270 318 398
#     4  10  23  49  71  95 131 175 239 300 353 407
#
# _framework density 23.939844999999998
#
# number of rings (size 3 to 8) (size 9 to 14) (size 15 to 20)
#    0.750    1.250    0.000    3.375    5.250    1.500 
#   13.500    4.375    0.000    0.000    0.000    0.000 
#    0.000    0.000    0.000    0.000    0.000    0.000 
#
# Total GULP energy -89081.632665 kJ/mol
# GULP energy per Si atom -5567.602042 kJ/mol
# Density = 2.388536 g / cm^3
# Si number density = 23.939845 Si / 1000 Ang^3
#
#
#
# Elastic Constant Matrix: (Units=GPa)
#
#
# Indices 1 2 3 4 5 6 
#
# 1 104.7736 33.1402 30.6977 7.4689 -27.4053 14.1906
# 2 33.1402 160.8344 48.2404 15.6152 -28.8245 10.8046
# 3 30.6977 48.2404 98.6972 18.7911 -22.5055 2.6713
# 4 7.4689 15.6152 18.7911 32.0411 -4.2329 -2.2250
# 5 -27.4053 -28.8245 -22.5055 -4.2329 24.6844 2.9875
# 6 14.1906 10.8046 2.6713 -2.2250 2.9875 44.3291
#
#
#
# Elastic Compliance Matrix: (Units=1/GPa)
#
#
# Indices 1 2 3 4 5 6 
#
# 1 0.015012 0.000805 -0.000574 -0.001669 0.017553 -0.006234
# 2 0.000805 0.008710 -0.001854 -0.002320 0.009341 -0.003015
# 3 -0.000574 -0.001854 0.014655 -0.006372 0.009613 -0.001215
# 4 -0.001669 -0.002320 -0.006372 0.036107 -0.004617 0.003607
# 5 0.017553 0.009341 0.009613 -0.004617 0.080591 -0.014138
# 6 -0.006234 -0.003015 -0.001215 0.003607 -0.014138 0.026496
#
#
# Mechanical properties :
#
#
# Convention : Reuss Voigt Hill
#
# Bulk Modulus (GPa) = 28.46438 65.38463 46.92450
# Shear Modulus (GPa) = 25.44180 37.02604 31.23392
#
# Velocity S-wave (km/s) = 3.26350 3.93699 3.61596
# Velocity P-wave (km/s) = 5.11042 6.93093 6.08910
#
# Compressibility (1/GPa) = 0.03513163
#
# Stress axis : x y z
#
# Youngs Moduli (GPa) = 66.61188 114.81483 68.23675
#
# Poissons Ratio (x) = -0.09248 0.03916
# Poissons Ratio (y) = -0.05365 0.12652
# Poissons Ratio (z) = 0.03823 0.21288
#
# Static dielectric constant tensor:
#      x y z
#    x 2.058420 -0.004940 -0.003470 
#    y -0.004940 1.862220 0.008520 
#    z -0.003470 0.008520 2.010820 
# 
# From -- ./inp_files/618138.got.cif
#   From: 2010.05.17/outbox.cif.g08.bks.cpg/sg2_310_cif.got.tgz:618138.got - 2010.06.03 11:33:40.
