data_PCOD9095100
_publ_section_title
;
Structure prediction by ZEFSAII (Michael W. Deem and Ramdas Pophale) SiO2 
 PCOD9095100
Probable space group: P -1
;
_chemical_formula_sum "Si O2"
_cell_formula_units_Z 16
_cell_length_a 22.868030
_cell_length_b 20.585012
_cell_length_c 9.007388
_cell_angle_alpha 137.247289
_cell_angle_beta 29.433682
_cell_angle_gamma 157.547870
_cell_volume 737.293404
_symmetry_space_group_name_H-M "P -1"
_symmetry_group_IT_number 2
_symmetry_cell_setting 'triclinic'
loop_
_space_group_symop_operation_xyz
x,y,z
-x,-y,-z
loop_
_atom_site_type_symbol
_atom_site_label
_atom_site_fract_x
_atom_site_fract_y
_atom_site_fract_z
Si Si1 0.803810 0.290936 0.753812
Si Si2 0.591684 0.458163 0.195961
Si Si3 0.845180 0.526058 0.974077
Si Si4 0.297956 0.926717 0.143297
Si Si5 0.161007 0.159313 0.124629
Si Si6 0.118387 0.865281 0.130862
Si Si7 0.958599 0.833411 0.883933
Si Si8 0.732036 0.851801 0.856985
O O1 0.810441 0.409621 0.956578
O O2 0.811217 0.237452 0.801171
O O3 0.997108 0.396880 0.384713
O O4 0.563933 0.104498 0.890625
O O5 0.500000 0.500000 0.500000
O O6 0.429959 0.299158 0.165944
O O7 0.620180 0.411875 0.199035
O O8 0.840875 0.661411 0.928995
O O9 0.963578 0.689882 0.081857
O O10 0.250780 0.900662 0.028088
O O11 0.186213 0.946395 0.494923
O O12 0.344647 0.245128 0.978614
O O13 0.030390 0.156784 0.490177
O O14 0.208853 0.238482 0.992622
O O15 0.016179 0.963279 0.078539
O O16 0.265807 0.032480 0.973321
O O17 0.000000 0.000000 0.500000
#
# Coordination Sequence:
#
# PCOD9095100 Si02
#       8
#     2   2   2   2   2   2   2   2
#     4  10  23  42  67  90 124 172 218 259 307 373
#     4  12  22  36  63  89 125 164 208 255 319 378
#     4  11  23  41  66  96 125 167 215 260 311 370
#     4  10  21  42  66  91 125 168 211 264 314 363
#     4   9  19  36  58  89 129 162 200 250 315 383
#     4  10  20  37  64  91 128 159 206 260 314 370
#     4  10  20  37  62  90 125 170 206 254 315 383
#     4  10  20  35  54  87 123 160 198 247 304 377
#
# _framework density 21.700994999999999
#
# number of rings (size 3 to 8) (size 9 to 14) (size 15 to 20)
#    0.000    1.750    1.250    4.500    0.000    3.500 
#    0.000    2.500    0.000    0.000    0.000    0.000 
#    0.000    0.000    0.000    0.000    0.000    0.000 
#
# Total GULP energy -89218.865872 kJ/mol
# GULP energy per Si atom -5576.179117 kJ/mol
# Density = 2.165160 g / cm^3
# Si number density = 21.700995 Si / 1000 Ang^3
#
#
#
# Elastic Constant Matrix: (Units=GPa)
#
#
# Indices 1 2 3 4 5 6 
#
# 1 165.0280 29.7858 -2.6265 31.4535 -21.8326 -22.3188
# 2 29.7858 84.2387 -18.8559 40.0398 -15.5005 -19.6347
# 3 -2.6265 -18.8559 18.1903 7.2600 -17.5320 -10.9619
# 4 31.4535 40.0398 7.2600 24.7638 0.6436 4.9600
# 5 -21.8326 -15.5005 -17.5320 0.6436 12.4317 1.1450
# 6 -22.3188 -19.6347 -10.9619 4.9600 1.1450 38.1032
#
#
#
# Elastic Compliance Matrix: (Units=1/GPa)
#
#
# Indices 1 2 3 4 5 6 
#
# 1 0.006332 -0.004164 -0.005751 0.000450 -0.002198 -0.000084
# 2 -0.004164 0.006226 -0.013543 0.000192 -0.018419 -0.002598
# 3 -0.005751 -0.013543 0.011153 0.028334 -0.011758 -0.010473
# 4 0.000450 0.000192 0.028334 0.029474 0.039141 0.003501
# 5 -0.002198 -0.018419 -0.011758 0.039141 0.036881 -0.020365
# 6 -0.000084 -0.002598 -0.010473 0.003501 -0.020365 0.022000
#
#
# Mechanical properties :
#
#
# Convention : Reuss Voigt Hill
#
# Bulk Modulus (GPa) = -43.09625 31.56264 -5.76681
# Shear Modulus (GPa) = 33.05895 32.33666 32.69780
#
# Velocity S-wave (km/s) = 3.90729 3.86437 3.88589
# Velocity P-wave (km/s) = 0.67354 5.87257 4.17975
#
# Compressibility (1/GPa) = -0.02320387
#
# Stress axis : x y z
#
# Youngs Moduli (GPa) = 157.93577 160.61913 89.66252
#
# Poissons Ratio (x) = 0.66882 0.51561
# Poissons Ratio (y) = 0.65765 1.21426
# Poissons Ratio (z) = 0.90822 2.17520
#
# Static dielectric constant tensor:
#      x y z
#    x 1.830410 -0.069450 0.049420 
#    y -0.069450 1.694620 0.008040 
#    z 0.049420 0.008040 1.823760 
# 
# From -- ./inp_files/355290.got.cif
#   From: 2010.05.17/outbox.cif.g08.bks.cpg/sg2_178_cif.got.tgz:355290.got - 2010.06.03 11:33:40.
