data_PCOD9095286
_publ_section_title
;
Structure prediction by ZEFSAII (Michael W. Deem and Ramdas Pophale) SiO2 
 PCOD9095286
Probable space group: P -1
;
_chemical_formula_sum "Si O2"
_cell_formula_units_Z 16
_cell_length_a 12.180101
_cell_length_b 17.400108
_cell_length_c 8.492631
_cell_angle_alpha 70.086889
_cell_angle_beta 120.310730
_cell_angle_gamma 150.788130
_cell_volume 736.709427
_symmetry_space_group_name_H-M "P -1"
_symmetry_group_IT_number 2
_symmetry_cell_setting 'triclinic'
loop_
_space_group_symop_operation_xyz
x,y,z
-x,-y,-z
loop_
_atom_site_type_symbol
_atom_site_label
_atom_site_fract_x
_atom_site_fract_y
_atom_site_fract_z
Si Si1 0.518199 0.409515 0.186516
Si Si2 0.114482 0.799529 0.892603
Si Si3 0.441398 0.525394 0.187125
Si Si4 0.552106 0.763485 0.100308
Si Si5 0.497631 0.118670 0.782462
Si Si6 0.081200 0.919104 0.042851
Si Si7 0.549388 0.931838 0.570215
Si Si8 0.749729 0.372382 0.309149
O O1 0.573340 0.509936 0.285704
O O2 0.613361 0.370841 0.304266
O O3 0.624406 0.497929 0.031480
O O4 0.216111 0.236256 0.075293
O O5 0.815502 0.621145 0.796962
O O6 0.249821 0.924285 0.764395
O O7 0.269952 0.803206 0.030631
O O8 0.157874 0.884250 0.013901
O O9 0.590573 0.690255 0.222524
O O10 0.536200 0.815036 0.199314
O O11 0.292450 0.624856 0.905622
O O12 0.771732 0.921131 0.034615
O O13 0.531838 0.145199 0.604103
O O14 0.173706 0.944868 0.264837
O O15 0.379527 0.787879 0.670168
O O16 0.500000 0.000000 0.500000
O O17 0.000000 0.500000 0.500000
#
# Coordination Sequence:
#
# PCOD9095286 Si02
#       8
#     2   2   2   2   2   2   2   2
#     4   9  19  36  63  85 113 155 192 239 294 341
#     4   9  18  33  57  82 116 156 195 234 277 354
#     4   9  18  33  59  86 107 149 198 235 273 348
#     4   9  20  35  58  91 116 153 194 235 286 352
#     4  10  20  35  56  85 120 160 190 234 296 332
#     4   9  18  37  59  87 116 150 200 241 280 341
#     4  11  22  35  59  89 118 149 197 248 282 336
#     4  10  23  39  57  88 121 144 188 251 294 339
#
# _framework density 21.718197
#
# number of rings (size 3 to 8) (size 9 to 14) (size 15 to 20)
#    0.000    2.500    1.250    0.000    5.250    6.000 
#    0.000    0.000    0.000   20.250    0.000    0.000 
#    0.000    0.000    0.000    0.000    0.000    0.000 
#
# Total GULP energy -89205.887303 kJ/mol
# GULP energy per Si atom -5575.367956 kJ/mol
# Density = 2.166877 g / cm^3
# Si number density = 21.718197 Si / 1000 Ang^3
#
#
#
# Elastic Constant Matrix: (Units=GPa)
#
#
# Indices 1 2 3 4 5 6 
#
# 1 125.5369 35.8154 14.4241 -0.9401 20.9089 -32.3405
# 2 35.8154 63.4644 -2.9462 2.8528 15.8864 -16.3814
# 3 14.4241 -2.9462 29.1501 12.1614 5.4695 -8.6831
# 4 -0.9401 2.8528 12.1614 17.6183 2.4450 3.9985
# 5 20.9089 15.8864 5.4695 2.4450 29.0659 -4.8008
# 6 -32.3405 -16.3814 -8.6831 3.9985 -4.8008 41.0527
#
#
#
# Elastic Compliance Matrix: (Units=1/GPa)
#
#
# Indices 1 2 3 4 5 6 
#
# 1 0.012261 -0.004958 -0.006337 0.005250 -0.004483 0.005305
# 2 -0.004958 0.025390 0.017197 -0.017144 -0.010401 0.010317
# 3 -0.006337 0.017197 0.070196 -0.054936 -0.009976 0.020901
# 4 0.005250 -0.017144 -0.054936 0.102706 0.003338 -0.023938
# 5 -0.004483 -0.010401 -0.009976 0.003338 0.044091 -0.004961
# 6 0.005305 0.010317 0.020901 -0.023938 -0.004961 0.038827
#
#
# Mechanical properties :
#
#
# Convention : Reuss Voigt Hill
#
# Bulk Modulus (GPa) = 8.35765 34.74865 21.55315
# Shear Modulus (GPa) = 15.54960 28.93793 22.24376
#
# Velocity S-wave (km/s) = 2.67867 3.65420 3.20378
# Velocity P-wave (km/s) = 3.66382 5.81711 4.86119
#
# Compressibility (1/GPa) = 0.11965088
#
# Stress axis : x y z
#
# Youngs Moduli (GPa) = 81.55951 39.38520 14.24578
#
# Poissons Ratio (x) = 0.19527 0.09027
# Poissons Ratio (y) = 0.40438 -0.24498
# Poissons Ratio (z) = 0.51684 -0.67730
#
# Static dielectric constant tensor:
#      x y z
#    x 1.800050 -0.005290 0.004120 
#    y -0.005290 1.849830 0.022170 
#    z 0.004120 0.022170 1.843570 
# 
# From -- ./inp_files/277749.got.cif
#   From: 2010.05.17/outbox.cif.g08.bks.cpg/sg2_139_cif.got.tgz:277749.got - 2010.06.03 11:33:40.
