data_PCOD9095679
_publ_section_title
;
Structure prediction by ZEFSAII (Michael W. Deem and Ramdas Pophale) SiO2 
 PCOD9095679
Probable space group: P -1
;
_chemical_formula_sum "Si O2"
_cell_formula_units_Z 16
_cell_length_a 11.299841
_cell_length_b 11.036993
_cell_length_c 16.293924
_cell_angle_alpha 102.269845
_cell_angle_beta 156.615789
_cell_angle_gamma 75.690851
_cell_volume 780.972097
_symmetry_space_group_name_H-M "P -1"
_symmetry_group_IT_number 2
_symmetry_cell_setting 'triclinic'
loop_
_space_group_symop_operation_xyz
x,y,z
-x,-y,-z
loop_
_atom_site_type_symbol
_atom_site_label
_atom_site_fract_x
_atom_site_fract_y
_atom_site_fract_z
Si Si1 0.127692 0.853832 0.050195
Si Si2 0.788231 0.395413 0.664611
Si Si3 0.373274 0.436453 0.112864
Si Si4 0.553136 0.837883 0.602724
Si Si5 0.085737 0.570161 0.434217
Si Si6 0.331339 0.121586 0.503075
Si Si7 0.193246 0.682641 0.761739
Si Si8 0.517490 0.309850 0.873007
O O1 0.822631 0.793940 0.831606
O O2 0.360954 0.823668 0.268489
O O3 0.339747 0.814541 0.100923
O O4 0.000000 0.000000 0.000000
O O5 0.500000 0.500000 0.500000
O O6 0.669201 0.262728 0.566001
O O7 0.945970 0.413942 0.680604
O O8 0.030493 0.411592 0.891397
O O9 0.574398 0.424505 0.320608
O O10 0.556490 0.338873 0.151846
O O11 0.392516 0.574075 0.106555
O O12 0.707680 0.858660 0.616205
O O13 0.383558 0.974848 0.536025
O O14 0.991254 0.435718 0.377273
O O15 0.842167 0.668517 0.340524
O O16 0.048025 0.194804 0.378955
O O17 0.346132 0.680455 0.948245
#
# Coordination Sequence:
#
# PCOD9095679 Si02
#       8
#     2   2   2   2   2   2   2   2
#     4  10  20  35  59  87 113 145 190 239 284 331
#     4  12  24  38  56  84 123 153 188 232 289 346
#     4  11  22  37  59  89 114 152 191 233 290 344
#     4  10  22  37  56  83 118 153 188 235 285 339
#     4  11  22  37  60  88 116 150 191 238 287 342
#     4  10  20  37  60  84 110 148 195 237 284 335
#     4  11  18  36  64  87 114 148 192 242 287 332
#     4  11  18  36  62  88 117 148 189 244 288 329
#
# _framework density 20.487287999999999
#
# number of rings (size 3 to 8) (size 9 to 14) (size 15 to 20)
#    0.000    1.250    3.750    5.250    0.000    1.500 
#    0.000    0.625    0.000    3.750    0.000    0.000 
#    0.000    0.000    0.000    0.000    0.000    0.000 
#
# Total GULP energy -89345.867234 kJ/mol
# GULP energy per Si atom -5584.116702 kJ/mol
# Density = 2.044066 g / cm^3
# Si number density = 20.487288 Si / 1000 Ang^3
#
#
#
# Elastic Constant Matrix: (Units=GPa)
#
#
# Indices 1 2 3 4 5 6 
#
# 1 22.0669 19.9296 -4.6051 -7.7593 0.6968 -20.3219
# 2 19.9296 67.0661 36.7029 -12.1949 14.9286 -24.4764
# 3 -4.6051 36.7029 156.2652 -1.0123 -10.5225 -2.1937
# 4 -7.7593 -12.1949 -1.0123 29.0675 -5.4921 8.3981
# 5 0.6968 14.9286 -10.5225 -5.4921 36.9928 -2.7689
# 6 -20.3219 -24.4764 -2.1937 8.3981 -2.7689 29.9156
#
#
#
# Elastic Compliance Matrix: (Units=1/GPa)
#
#
# Indices 1 2 3 4 5 6 
#
# 1 0.143501 -0.022288 0.011780 0.009771 0.017002 0.078940
# 2 -0.022288 0.034205 -0.009544 0.002314 -0.014999 0.010108
# 3 0.011780 -0.009544 0.009445 0.000285 0.006464 0.001405
# 4 0.009771 0.002314 0.000285 0.039480 0.004667 -0.002099
# 5 0.017002 -0.014999 0.006464 0.004667 0.035425 0.001720
# 6 0.078940 0.010108 0.001405 -0.002099 0.001720 0.096173
#
#
# Mechanical properties :
#
#
# Convention : Reuss Voigt Hill
#
# Bulk Modulus (GPa) = 6.80053 38.82811 22.81432
# Shear Modulus (GPa) = 11.17694 32.08655 21.63175
#
# Velocity S-wave (km/s) = 2.33825 3.96178 3.25293
# Velocity P-wave (km/s) = 3.25829 6.31831 5.02680
#
# Compressibility (1/GPa) = 0.14704731
#
# Stress axis : x y z
#
# Youngs Moduli (GPa) = 6.96860 29.23514 105.87624
#
# Poissons Ratio (x) = 0.65160 -1.24725
# Poissons Ratio (y) = 0.15532 1.01048
# Poissons Ratio (z) = -0.08209 0.27902
#
# Static dielectric constant tensor:
#      x y z
#    x 1.720480 -0.024240 -0.016850 
#    y -0.024240 1.723770 -0.004390 
#    z -0.016850 -0.004390 1.776970 
# 
# From -- ./inp_files/353722.got.cif
#   From: 2010.05.17/outbox.cif.g08.bks.cpg/sg2_177_cif.got.tgz:353722.got - 2010.06.03 11:33:40.
