data_PCOD9095420
_publ_section_title
;
Structure prediction by ZEFSAII (Michael W. Deem and Ramdas Pophale) SiO2 
 PCOD9095420
Probable space group: P -1
;
_chemical_formula_sum "Si O2"
_cell_formula_units_Z 16
_cell_length_a 13.325160
_cell_length_b 17.215098
_cell_length_c 22.682844
_cell_angle_alpha 156.360319
_cell_angle_beta 21.048008
_cell_angle_gamma 148.662678
_cell_volume 749.332423
_symmetry_space_group_name_H-M "P -1"
_symmetry_group_IT_number 2
_symmetry_cell_setting 'triclinic'
loop_
_space_group_symop_operation_xyz
x,y,z
-x,-y,-z
loop_
_atom_site_type_symbol
_atom_site_label
_atom_site_fract_x
_atom_site_fract_y
_atom_site_fract_z
Si Si1 0.000400 0.382053 0.857607
Si Si2 0.537691 0.814973 0.680661
Si Si3 0.441955 0.453203 0.347040
Si Si4 0.432684 0.225051 0.076853
Si Si5 0.898659 0.514532 0.325441
Si Si6 0.765943 0.992891 0.572314
Si Si7 0.927371 0.206249 0.257667
Si Si8 0.714834 0.787972 0.055118
O O1 0.243700 0.494536 0.767038
O O2 0.115891 0.162402 0.646417
O O3 0.676002 0.349800 0.996845
O O4 0.000000 0.500000 0.000000
O O5 0.826061 0.700335 0.455195
O O6 0.295301 0.660433 0.713596
O O7 0.523134 0.891354 0.674675
O O8 0.503345 0.000378 0.869616
O O9 0.445378 0.282611 0.178430
O O10 0.237576 0.426357 0.495525
O O11 0.319455 0.637595 0.506011
O O12 0.131332 0.256901 0.235036
O O13 0.192927 0.406478 0.096972
O O14 0.609061 0.172635 0.754300
O O15 0.000000 0.000000 0.500000
O O16 0.817040 0.986018 0.168783
O O17 0.115672 0.221296 0.105870
#
# Coordination Sequence:
#
# PCOD9095420 Si02
#       8
#     2   2   2   2   2   2   2   2
#     4  10  20  32  49  78 108 135 170 219 266 311
#     4  11  20  33  54  80 106 137 183 223 257 315
#     4  10  20  33  52  76 111 144 171 216 276 315
#     4  11  20  32  51  82 108 135 183 224 257 312
#     4  10  21  35  52  77 111 141 175 218 270 315
#     4  12  19  34  58  81 103 137 178 223 266 310
#     4  10  16  30  51  79 104 136 176 223 263 305
#     4  10  17  31  55  77 105 137 175 221 267 308
#
# _framework density 21.352339000000001
#
# number of rings (size 3 to 8) (size 9 to 14) (size 15 to 20)
#    0.000    1.500    6.250    1.125    0.000    0.500 
#    0.000    0.625    0.000    0.000    0.000    0.875 
#    0.000    1.000    0.000    0.000    0.000    0.000 
#
# Total GULP energy -89207.029428 kJ/mol
# GULP energy per Si atom -5575.439339 kJ/mol
# Density = 2.130374 g / cm^3
# Si number density = 21.352339 Si / 1000 Ang^3
#
#
#
# Elastic Constant Matrix: (Units=GPa)
#
#
# Indices 1 2 3 4 5 6 
#
# 1 76.9039 34.4194 49.1499 12.8528 -7.3762 19.8603
# 2 34.4194 55.1884 24.1171 1.4102 -10.4269 23.2986
# 3 49.1499 24.1171 125.4272 19.6228 -3.7775 11.3884
# 4 12.8528 1.4102 19.6228 36.5696 10.5141 -9.4355
# 5 -7.3762 -10.4269 -3.7775 10.5141 49.6452 6.1108
# 6 19.8603 23.2986 11.3884 -9.4355 6.1108 36.9986
#
#
#
# Elastic Compliance Matrix: (Units=1/GPa)
#
#
# Indices 1 2 3 4 5 6 
#
# 1 0.024545 -0.007541 -0.005697 -0.009183 0.004781 -0.009804
# 2 -0.007541 0.033515 -0.000348 -0.006474 0.009751 -0.020212
# 3 -0.005697 -0.000348 0.011183 -0.004707 0.001119 -0.001550
# 4 -0.009183 -0.006474 -0.004707 0.044021 -0.015387 0.024222
# 5 0.004781 0.009751 0.001119 -0.015387 0.028420 -0.017669
# 6 -0.009804 -0.020212 -0.001550 0.024222 -0.017669 0.054591
#
#
# Mechanical properties :
#
#
# Convention : Reuss Voigt Hill
#
# Bulk Modulus (GPa) = 23.76945 52.54361 38.15653
# Shear Modulus (GPa) = 21.05521 34.63155 27.84338
#
# Velocity S-wave (km/s) = 3.14360 4.03166 3.61501
# Velocity P-wave (km/s) = 4.93280 6.80689 5.94417
#
# Compressibility (1/GPa) = 0.04207081
#
# Stress axis : x y z
#
# Youngs Moduli (GPa) = 40.74173 29.83720 89.42229
#
# Poissons Ratio (x) = 0.22501 0.50946
# Poissons Ratio (y) = 0.30724 0.03108
# Poissons Ratio (z) = 0.23212 0.01037
#
# Static dielectric constant tensor:
#      x y z
#    x 1.777770 0.038200 -0.030010 
#    y 0.038200 1.847380 -0.040740 
#    z -0.030010 -0.040740 1.805980 
# 
# From -- ./inp_files/260331.got.cif
#   From: 2010.05.17/outbox.cif.g08.bks.cpg/sg2_131_cif.got.tgz:260331.got - 2010.06.03 11:33:40.
