data_PCOD9095579
_publ_section_title
;
Structure prediction by ZEFSAII (Michael W. Deem and Ramdas Pophale) SiO2 
 PCOD9095579
Probable space group: P -1
;
_chemical_formula_sum "Si O2"
_cell_formula_units_Z 14
_cell_length_a 8.294837
_cell_length_b 18.952008
_cell_length_c 7.743387
_cell_angle_alpha 58.126777
_cell_angle_beta 36.505265
_cell_angle_gamma 72.303688
_cell_volume 597.231133
_symmetry_space_group_name_H-M "P -1"
_symmetry_group_IT_number 2
_symmetry_cell_setting 'triclinic'
loop_
_space_group_symop_operation_xyz
x,y,z
-x,-y,-z
loop_
_atom_site_type_symbol
_atom_site_label
_atom_site_fract_x
_atom_site_fract_y
_atom_site_fract_z
Si Si1 0.801104 0.561805 0.636670
Si Si2 0.875144 0.080161 0.700337
Si Si3 0.685765 0.022929 0.548553
Si Si4 0.776066 0.315396 0.631612
Si Si5 0.805805 0.734633 0.874574
Si Si6 0.597966 0.187333 0.253112
Si Si7 0.209400 0.264918 0.732432
O O1 0.743862 0.633805 0.462299
O O2 0.000000 0.500000 0.500000
O O3 0.981165 0.620683 0.555325
O O4 0.500000 0.500000 0.000000
O O5 0.794406 0.068257 0.581074
O O6 0.078433 0.173040 0.434381
O O7 0.052757 0.012478 0.691031
O O8 0.576842 0.054328 0.081355
O O9 0.580069 0.088050 0.430027
O O10 0.924640 0.303413 0.339156
O O11 0.471630 0.334283 0.859684
O O12 0.677330 0.228422 0.943559
O O13 0.711332 0.756288 0.117180
O O14 0.353969 0.221551 0.513691
O O15 0.879295 0.230221 0.057430
#
# Coordination Sequence:
#
# PCOD9095579 Si02
#       7
#     2   2   2   2   2   2   2
#     4  11  23  46  70  94 122 160 206 251 306 384
#     4  10  21  34  57  89 125 165 208 272 305 345
#     4  10  20  35  58  89 119 167 225 261 296 344
#     4  11  25  41  65  92 131 164 199 259 325 372
#     4  12  23  42  60  97 132 164 206 258 321 368
#     4  11  21  41  62  92 122 172 225 255 291 377
#     4  11  23  39  69  94 121 167 214 250 301 382
#
# _framework density 23.441509
#
# number of rings (size 3 to 8) (size 9 to 14) (size 15 to 20)
#    0.000    1.143    1.429    6.857    4.000    0.000 
#    0.000    8.571    0.000    0.000    0.000    0.000 
#    0.000    0.000    0.000    0.000    0.000    0.000 
#
# Total GULP energy -78098.816942 kJ/mol
# GULP energy per Si atom -5578.486924 kJ/mol
# Density = 2.338815 g / cm^3
# Si number density = 23.441509 Si / 1000 Ang^3
#
#
#
# Elastic Constant Matrix: (Units=GPa)
#
#
# Indices 1 2 3 4 5 6 
#
# 1 38.0228 -1.6288 47.5085 14.7052 -10.9779 7.2289
# 2 -1.6288 92.7792 44.2391 9.8376 3.5930 -7.1015
# 3 47.5085 44.2391 133.5509 -2.8368 -30.1612 10.7173
# 4 14.7052 9.8376 -2.8368 43.9987 3.5464 -5.3524
# 5 -10.9779 3.5930 -30.1612 3.5464 45.7352 -0.4127
# 6 7.2289 -7.1015 10.7173 -5.3524 -0.4127 29.2447
#
#
#
# Elastic Compliance Matrix: (Units=1/GPa)
#
#
# Indices 1 2 3 4 5 6 
#
# 1 0.108982 0.030423 -0.050393 -0.047193 -0.005893 -0.009804
# 2 0.030423 0.023317 -0.020659 -0.015826 -0.006902 0.002719
# 3 -0.050393 -0.020659 0.035333 0.022703 0.011057 -0.001198
# 4 -0.047193 -0.015826 0.022703 0.044309 0.001520 0.007633
# 5 -0.005893 -0.006902 0.011057 0.001520 0.028134 -0.003596
# 6 -0.009804 0.002719 -0.001198 0.007633 -0.003596 0.039063
#
#
# Mechanical properties :
#
#
# Convention : Reuss Voigt Hill
#
# Bulk Modulus (GPa) = 11.57751 49.39893 30.48822
# Shear Modulus (GPa) = 12.84727 35.41132 24.12930
#
# Velocity S-wave (km/s) = 2.34360 3.89089 3.21181
# Velocity P-wave (km/s) = 3.50327 6.42685 5.17578
#
# Compressibility (1/GPa) = 0.08637439
#
# Stress axis : x y z
#
# Youngs Moduli (GPa) = 9.17582 42.88764 28.30201
#
# Poissons Ratio (x) = -1.30479 1.42622
# Poissons Ratio (y) = -0.27916 0.58470
# Poissons Ratio (z) = 0.46240 0.88603
#
# Static dielectric constant tensor:
#      x y z
#    x 2.031180 0.015990 -0.010100 
#    y 0.015990 1.975850 -0.078380 
#    z -0.010100 -0.078380 1.858550 
# 
# From -- ./inp_files/217222.got.cif
#   From: 2010.05.17/outbox.cif.g08.bks.cpg/sg2_109_cif.got.tgz:217222.got - 2010.06.03 11:33:40.
