data_PCOD9095494
_publ_section_title
;
Structure prediction by ZEFSAII (Michael W. Deem and Ramdas Pophale) SiO2 
 PCOD9095494
Probable space group: P -1
;
_chemical_formula_sum "Si O2"
_cell_formula_units_Z 14
_cell_length_a 12.189163
_cell_length_b 13.682771
_cell_length_c 8.737427
_cell_angle_alpha 53.206399
_cell_angle_beta 109.838830
_cell_angle_gamma 150.072868
_cell_volume 519.977174
_symmetry_space_group_name_H-M "P -1"
_symmetry_group_IT_number 2
_symmetry_cell_setting 'triclinic'
loop_
_space_group_symop_operation_xyz
x,y,z
-x,-y,-z
loop_
_atom_site_type_symbol
_atom_site_label
_atom_site_fract_x
_atom_site_fract_y
_atom_site_fract_z
Si Si1 0.762305 0.244064 0.530511
Si Si2 0.854825 0.071794 0.579138
Si Si3 0.067923 0.608416 0.099607
Si Si4 0.479338 0.113551 0.992689
Si Si5 0.535553 0.403806 0.955543
Si Si6 0.075121 0.951586 0.683239
Si Si7 0.789626 0.769971 0.240119
O O1 0.794152 0.145282 0.552689
O O2 0.000000 0.500000 0.500000
O O3 0.808323 0.378286 0.285123
O O4 0.556386 0.026072 0.762873
O O5 0.842831 0.063796 0.397946
O O6 0.111150 0.258045 0.599092
O O7 0.650785 0.790186 0.812063
O O8 0.241343 0.880363 0.986940
O O9 0.266821 0.682895 0.162761
O O10 0.000000 0.500000 0.000000
O O11 0.498684 0.255686 0.961836
O O12 0.814881 0.665584 0.893123
O O13 0.452673 0.444291 0.776867
O O14 0.000000 0.000000 0.500000
O O15 0.229738 0.147141 0.712508
O O16 0.000000 0.000000 0.000000
#
# Coordination Sequence:
#
# PCOD9095494 Si02
#       7
#     2   2   2   2   2   2   2
#     4   9  18  35  57  80 114 148 182 233 282 331
#     4   9  19  35  55  82 112 149 188 227 282 333
#     4  10  20  35  58  83 111 146 190 236 280 335
#     4   9  20  36  55  82 112 150 186 228 290 335
#     4  10  20  37  57  79 116 150 185 235 279 332
#     4  10  21  35  55  81 112 148 190 234 280 330
#     4   9  20  36  57  83 112 147 188 227 279 340
#
# _framework density 26.924257000000001
#
# number of rings (size 3 to 8) (size 9 to 14) (size 15 to 20)
#    0.000    2.571    0.000    0.857    0.000   10.286 
#    0.000    1.429    0.000   17.143    0.000    0.000 
#    0.000    0.000    0.000    0.000    0.000    0.000 
#
# Total GULP energy -78154.974665 kJ/mol
# GULP energy per Si atom -5582.498190 kJ/mol
# Density = 2.686298 g / cm^3
# Si number density = 26.924257 Si / 1000 Ang^3
#
#
#
# Elastic Constant Matrix: (Units=GPa)
#
#
# Indices 1 2 3 4 5 6 
#
# 1 69.3600 18.9401 4.9585 4.1000 -12.2976 -19.6727
# 2 18.9401 134.8791 15.3988 6.9035 -5.6378 -4.5930
# 3 4.9585 15.3988 104.2594 -5.0891 -23.4702 13.4286
# 4 4.1000 6.9035 -5.0891 29.1366 -7.0486 -11.2493
# 5 -12.2976 -5.6378 -23.4702 -7.0486 39.0773 2.4691
# 6 -19.6727 -4.5930 13.4286 -11.2493 2.4691 49.8441
#
#
#
# Elastic Compliance Matrix: (Units=1/GPa)
#
#
# Indices 1 2 3 4 5 6 
#
# 1 0.017802 -0.002121 -0.000209 0.001917 0.005070 0.007068
# 2 -0.002121 0.007930 -0.001294 -0.002037 -0.000656 -0.000185
# 3 -0.000209 -0.001294 0.012100 0.003117 0.007776 -0.003143
# 4 0.001917 -0.002037 0.003117 0.040497 0.008954 0.008425
# 5 0.005070 -0.000656 0.007776 0.008954 0.033363 0.000214
# 6 0.007068 -0.000185 -0.003143 0.008425 0.000214 0.025573
#
#
# Mechanical properties :
#
#
# Convention : Reuss Voigt Hill
#
# Bulk Modulus (GPa) = 32.69653 43.01035 37.85344
# Shear Modulus (GPa) = 32.31892 41.55835 36.93864
#
# Velocity S-wave (km/s) = 3.46839 3.93304 3.70800
# Velocity P-wave (km/s) = 5.31130 6.05263 5.69404
#
# Compressibility (1/GPa) = 0.03058428
#
# Stress axis : x y z
#
# Youngs Moduli (GPa) = 56.17282 126.10113 82.64550
#
# Poissons Ratio (x) = 0.26752 0.01726
# Poissons Ratio (y) = 0.11917 0.10691
# Poissons Ratio (z) = 0.01173 0.16313
#
# Static dielectric constant tensor:
#      x y z
#    x 2.150490 0.038320 0.060720 
#    y 0.038320 2.105410 0.034470 
#    z 0.060720 0.034470 2.260800 
# 
# From -- ./inp_files/49064.got.cif
#   From: 2010.05.17/outbox.cif.g08.bks.cpg/sg2_25_cif.got.tgz:49064.got - 2010.06.03 11:33:40.
