data_PCOD9095407
_publ_section_title
;
Structure prediction by ZEFSAII (Michael W. Deem and Ramdas Pophale) SiO2 
 PCOD9095407
Probable space group: P -1
;
_chemical_formula_sum "Si O2"
_cell_formula_units_Z 14
_cell_length_a 7.075882
_cell_length_b 15.015648
_cell_length_c 10.466972
_cell_angle_alpha 53.352935
_cell_angle_beta 40.502600
_cell_angle_gamma 75.206174
_cell_volume 535.815917
_symmetry_space_group_name_H-M "P -1"
_symmetry_group_IT_number 2
_symmetry_cell_setting 'triclinic'
loop_
_space_group_symop_operation_xyz
x,y,z
-x,-y,-z
loop_
_atom_site_type_symbol
_atom_site_label
_atom_site_fract_x
_atom_site_fract_y
_atom_site_fract_z
Si Si1 0.742624 0.010197 0.527153
Si Si2 0.835533 0.454302 0.285456
Si Si3 0.054824 0.265689 0.224202
Si Si4 0.882148 0.642444 0.276685
Si Si5 0.049133 0.151981 0.594474
Si Si6 0.684072 0.285936 0.754759
Si Si7 0.024878 0.874825 0.075025
O O1 0.774676 0.146478 0.415842
O O2 0.860354 0.963400 0.379418
O O3 0.000000 0.000000 0.500000
O O4 0.400661 0.916685 0.822191
O O5 0.001347 0.587643 0.143058
O O6 0.482575 0.437171 0.440257
O O7 0.803658 0.378576 0.498519
O O8 0.985354 0.386202 0.171385
O O9 0.142080 0.231210 0.351692
O O10 0.346174 0.276302 0.978850
O O11 0.103128 0.662761 0.270382
O O12 0.882010 0.773519 0.130747
O O13 0.706485 0.161104 0.794410
O O14 0.167893 0.193803 0.639421
O O15 0.000000 0.000000 0.000000
#
# Coordination Sequence:
#
# PCOD9095407 Si02
#       7
#     2   2   2   2   2   2   2
#     4  10  20  35  57  86 116 152 198 241 294 360
#     4  10  22  41  63  88 124 162 197 254 304 350
#     4  10  21  37  61  93 121 155 206 249 297 366
#     4  10  21  41  63  89 124 159 203 249 302 362
#     4   9  19  35  57  83 120 158 191 245 299 345
#     4  10  21  40  64  91 121 160 204 246 303 364
#     4  11  23  38  58  87 120 158 202 248 301 361
#
# _framework density 26.128375999999999
#
# number of rings (size 3 to 8) (size 9 to 14) (size 15 to 20)
#    0.000    2.000    0.000    4.714    0.000    8.571 
#    0.000   14.286    0.000    0.000    0.000    0.000 
#    0.000    0.000    0.000    0.000    0.000    0.000 
#
# Total GULP energy -77977.272833 kJ/mol
# GULP energy per Si atom -5569.805202 kJ/mol
# Density = 2.606891 g / cm^3
# Si number density = 26.128376 Si / 1000 Ang^3
#
#
#
# Elastic Constant Matrix: (Units=GPa)
#
#
# Indices 1 2 3 4 5 6 
#
# 1 83.1497 18.6865 29.5233 16.1563 -0.7183 22.4536
# 2 18.6865 216.2030 60.4346 33.0232 5.8019 1.5586
# 3 29.5233 60.4346 86.2995 40.7397 0.9225 17.9529
# 4 16.1563 33.0232 40.7397 49.9975 3.2256 -1.9132
# 5 -0.7183 5.8019 0.9225 3.2256 35.0850 6.6760
# 6 22.4536 1.5586 17.9529 -1.9132 6.6760 41.2815
#
#
#
# Elastic Compliance Matrix: (Units=1/GPa)
#
#
# Indices 1 2 3 4 5 6 
#
# 1 0.015741 -0.000322 -0.001442 -0.004180 0.002417 -0.008507
# 2 -0.000322 0.005918 -0.004445 -0.000021 -0.001264 0.002088
# 3 -0.001442 -0.004445 0.026696 -0.019081 0.004079 -0.012202
# 4 -0.004180 -0.000021 -0.019081 0.037779 -0.005570 0.013224
# 5 0.002417 -0.001264 0.004079 -0.005570 0.030739 -0.008270
# 6 -0.008507 0.002088 -0.012202 0.013224 -0.008270 0.036029
#
#
# Mechanical properties :
#
#
# Convention : Reuss Voigt Hill
#
# Bulk Modulus (GPa) = 27.82704 66.99345 47.41025
# Shear Modulus (GPa) = 28.20097 43.73999 35.97048
#
# Velocity S-wave (km/s) = 3.28887 4.09594 3.71439
# Velocity P-wave (km/s) = 5.00954 6.93288 6.04815
#
# Compressibility (1/GPa) = 0.03593627
#
# Stress axis : x y z
#
# Youngs Moduli (GPa) = 63.52708 168.98584 37.45919
#
# Poissons Ratio (x) = 0.05449 0.05402
# Poissons Ratio (y) = 0.02049 0.16649
# Poissons Ratio (z) = 0.09162 0.75107
#
# Static dielectric constant tensor:
#      x y z
#    x 2.273250 -0.149890 0.145040 
#    y -0.149890 2.182920 -0.037530 
#    z 0.145040 -0.037530 2.107650 
# 
# From -- ./inp_files/398861.got.cif
#   From: 2010.05.17/outbox.cif.g08.bks.cpg/sg2_200_cif.got.tgz:398861.got - 2010.06.03 11:33:40.
