data_PCOD9095549
_publ_section_title
;
Structure prediction by ZEFSAII (Michael W. Deem and Ramdas Pophale) SiO2 
 PCOD9095549
Probable space group: P -1
;
_chemical_formula_sum "Si O2"
_cell_formula_units_Z 16
_cell_length_a 9.367179
_cell_length_b 16.066741
_cell_length_c 19.175384
_cell_angle_alpha 153.918377
_cell_angle_beta 39.846061
_cell_angle_gamma 142.151269
_cell_volume 759.946457
_symmetry_space_group_name_H-M "P -1"
_symmetry_group_IT_number 2
_symmetry_cell_setting 'triclinic'
loop_
_space_group_symop_operation_xyz
x,y,z
-x,-y,-z
loop_
_atom_site_type_symbol
_atom_site_label
_atom_site_fract_x
_atom_site_fract_y
_atom_site_fract_z
Si Si1 0.672953 0.783845 0.313628
Si Si2 0.879556 0.302586 0.945268
Si Si3 0.328674 0.028038 0.335903
Si Si4 0.477997 0.541116 0.753497
Si Si5 0.310717 0.507631 0.134396
Si Si6 0.911486 0.192397 0.601635
Si Si7 0.112713 0.236727 0.122403
Si Si8 0.789434 0.389920 0.441416
O O1 0.636447 0.667832 0.315405
O O2 0.447759 0.664999 0.262439
O O3 0.896343 0.761563 0.171240
O O4 0.744922 0.017886 0.481012
O O5 0.699097 0.118746 0.829843
O O6 0.727656 0.366541 0.107701
O O7 0.000000 0.500000 0.000000
O O8 0.597750 0.163994 0.356695
O O9 0.168485 0.167300 0.484909
O O10 0.197183 0.879933 0.335984
O O11 0.674742 0.676554 0.836137
O O12 0.615529 0.516734 0.614281
O O13 0.117852 0.596684 0.244612
O O14 0.206132 0.294933 0.053274
O O15 0.500000 0.500000 0.000000
O O16 0.929114 0.355296 0.295913
O O17 0.000000 0.000000 0.000000
O O18 0.000000 0.500000 0.500000
#
# Coordination Sequence:
#
# PCOD9095549 Si02
#       8
#     2   2   2   2   2   2   2   2
#     4   9  18  35  52  85 125 158 187 248 313 357
#     4   9  18  29  54  86 126 152 199 249 306 355
#     4  10  20  35  62  92 117 163 204 250 301 369
#     4   9  17  31  54  85 114 149 205 247 289 351
#     4  11  25  37  58  90 125 160 197 257 309 361
#     4  10  21  36  59  89 124 153 203 250 310 361
#     4  10  22  38  56  82 119 160 206 242 300 365
#     4  10  20  35  58  87 116 159 208 250 294 360
#
# _framework density 21.054113999999998
#
# number of rings (size 3 to 8) (size 9 to 14) (size 15 to 20)
#    0.000    2.250    1.250    1.125    8.750    0.000 
#    0.000    0.625    0.000    0.000    0.000    6.125 
#    0.000    0.000    0.000    0.000    0.000    0.000 
#
# Total GULP energy -89160.777115 kJ/mol
# GULP energy per Si atom -5572.548570 kJ/mol
# Density = 2.100619 g / cm^3
# Si number density = 21.054114 Si / 1000 Ang^3
#
#
#
# Elastic Constant Matrix: (Units=GPa)
#
#
# Indices 1 2 3 4 5 6 
#
# 1 58.7556 27.1726 24.3434 12.3695 3.7639 10.2459
# 2 27.1726 93.4380 35.1157 4.6768 1.6175 9.9846
# 3 24.3434 35.1157 101.6334 -17.0663 -15.1496 -5.8727
# 4 12.3695 4.6768 -17.0663 44.8241 5.2335 5.5661
# 5 3.7639 1.6175 -15.1496 5.2335 22.3242 6.6232
# 6 10.2459 9.9846 -5.8727 5.5661 6.6232 31.6500
#
#
#
# Elastic Compliance Matrix: (Units=1/GPa)
#
#
# Indices 1 2 3 4 5 6 
#
# 1 0.024498 -0.003353 -0.007125 -0.007805 -0.005191 -0.005736
# 2 -0.003353 0.013998 -0.004863 -0.001687 -0.002331 -0.003449
# 3 -0.007125 -0.004863 0.016063 0.007010 0.009759 0.003546
# 4 -0.007805 -0.001687 0.007010 0.027373 -0.000093 -0.000435
# 5 -0.005191 -0.002331 0.009759 -0.000093 0.054615 -0.007186
# 6 -0.005736 -0.003449 0.003546 -0.000435 -0.007186 0.036779
#
#
# Mechanical properties :
#
#
# Convention : Reuss Voigt Hill
#
# Bulk Modulus (GPa) = 41.88255 47.45451 44.66853
# Shear Modulus (GPa) = 23.58839 30.90603 27.24721
#
# Velocity S-wave (km/s) = 3.35082 3.83552 3.60133
# Velocity P-wave (km/s) = 5.90819 6.49640 6.20926
#
# Compressibility (1/GPa) = 0.02387629
#
# Stress axis : x y z
#
# Youngs Moduli (GPa) = 40.81887 71.43654 62.25491
#
# Poissons Ratio (x) = 0.23953 0.44358
# Poissons Ratio (y) = 0.13687 0.30277
# Poissons Ratio (z) = 0.29085 0.34743
#
# Static dielectric constant tensor:
#      x y z
#    x 1.786570 0.032230 0.012370 
#    y 0.032230 1.757330 -0.003610 
#    z 0.012370 -0.003610 1.824000 
# 
# From -- ./inp_files/417304.got.cif
#   From: 2010.05.17/outbox.cif.g08.bks.cpg/sg2_209_cif.got.tgz:417304.got - 2010.06.03 11:33:40.
