data_PCOD9095875
_publ_section_title
;
Structure prediction by ZEFSAII (Michael W. Deem and Ramdas Pophale) SiO2 
 PCOD9095875
Probable space group: P -1
;
_chemical_formula_sum "Si O2"
_cell_formula_units_Z 12
_cell_length_a 16.655131
_cell_length_b 13.470105
_cell_length_c 10.894754
_cell_angle_alpha 138.088192
_cell_angle_beta 158.839677
_cell_angle_gamma 34.926598
_cell_volume 502.668101
_symmetry_space_group_name_H-M "P -1"
_symmetry_group_IT_number 2
_symmetry_cell_setting 'triclinic'
loop_
_space_group_symop_operation_xyz
x,y,z
-x,-y,-z
loop_
_atom_site_type_symbol
_atom_site_label
_atom_site_fract_x
_atom_site_fract_y
_atom_site_fract_z
Si Si1 0.442709 0.841164 0.591426
Si Si2 0.634565 0.037987 0.917066
Si Si3 0.781752 0.150535 0.484440
Si Si4 0.984977 0.404508 0.769626
Si Si5 0.517980 0.514087 0.750475
Si Si6 0.664828 0.581522 0.254457
O O1 0.241793 0.931307 0.497998
O O2 0.423203 0.678726 0.365632
O O3 0.450418 0.960180 0.605162
O O4 0.729345 0.759432 0.985842
O O5 0.496217 0.210353 0.795616
O O6 0.695076 0.087781 0.183686
O O7 0.921016 0.898495 0.147149
O O8 0.568502 0.358593 0.371878
O O9 0.753480 0.376722 0.456487
O O10 0.897100 0.515725 0.622696
O O11 0.000000 0.500000 0.000000
O O12 0.726936 0.511259 0.138476
O O13 0.500000 0.500000 0.000000
#
# Coordination Sequence:
#
# PCOD9095875 Si02
#       6
#     2   2   2   2   2   2
#     4  11  20  35  65  92 118 157 210 247 290 366
#     4  10  21  37  59  90 124 158 204 251 300 355
#     4  10  20  35  60  91 123 164 198 248 305 354
#     4   9  18  35  62  89 116 155 201 246 296 359
#     4   9  18  36  58  87 124 157 199 244 301 363
#     4   9  19  38  63  84 120 168 193 245 314 355
#
# _framework density 23.872610999999999
#
# number of rings (size 3 to 8) (size 9 to 14) (size 15 to 20)
#    0.000    2.333    1.667    1.000    2.333    0.000 
#    0.000   10.833    3.667    9.000    0.000    0.000 
#    0.000    0.000    0.000    0.000    0.000    0.000 
#
# Total GULP energy -66950.623335 kJ/mol
# GULP energy per Si atom -5579.218611 kJ/mol
# Density = 2.381828 g / cm^3
# Si number density = 23.872611 Si / 1000 Ang^3
#
#
#
# Elastic Constant Matrix: (Units=GPa)
#
#
# Indices 1 2 3 4 5 6 
#
# 1 79.7944 27.6672 23.1101 3.2162 6.1962 13.9417
# 2 27.6672 139.3091 28.2783 -0.5668 -19.6443 28.4787
# 3 23.1101 28.2783 52.1441 0.2325 -23.6549 7.1446
# 4 3.2162 -0.5668 0.2325 23.5806 13.5071 -6.9292
# 5 6.1962 -19.6443 -23.6549 13.5071 33.6977 -0.2355
# 6 13.9417 28.4787 7.1446 -6.9292 -0.2355 32.5982
#
#
#
# Elastic Compliance Matrix: (Units=1/GPa)
#
#
# Indices 1 2 3 4 5 6 
#
# 1 0.019743 -0.003529 -0.016412 0.009434 -0.020989 0.000090
# 2 -0.003529 0.011416 0.003108 -0.010343 0.013554 -0.011246
# 3 -0.016412 0.003108 0.051271 -0.033115 0.053999 -0.013582
# 4 0.009434 -0.010343 -0.033115 0.088005 -0.066072 0.030489
# 5 -0.020989 0.013554 0.053999 -0.066072 0.105630 -0.027980
# 6 0.000090 -0.011246 -0.013582 0.030489 -0.027980 0.049718
#
#
# Mechanical properties :
#
#
# Convention : Reuss Voigt Hill
#
# Bulk Modulus (GPa) = 20.50687 47.70655 34.10671
# Shear Modulus (GPa) = 13.30834 30.78810 22.04822
#
# Velocity S-wave (km/s) = 2.36365 3.59511 3.04234
# Velocity P-wave (km/s) = 4.00723 6.10412 5.16324
#
# Compressibility (1/GPa) = 0.04876414
#
# Stress axis : x y z
#
# Youngs Moduli (GPa) = 50.65053 87.59329 19.50430
#
# Poissons Ratio (x) = 0.30915 0.32011
# Poissons Ratio (y) = 0.17876 -0.06063
# Poissons Ratio (z) = 0.83129 -0.27228
#
# Static dielectric constant tensor:
#      x y z
#    x 1.999170 0.059870 -0.001280 
#    y 0.059870 2.002220 0.036470 
#    z -0.001280 0.036470 2.020870 
# 
# From -- ./inp_files/464072.got.cif
#   From: 2010.05.17/outbox.cif.g08.bks.cpg/sg2_233_cif.got.tgz:464072.got - 2010.06.03 11:33:40.
