data_PCOD9095501
_publ_section_title
;
Structure prediction by ZEFSAII (Michael W. Deem and Ramdas Pophale) SiO2 
 PCOD9095501
Probable space group: P -1
;
_chemical_formula_sum "Si O2"
_cell_formula_units_Z 16
_cell_length_a 8.772470
_cell_length_b 16.286636
_cell_length_c 16.151826
_cell_angle_alpha 156.385084
_cell_angle_beta 86.655353
_cell_angle_gamma 78.307790
_cell_volume 708.767148
_symmetry_space_group_name_H-M "P -1"
_symmetry_group_IT_number 2
_symmetry_cell_setting 'triclinic'
loop_
_space_group_symop_operation_xyz
x,y,z
-x,-y,-z
loop_
_atom_site_type_symbol
_atom_site_label
_atom_site_fract_x
_atom_site_fract_y
_atom_site_fract_z
Si Si1 0.795678 0.785898 0.755740
Si Si2 0.135686 0.191770 0.613977
Si Si3 0.020007 0.760993 0.164261
Si Si4 0.632074 0.252934 0.911895
Si Si5 0.793228 0.935971 0.162475
Si Si6 0.790666 0.452290 0.733457
Si Si7 0.526680 0.258938 0.326551
Si Si8 0.070728 0.008531 0.187784
O O1 0.664110 0.723842 0.658240
O O2 0.846216 0.941907 0.845239
O O3 0.000000 0.500000 0.500000
O O4 0.686833 0.974723 0.012845
O O5 0.096314 0.463552 0.878890
O O6 0.963484 0.273892 0.631067
O O7 0.340409 0.966524 0.352093
O O8 0.099878 0.117261 0.634275
O O9 0.228795 0.704105 0.101360
O O10 0.868646 0.927026 0.245379
O O11 0.755094 0.130268 0.879251
O O12 0.407753 0.470686 0.149143
O O13 0.607793 0.200160 0.364289
O O14 0.759625 0.721860 0.968337
O O15 0.989063 0.850734 0.028570
O O16 0.880432 0.287092 0.492566
O O17 0.500000 0.500000 0.500000
#
# Coordination Sequence:
#
# PCOD9095501 Si02
#       8
#     2   2   2   2   2   2   2   2
#     4  11  24  43  66  91 123 161 202 252 309 369
#     4   9  19  37  57  83 118 155 196 244 294 350
#     4   9  19  37  59  84 118 155 195 243 296 355
#     4  10  20  35  58  83 115 156 195 241 295 348
#     4  10  21  39  60  84 119 157 192 241 300 355
#     4  10  21  37  58  86 118 155 202 247 292 353
#     4  11  25  42  65  96 124 157 205 254 304 368
#     4  10  22  38  58  85 117 155 198 244 295 355
#
# _framework density 22.574407999999998
#
# number of rings (size 3 to 8) (size 9 to 14) (size 15 to 20)
#    0.000    2.000    0.000    2.625    0.000    7.500 
#    0.000    9.375    0.000    0.000    0.000    0.000 
#    0.000    0.000    0.000    0.000    0.000    0.000 
#
# Total GULP energy -89235.806599 kJ/mol
# GULP energy per Si atom -5577.237912 kJ/mol
# Density = 2.252303 g / cm^3
# Si number density = 22.574408 Si / 1000 Ang^3
#
#
#
# Elastic Constant Matrix: (Units=GPa)
#
#
# Indices 1 2 3 4 5 6 
#
# 1 91.1799 34.2385 31.2332 -2.5397 -7.7901 8.3953
# 2 34.2385 87.5582 -2.5631 10.3075 -4.5306 7.3859
# 3 31.2332 -2.5631 77.4495 -2.7544 -16.1269 -0.2831
# 4 -2.5397 10.3075 -2.7544 25.4094 8.6101 3.9486
# 5 -7.7901 -4.5306 -16.1269 8.6101 34.1261 -5.9521
# 6 8.3953 7.3859 -0.2831 3.9486 -5.9521 23.6393
#
#
#
# Elastic Compliance Matrix: (Units=1/GPa)
#
#
# Indices 1 2 3 4 5 6 
#
# 1 0.016519 -0.007024 -0.007337 0.005560 -0.002980 -0.005439
# 2 -0.007024 0.015444 0.003971 -0.008047 0.004382 0.000164
# 3 -0.007337 0.003971 0.017765 -0.004216 0.009109 0.004576
# 4 0.005560 -0.008047 -0.004216 0.050207 -0.016564 -0.012068
# 5 -0.002980 0.004382 0.009109 -0.016564 0.039887 0.012608
# 6 -0.005439 0.000164 0.004576 -0.012068 0.012608 0.049428
#
#
# Mechanical properties :
#
#
# Convention : Reuss Voigt Hill
#
# Bulk Modulus (GPa) = 34.54497 42.44497 38.49497
# Shear Modulus (GPa) = 22.76025 29.52025 26.14025
#
# Velocity S-wave (km/s) = 3.17871 3.62012 3.40657
# Velocity P-wave (km/s) = 5.36733 6.02634 5.70635
#
# Compressibility (1/GPa) = 0.02894778
#
# Stress axis : x y z
#
# Youngs Moduli (GPa) = 60.53520 64.74903 56.28912
#
# Poissons Ratio (x) = 0.45483 0.41299
# Poissons Ratio (y) = 0.42523 -0.22351
# Poissons Ratio (z) = 0.44414 -0.25710
#
# Static dielectric constant tensor:
#      x y z
#    x 1.860480 -0.006350 0.045370 
#    y -0.006350 1.841200 -0.000830 
#    z 0.045370 -0.000830 1.851840 
# 
# From -- ./inp_files/505797.got.cif
#   From: 2010.05.17/outbox.cif.g08.bks.cpg/sg2_253_cif.got.tgz:505797.got - 2010.06.03 11:33:40.
