data_PCOD9095274
_publ_section_title
;
Structure prediction by ZEFSAII (Michael W. Deem and Ramdas Pophale) SiO2 
 PCOD9095274
Probable space group: P -1
;
_chemical_formula_sum "Si O2"
_cell_formula_units_Z 16
_cell_length_a 10.761692
_cell_length_b 8.049389
_cell_length_c 16.096008
_cell_angle_alpha 113.696929
_cell_angle_beta 127.039835
_cell_angle_gamma 107.530939
_cell_volume 681.716554
_symmetry_space_group_name_H-M "P -1"
_symmetry_group_IT_number 2
_symmetry_cell_setting 'triclinic'
loop_
_space_group_symop_operation_xyz
x,y,z
-x,-y,-z
loop_
_atom_site_type_symbol
_atom_site_label
_atom_site_fract_x
_atom_site_fract_y
_atom_site_fract_z
Si Si1 0.313988 0.366361 0.508485
Si Si2 0.851121 0.592376 0.292985
Si Si3 0.514892 0.400462 0.873342
Si Si4 0.605098 0.306866 0.554944
Si Si5 0.562332 0.212562 0.249666
Si Si6 0.796813 0.943134 0.176238
Si Si7 0.873510 0.285680 0.125103
Si Si8 0.624286 0.000314 0.382314
O O1 0.409903 0.246502 0.514341
O O2 0.352964 0.518148 0.470739
O O3 0.444356 0.588823 0.677393
O O4 0.037625 0.133511 0.360388
O O5 0.682405 0.617353 0.225050
O O6 0.741588 0.375083 0.278626
O O7 0.847093 0.467046 0.183556
O O8 0.120865 0.863523 0.473654
O O9 0.404125 0.196261 0.865572
O O10 0.540937 0.295896 0.783028
O O11 0.735477 0.703526 0.055164
O O12 0.548292 0.063158 0.441031
O O13 0.853625 0.508745 0.741370
O O14 0.653813 0.169231 0.352643
O O15 0.309592 0.927484 0.061349
O O16 0.813006 0.106812 0.144288
#
# Coordination Sequence:
#
# PCOD9095274 Si02
#       8
#     2   2   2   2   2   2   2   2
#     4   9  18  36  58  79 103 141 187 224 270 307
#     4  11  21  35  55  80 114 145 175 223 268 323
#     4  11  22  34  56  81 113 148 176 214 270 329
#     4   8  18  37  58  77 104 141 182 233 265 307
#     4  11  20  32  57  84 109 141 179 226 265 321
#     4  10  21  36  55  81 113 146 174 221 268 324
#     4  10  20  35  56  84 111 139 180 223 270 313
#     4  10  21  35  54  81 110 142 183 218 268 323
#
# _framework density 23.470168000000001
#
# number of rings (size 3 to 8) (size 9 to 14) (size 15 to 20)
#    0.000    2.000    1.250    3.375    3.500    0.500 
#    0.000    0.625    0.000    6.750    0.000    0.000 
#    0.000    0.000    0.000    0.000    0.000    0.000 
#
# Total GULP energy -89521.816316 kJ/mol
# GULP energy per Si atom -5595.113520 kJ/mol
# Density = 2.341675 g / cm^3
# Si number density = 23.470168 Si / 1000 Ang^3
#
#
#
# Elastic Constant Matrix: (Units=GPa)
#
#
# Indices 1 2 3 4 5 6 
#
# 1 66.3292 1.7969 40.4133 2.1723 -9.3650 -23.9907
# 2 1.7969 69.8926 3.4327 -6.2750 9.6777 -11.3326
# 3 40.4133 3.4327 129.9295 5.0133 -24.3839 -10.7387
# 4 2.1723 -6.2750 5.0133 34.6900 -13.7186 -2.5574
# 5 -9.3650 9.6777 -24.3839 -13.7186 27.4813 9.7594
# 6 -23.9907 -11.3326 -10.7387 -2.5574 9.7594 34.6815
#
#
#
# Elastic Compliance Matrix: (Units=1/GPa)
#
#
# Indices 1 2 3 4 5 6 
#
# 1 0.025228 0.003385 -0.007577 -0.000991 -0.006159 0.017871
# 2 0.003385 0.017588 -0.002780 -0.000363 -0.011383 0.010404
# 3 -0.007577 -0.002780 0.011857 0.002701 0.012305 -0.005742
# 4 -0.000991 -0.000363 0.002701 0.036784 0.021748 -0.003375
# 5 -0.006159 -0.011383 0.012305 0.021748 0.067755 -0.021632
# 6 0.017871 0.010404 -0.005742 -0.003375 -0.021632 0.048657
#
#
# Mechanical properties :
#
#
# Convention : Reuss Voigt Hill
#
# Bulk Modulus (GPa) = 24.55228 39.71526 32.13377
# Shear Modulus (GPa) = 21.24150 34.07112 27.65631
#
# Velocity S-wave (km/s) = 3.01166 3.81422 3.43645
# Velocity P-wave (km/s) = 4.75155 6.02960 5.42832
#
# Compressibility (1/GPa) = 0.04072941
#
# Stress axis : x y z
#
# Youngs Moduli (GPa) = 39.63873 56.85822 84.33741
#
# Poissons Ratio (x) = -0.19247 0.63901
# Poissons Ratio (y) = -0.13418 0.23444
# Poissons Ratio (z) = 0.30034 0.15806
#
# Static dielectric constant tensor:
#      x y z
#    x 1.866080 -0.003960 -0.046780 
#    y -0.003960 1.964120 -0.013020 
#    z -0.046780 -0.013020 1.857320 
# 
# From -- ./inp_files/214502.got.cif
#   From: 2010.05.17/outbox.cif.g08.bks.cpg/sg2_108_cif.got.tgz:214502.got - 2010.06.03 11:33:40.
