data_PCOD9095767
_publ_section_title
;
Structure prediction by ZEFSAII (Michael W. Deem and Ramdas Pophale) SiO2 
 PCOD9095767
Probable space group: P -1
;
_chemical_formula_sum "Si O2"
_cell_formula_units_Z 16
_cell_length_a 10.251378
_cell_length_b 13.057051
_cell_length_c 11.791612
_cell_angle_alpha 98.994439
_cell_angle_beta 97.949747
_cell_angle_gamma 33.102187
_cell_volume 851.306764
_symmetry_space_group_name_H-M "P -1"
_symmetry_group_IT_number 2
_symmetry_cell_setting 'triclinic'
loop_
_space_group_symop_operation_xyz
x,y,z
-x,-y,-z
loop_
_atom_site_type_symbol
_atom_site_label
_atom_site_fract_x
_atom_site_fract_y
_atom_site_fract_z
Si Si1 0.388541 0.186220 0.507304
Si Si2 0.271758 0.592189 0.537649
Si Si3 0.338263 0.200258 0.058697
Si Si4 0.518446 0.279739 0.690219
Si Si5 0.846656 0.562288 0.142034
Si Si6 0.964815 0.043604 0.369288
Si Si7 0.392414 0.907733 0.707229
Si Si8 0.954646 0.675761 0.342350
O O1 0.544333 0.157599 0.600170
O O2 0.406360 0.218007 0.388873
O O3 0.141520 0.331404 0.566070
O O4 0.500000 0.000000 0.500000
O O5 0.500000 0.500000 0.500000
O O6 0.360390 0.455884 0.620772
O O7 0.109468 0.786966 0.610800
O O8 0.157584 0.608499 0.418683
O O9 0.487389 0.156131 0.168649
O O10 0.077478 0.340868 0.102016
O O11 0.274597 0.316719 0.966410
O O12 0.500000 0.000000 0.000000
O O13 0.358949 0.356678 0.793393
O O14 0.791858 0.139226 0.703164
O O15 0.958342 0.589363 0.226348
O O16 0.757307 0.099891 0.318447
O O17 0.000000 0.000000 0.500000
O O18 0.222542 0.117225 0.690474
#
# Coordination Sequence:
#
# PCOD9095767 Si02
#       8
#     2   2   2   2   2   2   2   2
#     4   9  18  32  56  92 126 157 188 246 312 374
#     4  12  23  35  59  94 133 173 200 236 310 386
#     4  11  24  44  66  88 119 162 215 265 315 355
#     4  11  23  40  60  92 136 163 202 254 309 376
#     4  10  25  42  63  94 120 160 213 268 305 363
#     4  12  21  39  59  92 135 168 200 242 304 385
#     4  11  20  37  64  90 125 165 201 252 309 366
#     4  10  20  35  59  95 128 154 198 252 312 379
#
# _framework density 18.794635
#
# number of rings (size 3 to 8) (size 9 to 14) (size 15 to 20)
#    0.000    1.250    5.000    0.750    5.250    2.000 
#    0.000    0.625    0.000    1.500    0.000    0.000 
#    0.000    0.000    0.000    0.000    0.000    0.000 
#
# Total GULP energy -89205.541875 kJ/mol
# GULP energy per Si atom -5575.346367 kJ/mol
# Density = 1.875186 g / cm^3
# Si number density = 18.794635 Si / 1000 Ang^3
#
#
#
# Elastic Constant Matrix: (Units=GPa)
#
#
# Indices 1 2 3 4 5 6 
#
# 1 101.6541 34.6383 62.8583 -8.9067 3.7386 -17.4951
# 2 34.6383 116.6598 44.1689 1.0357 -2.9252 -3.6335
# 3 62.8583 44.1689 132.8935 -8.5804 -0.1684 -23.3848
# 4 -8.9067 1.0357 -8.5804 29.7384 -3.9460 1.9185
# 5 3.7386 -2.9252 -0.1684 -3.9460 25.3957 -4.0678
# 6 -17.4951 -3.6335 -23.3848 1.9185 -4.0678 28.2887
#
#
#
# Elastic Compliance Matrix: (Units=1/GPa)
#
#
# Indices 1 2 3 4 5 6 
#
# 1 0.014962 -0.002321 -0.005424 0.002540 -0.001456 0.004090
# 2 -0.002321 0.010295 -0.002813 -0.001603 0.000907 -0.002199
# 3 -0.005424 -0.002813 0.012310 0.001851 0.001902 0.006608
# 4 0.002540 -0.001603 0.001851 0.035585 0.005180 0.001227
# 5 -0.001456 0.000907 0.001902 0.005180 0.041540 0.006411
# 6 0.004090 -0.002199 0.006608 0.001227 0.006411 0.043898
#
#
# Mechanical properties :
#
#
# Convention : Reuss Voigt Hill
#
# Bulk Modulus (GPa) = 60.78577 70.50426 65.64502
# Shear Modulus (GPa) = 26.99945 30.65402 28.82673
#
# Velocity S-wave (km/s) = 3.79430 4.04294 3.92059
# Velocity P-wave (km/s) = 7.18386 7.70638 7.44970
#
# Compressibility (1/GPa) = 0.01645122
#
# Stress axis : x y z
#
# Youngs Moduli (GPa) = 66.83677 97.13854 81.23407
#
# Poissons Ratio (x) = 0.22542 0.44060
# Poissons Ratio (y) = 0.15510 0.22853
# Poissons Ratio (z) = 0.36251 0.27328
#
# Static dielectric constant tensor:
#      x y z
#    x 1.721560 -0.010650 0.019170 
#    y -0.010650 1.740740 0.046210 
#    z 0.019170 0.046210 1.637560 
# 
# From -- ./inp_files/390210.got.cif
#   From: 2010.05.17/outbox.cif.g08.bks.cpg/sg2_196_cif.got.tgz:390210.got - 2010.06.03 11:33:40.
