data_PCOD9095249
_publ_section_title
;
Structure prediction by ZEFSAII (Michael W. Deem and Ramdas Pophale) SiO2 
 PCOD9095249
Probable space group: P -1
;
_chemical_formula_sum "Si O2"
_cell_formula_units_Z 12
_cell_length_a 12.652746
_cell_length_b 9.715537
_cell_length_c 7.813731
_cell_angle_alpha 73.755833
_cell_angle_beta 144.554409
_cell_angle_gamma 118.906761
_cell_volume 475.167666
_symmetry_space_group_name_H-M "P -1"
_symmetry_group_IT_number 2
_symmetry_cell_setting 'triclinic'
loop_
_space_group_symop_operation_xyz
x,y,z
-x,-y,-z
loop_
_atom_site_type_symbol
_atom_site_label
_atom_site_fract_x
_atom_site_fract_y
_atom_site_fract_z
Si Si1 0.586219 0.136375 0.383994
Si Si2 0.188202 0.000376 0.079927
Si Si3 0.791398 0.330910 0.262811
Si Si4 0.730915 0.377828 0.808269
Si Si5 0.141034 0.337957 0.342000
Si Si6 0.929807 0.829670 0.371642
O O1 0.348144 0.015771 0.133025
O O2 0.656254 0.259851 0.278126
O O3 0.629771 0.243655 0.576210
O O4 0.711790 0.033352 0.607947
O O5 0.155665 0.153507 0.932108
O O6 0.977415 0.838348 0.836954
O O7 0.000000 0.500000 0.500000
O O8 0.878003 0.203269 0.389731
O O9 0.663294 0.341431 0.927941
O O10 0.724591 0.533413 0.665427
O O11 0.962756 0.394009 0.122932
O O12 0.213485 0.307989 0.633689
O O13 0.000000 0.000000 0.500000
#
# Coordination Sequence:
#
# PCOD9095249 Si02
#       6
#     2   2   2   2   2   2
#     4  10  20  35  56  82 113 147 183 229 282 334
#     4   9  18  34  53  79 114 147 179 227 287 332
#     4  11  21  35  60  86 107 147 197 230 268 334
#     4   9  17  33  55  78 108 144 185 226 271 327
#     4   8  14  30  54  74 100 141 182 219 263 322
#     4   9  18  34  56  83 113 147 186 230 281 330
#
# _framework density 25.254244
#
# number of rings (size 3 to 8) (size 9 to 14) (size 15 to 20)
#    0.000    2.667    0.000    5.000    0.000    0.667 
#    0.000   24.167    0.000    2.000    0.000    0.000 
#    0.000    1.333    0.000    0.000    0.000    0.000 
#
# Total GULP energy -66895.348556 kJ/mol
# GULP energy per Si atom -5574.612380 kJ/mol
# Density = 2.519676 g / cm^3
# Si number density = 25.254244 Si / 1000 Ang^3
#
#
#
# Elastic Constant Matrix: (Units=GPa)
#
#
# Indices 1 2 3 4 5 6 
#
# 1 75.5712 45.5771 34.4604 -5.7060 -34.8862 29.6937
# 2 45.5771 141.5035 55.6625 -42.7015 -28.1551 32.3201
# 3 34.4604 55.6625 97.0601 -32.4274 -26.3844 14.4569
# 4 -5.7060 -42.7015 -32.4274 43.0882 10.4392 -21.2175
# 5 -34.8862 -28.1551 -26.3844 10.4392 37.8333 -19.1684
# 6 29.6937 32.3201 14.4569 -21.2175 -19.1684 42.5181
#
#
#
# Elastic Compliance Matrix: (Units=1/GPa)
#
#
# Indices 1 2 3 4 5 6 
#
# 1 0.035680 -0.006849 -0.008411 -0.022613 0.018043 -0.020002
# 2 -0.006849 0.013014 -0.001428 0.011461 -0.000303 0.000959
# 3 -0.008411 -0.001428 0.019451 0.016122 0.005896 0.011049
# 4 -0.022613 0.011461 0.016122 0.059044 -0.002116 0.030109
# 5 0.018043 -0.000303 0.005896 -0.002116 0.051481 0.007777
# 6 -0.020002 0.000959 0.011049 0.030109 0.007777 0.051534
#
#
# Mechanical properties :
#
#
# Convention : Reuss Voigt Hill
#
# Bulk Modulus (GPa) = 28.76031 65.05943 46.90987
# Shear Modulus (GPa) = 18.17064 36.58357 27.37710
#
# Velocity S-wave (km/s) = 2.68528 3.81019 3.29608
# Velocity P-wave (km/s) = 4.58555 6.72119 5.75334
#
# Compressibility (1/GPa) = 0.03477014
#
# Stress axis : x y z
#
# Youngs Moduli (GPa) = 28.02699 76.84092 51.41020
#
# Poissons Ratio (x) = 0.52628 0.43241
# Poissons Ratio (y) = 0.19195 0.07339
# Poissons Ratio (z) = 0.23573 0.10970
#
# Static dielectric constant tensor:
#      x y z
#    x 2.141630 0.008500 -0.029620 
#    y 0.008500 2.031770 -0.032280 
#    z -0.029620 -0.032280 2.114470 
# 
# From -- ./inp_files/302700.got.cif
#   From: 2010.05.17/outbox.cif.g08.bks.cpg/sg2_152_cif.got.tgz:302700.got - 2010.06.03 11:33:40.
