data_PCOD9095796
_publ_section_title
;
Structure prediction by ZEFSAII (Michael W. Deem and Ramdas Pophale) SiO2 
 PCOD9095796
Probable space group: P -1
;
_chemical_formula_sum "Si O2"
_cell_formula_units_Z 16
_cell_length_a 5.463382
_cell_length_b 19.518240
_cell_length_c 7.434905
_cell_angle_alpha 98.950279
_cell_angle_beta 87.369068
_cell_angle_gamma 82.496029
_cell_volume 774.687708
_symmetry_space_group_name_H-M "P -1"
_symmetry_group_IT_number 2
_symmetry_cell_setting 'triclinic'
loop_
_space_group_symop_operation_xyz
x,y,z
-x,-y,-z
loop_
_atom_site_type_symbol
_atom_site_label
_atom_site_fract_x
_atom_site_fract_y
_atom_site_fract_z
Si Si1 0.271022 0.543812 0.838340
Si Si2 0.865923 0.885825 0.064773
Si Si3 0.997783 0.649631 0.600239
Si Si4 0.806322 0.234385 0.163848
Si Si5 0.645411 0.091096 0.109209
Si Si6 0.101199 0.399714 0.810495
Si Si7 0.238046 0.014420 0.610146
Si Si8 0.406653 0.346540 0.092664
O O1 0.260082 0.462279 0.782863
O O2 0.527931 0.574201 0.862101
O O3 0.143448 0.585980 0.687707
O O4 0.120074 0.567962 0.035736
O O5 0.622676 0.914316 0.967604
O O6 0.955947 0.806677 0.964796
O O7 0.119213 0.919825 0.038197
O O8 0.797909 0.906447 0.278662
O O9 0.978215 0.629937 0.386609
O O10 0.741922 0.665262 0.726338
O O11 0.124265 0.718986 0.655226
O O12 0.652478 0.172179 0.197100
O O13 0.650315 0.290272 0.061713
O O14 0.723315 0.038544 0.245068
O O15 0.257271 0.343875 0.913359
O O16 0.500000 0.000000 0.500000
O O17 0.000000 0.000000 0.500000
#
# Coordination Sequence:
#
# PCOD9095796 Si02
#       8
#     2   2   2   2   2   2   2   2
#     4   9  20  36  55  87 120 160 201 269 327 389
#     4  10  21  41  68  88 122 175 211 246 313 386
#     4  10  20  37  58  86 118 163 212 265 312 384
#     4   9  22  38  64  77 122 164 226 237 321 374
#     4  10  21  41  69  88 121 175 211 245 314 389
#     4  10  20  35  60  85 121 156 212 264 328 371
#     4  12  24  40  65 105 136 151 206 274 319 360
#     4  10  20  37  57  85 119 161 211 264 315 381
#
# _framework density 20.653483999999999
#
# number of rings (size 3 to 8) (size 9 to 14) (size 15 to 20)
#    0.750    1.250    0.000    3.750    0.000    2.500 
#    0.000    7.500    0.000    0.000    0.000    0.000 
#    0.000    0.000    0.000    0.000    0.000    0.000 
#
# Total GULP energy -89179.745439 kJ/mol
# GULP energy per Si atom -5573.734090 kJ/mol
# Density = 2.060648 g / cm^3
# Si number density = 20.653484 Si / 1000 Ang^3
#
#
#
# Elastic Constant Matrix: (Units=GPa)
#
#
# Indices 1 2 3 4 5 6 
#
# 1 92.1262 9.7799 38.2101 1.6061 19.6304 -15.3253
# 2 9.7799 75.3445 35.4649 15.1398 19.3586 -2.8213
# 3 38.2101 35.4649 137.8336 24.9299 27.5953 -8.5192
# 4 1.6061 15.1398 24.9299 15.2551 9.4467 -1.2682
# 5 19.6304 19.3586 27.5953 9.4467 30.7033 -3.7044
# 6 -15.3253 -2.8213 -8.5192 -1.2682 -3.7044 33.1758
#
#
#
# Elastic Compliance Matrix: (Units=1/GPa)
#
#
# Indices 1 2 3 4 5 6 
#
# 1 0.015113 0.000276 -0.004110 0.010749 -0.008800 0.005377
# 2 0.000276 0.017883 -0.001218 -0.011577 -0.006778 0.000136
# 3 -0.004110 -0.001218 0.012256 -0.016883 -0.002396 0.000232
# 4 0.010749 -0.011577 -0.016883 0.115947 -0.019849 0.001862
# 5 -0.008800 -0.006778 -0.002396 -0.019849 0.050688 -0.000356
# 6 0.005377 0.000136 0.000232 0.001862 -0.000356 0.032729
#
#
# Mechanical properties :
#
#
# Convention : Reuss Voigt Hill
#
# Bulk Modulus (GPa) = 28.45333 52.46823 40.46078
# Shear Modulus (GPa) = 18.76619 30.61678 24.69149
#
# Velocity S-wave (km/s) = 3.01760 3.85438 3.46137
# Velocity P-wave (km/s) = 5.09389 6.72811 5.96721
#
# Compressibility (1/GPa) = 0.03514528
#
# Stress axis : x y z
#
# Youngs Moduli (GPa) = 66.17011 55.91893 81.59337
#
# Poissons Ratio (x) = -0.01541 0.33538
# Poissons Ratio (y) = -0.01824 0.09941
# Poissons Ratio (z) = 0.27198 0.06813
#
# Static dielectric constant tensor:
#      x y z
#    x 1.802020 0.012160 -0.002410 
#    y 0.012160 1.777520 0.012040 
#    z -0.002410 0.012040 1.694000 
# 
# From -- ./inp_files/11065.got.cif
#   From: 2010.05.17/outbox.cif.g08.bks.cpg/sg2_6_cif.got.tgz:11065.got - 2010.06.03 11:33:40.
