data_PCOD9095343
_publ_section_title
;
Structure prediction by ZEFSAII (Michael W. Deem and Ramdas Pophale) SiO2 
 PCOD9095343
Probable space group: P -1
;
_chemical_formula_sum "Si O2"
_cell_formula_units_Z 16
_cell_length_a 7.803016
_cell_length_b 14.382372
_cell_length_c 12.767881
_cell_angle_alpha 99.402779
_cell_angle_beta 135.752309
_cell_angle_gamma 53.460158
_cell_volume 709.323006
_symmetry_space_group_name_H-M "P -1"
_symmetry_group_IT_number 2
_symmetry_cell_setting 'triclinic'
loop_
_space_group_symop_operation_xyz
x,y,z
-x,-y,-z
loop_
_atom_site_type_symbol
_atom_site_label
_atom_site_fract_x
_atom_site_fract_y
_atom_site_fract_z
Si Si1 0.931685 0.162279 0.437284
Si Si2 0.861962 0.684352 0.676752
Si Si3 0.872256 0.922837 0.053333
Si Si4 0.109623 0.923875 0.370032
Si Si5 0.074577 0.684361 0.995025
Si Si6 0.555979 0.837404 0.244521
Si Si7 0.463217 0.396726 0.138114
Si Si8 0.753395 0.602324 0.181140
O O1 0.918281 0.120172 0.538517
O O2 0.582233 0.302563 0.269915
O O3 0.222803 0.162957 0.576953
O O4 0.029619 0.054589 0.378751
O O5 0.503525 0.802605 0.490374
O O6 0.184812 0.647933 0.756500
O O7 0.941565 0.551734 0.691354
O O8 0.862143 0.722462 0.803280
O O9 0.870814 0.945744 0.179422
O O10 0.889741 0.807747 0.011552
O O11 0.228869 0.874110 0.159220
O O12 0.591672 0.052114 0.886713
O O13 0.199275 0.551890 0.072612
O O14 0.420870 0.642081 0.096174
O O15 0.782315 0.696809 0.261625
O O16 0.325259 0.376895 0.973238
#
# Coordination Sequence:
#
# PCOD9095343 Si02
#       8
#     2   2   2   2   2   2   2   2
#     4  11  24  38  51  73 107 142 176 216 261 308
#     4   9  17  34  59  81 105 137 172 211 257 309
#     4  10  20  35  57  82 105 133 174 218 259 308
#     4  11  24  38  51  73 107 142 176 216 261 308
#     4   8  16  32  56  85 109 131 167 217 263 301
#     4  10  20  35  57  82 105 133 174 218 259 308
#     4   9  17  34  59  81 105 137 172 211 257 309
#     4   8  16  32  56  85 109 131 167 217 263 301
#
# _framework density 22.556721
#
# number of rings (size 3 to 8) (size 9 to 14) (size 15 to 20)
#    0.000    2.500    0.000    3.750    0.000    5.500 
#    0.000   10.000    0.000    0.000    0.000    0.000 
#    0.000    0.000    0.000    0.000    0.000    0.000 
#
# Total GULP energy -89493.656528 kJ/mol
# GULP energy per Si atom -5593.353533 kJ/mol
# Density = 2.250538 g / cm^3
# Si number density = 22.556721 Si / 1000 Ang^3
#
#
#
# Elastic Constant Matrix: (Units=GPa)
#
#
# Indices 1 2 3 4 5 6 
#
# 1 55.8318 19.6165 14.1704 0.1122 -4.2881 -1.7901
# 2 19.6165 153.7932 73.9693 21.9663 -20.1137 11.1495
# 3 14.1704 73.9693 105.1213 -6.7547 -23.5296 6.4169
# 4 0.1122 21.9663 -6.7547 27.8408 -1.1972 -2.3981
# 5 -4.2881 -20.1137 -23.5296 -1.1972 31.4602 -4.3554
# 6 -1.7901 11.1495 6.4169 -2.3981 -4.3554 21.4134
#
#
#
# Elastic Compliance Matrix: (Units=1/GPa)
#
#
# Indices 1 2 3 4 5 6 
#
# 1 0.019166 -0.002583 -0.000601 0.002171 0.001091 0.003593
# 2 -0.002583 0.014204 -0.010260 -0.014235 -0.000345 -0.006201
# 3 -0.000601 -0.010260 0.019484 0.013441 0.008824 0.002753
# 4 0.002171 -0.014235 0.013441 0.051486 0.004629 0.010273
# 5 0.001091 -0.000345 0.008824 0.004629 0.039341 0.006147
# 6 0.003593 -0.006201 0.002753 0.010273 0.006147 0.051805
#
#
# Mechanical properties :
#
#
# Convention : Reuss Voigt Hill
#
# Bulk Modulus (GPa) = 38.51369 58.91762 48.71565
# Shear Modulus (GPa) = 21.64230 29.94222 25.79226
#
# Velocity S-wave (km/s) = 3.10088 3.64733 3.38515
# Velocity P-wave (km/s) = 5.47100 6.62675 6.07641
#
# Compressibility (1/GPa) = 0.02596479
#
# Stress axis : x y z
#
# Youngs Moduli (GPa) = 52.17617 70.40285 51.32455
#
# Poissons Ratio (x) = 0.18187 0.03087
# Poissons Ratio (y) = 0.13479 0.52658
# Poissons Ratio (z) = 0.03138 0.72232
#
# Static dielectric constant tensor:
#      x y z
#    x 1.910010 -0.001540 0.012030 
#    y -0.001540 1.801590 0.004430 
#    z 0.012030 0.004430 1.768420 
# 
# From -- ./inp_files/182569.got.cif
#   From: 2010.05.17/outbox.cif.g08.bks.cpg/sg2_92_cif.got.tgz:182569.got - 2010.06.03 11:33:40.
