data_PCOD9095803
_publ_section_title
;
Structure prediction by ZEFSAII (Michael W. Deem and Ramdas Pophale) SiO2 
 PCOD9095803
Probable space group: P -1
;
_chemical_formula_sum "Si O2"
_cell_formula_units_Z 14
_cell_length_a 18.639942
_cell_length_b 9.301732
_cell_length_c 12.342218
_cell_angle_alpha 66.079915
_cell_angle_beta 28.589396
_cell_angle_gamma 86.627430
_cell_volume 686.846911
_symmetry_space_group_name_H-M "P -1"
_symmetry_group_IT_number 2
_symmetry_cell_setting 'triclinic'
loop_
_space_group_symop_operation_xyz
x,y,z
-x,-y,-z
loop_
_atom_site_type_symbol
_atom_site_label
_atom_site_fract_x
_atom_site_fract_y
_atom_site_fract_z
Si Si1 0.988608 0.118934 0.884346
Si Si2 0.711369 0.764005 0.743071
Si Si3 0.131123 0.776537 0.543761
Si Si4 0.003193 0.170729 0.502962
Si Si5 0.675153 0.846163 0.211997
Si Si6 0.281523 0.499871 0.715688
Si Si7 0.704114 0.430530 0.577620
O O1 0.148540 0.173164 0.564609
O O2 0.077993 0.342481 0.746349
O O3 0.000000 0.000000 0.000000
O O4 0.766582 0.969340 0.167666
O O5 0.784872 0.685986 0.756930
O O6 0.774839 0.985767 0.628329
O O7 0.468669 0.602501 0.114031
O O8 0.289132 0.748172 0.350691
O O9 0.031218 0.722549 0.573628
O O10 0.948239 0.612750 0.920000
O O11 0.000000 0.000000 0.500000
O O12 0.819243 0.031306 0.875078
O O13 0.443943 0.694894 0.522580
O O14 0.714466 0.685347 0.210660
O O15 0.336422 0.569800 0.496162
#
# Coordination Sequence:
#
# PCOD9095803 Si02
#       7
#     2   2   2   2   2   2   2
#     4  11  21  41  59  88 121 156 194 247 292 354
#     4  10  21  38  59  86 117 161 200 234 288 361
#     4  11  21  37  59  92 121 152 195 254 292 337
#     4   9  16  34  57  80 114 148 196 238 279 341
#     4  10  20  35  60  86 110 153 206 239 280 344
#     4  11  20  35  61  88 114 153 201 242 286 345
#     4  12  24  36  60  93 124 151 192 248 308 340
#
# _framework density 20.382999999999999
#
# number of rings (size 3 to 8) (size 9 to 14) (size 15 to 20)
#    0.000    1.429    5.714    3.000    2.000    0.000 
#    0.000    3.571    0.000    1.714    0.000    0.000 
#    0.000    0.000    0.000    0.000    0.000    0.000 
#
# Total GULP energy -78084.105735 kJ/mol
# GULP energy per Si atom -5577.436124 kJ/mol
# Density = 2.033661 g / cm^3
# Si number density = 20.383000 Si / 1000 Ang^3
#
#
#
# Elastic Constant Matrix: (Units=GPa)
#
#
# Indices 1 2 3 4 5 6 
#
# 1 85.2663 23.8155 16.1371 0.0881 9.6170 8.7476
# 2 23.8155 35.4852 3.0787 -16.1327 -5.7118 -0.7757
# 3 16.1371 3.0787 48.9795 -7.2646 -15.8547 1.5866
# 4 0.0881 -16.1327 -7.2646 29.4588 12.4709 -10.7167
# 5 9.6170 -5.7118 -15.8547 12.4709 33.1314 -9.8537
# 6 8.7476 -0.7757 1.5866 -10.7167 -9.8537 28.1655
#
#
#
# Elastic Compliance Matrix: (Units=1/GPa)
#
#
# Indices 1 2 3 4 5 6 
#
# 1 0.028276 -0.030976 -0.016379 -0.021087 -0.020566 -0.023931
# 2 -0.030976 0.074287 0.019282 0.049170 0.023694 0.037578
# 3 -0.016379 0.019282 0.034042 0.015405 0.023901 0.017924
# 4 -0.021087 0.049170 0.015405 0.076612 0.004347 0.037706
# 5 -0.020566 0.023694 0.023901 0.004347 0.058289 0.027740
# 6 -0.023931 0.037578 0.017924 0.037706 0.027740 0.067014
#
#
# Mechanical properties :
#
#
# Convention : Reuss Voigt Hill
#
# Bulk Modulus (GPa) = 12.42884 28.42153 20.42518
# Shear Modulus (GPa) = 11.86282 26.59780 19.23031
#
# Velocity S-wave (km/s) = 2.41508 3.61626 3.07489
# Velocity P-wave (km/s) = 3.72662 5.60450 4.75910
#
# Compressibility (1/GPa) = 0.08045803
#
# Stress axis : x y z
#
# Youngs Moduli (GPa) = 35.36557 13.46133 29.37558
#
# Poissons Ratio (x) = 0.41698 0.48113
# Poissons Ratio (y) = 1.09550 -0.56641
# Poissons Ratio (z) = 0.57924 -0.25956
#
# Static dielectric constant tensor:
#      x y z
#    x 1.749930 0.040930 -0.036460 
#    y 0.040930 1.657580 0.037030 
#    z -0.036460 0.037030 1.679870 
# 
# From -- ./inp_files/153954.got.cif
#   From: 2010.05.17/outbox.cif.g08.bks.cpg/sg2_77_cif.got.tgz:153954.got - 2010.06.03 11:33:40.
