data_PCOD9095288
_publ_section_title
;
Structure prediction by ZEFSAII (Michael W. Deem and Ramdas Pophale) SiO2 
 PCOD9095288
Probable space group: P -1
;
_chemical_formula_sum "Si O2"
_cell_formula_units_Z 16
_cell_length_a 8.516806
_cell_length_b 15.152598
_cell_length_c 11.270939
_cell_angle_alpha 62.594014
_cell_angle_beta 81.558665
_cell_angle_gamma 40.574510
_cell_volume 786.384145
_symmetry_space_group_name_H-M "P -1"
_symmetry_group_IT_number 2
_symmetry_cell_setting 'triclinic'
loop_
_space_group_symop_operation_xyz
x,y,z
-x,-y,-z
loop_
_atom_site_type_symbol
_atom_site_label
_atom_site_fract_x
_atom_site_fract_y
_atom_site_fract_z
Si Si1 0.146777 0.417515 0.298291
Si Si2 0.260411 0.013182 0.910758
Si Si3 0.675720 0.782552 0.192889
Si Si4 0.174586 0.620560 0.583839
Si Si5 0.447817 0.144054 0.268934
Si Si6 0.827496 0.915752 0.590870
Si Si7 0.739358 0.284604 0.694442
Si Si8 0.431243 0.793163 0.426460
O O1 0.269136 0.324395 0.216776
O O2 0.380857 0.333509 0.410260
O O3 0.920817 0.609098 0.212675
O O4 0.018493 0.376847 0.382761
O O5 0.281382 0.121455 0.861530
O O6 0.959881 0.139731 0.847736
O O7 0.402469 0.916644 0.831772
O O8 0.421448 0.886678 0.077921
O O9 0.615856 0.768088 0.337280
O O10 0.466257 0.443797 0.684544
O O11 0.164126 0.667222 0.421738
O O12 0.088302 0.747894 0.607172
O O13 0.285177 0.121964 0.299414
O O14 0.644877 0.028108 0.427968
O O15 0.798956 0.026474 0.606238
O O16 0.678044 0.237259 0.626527
#
# Coordination Sequence:
#
# PCOD9095288 Si02
#       8
#     2   2   2   2   2   2   2   2
#     4  10  21  37  61  85 110 141 195 229 274 326
#     4  11  23  40  56  80 118 146 192 219 280 337
#     4  11  23  38  59  81 108 157 187 230 262 335
#     4  10  20  35  56  86 111 148 175 232 287 314
#     4   9  17  34  59  82 107 149 178 237 269 322
#     4   9  17  33  59  82 112 141 186 224 279 328
#     4  11  23  34  56  86 117 143 177 237 284 326
#     4  11  21  35  59  88 112 143 187 233 274 328
#
# _framework density 20.34629
#
# number of rings (size 3 to 8) (size 9 to 14) (size 15 to 20)
#    0.000    1.750    3.750    1.875    3.500    1.500 
#    0.000    0.000    0.000    0.750    0.000    0.000 
#    0.000    0.000    0.000    0.000    0.000    0.000 
#
# Total GULP energy -89367.047691 kJ/mol
# GULP energy per Si atom -5585.440481 kJ/mol
# Density = 2.029998 g / cm^3
# Si number density = 20.346290 Si / 1000 Ang^3
#
#
#
# Elastic Constant Matrix: (Units=GPa)
#
#
# Indices 1 2 3 4 5 6 
#
# 1 45.3962 26.9592 -0.8835 -11.6187 15.4460 -0.1463
# 2 26.9592 152.6745 32.6945 -3.8074 30.0172 14.9227
# 3 -0.8835 32.6945 36.6563 -23.9053 16.8130 -6.3708
# 4 -11.6187 -3.8074 -23.9053 6.9416 -17.4150 -7.1843
# 5 15.4460 30.0172 16.8130 -17.4150 22.7899 -7.7758
# 6 -0.1463 14.9227 -6.3708 -7.1843 -7.7758 18.7557
#
#
#
# Elastic Compliance Matrix: (Units=1/GPa)
#
#
# Indices 1 2 3 4 5 6 
#
# 1 0.036563 -0.000356 0.016966 -0.002991 -0.043497 -0.012847
# 2 -0.000356 0.006310 0.002852 0.012633 -0.000294 0.000662
# 3 0.016966 0.002852 0.040490 -0.016501 -0.065144 -0.021712
# 4 -0.002991 0.012633 -0.016501 -0.018823 -0.028690 -0.034784
# 5 -0.043497 -0.000294 -0.065144 -0.028690 0.103136 0.009536
# 6 -0.012847 0.000662 -0.021712 -0.034784 0.009536 0.035945
#
#
# Mechanical properties :
#
#
# Convention : Reuss Voigt Hill
#
# Bulk Modulus (GPa) = 8.17751 39.14082 23.65917
# Shear Modulus (GPa) = 24.33552 21.42788 22.88170
#
# Velocity S-wave (km/s) = 3.46217 3.24876 3.35716
# Velocity P-wave (km/s) = 4.47326 5.77509 5.16535
#
# Compressibility (1/GPa) = 0.12228655
#
# Stress axis : x y z
#
# Youngs Moduli (GPa) = 27.35008 158.47216 24.69733
#
# Poissons Ratio (x) = 0.05648 -0.41902
# Poissons Ratio (y) = 0.00975 -0.07043
# Poissons Ratio (z) = -0.46403 -0.45194
#
# Static dielectric constant tensor:
#      x y z
#    x 1.746800 0.003060 -0.018470 
#    y 0.003060 1.735370 -0.021630 
#    z -0.018470 -0.021630 1.708810 
# 
# From -- ./inp_files/252547.got.cif
#   From: 2010.05.17/outbox.cif.g08.bks.cpg/sg2_127_cif.got.tgz:252547.got - 2010.06.03 11:33:40.
