data_PCOD9095152
_publ_section_title
;
Structure prediction by ZEFSAII (Michael W. Deem and Ramdas Pophale) SiO2 
 PCOD9095152
Probable space group: P -1
;
_chemical_formula_sum "Si O2"
_cell_formula_units_Z 14
_cell_length_a 10.828149
_cell_length_b 10.078281
_cell_length_c 13.141867
_cell_angle_alpha 138.339522
_cell_angle_beta 50.087083
_cell_angle_gamma 99.720945
_cell_volume 579.965268
_symmetry_space_group_name_H-M "P -1"
_symmetry_group_IT_number 2
_symmetry_cell_setting 'triclinic'
loop_
_space_group_symop_operation_xyz
x,y,z
-x,-y,-z
loop_
_atom_site_type_symbol
_atom_site_label
_atom_site_fract_x
_atom_site_fract_y
_atom_site_fract_z
Si Si1 0.704067 0.108836 0.426166
Si Si2 0.282471 0.638477 0.929425
Si Si3 0.923246 0.294642 0.113836
Si Si4 0.124722 0.226638 0.681017
Si Si5 0.208350 0.375844 0.449275
Si Si6 0.806476 0.445734 0.664016
Si Si7 0.602081 0.108738 0.831111
O O1 0.481471 0.350504 0.656114
O O2 0.802167 0.218983 0.503046
O O3 0.728428 0.907066 0.375651
O O4 0.846422 0.948258 0.163524
O O5 0.211658 0.737820 0.908772
O O6 0.339393 0.789012 0.049901
O O7 0.094732 0.679800 0.111973
O O8 0.895593 0.535880 0.216119
O O9 0.849558 0.384488 0.318311
O O10 0.767938 0.985732 0.584229
O O11 0.234573 0.408396 0.337102
O O12 0.015806 0.370499 0.553549
O O13 0.392393 0.119620 0.257638
O O14 0.617420 0.649725 0.951496
#
# Coordination Sequence:
#
# PCOD9095152 Si02
#       7
#     2   2   2   2   2   2   2
#     4  10  21  37  55  82 114 140 182 223 263 328
#     4  10  20  35  55  82 113 145 175 219 275 319
#     4  10  22  36  54  81 110 146 180 219 272 321
#     4  10  21  35  55  82 111 146 180 218 269 319
#     4  10  21  39  59  79 109 141 183 228 267 320
#     4  10  22  38  59  82 104 144 184 226 272 310
#     4  10  21  37  58  82 109 142 183 224 267 321
#
# _framework density 24.139375000000001
#
# number of rings (size 3 to 8) (size 9 to 14) (size 15 to 20)
#    0.000    2.000    0.000    4.286    0.000   10.857 
#    0.000    2.857    0.000    0.000    0.000    0.000 
#    0.000    0.000    0.000    0.000    0.000    0.000 
#
# Total GULP energy -78313.497439 kJ/mol
# GULP energy per Si atom -5593.821246 kJ/mol
# Density = 2.408443 g / cm^3
# Si number density = 24.139375 Si / 1000 Ang^3
#
#
#
# Elastic Constant Matrix: (Units=GPa)
#
#
# Indices 1 2 3 4 5 6 
#
# 1 50.2432 -6.2078 28.9185 -11.7181 -1.6844 7.0905
# 2 -6.2078 30.3998 3.9686 11.8016 -5.3437 1.5688
# 3 28.9185 3.9686 187.8986 16.7563 -1.1938 -2.8092
# 4 -11.7181 11.8016 16.7563 20.6705 -1.8063 1.3372
# 5 -1.6844 -5.3437 -1.1938 -1.8063 28.9782 7.0296
# 6 7.0905 1.5688 -2.8092 1.3372 7.0296 24.1228
#
#
#
# Elastic Compliance Matrix: (Units=1/GPa)
#
#
# Indices 1 2 3 4 5 6 
#
# 1 0.032389 -0.000802 -0.007479 0.026323 0.006381 -0.013658
# 2 -0.000802 0.044070 0.001511 -0.026002 0.007282 -0.003135
# 3 -0.007479 0.001511 0.007527 -0.011604 -0.001558 0.004074
# 4 0.026323 -0.026002 -0.011604 0.088897 0.005153 -0.013827
# 5 0.006381 0.007282 -0.001558 0.005153 0.039989 -0.014469
# 6 -0.013658 -0.003135 0.004074 -0.013827 -0.014469 0.051130
#
#
# Mechanical properties :
#
#
# Convention : Reuss Voigt Hill
#
# Bulk Modulus (GPa) = 14.19538 35.76669 24.98104
# Shear Modulus (GPa) = 16.60985 30.87845 23.74415
#
# Velocity S-wave (km/s) = 2.62598 3.58043 3.13969
# Velocity P-wave (km/s) = 3.88429 5.65169 4.84919
#
# Compressibility (1/GPa) = 0.07044544
#
# Stress axis : x y z
#
# Youngs Moduli (GPa) = 30.87422 22.69122 132.85547
#
# Poissons Ratio (x) = 0.01820 0.99364
# Poissons Ratio (y) = 0.02477 -0.20072
# Poissons Ratio (z) = 0.23091 -0.03428
#
# Static dielectric constant tensor:
#      x y z
#    x 1.934240 0.018560 0.009340 
#    y 0.018560 1.941020 0.008110 
#    z 0.009340 0.008110 1.922070 
# 
# From -- ./inp_files/513719.got.cif
#   From: 2010.05.17/outbox.cif.g08.bks.cpg/sg2_257_cif.got.tgz:513719.got - 2010.06.03 11:33:40.
