data_PCOD9095654
_publ_section_title
;
Structure prediction by ZEFSAII (Michael W. Deem and Ramdas Pophale) SiO2 
 PCOD9095654
Probable space group: P -1
;
_chemical_formula_sum "Si O2"
_cell_formula_units_Z 11
_cell_length_a 10.860308
_cell_length_b 8.205288
_cell_length_c 9.475457
_cell_angle_alpha 50.780722
_cell_angle_beta 127.770637
_cell_angle_gamma 88.917660
_cell_volume 386.999926
_symmetry_space_group_name_H-M "P -1"
_symmetry_group_IT_number 2
_symmetry_cell_setting 'triclinic'
loop_
_space_group_symop_operation_xyz
x,y,z
-x,-y,-z
loop_
_atom_site_type_symbol
_atom_site_label
_atom_site_fract_x
_atom_site_fract_y
_atom_site_fract_z
Si Si1 0.684128 0.699848 0.183533
Si Si2 0.776184 0.295207 0.722378
Si Si3 0.991706 0.831581 0.785054
Si Si4 0.556815 0.191484 0.451856
Si Si5 0.061928 0.245636 0.511894
Si Si6 0.500000 0.500000 0.000000
O O1 0.730130 0.502777 0.454669
O O2 0.873915 0.542550 0.289137
O O3 0.717855 0.887909 0.187982
O O4 0.517721 0.719938 0.965340
O O5 0.616398 0.243392 0.616262
O O6 0.821733 0.364576 0.866200
O O7 0.000000 0.000000 0.000000
O O8 0.963300 0.708422 0.698287
O O9 0.771926 0.027151 0.604378
O O10 0.011245 0.053210 0.624614
O O11 0.500000 0.000000 0.500000
O O12 0.412947 0.476403 0.103061
#
# Coordination Sequence:
#
# PCOD9095654 Si02
#       6
#     2   2   2   2   2   1
#     4  10  20  35  59  85 110 159 184 233 296 340
#     4   9  17  35  54  81 110 143 195 235 277 339
#     4  10  20  38  56  89 113 142 200 243 275 344
#     4  10  21  36  60  84 116 160 189 231 297 344
#     4  10  20  35  60  85 112 148 194 237 289 332
#     4  10  20  38  54  88 118 146 198 228 280 368
#
# _framework density 28.423777999999999
#
# number of rings (size 3 to 8) (size 9 to 14) (size 15 to 20)
#    0.000    2.182    5.455    0.000    2.545    2.182 
#    0.000    2.727    0.000    4.364    0.000    0.000 
#    0.000    0.000    0.000    0.000    0.000    0.000 
#
# Total GULP energy -61273.257273 kJ/mol
# GULP energy per Si atom -5570.296116 kJ/mol
# Density = 2.835908 g / cm^3
# Si number density = 28.423778 Si / 1000 Ang^3
#
#
#
# Elastic Constant Matrix: (Units=GPa)
#
#
# Indices 1 2 3 4 5 6 
#
# 1 80.1403 59.6151 33.9501 17.1384 10.5244 29.9750
# 2 59.6151 189.1909 39.3395 71.3362 2.9256 23.4190
# 3 33.9501 39.3395 128.6029 54.4308 -1.9176 -2.0464
# 4 17.1384 71.3362 54.4308 71.5701 -6.4650 -1.1563
# 5 10.5244 2.9256 -1.9176 -6.4650 48.1895 11.1478
# 6 29.9750 23.4190 -2.0464 -1.1563 11.1478 64.6154
#
#
#
# Elastic Compliance Matrix: (Units=1/GPa)
#
#
# Indices 1 2 3 4 5 6 
#
# 1 0.022254 -0.007126 -0.006584 0.006471 -0.002093 -0.007473
# 2 -0.007126 0.011749 0.003723 -0.012898 -0.000513 -0.000977
# 3 -0.006584 0.003723 0.013723 -0.012573 -0.000387 0.001981
# 4 0.006471 -0.012898 -0.012573 0.035158 0.003277 0.001338
# 5 -0.002093 -0.000513 -0.000387 0.003277 0.022274 -0.002640
# 6 -0.007473 -0.000977 0.001981 0.001338 -0.002640 0.019839
#
#
# Mechanical properties :
#
#
# Convention : Reuss Voigt Hill
#
# Bulk Modulus (GPa) = 36.03427 73.74928 54.89177
# Shear Modulus (GPa) = 32.42060 54.54362 43.48211
#
# Velocity S-wave (km/s) = 3.38096 4.38533 3.91548
# Velocity P-wave (km/s) = 5.28642 7.18638 6.30834
#
# Compressibility (1/GPa) = 0.02775136
#
# Stress axis : x y z
#
# Youngs Moduli (GPa) = 44.93514 85.11279 72.87225
#
# Poissons Ratio (x) = 0.60652 0.47980
# Poissons Ratio (y) = 0.32021 -0.27130
# Poissons Ratio (z) = 0.29586 -0.31687
#
# Static dielectric constant tensor:
#      x y z
#    x 2.268580 -0.034480 -0.078300 
#    y -0.034480 2.145810 0.443190 
#    z -0.078300 0.443190 1.507790 
# 
# From -- ./inp_files/148232.got.cif
#   From: 2010.05.17/outbox.cif.g08.bks.cpg/sg2_75_cif.got.tgz:148232.got - 2010.06.03 11:33:40.
