data_PCOD9095558
_publ_section_title
;
Structure prediction by ZEFSAII (Michael W. Deem and Ramdas Pophale) SiO2 
 PCOD9095558
Probable space group: P -1
;
_chemical_formula_sum "Si O2"
_cell_formula_units_Z 16
_cell_length_a 9.824646
_cell_length_b 18.542404
_cell_length_c 5.420110
_cell_angle_alpha 87.994636
_cell_angle_beta 91.835734
_cell_angle_gamma 43.670749
_cell_volume 679.035247
_symmetry_space_group_name_H-M "P -1"
_symmetry_group_IT_number 2
_symmetry_cell_setting 'triclinic'
loop_
_space_group_symop_operation_xyz
x,y,z
-x,-y,-z
loop_
_atom_site_type_symbol
_atom_site_label
_atom_site_fract_x
_atom_site_fract_y
_atom_site_fract_z
Si Si1 0.975381 0.917593 0.236642
Si Si2 0.692887 0.430247 0.753635
Si Si3 0.372736 0.658164 0.849645
Si Si4 0.708795 0.632922 0.773883
Si Si5 0.764658 0.052048 0.711536
Si Si6 0.683126 0.788994 0.450038
Si Si7 0.994103 0.593079 0.169022
Si Si8 0.013211 0.760672 0.527864
O O1 0.181958 0.883099 0.262094
O O2 0.990052 0.827213 0.298952
O O3 0.855218 0.993147 0.460251
O O4 0.868233 0.977033 0.966225
O O5 0.504445 0.553507 0.698467
O O6 0.838364 0.358798 0.545307
O O7 0.840957 0.418718 0.949722
O O8 0.626365 0.382279 0.884275
O O9 0.498247 0.682212 0.834481
O O10 0.147873 0.749597 0.737865
O O11 0.680850 0.718111 0.622984
O O12 0.849941 0.518827 0.660819
O O13 0.843124 0.599407 0.019304
O O14 0.535814 0.117865 0.676559
O O15 0.836470 0.708934 0.256695
O O16 0.800335 0.810285 0.582454
#
# Coordination Sequence:
#
# PCOD9095558 Si02
#       8
#     2   2   2   2   2   2   2   2
#     4  10  24  46  69  95 127 164 213 269 325 387
#     4   9  20  37  56  86 125 164 205 253 308 372
#     4  10  20  35  58  87 123 165 208 252 306 372
#     4  10  20  35  58  87 123 165 208 252 306 372
#     4  10  24  46  69  95 127 164 213 269 325 387
#     4  11  23  38  61  89 123 161 206 259 318 382
#     4   9  20  37  56  86 125 164 205 253 308 372
#     4  11  23  38  61  89 123 161 206 259 318 382
#
# _framework density 23.562842
#
# number of rings (size 3 to 8) (size 9 to 14) (size 15 to 20)
#    0.000    2.000    0.000    2.250    3.500    4.000 
#    0.000    0.000    0.000    0.000    0.000    0.000 
#    0.000    0.000    0.000    0.000    0.000    0.000 
#
# Total GULP energy -89166.204699 kJ/mol
# GULP energy per Si atom -5572.887794 kJ/mol
# Density = 2.350921 g / cm^3
# Si number density = 23.562842 Si / 1000 Ang^3
#
#
#
# Elastic Constant Matrix: (Units=GPa)
#
#
# Indices 1 2 3 4 5 6 
#
# 1 249.9952 29.1476 48.7060 -29.9764 10.9662 -26.2746
# 2 29.1476 53.8264 7.3669 -0.4698 7.3610 -16.3044
# 3 48.7060 7.3669 64.9496 -16.2105 0.4114 -11.8593
# 4 -29.9764 -0.4698 -16.2105 28.7908 -1.6239 -3.1148
# 5 10.9662 7.3610 0.4114 -1.6239 32.0725 -16.6356
# 6 -26.2746 -16.3044 -11.8593 -3.1148 -16.6356 39.0605
#
#
#
# Elastic Compliance Matrix: (Units=1/GPa)
#
#
# Indices 1 2 3 4 5 6 
#
# 1 0.005494 -0.001833 -0.002232 0.004741 0.000225 0.002727
# 2 -0.001833 0.021948 0.000134 -0.000663 -0.000436 0.007730
# 3 -0.002232 0.000134 0.021179 0.010766 0.005181 0.008050
# 4 0.004741 -0.000663 0.010766 0.047586 0.007671 0.013243
# 5 0.000225 -0.000436 0.005181 0.007671 0.041897 0.019998
# 6 0.002727 0.007730 0.008050 0.013243 0.019998 0.042679
#
#
# Mechanical properties :
#
#
# Convention : Reuss Voigt Hill
#
# Bulk Modulus (GPa) = 24.53476 59.91249 42.22363
# Shear Modulus (GPa) = 24.72402 38.88814 31.80608
#
# Velocity S-wave (km/s) = 3.24277 4.06692 3.67800
# Velocity P-wave (km/s) = 4.94529 6.89456 5.99962
#
# Compressibility (1/GPa) = 0.04075850
#
# Stress axis : x y z
#
# Youngs Moduli (GPa) = 182.02093 45.56229 47.21563
#
# Poissons Ratio (x) = 0.08351 0.10540
# Poissons Ratio (y) = 0.33364 -0.00632
# Poissons Ratio (z) = 0.40631 -0.00610
#
# Static dielectric constant tensor:
#      x y z
#    x 2.006100 0.116120 0.110170 
#    y 0.116120 1.984890 0.091310 
#    z 0.110170 0.091310 1.996520 
# 
# From -- ./inp_files/47451.got.cif
#   From: 2010.05.17/outbox.cif.g08.bks.cpg/sg2_24_cif.got.tgz:47451.got - 2010.06.03 11:33:40.
