data_PCOD9095181
_publ_section_title
;
Structure prediction by ZEFSAII (Michael W. Deem and Ramdas Pophale) SiO2 
 PCOD9095181
Probable space group: P -1
;
_chemical_formula_sum "Si O2"
_cell_formula_units_Z 14
_cell_length_a 7.193801
_cell_length_b 16.275825
_cell_length_c 11.210485
_cell_angle_alpha 41.070317
_cell_angle_beta 110.587546
_cell_angle_gamma 138.539549
_cell_volume 497.571136
_symmetry_space_group_name_H-M "P -1"
_symmetry_group_IT_number 2
_symmetry_cell_setting 'triclinic'
loop_
_space_group_symop_operation_xyz
x,y,z
-x,-y,-z
loop_
_atom_site_type_symbol
_atom_site_label
_atom_site_fract_x
_atom_site_fract_y
_atom_site_fract_z
Si Si1 0.339999 0.607194 0.746127
Si Si2 0.267338 0.143625 0.003452
Si Si3 0.206111 0.461727 0.378676
Si Si4 0.737600 0.935905 0.658729
Si Si5 0.574196 0.045685 0.783368
Si Si6 0.122991 0.779758 0.774899
Si Si7 0.383406 0.676680 0.411922
O O1 0.653787 0.800833 0.681473
O O2 0.432910 0.637472 0.594541
O O3 0.059241 0.573988 0.699837
O O4 0.165747 0.416175 0.997147
O O5 0.116245 0.044941 0.208046
O O6 0.491920 0.134630 0.026244
O O7 0.494139 0.377412 0.819649
O O8 0.000000 0.000000 0.000000
O O9 0.431846 0.614052 0.377348
O O10 0.949540 0.237333 0.619126
O O11 0.371950 0.796956 0.766845
O O12 0.921047 0.151851 0.422436
O O13 0.513582 0.125146 0.777658
O O14 0.347141 0.971706 0.703991
O O15 0.000000 0.500000 0.500000
#
# Coordination Sequence:
#
# PCOD9095181 Si02
#       7
#     2   2   2   2   2   2   2
#     4  10  16  30  50  80 102 127 157 214 272 299
#     4  11  24  36  50  73 104 148 179 194 243 313
#     4  10  19  35  51  77 112 132 161 218 259 302
#     4  10  19  29  48  74 106 128 168 211 258 300
#     4   9  17  33  51  79 104 128 166 209 260 303
#     4  10  17  26  49  79 105 125 160 209 267 306
#     4   8  17  31  50  81 110 125 159 211 278 303
#
# _framework density 28.136683000000001
#
# number of rings (size 3 to 8) (size 9 to 14) (size 15 to 20)
#    0.000    2.571    5.714    0.429    0.000    1.143 
#    2.571    0.000    0.000    0.857    0.000   10.000 
#    0.000    0.000    0.000    0.000    0.000    0.000 
#
# Total GULP energy -78062.553872 kJ/mol
# GULP energy per Si atom -5575.896705 kJ/mol
# Density = 2.807264 g / cm^3
# Si number density = 28.136683 Si / 1000 Ang^3
#
#
#
# Elastic Constant Matrix: (Units=GPa)
#
#
# Indices 1 2 3 4 5 6 
#
# 1 70.0208 16.4581 11.9075 -1.4052 5.1971 8.1597
# 2 16.4581 154.8557 35.3926 14.5238 8.9392 2.5367
# 3 11.9075 35.3926 154.0194 -7.1649 -6.4446 5.9404
# 4 -1.4052 14.5238 -7.1649 57.7700 -0.1171 -1.8532
# 5 5.1971 8.9392 -6.4446 -0.1171 26.6424 -6.8339
# 6 8.1597 2.5367 5.9404 -1.8532 -6.8339 42.6985
#
#
#
# Elastic Compliance Matrix: (Units=1/GPa)
#
#
# Indices 1 2 3 4 5 6 
#
# 1 0.015387 -0.001202 -0.000918 0.000449 -0.003667 -0.003309
# 2 -0.001202 0.007366 -0.001797 -0.002126 -0.002809 -0.000500
# 3 -0.000918 -0.001797 0.007150 0.001313 0.002450 -0.000263
# 4 0.000449 -0.002126 0.001313 0.018048 0.001238 0.000839
# 5 -0.003667 -0.002809 0.002450 0.001238 0.041649 0.007246
# 6 -0.003309 -0.000500 -0.000263 0.000839 0.007246 0.025315
#
#
# Mechanical properties :
#
#
# Convention : Reuss Voigt Hill
#
# Bulk Modulus (GPa) = 45.31210 56.26804 50.79007
# Shear Modulus (GPa) = 38.43067 46.43134 42.43101
#
# Velocity S-wave (km/s) = 3.69976 4.06668 3.88755
# Velocity P-wave (km/s) = 5.86432 6.48784 6.18394
#
# Compressibility (1/GPa) = 0.02206916
#
# Stress axis : x y z
#
# Youngs Moduli (GPa) = 64.99051 135.76414 139.85366
#
# Poissons Ratio (x) = 0.16314 0.12844
# Poissons Ratio (y) = 0.07809 0.25129
# Poissons Ratio (z) = 0.05969 0.24395
#
# Static dielectric constant tensor:
#      x y z
#    x 2.419530 -0.141580 0.011580 
#    y -0.141580 2.262380 0.135950 
#    z 0.011580 0.135950 2.507460 
# 
# From -- ./inp_files/430612.got.cif
#   From: 2010.05.17/outbox.cif.g08.bks.cpg/sg2_216_cif.got.tgz:430612.got - 2010.06.03 11:33:40.
