data_PCOD9095663
_publ_section_title
;
Structure prediction by ZEFSAII (Michael W. Deem and Ramdas Pophale) SiO2 
 PCOD9095663
Probable space group: P -1
;
_chemical_formula_sum "Si O2"
_cell_formula_units_Z 12
_cell_length_a 11.454957
_cell_length_b 5.030975
_cell_length_c 11.419066
_cell_angle_alpha 123.203916
_cell_angle_beta 61.906296
_cell_angle_gamma 92.694555
_cell_volume 465.510598
_symmetry_space_group_name_H-M "P -1"
_symmetry_group_IT_number 2
_symmetry_cell_setting 'triclinic'
loop_
_space_group_symop_operation_xyz
x,y,z
-x,-y,-z
loop_
_atom_site_type_symbol
_atom_site_label
_atom_site_fract_x
_atom_site_fract_y
_atom_site_fract_z
Si Si1 0.487997 0.978759 0.696345
Si Si2 0.615647 0.064895 0.878744
Si Si3 0.871869 0.750288 0.560226
Si Si4 0.664618 0.539369 0.302928
Si Si5 0.871572 0.253083 0.852570
Si Si6 0.042971 0.672667 0.798394
O O1 0.544733 0.189382 0.816580
O O2 0.603806 0.762261 0.500684
O O3 0.426342 0.715238 0.726934
O O4 0.369486 0.199442 0.722693
O O5 0.733281 0.741138 0.693708
O O6 0.713648 0.250746 0.943996
O O7 0.500000 0.000000 0.000000
O O8 0.885095 0.638494 0.394946
O O9 0.000000 0.500000 0.500000
O O10 0.881706 0.111246 0.679112
O O11 0.824916 0.333837 0.187340
O O12 0.922225 0.576424 0.902464
O O13 0.975461 0.985144 0.822513
#
# Coordination Sequence:
#
# PCOD9095663 Si02
#       6
#     2   2   2   2   2   2
#     4  10  21  36  55  87 119 158 195 240 303 353
#     4  10  21  40  60  89 127 160 193 245 309 368
#     4   8  17  33  56  90 112 152 193 252 292 345
#     4  10  20  35  59  85 118 153 200 251 287 348
#     4   9  21  31  59  84 115 148 191 247 295 344
#     4  11  17  36  57  89 112 143 199 250 294 333
#
# _framework density 25.778147000000001
#
# number of rings (size 3 to 8) (size 9 to 14) (size 15 to 20)
#    1.000    1.333    1.667    1.500    0.000    1.333 
#    0.000    3.333    0.000    6.000    0.000    0.000 
#    0.000    0.000    0.000    0.000    0.000    0.000 
#
# Total GULP energy -66980.812665 kJ/mol
# GULP energy per Si atom -5581.734389 kJ/mol
# Density = 2.571947 g / cm^3
# Si number density = 25.778147 Si / 1000 Ang^3
#
#
#
# Elastic Constant Matrix: (Units=GPa)
#
#
# Indices 1 2 3 4 5 6 
#
# 1 157.6232 27.6208 42.3024 -1.7055 -22.3491 -14.2453
# 2 27.6208 86.2919 17.0224 -5.7270 -8.8068 -10.4788
# 3 42.3024 17.0224 135.0973 -11.1827 -8.2968 17.4066
# 4 -1.7055 -5.7270 -11.1827 25.9226 7.9168 -3.9021
# 5 -22.3491 -8.8068 -8.2968 7.9168 35.6911 -1.0325
# 6 -14.2453 -10.4788 17.4066 -3.9021 -1.0325 30.7473
#
#
#
# Elastic Compliance Matrix: (Units=1/GPa)
#
#
# Indices 1 2 3 4 5 6 
#
# 1 0.008497 -0.001101 -0.003037 -0.001694 0.004870 0.005229
# 2 -0.001101 0.013269 -0.001707 0.002372 0.001816 0.005341
# 3 -0.003037 -0.001707 0.009663 0.002793 -0.000903 -0.007135
# 4 -0.001694 0.002372 0.002793 0.043614 -0.009395 0.003661
# 5 0.004870 0.001816 -0.000903 -0.009395 0.033486 0.003318
# 6 0.005229 0.005341 -0.007135 0.003661 0.003318 0.041381
#
#
# Mechanical properties :
#
#
# Convention : Reuss Voigt Hill
#
# Bulk Modulus (GPa) = 50.66185 61.43373 56.04779
# Shear Modulus (GPa) = 29.72986 37.94332 33.83659
#
# Velocity S-wave (km/s) = 3.39971 3.84072 3.62692
# Velocity P-wave (km/s) = 5.92506 6.59937 6.27128
#
# Compressibility (1/GPa) = 0.01973872
#
# Stress axis : x y z
#
# Youngs Moduli (GPa) = 117.68892 75.36295 103.48544
#
# Poissons Ratio (x) = 0.08299 0.31426
# Poissons Ratio (y) = 0.12959 0.17669
# Poissons Ratio (z) = 0.35739 0.12867
#
# Static dielectric constant tensor:
#      x y z
#    x 2.066230 0.014870 0.003270 
#    y 0.014870 1.937430 0.014410 
#    z 0.003270 0.014410 2.180050 
# 
# From -- ./inp_files/408054.got.cif
#   From: 2010.05.17/outbox.cif.g08.bks.cpg/sg2_205_cif.got.tgz:408054.got - 2010.06.03 11:33:40.
