data_PCOD9095301
_publ_section_title
;
Structure prediction by ZEFSAII (Michael W. Deem and Ramdas Pophale) SiO2 
 PCOD9095301
Probable space group: P -1
;
_chemical_formula_sum "Si O2"
_cell_formula_units_Z 14
_cell_length_a 11.043083
_cell_length_b 10.595419
_cell_length_c 5.254271
_cell_angle_alpha 106.457382
_cell_angle_beta 89.563367
_cell_angle_gamma 90.367568
_cell_volume 589.571626
_symmetry_space_group_name_H-M "P -1"
_symmetry_group_IT_number 2
_symmetry_cell_setting 'triclinic'
loop_
_space_group_symop_operation_xyz
x,y,z
-x,-y,-z
loop_
_atom_site_type_symbol
_atom_site_label
_atom_site_fract_x
_atom_site_fract_y
_atom_site_fract_z
Si Si1 0.110694 0.634727 0.340930
Si Si2 0.635008 0.573481 0.334175
Si Si3 0.631203 0.942279 0.001603
Si Si4 0.043734 0.330526 0.132581
Si Si5 0.629986 0.404273 0.740470
Si Si6 0.271340 0.172180 0.559306
Si Si7 0.124898 0.057149 0.125022
O O1 0.106413 0.474157 0.225839
O O2 0.250353 0.680042 0.356475
O O3 0.045092 0.672895 0.623730
O O4 0.035466 0.682070 0.127019
O O5 0.636370 0.516992 0.585321
O O6 0.506857 0.645772 0.322662
O O7 0.745241 0.672118 0.330844
O O8 0.638983 0.459369 0.058095
O O9 0.651778 0.882938 0.243395
O O10 0.650465 0.842870 0.709943
O O11 0.756707 0.025474 0.007241
O O12 0.500000 0.000000 0.000000
O O13 0.129230 0.203882 0.083034
O O14 0.151138 0.089171 0.440395
O O15 0.000000 0.000000 0.000000
#
# Coordination Sequence:
#
# PCOD9095301 Si02
#       7
#     2   2   2   2   2   2   2
#     4  10  21  38  59  87 127 160 208 256 314 378
#     4  10  20  35  59  90 119 162 213 252 319 385
#     4  10  23  44  66  93 120 166 216 268 321 382
#     4  10  22  38  59  89 120 166 207 254 315 378
#     4  10  20  35  56  88 127 157 205 267 309 376
#     4  10  22  39  67  89 122 167 209 262 320 387
#     4  10  25  44  67  97 129 171 220 270 324 384
#
# _framework density 23.746051999999999
#
# number of rings (size 3 to 8) (size 9 to 14) (size 15 to 20)
#    0.857    1.143    0.000    3.000    4.000    1.714 
#    5.143    0.000    0.000    0.000    0.000    0.000 
#    0.000    0.000    0.000    0.000    0.000    0.000 
#
# Total GULP energy -78100.264441 kJ/mol
# GULP energy per Si atom -5578.590317 kJ/mol
# Density = 2.369200 g / cm^3
# Si number density = 23.746052 Si / 1000 Ang^3
#
#
#
# Elastic Constant Matrix: (Units=GPa)
#
#
# Indices 1 2 3 4 5 6 
#
# 1 159.8703 21.7985 46.5687 1.1044 4.6785 -24.7029
# 2 21.7985 34.9970 27.4049 -12.1161 10.2862 -13.8757
# 3 46.5687 27.4049 113.8526 -27.7579 12.4509 -6.6091
# 4 1.1044 -12.1161 -27.7579 30.3735 -5.2739 4.7851
# 5 4.6785 10.2862 12.4509 -5.2739 29.3750 1.1682
# 6 -24.7029 -13.8757 -6.6091 4.7851 1.1682 33.9931
#
#
#
# Elastic Compliance Matrix: (Units=1/GPa)
#
#
# Indices 1 2 3 4 5 6 
#
# 1 0.008608 -0.001870 -0.004126 -0.005734 -0.000216 0.005505
# 2 -0.001870 0.047862 -0.006308 0.008609 -0.012886 0.016182
# 3 -0.004126 -0.006308 0.014671 0.011527 -0.001112 -0.004305
# 4 -0.005734 0.008609 0.011527 0.048258 0.001887 -0.005270
# 5 -0.000216 -0.012886 -0.001112 0.001887 0.039688 -0.007262
# 6 0.005505 0.016182 -0.004305 -0.005270 -0.007262 0.040178
#
#
# Mechanical properties :
#
#
# Convention : Reuss Voigt Hill
#
# Bulk Modulus (GPa) = 21.49005 55.58489 38.53747
# Shear Modulus (GPa) = 20.88679 32.94484 26.91582
#
# Velocity S-wave (km/s) = 2.96901 3.72880 3.37038
# Velocity P-wave (km/s) = 4.56321 6.48054 5.60448
#
# Compressibility (1/GPa) = 0.04653316
#
# Stress axis : x y z
#
# Youngs Moduli (GPa) = 116.16566 20.89320 68.16082
#
# Poissons Ratio (x) = 0.03908 0.28121
# Poissons Ratio (y) = 0.21728 0.42998
# Poissons Ratio (z) = 0.47927 0.13180
#
# Static dielectric constant tensor:
#      x y z
#    x 2.107260 -0.032300 -0.090820 
#    y -0.032300 1.926810 0.044190 
#    z -0.090820 0.044190 1.978740 
# 
# From -- ./inp_files/64924.got.cif
#   From: 2010.05.17/outbox.cif.g08.bks.cpg/sg2_33_cif.got.tgz:64924.got - 2010.06.03 11:33:40.
