data_PCOD9095666
_publ_section_title
;
Structure prediction by ZEFSAII (Michael W. Deem and Ramdas Pophale) SiO2 
 PCOD9095666
Probable space group: P -1
;
_chemical_formula_sum "Si O2"
_cell_formula_units_Z 16
_cell_length_a 8.734856
_cell_length_b 16.555739
_cell_length_c 14.962903
_cell_angle_alpha 26.809628
_cell_angle_beta 73.408745
_cell_angle_gamma 54.773621
_cell_volume 624.071743
_symmetry_space_group_name_H-M "P -1"
_symmetry_group_IT_number 2
_symmetry_cell_setting 'triclinic'
loop_
_space_group_symop_operation_xyz
x,y,z
-x,-y,-z
loop_
_atom_site_type_symbol
_atom_site_label
_atom_site_fract_x
_atom_site_fract_y
_atom_site_fract_z
Si Si1 0.819198 0.332469 0.440938
Si Si2 0.987023 0.713161 0.378211
Si Si3 0.551315 0.634933 0.466883
Si Si4 0.129284 0.173084 0.314406
Si Si5 0.813151 0.859911 0.082912
Si Si6 0.965981 0.549809 0.113943
Si Si7 0.229868 0.586711 0.172202
Si Si8 0.309040 0.662242 0.729338
O O1 0.029878 0.184774 0.623311
O O2 0.603439 0.415601 0.445668
O O3 0.837922 0.202713 0.474535
O O4 0.792543 0.556816 0.187339
O O5 0.211836 0.602356 0.394207
O O6 0.066507 0.438196 0.649636
O O7 0.781593 0.910719 0.144081
O O8 0.608962 0.644199 0.549999
O O9 0.417839 0.901887 0.171165
O O10 0.153338 0.269970 0.303270
O O11 0.842738 0.363796 0.171092
O O12 0.272550 0.870365 0.587494
O O13 0.177481 0.230641 0.156810
O O14 0.006107 0.829920 0.031417
O O15 0.107702 0.564239 0.140667
O O16 0.413084 0.574582 0.109503
#
# Coordination Sequence:
#
# PCOD9095666 Si02
#       8
#     2   2   2   2   2   2   2   2
#     4  10  20  35  59  85 121 156 192 244 285 346
#     4  10  20  38  60  87 120 154 200 241 286 347
#     4  10  22  38  61  86 121 159 194 239 293 339
#     4   9  20  39  64  86 117 156 189 248 301 344
#     4  10  21  38  61  88 120 156 194 245 291 338
#     4  10  20  37  62  87 119 153 194 244 297 345
#     4  10  21  35  62  89 119 152 198 237 285 356
#     4   9  20  38  60  89 118 152 198 238 296 353
#
# _framework density 25.638076999999999
#
# number of rings (size 3 to 8) (size 9 to 14) (size 15 to 20)
#    0.000    2.250    1.250    0.750    3.500    1.500 
#    0.000    0.000   13.750    0.000    0.000    0.000 
#    0.000    0.000    0.000    0.000    0.000    0.000 
#
# Total GULP energy -89264.919251 kJ/mol
# GULP energy per Si atom -5579.057453 kJ/mol
# Density = 2.557972 g / cm^3
# Si number density = 25.638077 Si / 1000 Ang^3
#
#
#
# Elastic Constant Matrix: (Units=GPa)
#
#
# Indices 1 2 3 4 5 6 
#
# 1 79.6921 22.5101 27.7136 15.4952 -4.9967 -16.4399
# 2 22.5101 69.3262 16.6081 11.0073 -1.4936 -8.4062
# 3 27.7136 16.6081 71.9257 12.4637 -5.4849 -2.7479
# 4 15.4952 11.0073 12.4637 32.3707 -3.3859 1.1648
# 5 -4.9967 -1.4936 -5.4849 -3.3859 29.8195 9.8161
# 6 -16.4399 -8.4062 -2.7479 1.1648 9.8161 47.7560
#
#
#
# Elastic Compliance Matrix: (Units=1/GPa)
#
#
# Indices 1 2 3 4 5 6 
#
# 1 0.017221 -0.002896 -0.004824 -0.005654 -0.000565 0.005395
# 2 -0.002896 0.016689 -0.002107 -0.003676 -0.001161 0.002148
# 3 -0.004824 -0.002107 0.016923 -0.003196 0.002315 -0.001456
# 4 -0.005654 -0.003676 -0.003196 0.036650 0.003916 -0.004476
# 5 -0.000565 -0.001161 0.002315 0.003916 0.036866 -0.007939
# 6 0.005395 0.002148 -0.001456 -0.004476 -0.007939 0.024832
#
#
# Mechanical properties :
#
#
# Convention : Reuss Voigt Hill
#
# Bulk Modulus (GPa) = 32.07328 39.40086 35.73707
# Shear Modulus (GPa) = 27.89745 32.26338 30.08042
#
# Velocity S-wave (km/s) = 3.30225 3.55127 3.42902
# Velocity P-wave (km/s) = 5.20356 5.67598 5.44490
#
# Compressibility (1/GPa) = 0.03117860
#
# Stress axis : x y z
#
# Youngs Moduli (GPa) = 58.06939 59.92039 59.09071
#
# Poissons Ratio (x) = 0.17354 0.28504
# Poissons Ratio (y) = 0.16818 0.12451
# Poissons Ratio (z) = 0.28011 0.12626
#
# Static dielectric constant tensor:
#      x y z
#    x 2.107380 0.001350 0.012700 
#    y 0.001350 2.025310 -0.000810 
#    z 0.012700 -0.000810 2.078950 
# 
# From -- ./inp_files/342198.got.cif
#   From: 2010.05.17/outbox.cif.g08.bks.cpg/sg2_172_cif.got.tgz:342198.got - 2010.06.03 11:33:40.
