data_PCOD9095834
_publ_section_title
;
Structure prediction by ZEFSAII (Michael W. Deem and Ramdas Pophale) SiO2 
 PCOD9095834
Probable space group: P -1
;
_chemical_formula_sum "Si O2"
_cell_formula_units_Z 16
_cell_length_a 15.526748
_cell_length_b 15.372691
_cell_length_c 7.144299
_cell_angle_alpha 53.848684
_cell_angle_beta 97.131577
_cell_angle_gamma 142.317821
_cell_volume 605.711340
_symmetry_space_group_name_H-M "P -1"
_symmetry_group_IT_number 2
_symmetry_cell_setting 'triclinic'
loop_
_space_group_symop_operation_xyz
x,y,z
-x,-y,-z
loop_
_atom_site_type_symbol
_atom_site_label
_atom_site_fract_x
_atom_site_fract_y
_atom_site_fract_z
Si Si1 0.138215 0.012753 0.885976
Si Si2 0.121085 0.244779 0.484630
Si Si3 0.591139 0.269731 0.591874
Si Si4 0.517615 0.817757 0.896244
Si Si5 0.462894 0.565123 0.674317
Si Si6 0.198015 0.706651 0.528731
Si Si7 0.847500 0.206106 0.971535
Si Si8 0.266515 0.136989 0.263916
O O1 0.147114 0.143727 0.632092
O O2 0.373309 0.251260 0.675931
O O3 0.090044 0.848171 0.971412
O O4 0.991718 0.852949 0.226189
O O5 0.318043 0.533692 0.137455
O O6 0.963236 0.102906 0.467328
O O7 0.549014 0.225619 0.856642
O O8 0.668918 0.475523 0.309202
O O9 0.702818 0.288213 0.542743
O O10 0.379767 0.037584 0.727614
O O11 0.681342 0.911361 0.773535
O O12 0.645931 0.068819 0.571829
O O13 0.595506 0.708956 0.713252
O O14 0.330027 0.314414 0.945817
O O15 0.149560 0.737333 0.308195
O O16 0.984713 0.421925 0.879499
#
# Coordination Sequence:
#
# PCOD9095834 Si02
#       8
#     2   2   2   2   2   2   2   2
#     4  10  21  38  60  93 121 148 203 246 297 354
#     4  11  23  36  61  93 121 158 192 250 307 352
#     4  10  21  36  63  87 119 155 200 249 288 355
#     4  11  22  39  60  96 123 151 198 250 302 354
#     4  10  23  43  59  86 122 163 205 239 299 355
#     4  10  20  35  60  88 122 155 193 245 298 352
#     4   9  18  34  54  89 118 154 188 241 297 348
#     4  11  24  41  60  84 126 165 194 248 297 360
#
# _framework density 26.415223999999998
#
# number of rings (size 3 to 8) (size 9 to 14) (size 15 to 20)
#    0.000    1.750    1.250    4.500    5.250    4.500 
#    0.000    0.625    0.000    3.750    0.000    0.000 
#    0.000    0.000    0.000    0.000    0.000    0.000 
#
# Total GULP energy -89336.179932 kJ/mol
# GULP energy per Si atom -5583.511246 kJ/mol
# Density = 2.635510 g / cm^3
# Si number density = 26.415224 Si / 1000 Ang^3
#
#
#
# Elastic Constant Matrix: (Units=GPa)
#
#
# Indices 1 2 3 4 5 6 
#
# 1 164.0033 37.2146 37.0460 -15.2154 10.0131 -3.7530
# 2 37.2146 91.8988 33.4404 -21.4516 9.1562 -2.7255
# 3 37.0460 33.4404 96.0486 -39.4520 9.4661 -7.5065
# 4 -15.2154 -21.4516 -39.4520 47.9139 -6.5442 -2.1662
# 5 10.0131 9.1562 9.4661 -6.5442 36.9875 -10.8773
# 6 -3.7530 -2.7255 -7.5065 -2.1662 -10.8773 32.9555
#
#
#
# Elastic Compliance Matrix: (Units=1/GPa)
#
#
# Indices 1 2 3 4 5 6 
#
# 1 0.007067 -0.002129 -0.002168 -0.000644 -0.001017 -0.000243
# 2 -0.002129 0.013525 -0.002433 0.003159 -0.001589 0.000005
# 3 -0.002168 -0.002433 0.017821 0.013144 0.000299 0.004574
# 4 -0.000644 0.003159 0.013144 0.033750 0.003973 0.006712
# 5 -0.001017 -0.001589 0.000299 0.003973 0.031404 0.010447
# 6 -0.000243 0.000005 0.004574 0.006712 0.010447 0.035248
#
#
# Mechanical properties :
#
#
# Convention : Reuss Voigt Hill
#
# Bulk Modulus (GPa) = 40.07450 63.03918 51.55684
# Shear Modulus (GPa) = 31.13479 39.85469 35.49474
#
# Velocity S-wave (km/s) = 3.43690 3.88851 3.66966
# Velocity P-wave (km/s) = 5.56360 6.63907 6.12498
#
# Compressibility (1/GPa) = 0.02495353
#
# Stress axis : x y z
#
# Youngs Moduli (GPa) = 141.50255 73.93743 56.11212
#
# Poissons Ratio (x) = 0.15743 0.12163
# Poissons Ratio (y) = 0.30129 0.13653
# Poissons Ratio (z) = 0.30673 0.17990
#
# Static dielectric constant tensor:
#      x y z
#    x 1.994780 0.014970 -0.000780 
#    y 0.014970 2.145250 0.023870 
#    z -0.000780 0.023870 2.172330 
# 
# From -- ./inp_files/314688.got.cif
#   From: 2010.05.17/outbox.cif.g08.bks.cpg/sg2_158_cif.got.tgz:314688.got - 2010.06.03 11:33:40.
