data_PCOD9095375
_publ_section_title
;
Structure prediction by ZEFSAII (Michael W. Deem and Ramdas Pophale) SiO2 
 PCOD9095375
Probable space group: P -1
;
_chemical_formula_sum "Si O2"
_cell_formula_units_Z 14
_cell_length_a 7.443015
_cell_length_b 20.395301
_cell_length_c 11.759317
_cell_angle_alpha 28.996646
_cell_angle_beta 34.861151
_cell_angle_gamma 46.259516
_cell_volume 492.387545
_symmetry_space_group_name_H-M "P -1"
_symmetry_group_IT_number 2
_symmetry_cell_setting 'triclinic'
loop_
_space_group_symop_operation_xyz
x,y,z
-x,-y,-z
loop_
_atom_site_type_symbol
_atom_site_label
_atom_site_fract_x
_atom_site_fract_y
_atom_site_fract_z
Si Si1 0.230701 0.922463 0.578266
Si Si2 0.770230 0.141363 0.905824
Si Si3 0.723799 0.504672 0.765730
Si Si4 0.813878 0.426671 0.389689
Si Si5 0.558784 0.782413 0.439867
Si Si6 0.071348 0.926749 0.325763
Si Si7 0.328203 0.349181 0.051716
O O1 0.331862 0.791523 0.656680
O O2 0.000000 0.000000 0.500000
O O3 0.049964 0.934584 0.772575
O O4 0.547891 0.025353 0.258872
O O5 0.621671 0.281041 0.737466
O O6 0.854649 0.078507 0.836727
O O7 0.091972 0.187858 0.734190
O O8 0.595046 0.640779 0.572301
O O9 0.051312 0.521118 0.637270
O O10 0.500000 0.500000 0.000000
O O11 0.662416 0.388187 0.880685
O O12 0.084306 0.383426 0.226981
O O13 0.298448 0.447808 0.811508
O O14 0.376985 0.877517 0.306696
O O15 0.788380 0.806223 0.677764
#
# Coordination Sequence:
#
# PCOD9095375 Si02
#       7
#     2   2   2   2   2   2   2
#     4  10  23  40  57  84 115 145 191 237 276 333
#     4  10  20  38  60  81 111 153 188 227 285 331
#     4   9  15  26  49  80 107 137 182 225 268 327
#     4   8  15  26  49  79 106 139 181 222 268 328
#     4  10  20  35  57  84 113 147 187 231 277 332
#     4  10  21  37  59  85 116 149 185 231 277 331
#     4   9  15  28  51  81 110 141 180 222 273 326
#
# _framework density 28.432887999999998
#
# number of rings (size 3 to 8) (size 9 to 14) (size 15 to 20)
#    0.000    2.571    0.000    4.714    0.000    2.857 
#    0.000    3.571    0.000    3.429    0.000    0.000 
#    0.000   18.286    0.000    0.000    0.000    0.000 
#
# Total GULP energy -78283.934747 kJ/mol
# GULP energy per Si atom -5591.709625 kJ/mol
# Density = 2.836817 g / cm^3
# Si number density = 28.432888 Si / 1000 Ang^3
#
#
#
# Elastic Constant Matrix: (Units=GPa)
#
#
# Indices 1 2 3 4 5 6 
#
# 1 128.8587 36.0815 21.4411 0.0889 7.9033 10.8507
# 2 36.0815 104.3229 28.1137 15.7260 2.0332 0.4816
# 3 21.4411 28.1137 55.3920 5.0159 12.7338 -7.7347
# 4 0.0889 15.7260 5.0159 54.1003 -2.3847 4.1693
# 5 7.9033 2.0332 12.7338 -2.3847 45.0509 -11.6989
# 6 10.8507 0.4816 -7.7347 4.1693 -11.6989 30.1455
#
#
#
# Elastic Compliance Matrix: (Units=1/GPa)
#
#
# Indices 1 2 3 4 5 6 
#
# 1 0.009509 -0.002707 -0.002662 0.001316 -0.002031 -0.005033
# 2 -0.002707 0.012359 -0.005197 -0.003077 0.001322 0.000382
# 3 -0.002662 -0.005197 0.023672 -0.001308 -0.004631 0.005499
# 4 0.001316 -0.003077 -0.001308 0.019774 0.000463 -0.003315
# 5 -0.002031 0.001322 -0.004631 0.000463 0.026341 0.009680
# 6 -0.005033 0.000382 0.005499 -0.003315 0.009680 0.040604
#
#
# Mechanical properties :
#
#
# Convention : Reuss Voigt Hill
#
# Bulk Modulus (GPa) = 40.96977 51.09401 46.03189
# Shear Modulus (GPa) = 30.95505 39.38849 35.17177
#
# Velocity S-wave (km/s) = 3.30313 3.72602 3.52093
# Velocity P-wave (km/s) = 5.38407 6.04318 5.72312
#
# Compressibility (1/GPa) = 0.02440824
#
# Stress axis : x y z
#
# Youngs Moduli (GPa) = 105.16630 80.91484 42.24448
#
# Poissons Ratio (x) = 0.21904 0.11245
# Poissons Ratio (y) = 0.28469 0.21953
# Poissons Ratio (z) = 0.27993 0.42048
#
# Static dielectric constant tensor:
#      x y z
#    x 2.221960 -0.050440 -0.056590 
#    y -0.050440 2.246970 -0.067660 
#    z -0.056590 -0.067660 2.398180 
# 
# From -- ./inp_files/405352.got.cif
#   From: 2010.05.17/outbox.cif.g08.bks.cpg/sg2_203_cif.got.tgz:405352.got - 2010.06.03 11:33:40.
