data_PCOD9095698
_publ_section_title
;
Structure prediction by ZEFSAII (Michael W. Deem and Ramdas Pophale) SiO2 
 PCOD9095698
Probable space group: P -1
;
_chemical_formula_sum "Si O2"
_cell_formula_units_Z 16
_cell_length_a 9.344131
_cell_length_b 5.250733
_cell_length_c 18.531840
_cell_angle_alpha 106.175209
_cell_angle_beta 123.214642
_cell_angle_gamma 55.788217
_cell_volume 628.495490
_symmetry_space_group_name_H-M "P -1"
_symmetry_group_IT_number 2
_symmetry_cell_setting 'triclinic'
loop_
_space_group_symop_operation_xyz
x,y,z
-x,-y,-z
loop_
_atom_site_type_symbol
_atom_site_label
_atom_site_fract_x
_atom_site_fract_y
_atom_site_fract_z
Si Si1 0.561615 0.478675 0.803359
Si Si2 0.393351 0.308327 0.447575
Si Si3 0.230869 0.076399 0.276391
Si Si4 0.287634 0.884460 0.031232
Si Si5 0.833538 0.447102 0.271637
Si Si6 0.984700 0.709239 0.445218
Si Si7 0.292570 0.325020 0.904965
Si Si8 0.082761 0.401315 0.109439
O O1 0.625557 0.290782 0.881771
O O2 0.322474 0.660120 0.758269
O O3 0.715685 0.596728 0.848954
O O4 0.618350 0.272959 0.730430
O O5 0.500000 0.500000 0.500000
O O6 0.359414 0.220351 0.351822
O O7 0.177760 0.526269 0.436079
O O8 0.500000 0.000000 0.500000
O O9 0.126564 0.220908 0.183185
O O10 0.056596 0.159234 0.293633
O O11 0.471011 0.912652 0.051853
O O12 0.088750 0.194062 0.027183
O O13 0.268016 0.640552 0.956950
O O14 0.770599 0.620777 0.191484
O O15 0.823776 0.691923 0.347222
O O16 0.000000 0.500000 0.500000
O O17 0.000000 0.000000 0.500000
O O18 0.127864 0.293750 0.903846
#
# Coordination Sequence:
#
# PCOD9095698 Si02
#       8
#     2   2   2   2   2   2   2   2
#     4  10  21  36  61  87 121 157 210 255 313 378
#     4  11  25  42  67  97 130 172 219 277 339 397
#     4   9  22  40  57  84 122 161 204 255 317 389
#     4   9  19  37  57  85 121 160 200 250 312 372
#     4   9  21  42  59  87 122 166 206 260 326 386
#     4  11  25  46  69  99 133 174 224 280 337 402
#     4   9  18  38  60  81 124 160 199 255 307 383
#     4  10  20  35  59  88 114 163 203 254 308 374
#
# _framework density 25.457623000000002
#
# number of rings (size 3 to 8) (size 9 to 14) (size 15 to 20)
#    0.000    2.250    0.000    1.125    5.250    1.500 
#   11.250    5.625    0.000    0.000    0.000    0.000 
#    0.000    0.000    0.000    0.000    0.000    0.000 
#
# Total GULP energy -89346.080445 kJ/mol
# GULP energy per Si atom -5584.130028 kJ/mol
# Density = 2.539968 g / cm^3
# Si number density = 25.457623 Si / 1000 Ang^3
#
#
#
# Elastic Constant Matrix: (Units=GPa)
#
#
# Indices 1 2 3 4 5 6 
#
# 1 168.0628 29.3356 44.8160 19.9370 22.0746 -15.7120
# 2 29.3356 67.3400 26.8942 25.0681 -2.1028 -16.9216
# 3 44.8160 26.8942 155.8642 33.7548 -9.5739 -13.2336
# 4 19.9370 25.0681 33.7548 34.6544 -4.9827 2.9038
# 5 22.0746 -2.1028 -9.5739 -4.9827 47.9955 1.3269
# 6 -15.7120 -16.9216 -13.2336 2.9038 1.3269 35.8501
#
#
#
# Elastic Compliance Matrix: (Units=1/GPa)
#
#
# Indices 1 2 3 4 5 6 
#
# 1 0.007697 -0.001057 -0.001368 -0.003177 -0.004266 0.002785
# 2 -0.001057 0.026041 0.001512 -0.020975 -0.000639 0.014109
# 3 -0.001368 0.001512 0.008976 -0.009190 0.001418 0.004119
# 4 -0.003177 -0.020975 -0.009190 0.057190 0.005186 -0.019510
# 5 -0.004266 -0.000639 0.001418 0.005186 0.023672 -0.002944
# 6 0.002785 0.014109 0.004119 -0.019510 -0.002944 0.038983
#
#
# Mechanical properties :
#
#
# Convention : Reuss Voigt Hill
#
# Bulk Modulus (GPa) = 24.45833 65.92874 45.19353
# Shear Modulus (GPa) = 28.08762 43.04809 35.56785
#
# Velocity S-wave (km/s) = 3.32521 4.11660 3.74189
# Velocity P-wave (km/s) = 4.93670 6.96770 6.03821
#
# Compressibility (1/GPa) = 0.04088587
#
# Stress axis : x y z
#
# Youngs Moduli (GPa) = 129.91716 38.40169 111.41432
#
# Poissons Ratio (x) = 0.04061 0.15244
# Poissons Ratio (y) = 0.13738 -0.16846
# Poissons Ratio (z) = 0.17776 -0.05806
#
# Static dielectric constant tensor:
#      x y z
#    x 2.014930 -0.003600 0.080420 
#    y -0.003600 2.129820 0.024590 
#    z 0.080420 0.024590 2.098760 
# 
# From -- ./inp_files/55301.got.cif
#   From: 2010.05.17/outbox.cif.g08.bks.cpg/sg2_28_cif.got.tgz:55301.got - 2010.06.03 11:33:40.
