data_PCOD9095228
_publ_section_title
;
Structure prediction by ZEFSAII (Michael W. Deem and Ramdas Pophale) SiO2 
 PCOD9095228
Probable space group: P -1
;
_chemical_formula_sum "Si O2"
_cell_formula_units_Z 16
_cell_length_a 11.376559
_cell_length_b 14.861974
_cell_length_c 9.979199
_cell_angle_alpha 28.846260
_cell_angle_beta 82.355527
_cell_angle_gamma 74.415016
_cell_volume 764.873662
_symmetry_space_group_name_H-M "P -1"
_symmetry_group_IT_number 2
_symmetry_cell_setting 'triclinic'
loop_
_space_group_symop_operation_xyz
x,y,z
-x,-y,-z
loop_
_atom_site_type_symbol
_atom_site_label
_atom_site_fract_x
_atom_site_fract_y
_atom_site_fract_z
Si Si1 0.627055 0.438015 0.145204
Si Si2 0.875070 0.805544 0.617823
Si Si3 0.627055 0.851711 0.731508
Si Si4 0.124930 0.603979 0.972655
Si Si5 0.626030 0.688586 0.228787
Si Si6 0.125991 0.934670 0.979488
Si Si7 0.874009 0.474820 0.611021
Si Si8 0.373969 0.731990 0.350637
O O1 0.625836 0.294216 0.455740
O O2 0.500000 0.500000 0.000000
O O3 0.635027 0.638164 0.950481
O O4 0.748141 0.354581 0.141650
O O5 0.748141 0.901048 0.595185
O O6 0.874553 0.588277 0.860616
O O7 0.000000 0.774986 0.725014
O O8 0.877874 0.917526 0.333628
O O9 0.500000 0.000000 0.500000
O O10 0.625834 0.829994 0.919963
O O11 0.122126 0.546551 0.202296
O O12 0.750656 0.642790 0.358421
O O13 0.500000 0.763901 0.236100
O O14 0.626993 0.477979 0.439072
O O15 0.135221 0.727934 0.180977
O O16 0.249345 0.894656 0.104131
O O17 0.000000 0.000000 0.000000
O O18 0.000000 0.500000 0.500000
#
# Coordination Sequence:
#
# PCOD9095228 Si02
#       8
#     2   2   2   2   2   2   2   2
#     4  10  20  35  56  81 110 144 182 227 278 329
#     4  10  21  38  58  80 111 150 189 229 275 327
#     4  10  20  35  56  81 110 144 182 227 278 329
#     4  10  21  38  58  80 111 150 189 229 275 327
#     4   9  18  34  56  80 107 143 184 223 269 327
#     4  11  22  37  59  84 111 144 184 230 279 332
#     4  11  22  37  59  84 111 144 184 230 279 332
#     4   9  18  34  56  80 107 143 184 223 269 327
#
# _framework density 20.918489000000001
#
# number of rings (size 3 to 8) (size 9 to 14) (size 15 to 20)
#    0.000    2.000    0.000    3.750    0.000    7.500 
#    0.000    5.000    0.000    6.750    0.000    0.000 
#    0.000    0.000    0.000    0.000    0.000    0.000 
#
# Total GULP energy -89434.738951 kJ/mol
# GULP energy per Si atom -5589.671184 kJ/mol
# Density = 2.087088 g / cm^3
# Si number density = 20.918489 Si / 1000 Ang^3
#
#
#
# Elastic Constant Matrix: (Units=GPa)
#
#
# Indices 1 2 3 4 5 6 
#
# 1 200.5423 61.6601 92.3685 46.8175 38.1746 -53.2453
# 2 61.6601 66.0536 40.1142 33.5051 9.0053 -27.6772
# 3 92.3685 40.1142 140.3494 50.8509 33.8415 -34.3392
# 4 46.8175 33.5051 50.8509 54.1056 7.7007 -15.2623
# 5 38.1746 9.0053 33.8415 7.7007 44.5745 0.0664
# 6 -53.2453 -27.6772 -34.3392 -15.2623 0.0664 47.3574
#
#
#
# Elastic Compliance Matrix: (Units=1/GPa)
#
#
# Indices 1 2 3 4 5 6 
#
# 1 0.010902 -0.003583 -0.001559 -0.002418 -0.007023 0.008263
# 2 -0.003583 0.028338 0.001814 -0.013193 -0.001768 0.009599
# 3 -0.001559 0.001814 0.015518 -0.011121 -0.008902 0.006988
# 4 -0.002418 -0.013193 -0.011121 0.036292 0.006920 -0.006807
# 5 -0.007023 -0.001768 -0.008902 0.006920 0.034389 -0.013203
# 6 0.008263 0.009599 0.006988 -0.006807 -0.013203 0.038908
#
#
# Mechanical properties :
#
#
# Convention : Reuss Voigt Hill
#
# Bulk Modulus (GPa) = 20.78996 88.35899 54.57447
# Shear Modulus (GPa) = 26.73275 43.39432 35.06353
#
# Velocity S-wave (km/s) = 3.57872 4.55955 4.09858
# Velocity P-wave (km/s) = 5.19966 8.36963 6.96732
#
# Compressibility (1/GPa) = 0.04810015
#
# Stress axis : x y z
#
# Youngs Moduli (GPa) = 91.72851 35.28867 64.44062
#
# Poissons Ratio (x) = 0.12645 0.10048
# Poissons Ratio (y) = 0.32869 -0.11688
# Poissons Ratio (z) = 0.14303 -0.06401
#
# Static dielectric constant tensor:
#      x y z
#    x 1.572950 0.134840 0.040770 
#    y 0.134840 1.662120 -0.076950 
#    z 0.040770 -0.076950 1.700750 
# 
# From -- ./inp_files/271350.got.cif
#   From: 2010.05.17/outbox.cif.g08.bks.cpg/sg2_136_cif.got.tgz:271350.got - 2010.06.03 11:33:40.
