data_PCOD9095811
_publ_section_title
;
Structure prediction by ZEFSAII (Michael W. Deem and Ramdas Pophale) SiO2 
 PCOD9095811
Probable space group: P -1
;
_chemical_formula_sum "Si O2"
_cell_formula_units_Z 14
_cell_length_a 22.199109
_cell_length_b 12.175366
_cell_length_c 14.878032
_cell_angle_alpha 30.521497
_cell_angle_beta 19.695012
_cell_angle_gamma 30.401671
_cell_volume 656.426335
_symmetry_space_group_name_H-M "P -1"
_symmetry_group_IT_number 2
_symmetry_cell_setting 'triclinic'
loop_
_space_group_symop_operation_xyz
x,y,z
-x,-y,-z
loop_
_atom_site_type_symbol
_atom_site_label
_atom_site_fract_x
_atom_site_fract_y
_atom_site_fract_z
Si Si1 0.751845 0.030379 0.197943
Si Si2 0.738725 0.467154 0.434933
Si Si3 0.621578 0.350861 0.300955
Si Si4 0.357662 0.291246 0.859366
Si Si5 0.224114 0.916220 0.228931
Si Si6 0.042036 0.688475 0.922858
Si Si7 0.548533 0.240006 0.153248
O O1 0.774386 0.173427 0.152936
O O2 0.646815 0.187056 0.150829
O O3 0.951547 0.885157 0.980284
O O4 0.629384 0.860826 0.517525
O O5 0.556634 0.614425 0.537644
O O6 0.701807 0.342000 0.661811
O O7 0.871772 0.611694 0.175628
O O8 0.845781 0.275505 0.347541
O O9 0.553403 0.272861 0.546191
O O10 0.644171 0.594937 0.121324
O O11 0.186676 0.474820 0.918944
O O12 0.314654 0.059471 0.066663
O O13 0.302780 0.915279 0.018504
O O14 0.000000 0.000000 0.500000
O O15 0.500000 0.500000 0.000000
#
# Coordination Sequence:
#
# PCOD9095811 Si02
#       7
#     2   2   2   2   2   2   2
#     4  11  21  37  60  85 121 161 191 246 301 347
#     4  10  20  35  60  86 118 151 195 250 288 350
#     4  10  21  40  58  82 118 159 198 235 294 362
#     4  10  22  38  59  85 117 155 200 239 287 362
#     4  12  21  36  60  91 116 151 197 252 294 340
#     4  10  20  36  59  89 115 153 201 238 291 353
#     4  11  23  36  57  94 122 150 197 249 299 348
#
# _framework density 21.327601999999999
#
# number of rings (size 3 to 8) (size 9 to 14) (size 15 to 20)
#    0.000    1.429    2.857    4.286    2.000    1.143 
#    0.000    0.000    0.000    1.714    0.000    0.000 
#    0.000    0.000    0.000    0.000    0.000    0.000 
#
# Total GULP energy -78090.666029 kJ/mol
# GULP energy per Si atom -5577.904716 kJ/mol
# Density = 2.127906 g / cm^3
# Si number density = 21.327602 Si / 1000 Ang^3
#
#
#
# Elastic Constant Matrix: (Units=GPa)
#
#
# Indices 1 2 3 4 5 6 
#
# 1 55.0256 18.0640 13.1367 1.9244 12.3105 19.9388
# 2 18.0640 90.3440 28.8475 13.0567 24.8008 25.2583
# 3 13.1367 28.8475 69.8422 2.1259 19.1965 14.4009
# 4 1.9244 13.0567 2.1259 42.9157 7.0399 15.6498
# 5 12.3105 24.8008 19.1965 7.0399 32.9619 5.7525
# 6 19.9388 25.2583 14.4009 15.6498 5.7525 52.0500
#
#
#
# Elastic Compliance Matrix: (Units=1/GPa)
#
#
# Indices 1 2 3 4 5 6 
#
# 1 0.023107 -0.000585 -0.000448 0.003514 -0.007160 -0.008709
# 2 -0.000585 0.016364 -0.002967 -0.001304 -0.009128 -0.005495
# 3 -0.000448 -0.002967 0.018545 0.002609 -0.008368 -0.003379
# 4 0.003514 -0.001304 0.002609 0.027742 -0.006189 -0.009093
# 5 -0.007160 -0.009128 -0.008368 -0.006189 0.044962 0.006379
# 6 -0.008709 -0.005495 -0.003379 -0.009093 0.006379 0.028179
#
#
# Mechanical properties :
#
#
# Convention : Reuss Voigt Hill
#
# Bulk Modulus (GPa) = 19.99355 37.25647 28.62501
# Shear Modulus (GPa) = 27.23740 35.92976 31.58358
#
# Velocity S-wave (km/s) = 3.57753 4.10891 3.85239
# Velocity P-wave (km/s) = 5.14391 6.32594 5.76529
#
# Compressibility (1/GPa) = 0.05001612
#
# Stress axis : x y z
#
# Youngs Moduli (GPa) = 43.27699 61.11068 53.92238
#
# Poissons Ratio (x) = 0.03573 0.02416
# Poissons Ratio (y) = 0.02530 0.16000
# Poissons Ratio (z) = 0.01939 0.18133
#
# Static dielectric constant tensor:
#      x y z
#    x 1.795620 0.032400 0.008890 
#    y 0.032400 1.898430 0.024830 
#    z 0.008890 0.024830 1.762880 
# 
# From -- ./inp_files/281191.got.cif
#   From: 2010.05.17/outbox.cif.g08.bks.cpg/sg2_141_cif.got.tgz:281191.got - 2010.06.03 11:33:40.
