data_PCOD9095098
_publ_section_title
;
Structure prediction by ZEFSAII (Michael W. Deem and Ramdas Pophale) SiO2 
 PCOD9095098
Probable space group: P -1
;
_chemical_formula_sum "Si O2"
_cell_formula_units_Z 16
_cell_length_a 8.218975
_cell_length_b 11.966051
_cell_length_c 10.544032
_cell_angle_alpha 78.715060
_cell_angle_beta 137.335750
_cell_angle_gamma 88.786089
_cell_volume 667.583330
_symmetry_space_group_name_H-M "P -1"
_symmetry_group_IT_number 2
_symmetry_cell_setting 'triclinic'
loop_
_space_group_symop_operation_xyz
x,y,z
-x,-y,-z
loop_
_atom_site_type_symbol
_atom_site_label
_atom_site_fract_x
_atom_site_fract_y
_atom_site_fract_z
Si Si1 0.114425 0.031415 0.325744
Si Si2 0.444763 0.157709 0.332900
Si Si3 0.853895 0.385691 0.385484
Si Si4 0.284888 0.043508 0.031422
Si Si5 0.595307 0.574298 0.730622
Si Si6 0.016629 0.533158 0.807708
Si Si7 0.232122 0.743683 0.856039
Si Si8 0.348148 0.186711 0.782257
O O1 0.312266 0.101827 0.380044
O O2 0.909548 0.120576 0.270246
O O3 0.271833 0.915141 0.506041
O O4 0.966812 0.997081 0.128759
O O5 0.448169 0.287290 0.341529
O O6 0.298495 0.133073 0.130803
O O7 0.670036 0.444513 0.378113
O O8 0.916997 0.479279 0.300696
O O9 0.689125 0.318487 0.218250
O O10 0.099822 0.282108 0.577643
O O11 0.306700 0.115333 0.899688
O O12 0.506147 0.922705 0.198563
O O13 0.755489 0.517822 0.712650
O O14 0.777784 0.538743 0.963584
O O15 0.047021 0.667052 0.816691
O O16 0.451257 0.741360 0.079211
#
# Coordination Sequence:
#
# PCOD9095098 Si02
#       8
#     2   2   2   2   2   2   2   2
#     4  10  20  35  54  87 120 154 189 238 293 345
#     4  11  20  33  58  84 117 154 195 238 289 350
#     4  10  20  37  64  85 114 156 196 240 287 346
#     4  10  21  33  52  85 120 152 193 236 286 353
#     4  11  20  38  64  88 114 156 199 241 293 347
#     4   9  22  39  63  85 117 155 195 246 296 338
#     4   9  19  38  59  83 119 155 187 237 293 341
#     4  10  20  36  56  85 119 155 193 235 294 349
#
# _framework density 23.967044999999999
#
# number of rings (size 3 to 8) (size 9 to 14) (size 15 to 20)
#    0.750    1.250    1.250    3.000    0.000    0.000 
#    0.000    8.125    2.750    1.500    0.000    0.000 
#    0.000    0.000    0.000    0.000    0.000    0.000 
#
# Total GULP energy -89267.025846 kJ/mol
# GULP energy per Si atom -5579.189115 kJ/mol
# Density = 2.391249 g / cm^3
# Si number density = 23.967045 Si / 1000 Ang^3
#
#
#
# Elastic Constant Matrix: (Units=GPa)
#
#
# Indices 1 2 3 4 5 6 
#
# 1 111.0687 -3.6041 26.3871 3.8498 6.1729 12.2002
# 2 -3.6041 19.5773 -1.9196 5.8216 4.7218 -1.1984
# 3 26.3871 -1.9196 57.0630 -10.3821 10.8665 4.3839
# 4 3.8498 5.8216 -10.3821 34.1641 6.3083 -0.9785
# 5 6.1729 4.7218 10.8665 6.3083 24.8609 -2.5947
# 6 12.2002 -1.1984 4.3839 -0.9785 -2.5947 19.1451
#
#
#
# Elastic Compliance Matrix: (Units=1/GPa)
#
#
# Indices 1 2 3 4 5 6 
#
# 1 0.011090 0.002328 -0.005007 -0.003188 -0.000830 -0.006050
# 2 0.002328 0.056295 0.001317 -0.007625 -0.009910 0.000006
# 3 -0.005007 0.001317 0.024352 0.009956 -0.012542 -0.003494
# 4 -0.003188 -0.007625 0.009956 0.036029 -0.011297 -0.000415
# 5 -0.000830 -0.009910 -0.012542 -0.011297 0.051621 0.009199
# 6 -0.006050 0.000006 -0.003494 -0.000415 0.009199 0.058114
#
#
# Mechanical properties :
#
#
# Convention : Reuss Voigt Hill
#
# Bulk Modulus (GPa) = 11.23425 25.49286 18.36356
# Shear Modulus (GPa) = 18.52566 26.75707 22.64136
#
# Velocity S-wave (km/s) = 2.78324 3.34490 3.07691
# Velocity P-wave (km/s) = 3.87635 5.05742 4.50575
#
# Compressibility (1/GPa) = 0.08901347
#
# Stress axis : x y z
#
# Youngs Moduli (GPa) = 90.17371 17.76344 41.06384
#
# Poissons Ratio (x) = -0.04136 0.20561
# Poissons Ratio (y) = -0.20996 -0.05407
# Poissons Ratio (z) = 0.45150 -0.02339
#
# Static dielectric constant tensor:
#      x y z
#    x 2.006470 0.008410 0.019280 
#    y 0.008410 1.920180 -0.009220 
#    z 0.019280 -0.009220 1.910730 
# 
# From -- ./inp_files/399000.got.cif
#   From: 2010.05.17/outbox.cif.g08.bks.cpg/sg2_200_cif.got.tgz:399000.got - 2010.06.03 11:33:40.
