data_PCOD9095161
_publ_section_title
;
Structure prediction by ZEFSAII (Michael W. Deem and Ramdas Pophale) SiO2 
 PCOD9095161
Probable space group: P -1
;
_chemical_formula_sum "Si O2"
_cell_formula_units_Z 16
_cell_length_a 8.440322
_cell_length_b 6.712399
_cell_length_c 14.637108
_cell_angle_alpha 117.995960
_cell_angle_beta 89.064271
_cell_angle_gamma 107.108271
_cell_volume 692.500071
_symmetry_space_group_name_H-M "P -1"
_symmetry_group_IT_number 2
_symmetry_cell_setting 'triclinic'
loop_
_space_group_symop_operation_xyz
x,y,z
-x,-y,-z
loop_
_atom_site_type_symbol
_atom_site_label
_atom_site_fract_x
_atom_site_fract_y
_atom_site_fract_z
Si Si1 0.745937 0.579631 0.973646
Si Si2 0.997589 0.221401 0.489605
Si Si3 0.805366 0.471846 0.751079
Si Si4 0.836000 0.008985 0.696917
Si Si5 0.089394 0.976494 0.819006
Si Si6 0.470181 0.337684 0.281672
Si Si7 0.761732 0.289284 0.367588
Si Si8 0.434010 0.715829 0.930114
O O1 0.717657 0.412523 0.027690
O O2 0.854599 0.846896 0.059251
O O3 0.802795 0.469235 0.861399
O O4 0.576218 0.614002 0.944389
O O5 0.127032 0.208238 0.403861
O O6 0.080627 0.469572 0.592689
O O7 0.817763 0.198350 0.442325
O O8 0.000000 0.000000 0.500000
O O9 0.638691 0.492854 0.707985
O O10 0.951045 0.721981 0.785852
O O11 0.819898 0.214286 0.674942
O O12 0.675915 0.906703 0.742039
O O13 0.003099 0.105667 0.776123
O O14 0.236034 0.910734 0.750234
O O15 0.599441 0.367876 0.370486
O O16 0.577787 0.337368 0.189046
O O17 0.500000 0.000000 0.000000
#
# Coordination Sequence:
#
# PCOD9095161 Si02
#       8
#     2   2   2   2   2   2   2   2
#     4  10  21  34  55  87 118 156 202 238 282 342
#     4  10  22  41  64  88 113 147 192 243 297 351
#     4  10  21  38  57  84 124 158 193 242 289 340
#     4  10  22  39  59  85 118 154 194 239 294 354
#     4  10  21  37  59  86 117 156 198 242 290 342
#     4  10  22  38  59  85 117 156 194 237 292 346
#     4  10  22  40  62  86 115 148 194 244 290 348
#     4  10  20  35  55  83 121 157 195 243 287 333
#
# _framework density 23.104690000000002
#
# number of rings (size 3 to 8) (size 9 to 14) (size 15 to 20)
#    0.000    2.000    0.000    2.625    0.000    9.000 
#    0.000    1.250    0.000    0.000    0.000    0.000 
#    0.000    0.000    0.000    0.000    0.000    0.000 
#
# Total GULP energy -89185.768078 kJ/mol
# GULP energy per Si atom -5574.110505 kJ/mol
# Density = 2.305210 g / cm^3
# Si number density = 23.104690 Si / 1000 Ang^3
#
#
#
# Elastic Constant Matrix: (Units=GPa)
#
#
# Indices 1 2 3 4 5 6 
#
# 1 49.0457 23.1592 30.1187 -7.7532 16.4322 -16.4475
# 2 23.1592 123.1736 20.7993 -15.3226 0.3135 -21.8982
# 3 30.1187 20.7993 66.8871 2.1054 6.8097 -11.2145
# 4 -7.7532 -15.3226 2.1054 32.1897 -6.7320 -3.1218
# 5 16.4322 0.3135 6.8097 -6.7320 31.2884 -11.9395
# 6 -16.4475 -21.8982 -11.2145 -3.1218 -11.9395 30.9152
#
#
#
# Elastic Compliance Matrix: (Units=1/GPa)
#
#
# Indices 1 2 3 4 5 6 
#
# 1 0.038549 -0.002043 -0.014068 0.007813 -0.011558 0.010284
# 2 -0.002043 0.011447 -0.001934 0.007409 0.006651 0.009637
# 3 -0.014068 -0.001934 0.021770 -0.005628 0.001028 -0.001129
# 4 0.007813 0.007409 -0.005628 0.040918 0.012007 0.016132
# 5 -0.011558 0.006651 0.001028 0.012007 0.047360 0.018438
# 6 0.010284 0.009637 -0.001129 0.016132 0.018438 0.052984
#
#
# Mechanical properties :
#
#
# Convention : Reuss Voigt Hill
#
# Bulk Modulus (GPa) = 28.03022 43.02898 35.52960
# Shear Modulus (GPa) = 19.15631 29.88059 24.51845
#
# Velocity S-wave (km/s) = 2.88255 3.60011 3.26112
# Velocity P-wave (km/s) = 4.82047 5.99541 5.43976
#
# Compressibility (1/GPa) = 0.03567579
#
# Stress axis : x y z
#
# Youngs Moduli (GPa) = 25.94104 87.35664 45.93472
#
# Poissons Ratio (x) = 0.17845 0.64621
# Poissons Ratio (y) = 0.05299 0.08886
# Poissons Ratio (z) = 0.36494 0.16899
#
# Static dielectric constant tensor:
#      x y z
#    x 1.912520 0.020530 -0.046000 
#    y 0.020530 1.851050 -0.054570 
#    z -0.046000 -0.054570 1.913160 
# 
# From -- ./inp_files/488701.got.cif
#   From: 2010.05.17/outbox.cif.g08.bks.cpg/sg2_245_cif.got.tgz:488701.got - 2010.06.03 11:33:40.
