data_PCOD9095982
_publ_section_title
;
Structure prediction by ZEFSAII (Michael W. Deem and Ramdas Pophale) SiO2 
 PCOD9095982
Probable space group: P -1
;
_chemical_formula_sum "Si O2"
_cell_formula_units_Z 16
_cell_length_a 15.298966
_cell_length_b 12.221635
_cell_length_c 16.205752
_cell_angle_alpha 138.023245
_cell_angle_beta 154.063036
_cell_angle_gamma 39.877624
_cell_volume 834.241972
_symmetry_space_group_name_H-M "P -1"
_symmetry_group_IT_number 2
_symmetry_cell_setting 'triclinic'
loop_
_space_group_symop_operation_xyz
x,y,z
-x,-y,-z
loop_
_atom_site_type_symbol
_atom_site_label
_atom_site_fract_x
_atom_site_fract_y
_atom_site_fract_z
Si Si1 0.120033 0.422019 0.312432
Si Si2 0.532071 0.295179 0.918914
Si Si3 0.280498 0.792314 0.795188
Si Si4 0.849106 0.194706 0.984765
Si Si5 0.450778 0.558862 0.261173
Si Si6 0.905895 0.563633 0.045550
Si Si7 0.186938 0.065559 0.734852
Si Si8 0.151391 0.222798 0.628740
O O1 0.369167 0.381215 0.510611
O O2 0.995716 0.608120 0.352053
O O3 0.010961 0.299938 0.196244
O O4 0.058136 0.439911 0.174137
O O5 0.672872 0.213463 0.914605
O O6 0.305523 0.269827 0.722595
O O7 0.500000 0.500000 0.000000
O O8 0.656051 0.202083 0.053652
O O9 0.418728 0.594519 0.776633
O O10 0.025319 0.838524 0.599748
O O11 0.319787 0.913966 0.824234
O O12 0.716575 0.283836 0.841507
O O13 0.000000 0.000000 0.000000
O O14 0.318214 0.469904 0.155188
O O15 0.882157 0.758802 0.168216
O O16 0.000000 0.500000 0.000000
O O17 0.278880 0.105740 0.748042
O O18 0.000000 0.000000 0.500000
#
# Coordination Sequence:
#
# PCOD9095982 Si02
#       8
#     2   2   2   2   2   2   2   2
#     4   9  19  39  60  82 118 161 203 252 312 373
#     4  12  21  36  59  88 113 152 207 252 302 360
#     4  10  20  35  61  90 117 155 200 261 306 354
#     4  11  24  40  56  82 122 160 205 260 313 373
#     4  10  21  39  61  83 117 167 208 246 320 374
#     4  10  21  37  60  90 127 163 205 252 310 381
#     4   9  19  38  61  90 125 158 201 259 313 360
#     4   9  19  36  60  89 117 150 200 256 304 363
#
# _framework density 19.179086000000002
#
# number of rings (size 3 to 8) (size 9 to 14) (size 15 to 20)
#    0.000    2.000    2.500    2.250    0.000    6.500 
#    0.000    2.500    0.000    0.000    0.000    0.000 
#    0.000    0.000    0.000    0.000    0.000    0.000 
#
# Total GULP energy -89085.809629 kJ/mol
# GULP energy per Si atom -5567.863102 kJ/mol
# Density = 1.913543 g / cm^3
# Si number density = 19.179086 Si / 1000 Ang^3
#
#
#
# Elastic Constant Matrix: (Units=GPa)
#
#
# Indices 1 2 3 4 5 6 
#
# 1 114.2123 16.0491 36.8507 -3.9797 17.5720 -3.5511
# 2 16.0491 77.5660 11.0332 -19.3147 3.0865 12.8247
# 3 36.8507 11.0332 90.6765 -18.1492 24.5039 1.0113
# 4 -3.9797 -19.3147 -18.1492 17.7726 -0.9163 1.1988
# 5 17.5720 3.0865 24.5039 -0.9163 29.6820 0.9623
# 6 -3.5511 12.8247 1.0113 1.1988 0.9623 28.1669
#
#
#
# Elastic Compliance Matrix: (Units=1/GPa)
#
#
# Indices 1 2 3 4 5 6 
#
# 1 0.011113 -0.003876 -0.004799 -0.007007 -0.002551 0.003723
# 2 -0.003876 0.022588 0.006080 0.030517 -0.003738 -0.012163
# 3 -0.004799 0.006080 0.021739 0.027298 -0.014739 -0.004812
# 4 -0.007007 0.030517 0.027298 0.116203 -0.017321 -0.020112
# 5 -0.002551 -0.003738 -0.014739 -0.017321 0.047189 0.001034
# 6 0.003723 -0.012163 -0.004812 -0.020112 0.001034 0.042503
#
#
# Mechanical properties :
#
#
# Convention : Reuss Voigt Hill
#
# Bulk Modulus (GPa) = 19.90012 45.59120 32.74566
# Shear Modulus (GPa) = 17.65072 29.69241 23.67156
#
# Velocity S-wave (km/s) = 3.03695 3.93894 3.51698
# Velocity P-wave (km/s) = 4.76402 6.67158 5.79680
#
# Compressibility (1/GPa) = 0.05025094
#
# Stress axis : x y z
#
# Youngs Moduli (GPa) = 89.98624 44.27126 45.99953
#
# Poissons Ratio (x) = 0.17158 0.22077
# Poissons Ratio (y) = 0.34876 -0.27970
# Poissons Ratio (z) = 0.43188 -0.26919
#
# Static dielectric constant tensor:
#      x y z
#    x 1.663730 0.018980 0.015660 
#    y 0.018980 1.715480 0.020510 
#    z 0.015660 0.020510 1.718920 
# 
# From -- ./inp_files/505709.got.cif
#   From: 2010.05.17/outbox.cif.g08.bks.cpg/sg2_253_cif.got.tgz:505709.got - 2010.06.03 11:33:40.
