data_PCOD9095137
_publ_section_title
;
Structure prediction by ZEFSAII (Michael W. Deem and Ramdas Pophale) SiO2 
 PCOD9095137
Probable space group: P -1
;
_chemical_formula_sum "Si O2"
_cell_formula_units_Z 16
_cell_length_a 10.455900
_cell_length_b 15.464066
_cell_length_c 23.840574
_cell_angle_alpha 158.275036
_cell_angle_beta 30.264163
_cell_angle_gamma 140.108322
_cell_volume 706.272894
_symmetry_space_group_name_H-M "P -1"
_symmetry_group_IT_number 2
_symmetry_cell_setting 'triclinic'
loop_
_space_group_symop_operation_xyz
x,y,z
-x,-y,-z
loop_
_atom_site_type_symbol
_atom_site_label
_atom_site_fract_x
_atom_site_fract_y
_atom_site_fract_z
Si Si1 0.926221 0.024658 0.224558
Si Si2 0.558191 0.105812 0.251466
Si Si3 0.660576 0.705708 0.051849
Si Si4 0.831586 0.297631 0.958195
Si Si5 0.154930 0.000581 0.575363
Si Si6 0.985889 0.581693 0.342192
Si Si7 0.111769 0.177073 0.134471
Si Si8 0.566051 0.306178 0.611600
O O1 0.766703 0.257748 0.456084
O O2 0.745184 0.858924 0.163188
O O3 0.104234 0.115899 0.165641
O O4 0.062818 0.857187 0.121295
O O5 0.318748 0.322675 0.477179
O O6 0.824761 0.146008 0.203528
O O7 0.495568 0.890210 0.182624
O O8 0.661304 0.009401 0.093589
O O9 0.920873 0.583937 0.845933
O O10 0.500000 0.500000 0.000000
O O11 0.551374 0.435722 0.164759
O O12 0.000000 0.500000 0.000000
O O13 0.884220 0.125184 0.780859
O O14 0.310832 0.852417 0.478139
O O15 0.113110 0.816015 0.432982
O O16 0.323012 0.195759 0.614145
O O17 0.102045 0.433570 0.263954
#
# Coordination Sequence:
#
# PCOD9095137 Si02
#       8
#     2   2   2   2   2   2   2   2
#     4  10  20  35  55  81 109 142 187 224 270 336
#     4   9  20  37  55  78 112 153 191 220 265 334
#     4  10  22  35  52  86 122 144 173 227 282 330
#     4   9  19  34  55  78 102 140 183 223 269 324
#     4   9  19  34  54  83 107 137 185 225 272 332
#     4  11  21  35  59  83 112 151 185 225 275 326
#     4   9  20  37  54  78 112 149 188 229 270 321
#     4   9  18  35  56  76 108 143 176 228 280 323
#
# _framework density 22.654135
#
# number of rings (size 3 to 8) (size 9 to 14) (size 15 to 20)
#    0.000    2.500    0.000    2.625    0.000    7.500 
#    0.000    2.500    0.000    4.500    0.000    0.000 
#    0.000    0.000    0.000    0.000    0.000    0.000 
#
# Total GULP energy -89259.728790 kJ/mol
# GULP energy per Si atom -5578.733049 kJ/mol
# Density = 2.260257 g / cm^3
# Si number density = 22.654135 Si / 1000 Ang^3
#
#
#
# Elastic Constant Matrix: (Units=GPa)
#
#
# Indices 1 2 3 4 5 6 
#
# 1 43.5691 2.7933 29.6216 -11.9438 -7.4640 -5.9776
# 2 2.7933 67.6302 5.0668 -3.5713 -12.0234 -9.8624
# 3 29.6216 5.0668 161.7925 -21.1849 -10.5670 -10.6855
# 4 -11.9438 -3.5713 -21.1849 27.9466 5.1858 4.2988
# 5 -7.4640 -12.0234 -10.5670 5.1858 19.9607 -1.1072
# 6 -5.9776 -9.8624 -10.6855 4.2988 -1.1072 35.3866
#
#
#
# Elastic Compliance Matrix: (Units=1/GPa)
#
#
# Indices 1 2 3 4 5 6 
#
# 1 0.029368 0.001429 -0.003620 0.007948 0.008058 0.003553
# 2 0.001429 0.017582 0.000326 0.000095 0.011583 0.005591
# 3 -0.003620 0.000326 0.007527 0.003625 0.001962 0.001373
# 4 0.007948 0.000095 0.003625 0.043623 -0.006554 -0.003041
# 5 0.008058 0.011583 0.001962 -0.006554 0.063271 0.007958
# 6 0.003553 0.005591 0.001373 -0.003041 0.007958 0.031451
#
#
# Mechanical properties :
#
#
# Convention : Reuss Voigt Hill
#
# Bulk Modulus (GPa) = 19.70565 38.66168 29.18366
# Shear Modulus (GPa) = 23.42260 32.35946 27.89103
#
# Velocity S-wave (km/s) = 3.21895 3.78354 3.51261
# Velocity P-wave (km/s) = 4.74688 6.01581 5.41862
#
# Compressibility (1/GPa) = 0.05074688
#
# Stress axis : x y z
#
# Youngs Moduli (GPa) = 34.05034 56.87478 132.85910
#
# Poissons Ratio (x) = -0.08125 0.48095
# Poissons Ratio (y) = -0.04864 -0.04332
# Poissons Ratio (z) = 0.12326 -0.01854
#
# Static dielectric constant tensor:
#      x y z
#    x 1.831740 0.050700 0.007200 
#    y 0.050700 1.914770 0.003650 
#    z 0.007200 0.003650 1.847590 
# 
# From -- ./inp_files/466982.got.cif
#   From: 2010.05.17/outbox.cif.g08.bks.cpg/sg2_234_cif.got.tgz:466982.got - 2010.06.03 11:33:40.
