data_PCOD9095043
_publ_section_title
;
Structure prediction by ZEFSAII (Michael W. Deem and Ramdas Pophale) SiO2 
 PCOD9095043
Probable space group: P -1
;
_chemical_formula_sum "Si O2"
_cell_formula_units_Z 16
_cell_length_a 18.991354
_cell_length_b 14.747315
_cell_length_c 14.417242
_cell_angle_alpha 160.168287
_cell_angle_beta 49.202459
_cell_angle_gamma 140.471002
_cell_volume 821.741799
_symmetry_space_group_name_H-M "P -1"
_symmetry_group_IT_number 2
_symmetry_cell_setting 'triclinic'
loop_
_space_group_symop_operation_xyz
x,y,z
-x,-y,-z
loop_
_atom_site_type_symbol
_atom_site_label
_atom_site_fract_x
_atom_site_fract_y
_atom_site_fract_z
Si Si1 0.514483 0.570386 0.446721
Si Si2 0.833732 0.792967 0.183271
Si Si3 0.126861 0.070931 0.453556
Si Si4 0.742920 0.678419 0.615163
Si Si5 0.151453 0.662698 0.754921
Si Si6 0.991365 0.213340 0.289057
Si Si7 0.926886 0.416155 0.818812
Si Si8 0.338796 0.654688 0.963689
O O1 0.500000 0.500000 0.500000
O O2 0.389251 0.456185 0.411269
O O3 0.559543 0.377092 0.176644
O O4 0.613507 0.967372 0.728872
O O5 0.708115 0.462188 0.003611
O O6 0.841877 0.093480 0.515821
O O7 0.917700 0.708289 0.076028
O O8 0.876686 0.929271 0.174599
O O9 0.181327 0.144274 0.374336
O O10 0.228727 0.392426 0.737448
O O11 0.105830 0.743550 0.204625
O O12 0.000000 0.000000 0.500000
O O13 0.752178 0.381423 0.340622
O O14 0.798311 0.950566 0.913031
O O15 0.088704 0.436960 0.500591
O O16 0.050817 0.507427 0.770482
O O17 0.000000 0.500000 0.500000
O O18 0.000000 0.000000 0.000000
#
# Coordination Sequence:
#
# PCOD9095043 Si02
#       8
#     2   2   2   2   2   2   2   2
#     4  12  25  41  60  83 120 180 240 260 287 331
#     4  10  21  37  60  90 119 160 197 248 316 369
#     4  11  23  37  57  91 124 180 215 253 318 363
#     4  12  25  38  59  86 128 173 219 263 299 351
#     4  11  23  39  57  91 125 161 199 255 317 385
#     4  11  22  41  68  97 128 157 189 250 337 425
#     4  10  20  35  53  82 129 160 203 239 289 377
#     4  11  24  42  59  83 125 169 223 268 287 355
#
# _framework density 19.470835999999998
#
# number of rings (size 3 to 8) (size 9 to 14) (size 15 to 20)
#    0.000    1.000    2.500    6.375    3.500    1.500 
#    0.000    0.000    0.000    0.000    0.000   17.500 
#    0.000    0.000    0.000    0.000    0.000    0.000 
#
# Total GULP energy -89265.016731 kJ/mol
# GULP energy per Si atom -5579.063546 kJ/mol
# Density = 1.942652 g / cm^3
# Si number density = 19.470836 Si / 1000 Ang^3
#
#
#
# Elastic Constant Matrix: (Units=GPa)
#
#
# Indices 1 2 3 4 5 6 
#
# 1 53.4737 27.0236 9.3730 -7.5662 -11.7362 5.5108
# 2 27.0236 100.7821 14.3214 -7.8783 -2.8941 -12.1298
# 3 9.3730 14.3214 90.7274 -6.0033 -8.1518 -15.2413
# 4 -7.5662 -7.8783 -6.0033 32.6930 1.3581 -6.6040
# 5 -11.7362 -2.8941 -8.1518 1.3581 39.8551 1.2225
# 6 5.5108 -12.1298 -15.2413 -6.6040 1.2225 44.7605
#
#
#
# Elastic Compliance Matrix: (Units=1/GPa)
#
#
# Indices 1 2 3 4 5 6 
#
# 1 0.024651 -0.006622 -0.001623 0.002491 0.006520 -0.005193
# 2 -0.006622 0.012441 -0.000511 0.002315 -0.001365 0.004391
# 3 -0.001623 -0.000511 0.012381 0.002633 0.001786 0.004617
# 4 0.002491 0.002315 0.002633 0.033443 0.000112 0.006148
# 5 0.006520 -0.001365 0.001786 0.000112 0.027313 -0.001294
# 6 -0.005193 0.004391 0.004617 0.006148 -0.001294 0.026685
#
#
# Mechanical properties :
#
#
# Convention : Reuss Voigt Hill
#
# Bulk Modulus (GPa) = 31.28972 38.49101 34.89037
# Shear Modulus (GPa) = 30.28850 36.41275 33.35063
#
# Velocity S-wave (km/s) = 3.94837 4.32918 4.14315
# Velocity P-wave (km/s) = 6.07380 6.69332 6.39107
#
# Compressibility (1/GPa) = 0.03195937
#
# Stress axis : x y z
#
# Youngs Moduli (GPa) = 40.56702 80.37901 80.77118
#
# Poissons Ratio (x) = 0.53228 0.13109
# Poissons Ratio (y) = 0.26864 0.04131
# Poissons Ratio (z) = 0.06584 0.04111
#
# Static dielectric constant tensor:
#      x y z
#    x 1.626760 -0.107330 0.068850 
#    y -0.107330 1.516970 0.103400 
#    z 0.068850 0.103400 1.674370 
# 
# From -- ./inp_files/534015.got.cif
#   From: 2010.05.17/outbox.cif.g08.bks.cpg/sg2_268_cif.got.tgz:534015.got - 2010.06.03 11:33:40.
