data_PCOD9095177
_publ_section_title
;
Structure prediction by ZEFSAII (Michael W. Deem and Ramdas Pophale) SiO2 
 PCOD9095177
Probable space group: P -1
;
_chemical_formula_sum "Si O2"
_cell_formula_units_Z 16
_cell_length_a 18.308363
_cell_length_b 12.169394
_cell_length_c 12.647461
_cell_angle_alpha 147.925910
_cell_angle_beta 29.062836
_cell_angle_gamma 133.494725
_cell_volume 711.728386
_symmetry_space_group_name_H-M "P -1"
_symmetry_group_IT_number 2
_symmetry_cell_setting 'triclinic'
loop_
_space_group_symop_operation_xyz
x,y,z
-x,-y,-z
loop_
_atom_site_type_symbol
_atom_site_label
_atom_site_fract_x
_atom_site_fract_y
_atom_site_fract_z
Si Si1 0.231535 0.075712 0.912149
Si Si2 0.157577 0.647676 0.656839
Si Si3 0.523662 0.460326 0.718762
Si Si4 0.380563 0.747349 0.939497
Si Si5 0.621991 0.897317 0.614586
Si Si6 0.140830 0.505258 0.082670
Si Si7 0.192445 0.531343 0.278101
Si Si8 0.492833 0.027403 0.681665
O O1 0.368883 0.965043 0.568364
O O2 0.135502 0.899145 0.915928
O O3 0.328870 0.143597 0.941640
O O4 0.151394 0.297548 0.145804
O O5 0.318856 0.541930 0.420737
O O6 0.149621 0.641965 0.534190
O O7 0.026000 0.527713 0.763690
O O8 0.481703 0.593829 0.773469
O O9 0.527448 0.215038 0.485982
O O10 0.376138 0.510170 0.022211
O O11 0.493050 0.783584 0.733630
O O12 0.234808 0.648118 0.013338
O O13 0.323606 0.972838 0.253048
O O14 0.544112 0.069565 0.767495
O O15 0.752424 0.729689 0.254042
O O16 0.140773 0.598524 0.278403
#
# Coordination Sequence:
#
# PCOD9095177 Si02
#       8
#     2   2   2   2   2   2   2   2
#     4   9  19  33  52  83 116 145 180 226 265 331
#     4  11  23  34  56  85 122 152 177 220 288 335
#     4   9  19  37  57  86 109 149 192 230 270 323
#     4  10  23  38  65  82 103 141 202 240 272 329
#     4  11  21  39  63  83 103 148 192 238 285 315
#     4  11  23  39  54  86 119 147 181 231 284 337
#     4  10  20  35  55  85 113 155 192 216 269 329
#     4   9  17  33  57  84 109 141 188 227 275 316
#
# _framework density 22.480485999999999
#
# number of rings (size 3 to 8) (size 9 to 14) (size 15 to 20)
#    0.000    2.000    3.750    1.875    5.250    1.500 
#    0.000    0.625    0.000    1.500    0.000    0.000 
#    0.000    0.000    0.000    0.000    0.000    0.000 
#
# Total GULP energy -89305.789093 kJ/mol
# GULP energy per Si atom -5581.611818 kJ/mol
# Density = 2.242932 g / cm^3
# Si number density = 22.480486 Si / 1000 Ang^3
#
#
#
# Elastic Constant Matrix: (Units=GPa)
#
#
# Indices 1 2 3 4 5 6 
#
# 1 65.7959 18.4912 27.2209 -16.1893 -6.9284 22.7888
# 2 18.4912 107.5236 13.8259 -13.8840 -9.8615 24.3470
# 3 27.2209 13.8259 38.9068 -14.6495 5.9446 14.1977
# 4 -16.1893 -13.8840 -14.6495 27.5399 12.3044 -5.3790
# 5 -6.9284 -9.8615 5.9446 12.3044 29.2203 -8.1252
# 6 22.7888 24.3470 14.1977 -5.3790 -8.1252 43.7082
#
#
#
# Elastic Compliance Matrix: (Units=1/GPa)
#
#
# Indices 1 2 3 4 5 6 
#
# 1 0.025007 0.000059 -0.014842 0.002888 0.005860 -0.006805
# 2 0.000059 0.011179 -0.000694 0.003895 0.000784 -0.005407
# 3 -0.014842 -0.000694 0.059997 0.035740 -0.034742 -0.013424
# 4 0.002888 0.003895 0.035740 0.074359 -0.040376 -0.013639
# 5 0.005860 0.000784 -0.034742 -0.040376 0.064043 0.014729
# 6 -0.006805 -0.005407 -0.013424 -0.013639 0.014729 0.034859
#
#
# Mechanical properties :
#
#
# Convention : Reuss Voigt Hill
#
# Bulk Modulus (GPa) = 15.33058 36.81135 26.07096
# Shear Modulus (GPa) = 15.52127 30.27289 22.89708
#
# Velocity S-wave (km/s) = 2.63046 3.67363 3.19491
# Velocity P-wave (km/s) = 4.00750 5.86553 5.02317
#
# Compressibility (1/GPa) = 0.06522910
#
# Stress axis : x y z
#
# Youngs Moduli (GPa) = 39.98911 89.45707 16.66758
#
# Poissons Ratio (x) = -0.00530 0.24737
# Poissons Ratio (y) = -0.00237 0.01157
# Poissons Ratio (z) = 0.59350 0.06209
#
# Static dielectric constant tensor:
#      x y z
#    x 1.869040 0.017920 -0.027810 
#    y 0.017920 1.858470 0.035180 
#    z -0.027810 0.035180 1.877610 
# 
# From -- ./inp_files/427453.got.cif
#   From: 2010.05.17/outbox.cif.g08.bks.cpg/sg2_214_cif.got.tgz:427453.got - 2010.06.03 11:33:40.
