data_PCOD9095848
_publ_section_title
;
Structure prediction by ZEFSAII (Michael W. Deem and Ramdas Pophale) SiO2 
 PCOD9095848
Probable space group: P -1
;
_chemical_formula_sum "Si O2"
_cell_formula_units_Z 16
_cell_length_a 5.248848
_cell_length_b 18.228431
_cell_length_c 10.315158
_cell_angle_alpha 100.903924
_cell_angle_beta 86.514960
_cell_angle_gamma 138.227606
_cell_volume 640.719088
_symmetry_space_group_name_H-M "P -1"
_symmetry_group_IT_number 2
_symmetry_cell_setting 'triclinic'
loop_
_space_group_symop_operation_xyz
x,y,z
-x,-y,-z
loop_
_atom_site_type_symbol
_atom_site_label
_atom_site_fract_x
_atom_site_fract_y
_atom_site_fract_z
Si Si1 0.646074 0.557003 0.653562
Si Si2 0.391581 0.128285 0.375727
Si Si3 0.490165 0.143730 0.880263
Si Si4 0.565675 0.938691 0.897821
Si Si5 0.558416 0.318817 0.995568
Si Si6 0.527189 0.925549 0.402303
Si Si7 0.592954 0.460968 0.876147
Si Si8 0.462846 0.288755 0.272112
O O1 0.500000 0.500000 0.500000
O O2 0.462174 0.467521 0.746287
O O3 0.591859 0.634555 0.684497
O O4 0.091588 0.634472 0.686543
O O5 0.611694 0.166002 0.517908
O O6 0.296327 0.188772 0.340558
O O7 0.588191 0.119370 0.257435
O O8 0.970424 0.004386 0.380802
O O9 0.634682 0.120279 0.754036
O O10 0.026702 0.033897 0.885709
O O11 0.602341 0.253313 0.889113
O O12 0.630257 0.159978 0.026940
O O13 0.500000 0.000000 0.000000
O O14 0.344667 0.248380 0.112121
O O15 0.939638 0.439314 0.090814
O O16 0.420017 0.347796 0.903384
O O17 0.500000 0.000000 0.500000
O O18 0.500000 0.500000 0.000000
#
# Coordination Sequence:
#
# PCOD9095848 Si02
#       8
#     2   2   2   2   2   2   2   2
#     4  11  25  44  68  98 132 170 220 274 336 398
#     4  10  22  39  60  90 125 174 218 263 334 397
#     4  10  21  37  57  93 119 162 215 267 316 397
#     4  10  20  35  60  89 124 158 207 271 321 380
#     4  10  21  39  64  94 130 165 224 267 335 391
#     4  10  22  40  60  84 134 172 211 273 332 390
#     4  10  21  41  64  90 128 175 204 276 329 390
#     4  11  23  42  70  97 130 174 220 275 332 402
#
# _framework density 24.971943
#
# number of rings (size 3 to 8) (size 9 to 14) (size 15 to 20)
#    0.000    1.750    2.500    1.125    1.750    3.000 
#    2.250    0.000    0.000    0.000    0.000    0.000 
#    0.000    0.000    0.000    0.000    0.000    0.000 
#
# Total GULP energy -89152.729963 kJ/mol
# GULP energy per Si atom -5572.045623 kJ/mol
# Density = 2.491511 g / cm^3
# Si number density = 24.971943 Si / 1000 Ang^3
#
#
#
# Elastic Constant Matrix: (Units=GPa)
#
#
# Indices 1 2 3 4 5 6 
#
# 1 118.6852 36.6174 61.8163 -0.5238 4.9622 -33.0217
# 2 36.6174 80.2632 57.1333 -16.2969 5.4070 -44.2631
# 3 61.8163 57.1333 229.1881 -25.4161 -10.2309 -33.7431
# 4 -0.5238 -16.2969 -25.4161 42.3661 -19.0165 6.3324
# 5 4.9622 5.4070 -10.2309 -19.0165 33.1775 3.0792
# 6 -33.0217 -44.2631 -33.7431 6.3324 3.0792 53.5954
#
#
#
# Elastic Compliance Matrix: (Units=1/GPa)
#
#
# Indices 1 2 3 4 5 6 
#
# 1 0.012236 -0.000781 -0.003180 -0.005928 -0.006635 0.005973
# 2 -0.000781 0.027202 -0.003610 0.002808 -0.005649 0.019704
# 3 -0.003180 -0.003610 0.006827 0.005953 0.006742 -0.001733
# 4 -0.005928 0.002808 0.005953 0.040296 0.025716 -0.003825
# 5 -0.006635 -0.005649 0.006742 0.025716 0.049839 -0.010411
# 6 0.005973 0.019704 -0.001733 -0.003825 -0.010411 0.038571
#
#
# Mechanical properties :
#
#
# Convention : Reuss Voigt Hill
#
# Bulk Modulus (GPa) = 32.13104 82.14117 57.13611
# Shear Modulus (GPa) = 24.93917 43.99910 34.46913
#
# Velocity S-wave (km/s) = 3.16363 4.20210 3.71929
# Velocity P-wave (km/s) = 5.12245 7.51720 6.43226
#
# Compressibility (1/GPa) = 0.03112255
#
# Stress axis : x y z
#
# Youngs Moduli (GPa) = 81.72554 36.76168 146.48370
#
# Poissons Ratio (x) = 0.02873 0.46577
# Poissons Ratio (y) = 0.06386 0.52883
# Poissons Ratio (z) = 0.25986 0.13272
#
# Static dielectric constant tensor:
#      x y z
#    x 1.994080 0.313290 0.105150 
#    y 0.313290 2.013880 -0.153700 
#    z 0.105150 -0.153700 2.008040 
# 
# From -- ./inp_files/139131.got.cif
#   From: 2010.05.17/outbox.cif.g08.bks.cpg/sg2_70_cif.got.tgz:139131.got - 2010.06.03 11:33:40.
