data_PCOD9095380
_publ_section_title
;
Structure prediction by ZEFSAII (Michael W. Deem and Ramdas Pophale) SiO2 
 PCOD9095380
Probable space group: P -1
;
_chemical_formula_sum "Si O2"
_cell_formula_units_Z 14
_cell_length_a 27.535151
_cell_length_b 8.872945
_cell_length_c 12.324593
_cell_angle_alpha 148.073940
_cell_angle_beta 152.832107
_cell_angle_gamma 29.666382
_cell_volume 641.207547
_symmetry_space_group_name_H-M "P -1"
_symmetry_group_IT_number 2
_symmetry_cell_setting 'triclinic'
loop_
_space_group_symop_operation_xyz
x,y,z
-x,-y,-z
loop_
_atom_site_type_symbol
_atom_site_label
_atom_site_fract_x
_atom_site_fract_y
_atom_site_fract_z
Si Si1 0.132624 0.694490 0.571421
Si Si2 0.708202 0.920488 0.107818
Si Si3 0.736222 0.874866 0.890685
Si Si4 0.667250 0.123874 0.684513
Si Si5 0.136398 0.722098 0.354635
Si Si6 0.493920 0.105764 0.174186
Si Si7 0.872974 0.312146 0.204562
O O1 0.139832 0.566326 0.385131
O O2 0.144521 0.531421 0.613101
O O3 0.000000 0.000000 0.500000
O O4 0.221773 0.851665 0.848116
O O5 0.813226 0.592708 0.169170
O O6 0.756192 0.181593 0.374860
O O7 0.690996 0.856881 0.908952
O O8 0.586947 0.005707 0.983822
O O9 0.844247 0.530094 0.856240
O O10 0.652965 0.979948 0.682602
O O11 0.623652 0.985781 0.413969
O O12 0.577181 0.506309 0.735632
O O13 0.796022 0.116579 0.929392
O O14 0.011171 0.052814 0.301094
O O15 0.500000 0.000000 0.000000
#
# Coordination Sequence:
#
# PCOD9095380 Si02
#       7
#     2   2   2   2   2   2   2
#     4   8  17  33  52  77 110 146 188 227 257 312
#     4  10  22  37  54  83 117 146 186 235 275 326
#     4  10  21  36  54  85 119 147 182 225 280 335
#     4   9  21  39  59  84 112 141 187 239 272 321
#     4  10  20  35  57  84 118 156 182 215 281 341
#     4  10  22  42  64  81 103 144 192 235 284 331
#     4   9  18  36  58  82 116 151 186 231 271 319
#
# _framework density 21.833803
#
# number of rings (size 3 to 8) (size 9 to 14) (size 15 to 20)
#    0.000    2.571    0.000    0.429    0.000   14.286 
#    0.000    8.571    0.000    0.000    0.000    0.000 
#    0.000    0.000    0.000    0.000    0.000    0.000 
#
# Total GULP energy -78107.707414 kJ/mol
# GULP energy per Si atom -5579.121958 kJ/mol
# Density = 2.178411 g / cm^3
# Si number density = 21.833803 Si / 1000 Ang^3
#
#
#
# Elastic Constant Matrix: (Units=GPa)
#
#
# Indices 1 2 3 4 5 6 
#
# 1 128.8810 -6.5724 34.3333 -7.7086 -14.0386 2.6938
# 2 -6.5724 -10.4154 11.3706 -1.5070 27.5649 6.3370
# 3 34.3333 11.3706 62.1806 -12.9084 -22.0199 -0.4536
# 4 -7.7086 -1.5070 -12.9084 34.2241 0.0517 -5.0964
# 5 -14.0386 27.5649 -22.0199 0.0517 17.9414 1.3000
# 6 2.6938 6.3370 -0.4536 -5.0964 1.3000 32.4720
#
#
#
# Elastic Compliance Matrix: (Units=1/GPa)
#
#
# Indices 1 2 3 4 5 6 
#
# 1 0.009123 -0.000517 -0.003537 0.000579 0.003645 -0.000760
# 2 -0.000517 -0.008353 0.012562 0.004425 0.027729 0.001433
# 3 -0.003537 0.012562 0.016129 0.005702 -0.002220 -0.000949
# 4 0.000579 0.004425 0.005702 0.032325 0.000253 0.004231
# 5 0.003645 0.027729 -0.002220 0.000253 0.013714 -0.006254
# 6 -0.000760 0.001433 -0.000949 0.004231 -0.006254 0.031480
#
#
# Mechanical properties :
#
#
# Convention : Reuss Voigt Hill
#
# Bulk Modulus (GPa) = 29.48660 28.76768 29.12714
# Shear Modulus (GPa) = 56.36556 26.36180 41.36368
#
# Velocity S-wave (km/s) = 5.08643 3.47851 4.35728
# Velocity P-wave (km/s) = 6.93037 5.41643 6.21964
#
# Compressibility (1/GPa) = 0.03391372
#
# Stress axis : x y z
#
# Youngs Moduli (GPa) = 109.61867 -119.72011 62.00186
#
# Poissons Ratio (x) = -0.06191 0.21930
# Poissons Ratio (y) = 0.05669 -0.77886
# Poissons Ratio (z) = 0.38771 1.50390
#
# Static dielectric constant tensor:
#      x y z
#    x 1.876120 0.012740 -0.113700 
#    y 0.012740 1.830130 -0.029420 
#    z -0.113700 -0.029420 1.980500 
# 
# From -- ./inp_files/43119.got.cif
#   From: 2010.05.17/outbox.cif.g08.bks.cpg/sg2_22_cif.got.tgz:43119.got - 2010.06.03 11:33:40.
