data_PCOD9095269
_publ_section_title
;
Structure prediction by ZEFSAII (Michael W. Deem and Ramdas Pophale) SiO2 
 PCOD9095269
Probable space group: P -1
;
_chemical_formula_sum "Si O2"
_cell_formula_units_Z 16
_cell_length_a 19.477220
_cell_length_b 9.094392
_cell_length_c 11.380784
_cell_angle_alpha 100.535421
_cell_angle_beta 22.814303
_cell_angle_gamma 99.549531
_cell_volume 768.467820
_symmetry_space_group_name_H-M "P -1"
_symmetry_group_IT_number 2
_symmetry_cell_setting 'triclinic'
loop_
_space_group_symop_operation_xyz
x,y,z
-x,-y,-z
loop_
_atom_site_type_symbol
_atom_site_label
_atom_site_fract_x
_atom_site_fract_y
_atom_site_fract_z
Si Si1 0.635213 0.298792 0.271741
Si Si2 0.113708 0.904705 0.001429
Si Si3 0.430562 0.632907 0.047670
Si Si4 0.732375 0.846799 0.520538
Si Si5 0.143385 0.454191 0.170595
Si Si6 0.310311 0.822891 0.448531
Si Si7 0.765910 0.761154 0.192372
Si Si8 0.450012 0.381178 0.802986
O O1 0.761717 0.168790 0.106146
O O2 0.445301 0.249852 0.510100
O O3 0.583414 0.394205 0.484660
O O4 0.746746 0.400582 0.022934
O O5 0.166852 0.836010 0.779726
O O6 0.158522 0.079098 0.944965
O O7 0.905207 0.872061 0.332019
O O8 0.276508 0.718655 0.373655
O O9 0.500000 0.500000 0.000000
O O10 0.581692 0.754232 0.808194
O O11 0.404400 0.540093 0.957128
O O12 0.777560 0.760612 0.315151
O O13 0.661601 0.009485 0.615601
O O14 0.000000 0.500000 0.500000
O O15 0.120543 0.367921 0.070602
O O16 0.267276 0.334379 0.026370
O O17 0.472757 0.740716 0.247405
#
# Coordination Sequence:
#
# PCOD9095269 Si02
#       8
#     2   2   2   2   2   2   2   2
#     4  10  20  39  61  83 113 155 192 228 282 348
#     4  10  22  38  59  88 115 146 191 241 284 330
#     4  10  20  35  56  83 115 153 187 226 280 341
#     4  11  21  37  59  88 117 148 189 239 284 330
#     4  11  23  37  57  86 115 147 191 244 284 328
#     4   9  19  35  56  82 114 148 186 230 279 336
#     4  10  20  40  62  80 112 156 193 229 282 349
#     4   9  19  37  57  80 113 153 195 229 278 346
#
# _framework density 20.820651000000002
#
# number of rings (size 3 to 8) (size 9 to 14) (size 15 to 20)
#    0.000    2.000    0.000    5.250    0.000    5.000 
#    0.000   13.125    0.000    0.000    0.000    0.000 
#    0.000    0.000    0.000    0.000    0.000    0.000 
#
# Total GULP energy -89129.036574 kJ/mol
# GULP energy per Si atom -5570.564786 kJ/mol
# Density = 2.077326 g / cm^3
# Si number density = 20.820651 Si / 1000 Ang^3
#
#
#
# Elastic Constant Matrix: (Units=GPa)
#
#
# Indices 1 2 3 4 5 6 
#
# 1 72.1924 19.8594 39.1304 -12.2381 1.7381 -1.4149
# 2 19.8594 53.3450 29.2847 4.9757 1.4017 1.2640
# 3 39.1304 29.2847 68.2569 5.2813 1.4637 -0.4409
# 4 -12.2381 4.9757 5.2813 21.4447 13.9753 6.2210
# 5 1.7381 1.4017 1.4637 13.9753 34.1032 3.7173
# 6 -1.4149 1.2640 -0.4409 6.2210 3.7173 35.6527
#
#
#
# Elastic Compliance Matrix: (Units=1/GPa)
#
#
# Indices 1 2 3 4 5 6 
#
# 1 0.030519 -0.004093 -0.017989 0.032586 -0.013627 -0.003131
# 2 -0.004093 0.025314 -0.007950 -0.008081 0.002825 -0.000043
# 3 -0.017989 -0.007950 0.029936 -0.022387 0.008814 0.002925
# 4 0.032586 -0.008081 -0.022387 0.103104 -0.041269 -0.012385
# 5 -0.013627 0.002825 0.008814 -0.041269 0.046233 0.001849
# 6 -0.003131 -0.000043 0.002925 -0.012385 0.001849 0.029930
#
#
# Mechanical properties :
#
#
# Convention : Reuss Voigt Hill
#
# Bulk Modulus (GPa) = 38.90277 41.14925 40.02601
# Shear Modulus (GPa) = 14.98485 25.27478 20.12982
#
# Velocity S-wave (km/s) = 2.68565 3.48793 3.11275
# Velocity P-wave (km/s) = 5.32374 6.00229 5.67317
#
# Compressibility (1/GPa) = 0.02570511
#
# Stress axis : x y z
#
# Youngs Moduli (GPa) = 32.76609 39.50310 33.40439
#
# Poissons Ratio (x) = 0.16170 0.60092
# Poissons Ratio (y) = 0.13413 0.26556
# Poissons Ratio (z) = 0.58944 0.31404
#
# Static dielectric constant tensor:
#      x y z
#    x 1.832070 0.043740 0.024860 
#    y 0.043740 1.739060 0.037580 
#    z 0.024860 0.037580 1.783670 
# 
# From -- ./inp_files/286104.got.cif
#   From: 2010.05.17/outbox.cif.g08.bks.cpg/sg2_144_cif.got.tgz:286104.got - 2010.06.03 11:33:40.
