data_PCOD9095640
_publ_section_title
;
Structure prediction by ZEFSAII (Michael W. Deem and Ramdas Pophale) SiO2 
 PCOD9095640
Probable space group: P -1
;
_chemical_formula_sum "Si O2"
_cell_formula_units_Z 16
_cell_length_a 5.599989
_cell_length_b 8.204190
_cell_length_c 14.188178
_cell_angle_alpha 86.519190
_cell_angle_beta 106.678716
_cell_angle_gamma 92.017732
_cell_volume 623.169019
_symmetry_space_group_name_H-M "P -1"
_symmetry_group_IT_number 2
_symmetry_cell_setting 'triclinic'
loop_
_space_group_symop_operation_xyz
x,y,z
-x,-y,-z
loop_
_atom_site_type_symbol
_atom_site_label
_atom_site_fract_x
_atom_site_fract_y
_atom_site_fract_z
Si Si1 0.839686 0.019885 0.240911
Si Si2 0.955177 0.468316 0.362535
Si Si3 0.904201 0.340901 0.913398
Si Si4 0.772747 0.228120 0.690645
Si Si5 0.072647 0.316089 0.177673
Si Si6 0.380563 0.317823 0.504908
Si Si7 0.538942 0.234054 0.326191
Si Si8 0.420004 0.170084 0.938297
O O1 0.727793 0.098266 0.318488
O O2 0.879901 0.165950 0.164369
O O3 0.676503 0.881140 0.175809
O O4 0.109996 0.948833 0.294714
O O5 0.047811 0.652738 0.356133
O O6 0.046630 0.393943 0.276043
O O7 0.091677 0.362363 0.461656
O O8 0.669100 0.415346 0.334347
O O9 0.806148 0.286504 0.799413
O O10 0.948161 0.536434 0.901742
O O11 0.665848 0.285961 0.951537
O O12 0.172859 0.249711 0.955852
O O13 0.502245 0.242076 0.613269
O O14 0.344722 0.241570 0.217630
O O15 0.500000 0.500000 0.500000
O O16 0.447902 0.215047 0.423172
O O17 0.500000 0.000000 0.000000
#
# Coordination Sequence:
#
# PCOD9095640 Si02
#       8
#     2   2   2   2   2   2   2   2
#     4  10  23  38  61  93 127 169 211 272 336 381
#     4   8  17  35  54  84 116 170 221 268 312 376
#     4  10  23  43  71  98 128 176 217 259 322 400
#     4   9  19  36  56  89 126 165 226 264 322 381
#     4   9  20  38  61  88 128 169 217 256 317 390
#     4   9  18  35  52  87 123 172 223 275 310 380
#     4  10  20  35  59  83 130 173 213 272 321 374
#     4  11  25  47  73 102 131 162 213 271 329 397
#
# _framework density 25.675214
#
# number of rings (size 3 to 8) (size 9 to 14) (size 15 to 20)
#    0.000    2.500    0.000    1.125   10.500    2.500 
#    4.500    6.875    0.000    0.000    0.000    0.000 
#    0.000    0.000    0.000    0.000    0.000    0.000 
#
# Total GULP energy -89417.296596 kJ/mol
# GULP energy per Si atom -5588.581037 kJ/mol
# Density = 2.561678 g / cm^3
# Si number density = 25.675214 Si / 1000 Ang^3
#
#
#
# Elastic Constant Matrix: (Units=GPa)
#
#
# Indices 1 2 3 4 5 6 
#
# 1 106.8328 39.7264 25.2806 -9.0083 15.1212 14.2115
# 2 39.7264 107.4741 13.0225 -12.6601 13.7779 7.9772
# 3 25.2806 13.0225 114.8212 -18.7557 19.2758 -6.6239
# 4 -9.0083 -12.6601 -18.7557 37.6776 -0.7260 1.9062
# 5 15.1212 13.7779 19.2758 -0.7260 22.6819 -1.7918
# 6 14.2115 7.9772 -6.6239 1.9062 -1.7918 46.4737
#
#
#
# Elastic Compliance Matrix: (Units=1/GPa)
#
#
# Indices 1 2 3 4 5 6 
#
# 1 0.012242 -0.003275 -0.001474 0.001177 -0.005169 -0.003639
# 2 -0.003275 0.011633 0.000839 0.003498 -0.005581 -0.001234
# 3 -0.001474 0.000839 0.011392 0.005359 -0.008929 0.001366
# 4 0.001177 0.003498 0.005359 0.030625 -0.006619 -0.001708
# 5 -0.005169 -0.005581 -0.008929 -0.006619 0.058601 0.003797
# 6 -0.003639 -0.001234 0.001366 -0.001708 0.003797 0.023253
#
#
# Mechanical properties :
#
#
# Convention : Reuss Voigt Hill
#
# Bulk Modulus (GPa) = 36.43429 53.90968 45.17198
# Shear Modulus (GPa) = 30.35574 38.10653 34.23113
#
# Velocity S-wave (km/s) = 3.44219 3.85668 3.65531
# Velocity P-wave (km/s) = 5.47900 6.39330 5.95373
#
# Compressibility (1/GPa) = 0.02744667
#
# Stress axis : x y z
#
# Youngs Moduli (GPa) = 81.68577 85.96458 87.78359
#
# Poissons Ratio (x) = 0.28154 0.12937
# Poissons Ratio (y) = 0.26753 -0.07365
# Poissons Ratio (z) = 0.12038 -0.07212
#
# Static dielectric constant tensor:
#      x y z
#    x 2.088850 0.014700 0.053320 
#    y 0.014700 2.013400 0.045490 
#    z 0.053320 0.045490 2.089230 
# 
# From -- ./inp_files/547985.got.cif
#   From: 2010.05.17/outbox.cif.g08.bks.cpg/sg2_274_cif.got.tgz:547985.got - 2010.06.03 11:33:40.
