data_PCOD9095959
_publ_section_title
;
Structure prediction by ZEFSAII (Michael W. Deem and Ramdas Pophale) SiO2 
 PCOD9095959
Probable space group: P -1
;
_chemical_formula_sum "Si O2"
_cell_formula_units_Z 14
_cell_length_a 9.245631
_cell_length_b 19.756471
_cell_length_c 11.317706
_cell_angle_alpha 33.099468
_cell_angle_beta 111.896448
_cell_angle_gamma 134.801105
_cell_volume 663.133991
_symmetry_space_group_name_H-M "P -1"
_symmetry_group_IT_number 2
_symmetry_cell_setting 'triclinic'
loop_
_space_group_symop_operation_xyz
x,y,z
-x,-y,-z
loop_
_atom_site_type_symbol
_atom_site_label
_atom_site_fract_x
_atom_site_fract_y
_atom_site_fract_z
Si Si1 0.202191 0.227300 0.250362
Si Si2 0.881738 0.437486 0.325242
Si Si3 0.611545 0.934283 0.156672
Si Si4 0.432849 0.305661 0.686787
Si Si5 0.914041 0.674092 0.147866
Si Si6 0.242346 0.476156 0.049885
Si Si7 0.244958 0.453507 0.362858
O O1 0.151814 0.283763 0.264520
O O2 0.199338 0.317923 0.005662
O O3 0.474592 0.341286 0.172532
O O4 0.000000 0.000000 0.500000
O O5 0.599099 0.256058 0.546546
O O6 0.008847 0.605703 0.214932
O O7 0.011205 0.384366 0.442791
O O8 0.897699 0.510052 0.094437
O O9 0.642592 0.865486 0.152670
O O10 0.500000 0.000000 0.000000
O O11 0.868176 0.114903 0.035869
O O12 0.693714 0.506560 0.413554
O O13 0.253491 0.311262 0.597929
O O14 0.509567 0.344205 0.791104
O O15 0.242163 0.481850 0.181887
#
# Coordination Sequence:
#
# PCOD9095959 Si02
#       7
#     2   2   2   2   2   2   2
#     4  10  20  35  61  88 112 150 199 245 289 347
#     4  10  22  39  62  90 120 154 199 245 296 351
#     4  11  22  39  64  89 117 159 203 244 289 347
#     4  10  23  40  61  88 120 160 200 239 291 355
#     4  10  20  39  62  86 115 156 202 245 285 344
#     4  10  21  38  61  86 118 156 193 243 298 348
#     4  11  21  40  61  87 125 158 192 242 301 354
#
# _framework density 21.111872999999999
#
# number of rings (size 3 to 8) (size 9 to 14) (size 15 to 20)
#    0.000    1.714    1.429    3.000    4.000    2.286 
#    0.000   12.143    0.000    7.714    0.000    0.000 
#    0.000    0.000    0.000    0.000    0.000    0.000 
#
# Total GULP energy -78218.973892 kJ/mol
# GULP energy per Si atom -5587.069564 kJ/mol
# Density = 2.106382 g / cm^3
# Si number density = 21.111873 Si / 1000 Ang^3
#
#
#
# Elastic Constant Matrix: (Units=GPa)
#
#
# Indices 1 2 3 4 5 6 
#
# 1 118.6947 51.1274 19.3540 -6.3674 28.7404 -8.3803
# 2 51.1274 114.0693 26.4841 -11.0881 10.8881 -28.6989
# 3 19.3540 26.4841 52.5276 -15.8801 9.4541 -20.3279
# 4 -6.3674 -11.0881 -15.8801 36.8290 -8.8649 -1.0746
# 5 28.7404 10.8881 9.4541 -8.8649 23.0931 -3.0231
# 6 -8.3803 -28.6989 -20.3279 -1.0746 -3.0231 36.7487
#
#
#
# Elastic Compliance Matrix: (Units=1/GPa)
#
#
# Indices 1 2 3 4 5 6 
#
# 1 0.015027 -0.006023 -0.002366 -0.004485 -0.017156 -0.004128
# 2 -0.006023 0.014080 -0.000542 0.004206 0.003973 0.009773
# 3 -0.002366 -0.000542 0.030667 0.012539 -0.002425 0.016168
# 4 -0.004485 0.004206 0.012539 0.036772 0.014078 0.011431
# 5 -0.017156 0.003973 -0.002425 0.014078 0.069701 0.003995
# 6 -0.004128 0.009773 0.016168 0.011431 0.003995 0.043509
#
#
# Mechanical properties :
#
#
# Convention : Reuss Voigt Hill
#
# Bulk Modulus (GPa) = 23.85882 53.24695 38.55288
# Shear Modulus (GPa) = 20.69633 31.88922 26.29278
#
# Velocity S-wave (km/s) = 3.13440 3.89072 3.53285
# Velocity P-wave (km/s) = 4.94216 6.74238 5.91120
#
# Compressibility (1/GPa) = 0.04191322
#
# Stress axis : x y z
#
# Youngs Moduli (GPa) = 66.54595 71.02095 32.60877
#
# Poissons Ratio (x) = 0.42777 0.07715
# Poissons Ratio (y) = 0.40082 0.01766
# Poissons Ratio (z) = 0.15743 0.03846
#
# Static dielectric constant tensor:
#      x y z
#    x 1.804900 -0.026510 0.009310 
#    y -0.026510 1.777290 0.015750 
#    z 0.009310 0.015750 1.751100 
# 
# From -- ./inp_files/70520.got.cif
#   From: 2010.05.17/outbox.cif.g08.bks.cpg/sg2_36_cif.got.tgz:70520.got - 2010.06.03 11:33:40.
