data_PCOD9095933
_publ_section_title
;
Structure prediction by ZEFSAII (Michael W. Deem and Ramdas Pophale) SiO2 
 PCOD9095933
Probable space group: P -1
;
_chemical_formula_sum "Si O2"
_cell_formula_units_Z 14
_cell_length_a 13.676889
_cell_length_b 6.804351
_cell_length_c 21.095870
_cell_angle_alpha 102.607936
_cell_angle_beta 154.653986
_cell_angle_gamma 62.953094
_cell_volume 645.907129
_symmetry_space_group_name_H-M "P -1"
_symmetry_group_IT_number 2
_symmetry_cell_setting 'triclinic'
loop_
_space_group_symop_operation_xyz
x,y,z
-x,-y,-z
loop_
_atom_site_type_symbol
_atom_site_label
_atom_site_fract_x
_atom_site_fract_y
_atom_site_fract_z
Si Si1 0.619246 0.888795 0.829565
Si Si2 0.636973 0.837036 0.437764
Si Si3 0.348719 0.484313 0.096358
Si Si4 0.926882 0.052420 0.850267
Si Si5 0.448824 0.251728 0.011368
Si Si6 0.803167 0.577891 0.330152
Si Si7 0.974468 0.173557 0.246564
O O1 0.623639 0.651483 0.832126
O O2 0.494876 0.001190 0.693970
O O3 0.401742 0.118601 0.767696
O O4 0.919581 0.838807 0.020072
O O5 0.959675 0.577222 0.595465
O O6 0.714829 0.952027 0.547430
O O7 0.413330 0.788619 0.325674
O O8 0.354758 0.313222 0.033439
O O9 0.604366 0.494957 0.224654
O O10 0.071652 0.778685 0.950293
O O11 0.996192 0.976308 0.811003
O O12 0.755077 0.189756 0.168767
O O13 0.198468 0.528721 0.853658
O O14 0.500000 0.000000 0.000000
O O15 0.000000 0.500000 0.500000
#
# Coordination Sequence:
#
# PCOD9095933 Si02
#       7
#     2   2   2   2   2   2   2
#     4  10  22  39  63  84 121 156 198 239 291 352
#     4  11  21  38  60  90 119 155 192 245 299 340
#     4  10  20  38  59  86 114 157 199 238 288 352
#     4  10  22  40  60  83 121 161 196 235 291 357
#     4  10  20  35  61  85 114 154 196 239 296 345
#     4   9  20  37  57  85 117 148 194 242 290 340
#     4  10  21  38  59  85 118 150 199 243 286 348
#
# _framework density 21.674944
#
# number of rings (size 3 to 8) (size 9 to 14) (size 15 to 20)
#    0.000    2.000    1.429    1.714    4.000    2.857 
#    0.000    4.286    0.000    5.143    0.000    0.000 
#    0.000    0.000    0.000    0.000    0.000    0.000 
#
# Total GULP energy -78035.787778 kJ/mol
# GULP energy per Si atom -5573.984841 kJ/mol
# Density = 2.162561 g / cm^3
# Si number density = 21.674944 Si / 1000 Ang^3
#
#
#
# Elastic Constant Matrix: (Units=GPa)
#
#
# Indices 1 2 3 4 5 6 
#
# 1 56.8784 -0.7203 29.1976 -17.6613 7.9267 -5.6647
# 2 -0.7203 61.6843 12.0939 -7.2159 13.9105 0.3361
# 3 29.1976 12.0939 116.3874 14.2988 10.5972 -0.2660
# 4 -17.6613 -7.2159 14.2988 2.4855 -6.8510 -5.2887
# 5 7.9267 13.9105 10.5972 -6.8510 31.0006 0.6560
# 6 -5.6647 0.3361 -0.2660 -5.2887 0.6560 22.1547
#
#
#
# Elastic Compliance Matrix: (Units=1/GPa)
#
#
# Indices 1 2 3 4 5 6 
#
# 1 0.005091 -0.002779 0.004148 -0.035182 -0.009105 -0.006735
# 2 -0.002779 0.016851 0.001161 -0.010974 -0.009603 -0.003288
# 3 0.004148 0.001161 0.004893 0.019992 0.001040 0.005843
# 4 -0.035182 -0.010974 0.019992 -0.075411 -0.009023 -0.026324
# 5 -0.009105 -0.009603 0.001040 -0.009023 0.036660 -0.005409
# 6 -0.006735 -0.003288 0.005843 -0.026324 -0.005409 0.037411
#
#
# Mechanical properties :
#
#
# Convention : Reuss Voigt Hill
#
# Bulk Modulus (GPa) = 31.35329 35.12138 33.23734
# Shear Modulus (GPa) = 160.93436 24.08677 92.51056
#
# Velocity S-wave (km/s) = 8.62614 3.33719 6.54015
# Velocity P-wave (km/s) = 10.66350 5.57566 8.50877
#
# Compressibility (1/GPa) = 0.03189458
#
# Stress axis : x y z
#
# Youngs Moduli (GPa) = 196.42767 59.34264 204.35828
#
# Poissons Ratio (x) = 0.16493 -0.84758
# Poissons Ratio (y) = 0.54594 -0.23732
# Poissons Ratio (z) = -0.81469 -0.06892
#
# Static dielectric constant tensor:
#      x y z
#    x 1.842940 -0.058800 0.000700 
#    y -0.058800 1.825140 0.011190 
#    z 0.000700 0.011190 1.793370 
# 
# From -- ./inp_files/78454.got.cif
#   From: 2010.05.17/outbox.cif.g08.bks.cpg/sg2_40_cif.got.tgz:78454.got - 2010.06.03 11:33:40.
