data_PCOD9095055
_publ_section_title
;
Structure prediction by ZEFSAII (Michael W. Deem and Ramdas Pophale) SiO2 
 PCOD9095055
Probable space group: P -1
;
_chemical_formula_sum "Si O2"
_cell_formula_units_Z 16
_cell_length_a 12.211379
_cell_length_b 9.160108
_cell_length_c 24.375191
_cell_angle_alpha 33.639153
_cell_angle_beta 152.588026
_cell_angle_gamma 135.630676
_cell_volume 692.224316
_symmetry_space_group_name_H-M "P -1"
_symmetry_group_IT_number 2
_symmetry_cell_setting 'triclinic'
loop_
_space_group_symop_operation_xyz
x,y,z
-x,-y,-z
loop_
_atom_site_type_symbol
_atom_site_label
_atom_site_fract_x
_atom_site_fract_y
_atom_site_fract_z
Si Si1 0.775080 0.340288 0.123767
Si Si2 0.758134 0.274984 0.914455
Si Si3 0.662852 0.382189 0.421840
Si Si4 0.138456 0.247997 0.413128
Si Si5 0.501316 0.137338 0.529191
Si Si6 0.886192 0.736195 0.482926
Si Si7 0.426704 0.097740 0.127746
Si Si8 0.008710 0.805249 0.846814
O O1 0.565976 0.201267 0.104246
O O2 0.875950 0.179285 0.166363
O O3 0.969699 0.356673 0.254048
O O4 0.676341 0.638142 0.970111
O O5 0.488783 0.418186 0.747977
O O6 0.928637 0.507386 0.908134
O O7 0.770532 0.070938 0.933563
O O8 0.819383 0.153170 0.038940
O O9 0.671867 0.090172 0.492603
O O10 0.884700 0.515024 0.504320
O O11 0.494980 0.350697 0.411231
O O12 0.091635 0.382810 0.409062
O O13 0.405767 0.244506 0.510782
O O14 0.076135 0.946558 0.491476
O O15 0.767272 0.995792 0.689195
O O16 0.629115 0.913302 0.307973
#
# Coordination Sequence:
#
# PCOD9095055 Si02
#       8
#     2   2   2   2   2   2   2   2
#     4  10  20  36  56  78 106 137 173 216 260 308
#     4   9  19  36  54  77 106 136 174 215 259 308
#     4   9  18  35  54  77 106 136 173 214 259 309
#     4  10  20  36  55  77 107 139 173 214 258 308
#     4  10  20  35  54  76 107 141 173 212 258 306
#     4   9  20  36  55  79 105 136 174 215 260 308
#     4   9  20  37  56  78 104 137 174 215 262 308
#     4  10  21  36  54  78 107 139 174 213 258 309
#
# _framework density 23.113894999999999
#
# number of rings (size 3 to 8) (size 9 to 14) (size 15 to 20)
#    0.000    2.500    0.000    2.250    0.000    6.000 
#    0.000    5.000    0.000    0.000    0.000    0.000 
#    0.000    0.000    0.000    0.000    0.000    0.000 
#
# Total GULP energy -89349.396343 kJ/mol
# GULP energy per Si atom -5584.337271 kJ/mol
# Density = 2.306129 g / cm^3
# Si number density = 23.113895 Si / 1000 Ang^3
#
#
#
# Elastic Constant Matrix: (Units=GPa)
#
#
# Indices 1 2 3 4 5 6 
#
# 1 93.7878 -7.8051 34.2180 13.1098 2.4647 -12.7836
# 2 -7.8051 76.1302 10.7308 2.4629 1.7119 -6.8976
# 3 34.2180 10.7308 84.9302 3.0034 -13.0635 -7.6450
# 4 13.1098 2.4629 3.0034 27.6814 -6.6391 -9.7426
# 5 2.4647 1.7119 -13.0635 -6.6391 27.8347 4.9370
# 6 -12.7836 -6.8976 -7.6450 -9.7426 4.9370 9.6054
#
#
#
# Elastic Compliance Matrix: (Units=1/GPa)
#
#
# Indices 1 2 3 4 5 6 
#
# 1 0.017569 0.005345 -0.006965 -0.001556 -0.010001 0.025238
# 2 0.005345 0.016198 -0.003277 0.002631 -0.006289 0.022038
# 3 -0.006965 -0.003277 0.016379 0.004452 0.009370 0.001113
# 4 -0.001556 0.002631 0.004452 0.058546 0.005393 0.059973
# 5 -0.010001 -0.006289 0.009370 0.005393 0.048140 -0.029642
# 6 0.025238 0.022038 0.001113 0.059973 -0.029642 0.230473
#
#
# Mechanical properties :
#
#
# Convention : Reuss Voigt Hill
#
# Bulk Modulus (GPa) = 24.78202 36.57062 30.67632
# Shear Modulus (GPa) = 12.17880 27.53793 19.85836
#
# Velocity S-wave (km/s) = 2.29793 3.45541 2.93431
# Velocity P-wave (km/s) = 4.21730 5.63703 4.97804
#
# Compressibility (1/GPa) = 0.04035184
#
# Stress axis : x y z
#
# Youngs Moduli (GPa) = 56.91911 61.73517 61.05560
#
# Poissons Ratio (x) = -0.32996 0.42526
# Poissons Ratio (y) = -0.30422 0.20005
# Poissons Ratio (z) = 0.39645 0.20228
#
# Static dielectric constant tensor:
#      x y z
#    x 1.842200 0.001830 -0.012030 
#    y 0.001830 1.929690 0.016220 
#    z -0.012030 0.016220 1.888040 
# 
# From -- ./inp_files/560149.got.cif
#   From: 2010.05.17/outbox.cif.g08.bks.cpg/sg2_281_cif.got.tgz:560149.got - 2010.06.03 11:33:40.
