data_PCOD9095591
_publ_section_title
;
Structure prediction by ZEFSAII (Michael W. Deem and Ramdas Pophale) SiO2 
 PCOD9095591
Probable space group: P -1
;
_chemical_formula_sum "Si O2"
_cell_formula_units_Z 14
_cell_length_a 13.145161
_cell_length_b 24.102751
_cell_length_c 7.461565
_cell_angle_alpha 134.596218
_cell_angle_beta 49.417729
_cell_angle_gamma 159.931635
_cell_volume 577.256256
_symmetry_space_group_name_H-M "P -1"
_symmetry_group_IT_number 2
_symmetry_cell_setting 'triclinic'
loop_
_space_group_symop_operation_xyz
x,y,z
-x,-y,-z
loop_
_atom_site_type_symbol
_atom_site_label
_atom_site_fract_x
_atom_site_fract_y
_atom_site_fract_z
Si Si1 0.291092 0.120914 0.537752
Si Si2 0.143643 0.322386 0.992999
Si Si3 0.228394 0.257369 0.049761
Si Si4 0.742419 0.491918 0.448181
Si Si5 0.819460 0.372562 0.251514
Si Si6 0.956248 0.890368 0.716213
Si Si7 0.883068 0.631045 0.230644
O O1 0.500370 0.198885 0.318339
O O2 0.373898 0.247733 0.818787
O O3 0.000000 0.000000 0.500000
O O4 0.200589 0.017414 0.568369
O O5 0.059559 0.209287 0.968413
O O6 0.122015 0.396114 0.277197
O O7 0.500000 0.500000 0.000000
O O8 0.013254 0.255848 0.791030
O O9 0.027694 0.152561 0.219739
O O10 0.530625 0.457539 0.207886
O O11 0.819716 0.440894 0.257173
O O12 0.378936 0.298953 0.407347
O O13 0.882610 0.616824 0.412420
O O14 0.000000 0.500000 0.500000
O O15 0.956762 0.365169 0.005791
O O16 0.000000 0.000000 0.000000
#
# Coordination Sequence:
#
# PCOD9095591 Si02
#       7
#     2   2   2   2   2   2   2
#     4  11  20  35  59  86 115 153 191 239 300 347
#     4  10  20  35  58  90 121 152 196 250 287 350
#     4   9  19  36  55  86 117 146 196 247 283 347
#     4  11  21  37  59  90 121 156 195 246 303 342
#     4  12  20  36  60  88 122 152 196 250 294 347
#     4   9  20  35  55  84 118 151 197 239 292 354
#     4  10  21  35  56  89 118 150 195 241 296 342
#
# _framework density 24.252662000000001
#
# number of rings (size 3 to 8) (size 9 to 14) (size 15 to 20)
#    0.000    1.714    4.286    1.286    0.000    5.143 
#    0.000    0.000    0.000    1.714    0.000    0.000 
#    0.000    0.000    0.000    0.000    0.000    0.000 
#
# Total GULP energy -77975.866604 kJ/mol
# GULP energy per Si atom -5569.704757 kJ/mol
# Density = 2.419746 g / cm^3
# Si number density = 24.252662 Si / 1000 Ang^3
#
#
#
# Elastic Constant Matrix: (Units=GPa)
#
#
# Indices 1 2 3 4 5 6 
#
# 1 159.7990 28.6091 18.6321 -16.2532 -1.3823 -52.2566
# 2 28.6091 68.7423 26.6031 -8.4940 0.9491 -22.3824
# 3 18.6321 26.6031 84.5919 -17.0722 -3.7240 -9.9539
# 4 -16.2532 -8.4940 -17.0722 33.2281 -2.3878 3.1781
# 5 -1.3823 0.9491 -3.7240 -2.3878 42.3662 -7.0271
# 6 -52.2566 -22.3824 -9.9539 3.1781 -7.0271 46.1171
#
#
#
# Elastic Compliance Matrix: (Units=1/GPa)
#
#
# Indices 1 2 3 4 5 6 
#
# 1 0.010722 0.000002 0.000064 0.004293 0.002632 0.012269
# 2 0.000002 0.019285 -0.004702 0.001765 0.000635 0.008322
# 3 0.000064 -0.004702 0.014774 0.006479 0.001908 0.000823
# 4 0.004293 0.001765 0.006479 0.035732 0.003546 0.005198
# 5 0.002632 0.000635 0.001908 0.003546 0.025255 0.007306
# 6 0.012269 0.008322 0.000823 0.005198 0.007306 0.040558
#
#
# Mechanical properties :
#
#
# Convention : Reuss Voigt Hill
#
# Bulk Modulus (GPa) = 28.16185 51.20242 39.68213
# Shear Modulus (GPa) = 29.86234 40.29489 35.07861
#
# Velocity S-wave (km/s) = 3.51280 4.08053 3.80726
# Velocity P-wave (km/s) = 5.30001 6.58474 5.97699
#
# Compressibility (1/GPa) = 0.03550904
#
# Stress axis : x y z
#
# Youngs Moduli (GPa) = 93.26914 51.85418 67.68425
#
# Poissons Ratio (x) = -0.00011 -0.00432
# Poissons Ratio (y) = -0.00020 0.31825
# Poissons Ratio (z) = -0.00596 0.24382
#
# Static dielectric constant tensor:
#      x y z
#    x 2.068580 -0.062470 -0.095530 
#    y -0.062470 1.970210 0.110030 
#    z -0.095530 0.110030 2.161090 
# 
# From -- ./inp_files/320536.got.cif
#   From: 2010.05.17/outbox.cif.g08.bks.cpg/sg2_161_cif.got.tgz:320536.got - 2010.06.03 11:33:40.
