data_PCOD9095528
_publ_section_title
;
Structure prediction by ZEFSAII (Michael W. Deem and Ramdas Pophale) SiO2 
 PCOD9095528
Probable space group: P -1
;
_chemical_formula_sum "Si O2"
_cell_formula_units_Z 12
_cell_length_a 9.269548
_cell_length_b 9.586609
_cell_length_c 7.465691
_cell_angle_alpha 74.112474
_cell_angle_beta 90.379159
_cell_angle_gamma 126.105592
_cell_volume 505.210937
_symmetry_space_group_name_H-M "P -1"
_symmetry_group_IT_number 2
_symmetry_cell_setting 'triclinic'
loop_
_space_group_symop_operation_xyz
x,y,z
-x,-y,-z
loop_
_atom_site_type_symbol
_atom_site_label
_atom_site_fract_x
_atom_site_fract_y
_atom_site_fract_z
Si Si1 0.955738 0.144874 0.113218
Si Si2 0.336497 0.507971 0.041080
Si Si3 0.675659 0.511336 0.526593
Si Si4 0.329862 0.822347 0.961444
Si Si5 0.957583 0.106437 0.718720
Si Si6 0.187856 0.694766 0.388872
O O1 0.142719 0.346012 0.015145
O O2 0.895131 0.056024 0.944702
O O3 0.007614 0.040322 0.275114
O O4 0.789587 0.144654 0.173724
O O5 0.302304 0.477840 0.263478
O O6 0.384058 0.702085 0.921812
O O7 0.500000 0.500000 0.000000
O O8 0.500000 0.500000 0.500000
O O9 0.846925 0.695852 0.372665
O O10 0.665054 0.333910 0.534960
O O11 0.198361 0.705887 0.169163
O O12 0.500000 0.000000 0.000000
O O13 0.822061 0.141612 0.615771
O O14 0.000000 0.500000 0.500000
#
# Coordination Sequence:
#
# PCOD9095528 Si02
#       6
#     2   2   2   2   2   2
#     4  10  21  37  62  89 120 154 198 251 299 356
#     4  11  24  38  59  90 124 154 201 252 299 347
#     4  10  20  35  58  85 119 158 198 243 297 361
#     4  10  22  37  63  89 119 157 202 244 301 367
#     4   9  19  35  62  87 113 157 200 234 304 364
#     4   8  17  34  55  84 111 151 196 240 285 354
#
# _framework density 23.752455999999999
#
# number of rings (size 3 to 8) (size 9 to 14) (size 15 to 20)
#    0.000    2.333    0.000    1.500   11.667    0.667 
#    0.000    1.667    0.000    2.000    0.000    0.000 
#    0.000    0.000    0.000    0.000    0.000    0.000 
#
# Total GULP energy -66896.778668 kJ/mol
# GULP energy per Si atom -5574.731556 kJ/mol
# Density = 2.369839 g / cm^3
# Si number density = 23.752456 Si / 1000 Ang^3
#
#
#
# Elastic Constant Matrix: (Units=GPa)
#
#
# Indices 1 2 3 4 5 6 
#
# 1 216.5799 74.9322 4.6486 -23.4792 34.9527 -51.6007
# 2 74.9322 91.0734 5.1162 -24.8554 26.7650 -28.1133
# 3 4.6486 5.1162 76.2587 0.7027 -2.7728 -8.7930
# 4 -23.4792 -24.8554 0.7027 26.4949 -7.4778 16.5358
# 5 34.9527 26.7650 -2.7728 -7.4778 29.2149 -16.4878
# 6 -51.6007 -28.1133 -8.7930 16.5358 -16.4878 44.5120
#
#
#
# Elastic Compliance Matrix: (Units=1/GPa)
#
#
# Indices 1 2 3 4 5 6 
#
# 1 0.007734 -0.004284 0.000456 -0.001634 -0.002247 0.006125
# 2 -0.004284 0.021500 -0.001900 0.013893 -0.011960 -0.001354
# 3 0.000456 -0.001900 0.013999 -0.003682 0.004470 0.005117
# 4 -0.001634 0.013893 -0.003682 0.058932 -0.006222 -0.018044
# 5 -0.002247 -0.011960 0.004470 -0.006222 0.054082 0.013068
# 6 0.006125 -0.001354 0.005117 -0.018044 0.013068 0.041266
#
#
# Mechanical properties :
#
#
# Convention : Reuss Voigt Hill
#
# Bulk Modulus (GPa) = 31.46960 61.47844 46.47402
# Shear Modulus (GPa) = 22.77244 39.99202 31.38223
#
# Velocity S-wave (km/s) = 3.09971 4.10774 3.63880
# Velocity P-wave (km/s) = 5.10771 6.95969 6.10434
#
# Compressibility (1/GPa) = 0.03177670
#
# Stress axis : x y z
#
# Youngs Moduli (GPa) = 129.29125 46.51063 71.43128
#
# Poissons Ratio (x) = 0.19926 -0.03254
# Poissons Ratio (y) = 0.55390 0.13574
# Poissons Ratio (z) = -0.05890 0.08838
#
# Static dielectric constant tensor:
#      x y z
#    x 1.982080 -0.003970 0.118460 
#    y -0.003970 1.893200 -0.019250 
#    z 0.118460 -0.019250 1.901720 
# 
# From -- ./inp_files/145404.got.cif
#   From: 2010.05.17/outbox.cif.g08.bks.cpg/sg2_73_cif.got.tgz:145404.got - 2010.06.03 11:33:40.
