data_PCOD9095999
_publ_section_title
;
Structure prediction by ZEFSAII (Michael W. Deem and Ramdas Pophale) SiO2 
 PCOD9095999
Probable space group: P -1
;
_chemical_formula_sum "Si O2"
_cell_formula_units_Z 16
_cell_length_a 10.962318
_cell_length_b 18.783432
_cell_length_c 15.960592
_cell_angle_alpha 156.978426
_cell_angle_beta 144.302339
_cell_angle_gamma 38.977585
_cell_volume 743.463931
_symmetry_space_group_name_H-M "P -1"
_symmetry_group_IT_number 2
_symmetry_cell_setting 'triclinic'
loop_
_space_group_symop_operation_xyz
x,y,z
-x,-y,-z
loop_
_atom_site_type_symbol
_atom_site_label
_atom_site_fract_x
_atom_site_fract_y
_atom_site_fract_z
Si Si1 0.651312 0.551696 0.069231
Si Si2 0.764722 0.919364 0.344644
Si Si3 0.572831 0.087259 0.720265
Si Si4 0.220474 0.463914 0.135474
Si Si5 0.058304 0.951142 0.859215
Si Si6 0.602948 0.294044 0.631731
Si Si7 0.115355 0.295750 0.366639
Si Si8 0.039006 0.741182 0.462138
O O1 0.503916 0.697428 0.088921
O O2 0.848954 0.656941 0.313319
O O3 0.500000 0.500000 0.000000
O O4 0.725186 0.374246 0.864108
O O5 0.550266 0.980748 0.344274
O O6 0.928819 0.854052 0.441693
O O7 0.758878 0.107561 0.494323
O O8 0.731465 0.754077 0.085031
O O9 0.500000 0.000000 0.500000
O O10 0.818146 0.040415 0.808937
O O11 0.385506 0.568241 0.290134
O O12 0.183102 0.566771 0.314200
O O13 0.000000 0.500000 0.000000
O O14 0.031036 0.794152 0.743749
O O15 0.136105 0.862331 0.717512
O O16 0.156580 0.127702 0.139385
O O17 0.357703 0.313696 0.544467
O O18 0.000000 0.500000 0.500000
#
# Coordination Sequence:
#
# PCOD9095999 Si02
#       8
#     2   2   2   2   2   2   2   2
#     4  11  20  30  55  91 124 151 193 241 301 364
#     4  10  20  35  61  91 123 158 195 239 309 356
#     4  11  17  34  56  90 123 149 186 248 308 355
#     4  10  21  40  56  89 130 161 197 244 296 362
#     4  11  22  41  61  85 127 155 201 251 310 355
#     4  12  21  38  62  88 119 164 207 237 302 367
#     4  11  26  41  61  89 120 163 204 253 303 364
#     4  10  21  40  57  90 128 156 192 253 302 354
#
# _framework density 21.520883000000001
#
# number of rings (size 3 to 8) (size 9 to 14) (size 15 to 20)
#    0.000    1.250    7.500    2.250    0.000    2.000 
#    0.000    0.625    0.000    1.500    0.000    0.000 
#    0.000    0.000    0.000    0.000    0.000    0.000 
#
# Total GULP energy -89112.202702 kJ/mol
# GULP energy per Si atom -5569.512669 kJ/mol
# Density = 2.147190 g / cm^3
# Si number density = 21.520883 Si / 1000 Ang^3
#
#
#
# Elastic Constant Matrix: (Units=GPa)
#
#
# Indices 1 2 3 4 5 6 
#
# 1 70.9279 -11.6105 18.7833 5.2873 -21.4005 4.7924
# 2 -11.6105 47.2587 28.8007 26.5540 -2.2617 4.2552
# 3 18.7833 28.8007 137.2079 25.0267 -34.0283 9.1752
# 4 5.2873 26.5540 25.0267 39.2955 -2.7018 -0.0543
# 5 -21.4005 -2.2617 -34.0283 -2.7018 46.2187 3.5377
# 6 4.7924 4.2552 9.1752 -0.0543 3.5377 16.1952
#
#
#
# Elastic Compliance Matrix: (Units=1/GPa)
#
#
# Indices 1 2 3 4 5 6 
#
# 1 0.021016 0.012868 -0.000254 -0.010659 0.010452 -0.011775
# 2 0.012868 0.044441 -0.003571 -0.029170 0.004919 -0.014633
# 3 -0.000254 -0.003571 0.011432 -0.004264 0.008435 -0.007320
# 4 -0.010659 -0.029170 -0.004264 0.048794 -0.007805 0.015102
# 5 0.010452 0.004919 0.008435 -0.007805 0.033738 -0.016560
# 6 -0.011775 -0.014633 -0.007320 0.015102 -0.016560 0.076891
#
#
# Mechanical properties :
#
#
# Convention : Reuss Voigt Hill
#
# Bulk Modulus (GPa) = 10.52924 36.37126 23.45025
# Shear Modulus (GPa) = 20.00923 34.96994 27.48958
#
# Velocity S-wave (km/s) = 3.05250 4.03542 3.57787
# Velocity P-wave (km/s) = 4.16256 6.21691 5.29041
#
# Compressibility (1/GPa) = 0.09497361
#
# Stress axis : x y z
#
# Youngs Moduli (GPa) = 47.58239 22.50169 87.47622
#
# Poissons Ratio (x) = -0.28955 0.02226
# Poissons Ratio (y) = -0.61228 0.31237
# Poissons Ratio (z) = 0.01211 0.08035
#
# Static dielectric constant tensor:
#      x y z
#    x 1.521970 -0.171340 -0.248900 
#    y -0.171340 1.715600 -0.111440 
#    z -0.248900 -0.111440 1.801180 
# 
# From -- ./inp_files/454915.got.cif
#   From: 2010.05.17/outbox.cif.g08.bks.cpg/sg2_228_cif.got.tgz:454915.got - 2010.06.03 11:33:40.
