data_PCOD9095299
_publ_section_title
;
Structure prediction by ZEFSAII (Michael W. Deem and Ramdas Pophale) SiO2 
 PCOD9095299
Probable space group: P -1
;
_chemical_formula_sum "Si O2"
_cell_formula_units_Z 16
_cell_length_a 9.373556
_cell_length_b 14.981860
_cell_length_c 14.678554
_cell_angle_alpha 38.030229
_cell_angle_beta 48.184690
_cell_angle_gamma 76.387133
_cell_volume 734.133586
_symmetry_space_group_name_H-M "P -1"
_symmetry_group_IT_number 2
_symmetry_cell_setting 'triclinic'
loop_
_space_group_symop_operation_xyz
x,y,z
-x,-y,-z
loop_
_atom_site_type_symbol
_atom_site_label
_atom_site_fract_x
_atom_site_fract_y
_atom_site_fract_z
Si Si1 0.509113 0.179236 0.467220
Si Si2 0.270877 0.484629 0.201672
Si Si3 0.760813 0.544095 0.966780
Si Si4 0.327772 0.754218 0.087646
Si Si5 0.072181 0.073705 0.608291
Si Si6 0.234434 0.964196 0.462862
Si Si7 0.451894 0.151418 0.901532
Si Si8 0.733335 0.939960 0.141640
O O1 0.275425 0.100912 0.566176
O O2 0.594457 0.054101 0.530296
O O3 0.432367 0.168627 0.612567
O O4 0.716086 0.392525 0.177094
O O5 0.284006 0.541799 0.046013
O O6 0.187259 0.571835 0.232284
O O7 0.106768 0.263032 0.446563
O O8 0.538059 0.553372 0.064825
O O9 0.017388 0.750302 0.698688
O O10 0.356707 0.709095 0.214060
O O11 0.592749 0.902825 0.801446
O O12 0.223787 0.866594 0.042666
O O13 0.122901 0.036968 0.515217
O O14 0.804237 0.921111 0.885250
O O15 0.415977 0.179441 0.789375
O O16 0.500000 0.000000 0.000000
O O17 0.000000 0.000000 0.000000
#
# Coordination Sequence:
#
# PCOD9095299 Si02
#       8
#     2   2   2   2   2   2   2   2
#     4  10  21  36  59  88 121 160 196 245 298 364
#     4  10  21  36  56  89 123 156 191 244 305 356
#     4  10  20  35  56  87 131 153 190 242 299 366
#     4  10  21  37  62  93 120 151 203 246 295 364
#     4  11  21  36  63  87 124 159 198 246 300 358
#     4  11  21  35  60  95 123 156 194 241 310 362
#     4  10  21  38  62  89 113 157 209 247 288 347
#     4  10  20  40  63  84 115 160 205 247 291 347
#
# _framework density 21.794397
#
# number of rings (size 3 to 8) (size 9 to 14) (size 15 to 20)
#    0.000    1.750    1.250    4.500    0.000    2.500 
#    0.000    2.500    2.750    8.250    0.000    0.000 
#    0.000    0.000    0.000    0.000    0.000    0.000 
#
# Total GULP energy -89365.602745 kJ/mol
# GULP energy per Si atom -5585.350172 kJ/mol
# Density = 2.174479 g / cm^3
# Si number density = 21.794397 Si / 1000 Ang^3
#
#
#
# Elastic Constant Matrix: (Units=GPa)
#
#
# Indices 1 2 3 4 5 6 
#
# 1 110.8414 41.6435 17.7616 5.4741 15.3868 13.9716
# 2 41.6435 115.0131 13.6188 0.6170 10.9242 4.1675
# 3 17.7616 13.6188 37.4836 4.5906 5.5749 -7.2709
# 4 5.4741 0.6170 4.5906 25.8174 -0.9621 2.0362
# 5 15.3868 10.9242 5.5749 -0.9621 24.7153 11.5683
# 6 13.9716 4.1675 -7.2709 2.0362 11.5683 25.0748
#
#
#
# Elastic Compliance Matrix: (Units=1/GPa)
#
#
# Indices 1 2 3 4 5 6 
#
# 1 0.012379 -0.003394 -0.005646 -0.001038 -0.001635 -0.007132
# 2 -0.003394 0.010324 -0.001729 0.000636 -0.002371 0.000716
# 3 -0.005646 -0.001729 0.037252 -0.007625 -0.014506 0.021546
# 4 -0.001038 0.000636 -0.007625 0.041266 0.007747 -0.008663
# 5 -0.001635 -0.002371 -0.014506 0.007747 0.060904 -0.031628
# 6 -0.007132 0.000716 0.021546 -0.008663 -0.031628 0.065278
#
#
# Mechanical properties :
#
#
# Convention : Reuss Voigt Hill
#
# Bulk Modulus (GPa) = 26.02950 45.48731 35.75840
# Shear Modulus (GPa) = 19.10233 27.80915 23.45574
#
# Velocity S-wave (km/s) = 2.96375 3.57596 3.28415
# Velocity P-wave (km/s) = 4.86630 6.16169 5.55190
#
# Compressibility (1/GPa) = 0.03841795
#
# Stress axis : x y z
#
# Youngs Moduli (GPa) = 80.78162 96.85968 26.84391
#
# Poissons Ratio (x) = 0.32878 0.15155
# Poissons Ratio (y) = 0.27420 0.04641
# Poissons Ratio (z) = 0.45605 0.16747
#
# Static dielectric constant tensor:
#      x y z
#    x 1.832720 0.001250 -0.020040 
#    y 0.001250 1.804550 0.007360 
#    z -0.020040 0.007360 1.812400 
# 
# From -- ./inp_files/505246.got.cif
#   From: 2010.05.17/outbox.cif.g08.bks.cpg/sg2_253_cif.got.tgz:505246.got - 2010.06.03 11:33:40.
