data_PCOD9095573
_publ_section_title
;
Structure prediction by ZEFSAII (Michael W. Deem and Ramdas Pophale) SiO2 
 PCOD9095573
Probable space group: P -1
;
_chemical_formula_sum "Si O2"
_cell_formula_units_Z 16
_cell_length_a 15.264437
_cell_length_b 10.537818
_cell_length_c 5.168686
_cell_angle_alpha 112.328682
_cell_angle_beta 83.155545
_cell_angle_gamma 100.925145
_cell_volume 754.106347
_symmetry_space_group_name_H-M "P -1"
_symmetry_group_IT_number 2
_symmetry_cell_setting 'triclinic'
loop_
_space_group_symop_operation_xyz
x,y,z
-x,-y,-z
loop_
_atom_site_type_symbol
_atom_site_label
_atom_site_fract_x
_atom_site_fract_y
_atom_site_fract_z
Si Si1 0.315485 0.161073 0.811926
Si Si2 0.205388 0.185141 0.359504
Si Si3 0.107269 0.537265 0.227392
Si Si4 0.063611 0.920787 0.091895
Si Si5 0.536196 0.889844 0.586083
Si Si6 0.642700 0.097033 0.119424
Si Si7 0.952455 0.697833 0.291382
Si Si8 0.178842 0.693206 0.802791
O O1 0.249760 0.182876 0.621770
O O2 0.413793 0.207994 0.687729
O O3 0.320846 0.998991 0.747573
O O4 0.277559 0.219572 0.131934
O O5 0.129179 0.280149 0.483973
O O6 0.149554 0.032455 0.216786
O O7 0.168106 0.584861 0.487604
O O8 0.013909 0.598067 0.324672
O O9 0.084505 0.379107 0.019911
O O10 0.152470 0.616427 0.020199
O O11 0.009182 0.844403 0.294993
O O12 0.107320 0.797144 0.849840
O O13 0.000000 0.000000 0.000000
O O14 0.445244 0.834538 0.727916
O O15 0.500000 0.000000 0.500000
O O16 0.606487 0.980271 0.825864
O O17 0.724634 0.215258 0.123522
#
# Coordination Sequence:
#
# PCOD9095573 Si02
#       8
#     2   2   2   2   2   2   2   2
#     4  11  21  35  53  87 125 149 183 228 300 370
#     4  12  23  35  58  86 118 156 192 242 305 358
#     4  10  25  43  58  81 113 167 214 255 279 331
#     4  11  22  36  58  89 121 155 195 247 313 359
#     4   9  19  34  57  87 129 154 181 222 303 375
#     4  10  20  35  58  88 126 155 186 236 291 372
#     4  10  24  41  59  81 119 161 214 251 292 339
#     4  11  23  37  62  84 120 156 201 245 294 343
#
# _framework density 21.217165999999999
#
# number of rings (size 3 to 8) (size 9 to 14) (size 15 to 20)
#    0.000    1.500    2.500    1.875    7.000    7.500 
#    0.000    0.000    0.000    0.000    0.000    5.250 
#    0.000    0.000    0.000    0.000    0.000    0.000 
#
# Total GULP energy -89330.207015 kJ/mol
# GULP energy per Si atom -5583.137938 kJ/mol
# Density = 2.116887 g / cm^3
# Si number density = 21.217166 Si / 1000 Ang^3
#
#
#
# Elastic Constant Matrix: (Units=GPa)
#
#
# Indices 1 2 3 4 5 6 
#
# 1 91.9005 23.9477 48.6296 -14.2378 -14.7670 26.4696
# 2 23.9477 54.1053 24.6907 -7.4389 -1.4438 7.9998
# 3 48.6296 24.6907 114.6503 -12.2396 -14.9019 6.1936
# 4 -14.2378 -7.4389 -12.2396 27.5269 -3.8315 4.5634
# 5 -14.7670 -1.4438 -14.9019 -3.8315 41.2790 -5.8667
# 6 26.4696 7.9998 6.1936 4.5634 -5.8667 20.7507
#
#
#
# Elastic Compliance Matrix: (Units=1/GPa)
#
#
# Indices 1 2 3 4 5 6 
#
# 1 0.029909 -0.001365 -0.007814 0.018534 0.004122 -0.038204
# 2 -0.001365 0.022402 -0.003546 0.004766 -0.001585 -0.007332
# 3 -0.007814 -0.003546 0.012672 -0.000371 0.002819 0.008431
# 4 0.018534 0.004766 -0.000371 0.053818 0.006637 -0.035327
# 5 0.004122 -0.001585 0.002819 0.006637 0.027391 0.000797
# 6 -0.038204 -0.007332 0.008431 -0.035327 0.000797 0.105229
#
#
# Mechanical properties :
#
#
# Convention : Reuss Voigt Hill
#
# Bulk Modulus (GPa) = 25.29631 50.57691 37.93661
# Shear Modulus (GPa) = 17.23842 28.80387 23.02114
#
# Velocity S-wave (km/s) = 2.85349 3.68852 3.29754
# Velocity P-wave (km/s) = 4.77545 6.48304 5.69362
#
# Compressibility (1/GPa) = 0.03953146
#
# Stress axis : x y z
#
# Youngs Moduli (GPa) = 33.43437 44.63818 78.91659
#
# Poissons Ratio (x) = 0.06095 0.61665
# Poissons Ratio (y) = 0.04565 0.27987
# Poissons Ratio (z) = 0.26126 0.15831
#
# Static dielectric constant tensor:
#      x y z
#    x 1.816250 0.003930 -0.053200 
#    y 0.003930 1.760820 -0.034390 
#    z -0.053200 -0.034390 1.843920 
# 
# From -- ./inp_files/95480.got.cif
#   From: 2010.05.17/outbox.cif.g08.bks.cpg/sg2_48_cif.got.tgz:95480.got - 2010.06.03 11:33:40.
