data_PCOD9095967
_publ_section_title
;
Structure prediction by ZEFSAII (Michael W. Deem and Ramdas Pophale) SiO2 
 PCOD9095967
Probable space group: P -1
;
_chemical_formula_sum "Si O2"
_cell_formula_units_Z 16
_cell_length_a 14.529757
_cell_length_b 12.839902
_cell_length_c 5.935224
_cell_angle_alpha 108.566940
_cell_angle_beta 79.554956
_cell_angle_gamma 141.051373
_cell_volume 655.731564
_symmetry_space_group_name_H-M "P -1"
_symmetry_group_IT_number 2
_symmetry_cell_setting 'triclinic'
loop_
_space_group_symop_operation_xyz
x,y,z
-x,-y,-z
loop_
_atom_site_type_symbol
_atom_site_label
_atom_site_fract_x
_atom_site_fract_y
_atom_site_fract_z
Si Si1 0.121926 0.672003 0.819087
Si Si2 0.368540 0.545080 0.077668
Si Si3 0.398599 0.359895 0.248336
Si Si4 0.068876 0.339418 0.865939
Si Si5 0.366266 0.941407 0.263880
Si Si6 0.154420 0.887458 0.578439
Si Si7 0.888633 0.990043 0.960519
Si Si8 0.329429 0.722650 0.514808
O O1 0.134904 0.768888 0.676108
O O2 0.173946 0.605348 0.630047
O O3 0.255992 0.819786 0.027284
O O4 0.975776 0.580030 0.957989
O O5 0.356494 0.419248 0.132148
O O6 0.357343 0.629309 0.331077
O O7 0.510315 0.651956 0.932070
O O8 0.237476 0.461341 0.908035
O O9 0.500000 0.500000 0.500000
O O10 0.239800 0.167717 0.255255
O O11 0.992175 0.247036 0.599025
O O12 0.982060 0.173408 0.943597
O O13 0.296494 0.985689 0.439641
O O14 0.349672 0.825483 0.366788
O O15 0.536081 0.122757 0.272607
O O16 0.181141 0.022556 0.792309
O O17 0.000000 0.000000 0.000000
#
# Coordination Sequence:
#
# PCOD9095967 Si02
#       8
#     2   2   2   2   2   2   2   2
#     4   9  19  36  59  92 124 157 208 251 302 379
#     4  11  25  43  62  91 127 165 207 262 319 370
#     4  11  27  45  63  92 129 162 211 268 318 368
#     4  10  22  40  65  91 126 166 208 254 313 377
#     4   9  18  36  58  90 123 164 203 253 307 381
#     4   9  20  36  61  89 123 159 211 256 302 368
#     4  11  22  40  65  92 118 165 217 255 310 377
#     4  10  20  35  61  88 124 163 204 253 316 369
#
# _framework density 24.400230000000001
#
# number of rings (size 3 to 8) (size 9 to 14) (size 15 to 20)
#    0.000    2.000    1.250    1.125    1.750    8.000 
#    0.000    5.625    0.000    0.000    0.000    0.000 
#    0.000    0.000    0.000    0.000    0.000    0.000 
#
# Total GULP energy -89428.066009 kJ/mol
# GULP energy per Si atom -5589.254126 kJ/mol
# Density = 2.434469 g / cm^3
# Si number density = 24.400230 Si / 1000 Ang^3
#
#
#
# Elastic Constant Matrix: (Units=GPa)
#
#
# Indices 1 2 3 4 5 6 
#
# 1 161.4893 39.9887 49.7540 18.2624 -7.8559 24.6807
# 2 39.9887 59.4862 7.0467 18.7970 -8.7462 25.6878
# 3 49.7540 7.0467 86.1293 7.3708 -14.7763 17.6359
# 4 18.2624 18.7970 7.3708 11.8707 -4.3194 3.8538
# 5 -7.8559 -8.7462 -14.7763 -4.3194 50.4475 3.8802
# 6 24.6807 25.6878 17.6359 3.8538 3.8802 34.3484
#
#
#
# Elastic Compliance Matrix: (Units=1/GPa)
#
#
# Indices 1 2 3 4 5 6 
#
# 1 0.009212 -0.003664 -0.004537 -0.005636 -0.000950 -0.000810
# 2 -0.003664 0.071267 0.016900 -0.097067 0.012257 -0.049836
# 3 -0.004537 0.016900 0.019756 -0.023628 0.007349 -0.017702
# 4 -0.005636 -0.097067 -0.023628 0.237448 -0.009155 0.063167
# 5 -0.000950 0.012257 0.007349 -0.009155 0.024243 -0.013969
# 6 -0.000810 -0.049836 -0.017702 0.063167 -0.013969 0.070546
#
#
# Mechanical properties :
#
#
# Convention : Reuss Voigt Hill
#
# Bulk Modulus (GPa) = 8.50098 55.63151 32.06625
# Shear Modulus (GPa) = 11.00631 33.35434 22.18033
#
# Velocity S-wave (km/s) = 2.12615 3.70126 3.01827
# Velocity P-wave (km/s) = 3.08527 6.41209 5.03159
#
# Compressibility (1/GPa) = 0.11763350
#
# Stress axis : x y z
#
# Youngs Moduli (GPa) = 108.54874 14.03173 50.61802
#
# Poissons Ratio (x) = 0.05142 0.22964
# Poissons Ratio (y) = 0.39777 -0.85545
# Poissons Ratio (z) = 0.49245 -0.23714
#
# Static dielectric constant tensor:
#      x y z
#    x 2.135350 -0.122320 -0.271460 
#    y -0.122320 2.004250 0.133660 
#    z -0.271460 0.133660 2.254020 
# 
# From -- ./inp_files/98580.got.cif
#   From: 2010.05.17/outbox.cif.g08.bks.cpg/sg2_50_cif.got.tgz:98580.got - 2010.06.03 11:33:40.
