data_PCOD9095374
_publ_section_title
;
Structure prediction by ZEFSAII (Michael W. Deem and Ramdas Pophale) SiO2 
 PCOD9095374
Probable space group: P -1
;
_chemical_formula_sum "Si O2"
_cell_formula_units_Z 16
_cell_length_a 15.509550
_cell_length_b 16.110382
_cell_length_c 8.748805
_cell_angle_alpha 122.758500
_cell_angle_beta 79.521979
_cell_angle_gamma 149.035274
_cell_volume 717.129617
_symmetry_space_group_name_H-M "P -1"
_symmetry_group_IT_number 2
_symmetry_cell_setting 'triclinic'
loop_
_space_group_symop_operation_xyz
x,y,z
-x,-y,-z
loop_
_atom_site_type_symbol
_atom_site_label
_atom_site_fract_x
_atom_site_fract_y
_atom_site_fract_z
Si Si1 0.528313 0.412099 0.914545
Si Si2 0.228096 0.060731 0.417813
Si Si3 0.799274 0.601079 0.245399
Si Si4 0.099658 0.819396 0.919315
Si Si5 0.206708 0.113386 0.980466
Si Si6 0.222416 0.663048 0.582570
Si Si7 0.536619 0.152222 0.998054
Si Si8 0.787497 0.766825 0.618144
O O1 0.370722 0.228109 0.927637
O O2 0.463764 0.298272 0.661737
O O3 0.500000 0.500000 0.000000
O O4 0.754464 0.606837 0.102648
O O5 0.062737 0.873140 0.426231
O O6 0.217428 0.157507 0.438943
O O7 0.164296 0.917158 0.166664
O O8 0.683785 0.377002 0.073025
O O9 0.721962 0.592614 0.399349
O O10 0.873168 0.524955 0.675441
O O11 0.083384 0.901879 0.905985
O O12 0.316651 0.983589 0.955545
O O13 0.319477 0.299272 0.258653
O O14 0.039835 0.008423 0.833698
O O15 0.309645 0.717447 0.775667
O O16 0.000000 0.500000 0.500000
O O17 0.429977 0.945424 0.746063
#
# Coordination Sequence:
#
# PCOD9095374 Si02
#       8
#     2   2   2   2   2   2   2   2
#     4  12  23  36  56  82 123 164 202 244 293 344
#     4  11  24  38  55  86 127 160 201 245 300 342
#     4  12  22  36  61  86 121 162 200 248 294 351
#     4  10  21  40  61  87 120 157 197 250 295 357
#     4  10  20  35  57  84 112 158 208 244 284 348
#     4   9  20  39  67  93 118 146 192 253 307 353
#     4  10  21  38  65  95 114 150 204 244 298 364
#     4  10  20  36  56  79 118 162 204 243 287 341
#
# _framework density 22.311169
#
# number of rings (size 3 to 8) (size 9 to 14) (size 15 to 20)
#    0.000    1.500    3.750    1.875    0.000    2.500 
#    0.000    0.625    0.000    7.500    0.000    0.000 
#    0.000    0.000    0.000    0.000    0.000    0.000 
#
# Total GULP energy -89284.372170 kJ/mol
# GULP energy per Si atom -5580.273261 kJ/mol
# Density = 2.226039 g / cm^3
# Si number density = 22.311169 Si / 1000 Ang^3
#
#
#
# Elastic Constant Matrix: (Units=GPa)
#
#
# Indices 1 2 3 4 5 6 
#
# 1 51.6956 9.1402 19.9859 6.3163 6.7842 -16.7214
# 2 9.1402 64.1917 19.9033 9.2439 -13.7576 -13.9128
# 3 19.9859 19.9033 169.6901 3.0209 -9.1153 -27.4273
# 4 6.3163 9.2439 3.0209 25.6803 -3.9449 -6.0592
# 5 6.7842 -13.7576 -9.1153 -3.9449 41.7583 4.8496
# 6 -16.7214 -13.9128 -27.4273 -6.0592 4.8496 31.1397
#
#
#
# Elastic Compliance Matrix: (Units=1/GPa)
#
#
# Indices 1 2 3 4 5 6 
#
# 1 0.025325 -0.001490 -0.001116 -0.003684 -0.006621 0.012265
# 2 -0.001490 0.018943 -0.000834 -0.004299 0.005283 0.005269
# 3 -0.001116 -0.000834 0.007005 0.001138 0.000930 0.005274
# 4 -0.003684 -0.004299 0.001138 0.042885 0.002902 0.004996
# 5 -0.006621 0.005283 0.000930 0.002902 0.027720 -0.004128
# 6 0.012265 0.005269 0.005274 0.004996 -0.004128 0.047314
#
#
# Mechanical properties :
#
#
# Convention : Reuss Voigt Hill
#
# Bulk Modulus (GPa) = 22.52690 42.62625 32.57658
# Shear Modulus (GPa) = 26.19602 35.48553 30.84077
#
# Velocity S-wave (km/s) = 3.43026 3.99241 3.72197
# Velocity P-wave (km/s) = 5.08011 6.35604 5.75356
#
# Compressibility (1/GPa) = 0.04439136
#
# Stress axis : x y z
#
# Youngs Moduli (GPa) = 39.48648 52.79134 142.76437
#
# Poissons Ratio (x) = 0.07868 0.15928
# Poissons Ratio (y) = 0.05885 0.11912
# Poissons Ratio (z) = 0.04405 0.04405
#
# Static dielectric constant tensor:
#      x y z
#    x 1.850100 0.021040 0.002550 
#    y 0.021040 1.848400 0.003090 
#    z 0.002550 0.003090 1.871970 
# 
# From -- ./inp_files/313935.got.cif
#   From: 2010.05.17/outbox.cif.g08.bks.cpg/sg2_157_cif.got.tgz:313935.got - 2010.06.03 11:33:40.
