data_PCOD9095601
_publ_section_title
;
Structure prediction by ZEFSAII (Michael W. Deem and Ramdas Pophale) SiO2 
 PCOD9095601
Probable space group: P -1
;
_chemical_formula_sum "Si O2"
_cell_formula_units_Z 16
_cell_length_a 11.316477
_cell_length_b 28.558819
_cell_length_c 20.662242
_cell_angle_alpha 160.033051
_cell_angle_beta 149.098055
_cell_angle_gamma 21.286591
_cell_volume 819.323861
_symmetry_space_group_name_H-M "P -1"
_symmetry_group_IT_number 2
_symmetry_cell_setting 'triclinic'
loop_
_space_group_symop_operation_xyz
x,y,z
-x,-y,-z
loop_
_atom_site_type_symbol
_atom_site_label
_atom_site_fract_x
_atom_site_fract_y
_atom_site_fract_z
Si Si1 0.387850 0.846906 0.002130
Si Si2 0.222881 0.498222 0.359290
Si Si3 0.334067 0.074713 0.375758
Si Si4 0.923458 0.308639 0.195112
Si Si5 0.843072 0.532812 0.569467
Si Si6 0.271221 0.467402 0.126689
Si Si7 0.108627 0.947664 0.779011
Si Si8 0.182812 0.085915 0.501697
O O1 0.596460 0.706011 0.855457
O O2 0.557563 0.682410 0.926330
O O3 0.400153 0.993471 0.228836
O O4 0.000000 0.000000 0.000000
O O5 0.500000 0.500000 0.500000
O O6 0.062587 0.534201 0.399853
O O7 0.918928 0.693540 0.431949
O O8 0.135369 0.032686 0.262401
O O9 0.682005 0.962430 0.425431
O O10 0.912594 0.377744 0.351794
O O11 0.572349 0.387618 0.120013
O O12 0.999365 0.400730 0.302867
O O13 0.162363 0.078158 0.998828
O O14 0.456220 0.726640 0.647705
O O15 0.089459 0.684268 0.342045
O O16 0.000000 0.500000 0.000000
O O17 0.941179 0.003656 0.702373
O O18 0.500000 0.000000 0.500000
#
# Coordination Sequence:
#
# PCOD9095601 Si02
#       8
#     2   2   2   2   2   2   2   2
#     4  12  22  35  59  93 127 160 199 256 317 367
#     4  12  23  36  60  85 126 163 204 253 312 376
#     4  11  22  36  58  95 124 158 203 265 312 365
#     4  11  24  39  62  91 125 160 211 259 309 374
#     4  11  24  41  58  91 126 167 203 257 315 371
#     4  12  21  39  66  95 124 164 209 260 312 368
#     4  11  19  37  61  87 124 158 207 257 309 369
#     4  10  20  35  58  91 125 154 208 262 307 361
#
# _framework density 19.528296000000001
#
# number of rings (size 3 to 8) (size 9 to 14) (size 15 to 20)
#    0.000    0.750    6.250    3.375    0.000    0.000 
#    0.000    0.000    0.000    3.750    0.000    0.000 
#    0.000    0.000    0.000    0.000    0.000    0.000 
#
# Total GULP energy -89170.260142 kJ/mol
# GULP energy per Si atom -5573.141259 kJ/mol
# Density = 1.948385 g / cm^3
# Si number density = 19.528296 Si / 1000 Ang^3
#
#
#
# Elastic Constant Matrix: (Units=GPa)
#
#
# Indices 1 2 3 4 5 6 
#
# 1 69.1162 7.8967 23.1893 -7.2961 -10.2247 9.0717
# 2 7.8967 83.8283 26.7002 9.6320 -2.6295 18.8184
# 3 23.1893 26.7002 129.0001 7.4339 -24.7324 8.8155
# 4 -7.2961 9.6320 7.4339 34.7272 -3.3207 -3.3244
# 5 -10.2247 -2.6295 -24.7324 -3.3207 26.7152 -1.6611
# 6 9.0717 18.8184 8.8155 -3.3244 -1.6611 19.3047
#
#
#
# Elastic Compliance Matrix: (Units=1/GPa)
#
#
# Indices 1 2 3 4 5 6 
#
# 1 0.017038 0.000109 -0.001965 0.003842 0.004808 -0.006140
# 2 0.000109 0.017119 -0.002527 -0.006026 -0.002408 -0.016829
# 3 -0.001965 -0.002527 0.010364 -0.001208 0.008392 -0.000831
# 4 0.003842 -0.006026 -0.001208 0.032989 0.004525 0.010690
# 5 0.004808 -0.002408 0.008392 0.004525 0.047436 0.001117
# 6 -0.006140 -0.016829 -0.000831 0.010690 0.001117 0.073408
#
#
# Mechanical properties :
#
#
# Convention : Reuss Voigt Hill
#
# Bulk Modulus (GPa) = 27.97011 44.16855 36.06933
# Shear Modulus (GPa) = 22.82710 31.09333 26.96022
#
# Velocity S-wave (km/s) = 3.42266 3.99459 3.71964
# Velocity P-wave (km/s) = 5.47480 6.62891 6.07931
#
# Compressibility (1/GPa) = 0.03575245
#
# Stress axis : x y z
#
# Youngs Moduli (GPa) = 58.69201 58.41606 96.49181
#
# Poissons Ratio (x) = -0.00634 0.18964
# Poissons Ratio (y) = -0.00637 0.24385
# Poissons Ratio (z) = 0.11535 0.14763
#
# Static dielectric constant tensor:
#      x y z
#    x 1.751060 0.108190 -0.026050 
#    y 0.108190 1.853080 0.051280 
#    z -0.026050 0.051280 1.779770 
# 
# From -- ./inp_files/596473.got.cif
#   From: 2010.05.17/outbox.cif.g08.bks.cpg/sg2_299_cif.got.tgz:596473.got - 2010.06.03 11:33:40.
