data_PCOD9095359
_publ_section_title
;
Structure prediction by ZEFSAII (Michael W. Deem and Ramdas Pophale) SiO2 
 PCOD9095359
Probable space group: P -1
;
_chemical_formula_sum "Si O2"
_cell_formula_units_Z 12
_cell_length_a 9.441163
_cell_length_b 10.022653
_cell_length_c 9.090212
_cell_angle_alpha 42.664947
_cell_angle_beta 64.663346
_cell_angle_gamma 74.805721
_cell_volume 524.924174
_symmetry_space_group_name_H-M "P -1"
_symmetry_group_IT_number 2
_symmetry_cell_setting 'triclinic'
loop_
_space_group_symop_operation_xyz
x,y,z
-x,-y,-z
loop_
_atom_site_type_symbol
_atom_site_label
_atom_site_fract_x
_atom_site_fract_y
_atom_site_fract_z
Si Si1 0.972139 0.281221 0.368188
Si Si2 0.837956 0.251620 0.923727
Si Si3 0.892570 0.950367 0.882964
Si Si4 0.272403 0.552705 0.436548
Si Si5 0.240501 0.605537 0.878710
Si Si6 0.608807 0.677712 0.174610
O O1 0.856117 0.385205 0.444288
O O2 0.864860 0.267507 0.281523
O O3 0.993930 0.086928 0.610449
O O4 0.124733 0.421638 0.142177
O O5 0.714609 0.264307 0.102165
O O6 0.001380 0.212320 0.963759
O O7 0.814995 0.449485 0.678617
O O8 0.835547 0.080698 0.939122
O O9 0.740674 0.853815 0.942766
O O10 0.426201 0.708280 0.222957
O O11 0.348939 0.377398 0.630086
O O12 0.362561 0.502221 0.804612
#
# Coordination Sequence:
#
# PCOD9095359 Si02
#       6
#     2   2   2   2   2   2
#     4   9  19  35  57  81 110 147 184 219 268 333
#     4  10  21  34  55  84 113 139 181 233 273 309
#     4  10  21  35  56  84 111 143 184 226 270 322
#     4   9  20  38  58  78 110 151 184 214 269 340
#     4  10  20  35  57  83 110 143 183 226 271 321
#     4  10  21  38  59  80 108 150 186 216 269 336
#
# _framework density 22.860444999999999
#
# number of rings (size 3 to 8) (size 9 to 14) (size 15 to 20)
#    0.000    2.333    0.000    3.000    0.000   13.333 
#    0.000    0.000    0.000   13.000    0.000    0.000 
#    0.000    0.000    0.000    0.000    0.000    0.000 
#
# Total GULP energy -66803.306558 kJ/mol
# GULP energy per Si atom -5566.942213 kJ/mol
# Density = 2.280841 g / cm^3
# Si number density = 22.860445 Si / 1000 Ang^3
#
#
#
# Elastic Constant Matrix: (Units=GPa)
#
#
# Indices 1 2 3 4 5 6 
#
# 1 80.3532 12.0300 47.7738 1.7212 3.5058 -18.4125
# 2 12.0300 109.3541 38.5208 22.9554 9.1215 1.5711
# 3 47.7738 38.5208 95.2742 12.9672 21.3620 -1.3439
# 4 1.7212 22.9554 12.9672 34.9370 8.5646 8.6081
# 5 3.5058 9.1215 21.3620 8.5646 39.0911 6.7521
# 6 -18.4125 1.5711 -1.3439 8.6081 6.7521 24.5968
#
#
#
# Elastic Compliance Matrix: (Units=1/GPa)
#
#
# Indices 1 2 3 4 5 6 
#
# 1 0.023362 0.001887 -0.012300 -0.002468 0.001778 0.017072
# 2 0.001887 0.012070 -0.005027 -0.007003 0.000849 0.002584
# 3 -0.012300 -0.005027 0.020435 -0.000401 -0.007858 -0.005472
# 4 -0.002468 -0.007003 -0.000401 0.037788 -0.003858 -0.013587
# 5 0.001778 0.000849 -0.007858 -0.003858 0.031476 -0.006443
# 6 0.017072 0.002584 -0.005472 -0.013587 -0.006443 0.059495
#
#
# Mechanical properties :
#
#
# Convention : Reuss Voigt Hill
#
# Bulk Modulus (GPa) = 40.01898 53.51450 46.76674
# Shear Modulus (GPa) = 22.33786 32.16877 27.25332
#
# Velocity S-wave (km/s) = 3.12932 3.75531 3.45651
# Velocity P-wave (km/s) = 5.53178 6.50101 6.03588
#
# Compressibility (1/GPa) = 0.02498814
#
# Stress axis : x y z
#
# Youngs Moduli (GPa) = 42.80388 82.85097 48.93488
#
# Poissons Ratio (x) = -0.15634 0.60188
# Poissons Ratio (y) = -0.08077 0.24600
# Poissons Ratio (z) = 0.52647 0.41650
#
# Static dielectric constant tensor:
#      x y z
#    x 1.846890 0.018380 0.000750 
#    y 0.018380 1.919130 -0.031570 
#    z 0.000750 -0.031570 1.937380 
# 
# From -- ./inp_files/158150.got.cif
#   From: 2010.05.17/outbox.cif.g08.bks.cpg/sg2_80_cif.got.tgz:158150.got - 2010.06.03 11:33:40.
