data_PCOD9095491
_publ_section_title
;
Structure prediction by ZEFSAII (Michael W. Deem and Ramdas Pophale) SiO2 
 PCOD9095491
Probable space group: P -1
;
_chemical_formula_sum "Si O2"
_cell_formula_units_Z 16
_cell_length_a 12.944617
_cell_length_b 11.542570
_cell_length_c 20.889764
_cell_angle_alpha 33.729407
_cell_angle_beta 20.301762
_cell_angle_gamma 39.724881
_cell_volume 600.373654
_symmetry_space_group_name_H-M "P -1"
_symmetry_group_IT_number 2
_symmetry_cell_setting 'triclinic'
loop_
_space_group_symop_operation_xyz
x,y,z
-x,-y,-z
loop_
_atom_site_type_symbol
_atom_site_label
_atom_site_fract_x
_atom_site_fract_y
_atom_site_fract_z
Si Si1 0.496882 0.668774 0.170254
Si Si2 0.890701 0.204008 0.315500
Si Si3 0.815456 0.827359 0.030797
Si Si4 0.411819 0.762968 0.644166
Si Si5 0.931700 0.227412 0.959583
Si Si6 0.736427 0.286377 0.844727
Si Si7 0.099157 0.330061 0.266236
Si Si8 0.221589 0.239922 0.377632
O O1 0.418859 0.422657 0.338297
O O2 0.295614 0.761838 0.190008
O O3 0.812609 0.693349 0.936599
O O4 0.539092 0.772282 0.168617
O O5 0.869373 0.254771 0.379328
O O6 0.618995 0.265217 0.401031
O O7 0.909331 0.954860 0.416982
O O8 0.084409 0.737960 0.876312
O O9 0.849559 0.732363 0.125042
O O10 0.870390 0.078311 0.890118
O O11 0.500000 0.000000 0.500000
O O12 0.580372 0.225430 0.183459
O O13 0.951613 0.423496 0.809626
O O14 0.000000 0.000000 0.000000
O O15 0.858492 0.526087 0.667004
O O16 0.420954 0.299778 0.059889
O O17 0.115807 0.216918 0.375909
#
# Coordination Sequence:
#
# PCOD9095491 Si02
#       8
#     2   2   2   2   2   2   2   2
#     4  10  21  38  58  82 113 148 183 228 284 337
#     4  10  20  35  58  83 109 149 190 226 277 335
#     4  11  20  35  58  85 114 148 185 230 280 335
#     4  11  21  38  60  85 113 147 185 230 280 335
#     4  11  21  36  59  85 111 148 191 232 278 333
#     4  10  20  36  57  85 112 147 190 230 278 333
#     4  10  20  37  57  80 112 150 186 232 282 330
#     4  11  21  37  57  81 115 151 189 234 278 328
#
# _framework density 26.650068999999998
#
# number of rings (size 3 to 8) (size 9 to 14) (size 15 to 20)
#    0.000    1.500    0.000    9.750    0.000    0.000 
#    0.000    8.750    0.000    3.000    0.000    0.000 
#    0.000    0.000    0.000    0.000    0.000    0.000 
#
# Total GULP energy -89522.900688 kJ/mol
# GULP energy per Si atom -5595.181293 kJ/mol
# Density = 2.658941 g / cm^3
# Si number density = 26.650069 Si / 1000 Ang^3
#
#
#
# Elastic Constant Matrix: (Units=GPa)
#
#
# Indices 1 2 3 4 5 6 
#
# 1 144.8564 7.6530 13.0644 -5.4651 13.9589 -11.1860
# 2 7.6530 131.6697 40.6632 -16.7978 16.9298 -7.4404
# 3 13.0644 40.6632 74.9658 -31.8876 11.2450 -9.8015
# 4 -5.4651 -16.7978 -31.8876 44.1124 -6.4762 7.5938
# 5 13.9589 16.9298 11.2450 -6.4762 29.8456 -19.9285
# 6 -11.1860 -7.4404 -9.8015 7.5938 -19.9285 38.4961
#
#
#
# Elastic Compliance Matrix: (Units=1/GPa)
#
#
# Indices 1 2 3 4 5 6 
#
# 1 0.007289 0.000262 -0.001016 -0.000238 -0.002934 0.000438
# 2 0.000262 0.009584 -0.004829 -0.000227 -0.005031 -0.001861
# 3 -0.001016 -0.004829 0.022373 0.013815 -0.001610 0.000909
# 4 -0.000238 -0.000227 0.013815 0.033089 0.000199 -0.003020
# 5 -0.002934 -0.005031 -0.001610 0.000199 0.056337 0.026890
# 6 0.000438 -0.001861 0.000909 -0.003020 0.026890 0.040492
#
#
# Mechanical properties :
#
#
# Convention : Reuss Voigt Hill
#
# Bulk Modulus (GPa) = 35.61534 52.69478 44.15506
# Shear Modulus (GPa) = 26.35893 41.83156 34.09525
#
# Velocity S-wave (km/s) = 3.14837 3.96619 3.58071
# Velocity P-wave (km/s) = 5.15843 6.38671 5.80514
#
# Compressibility (1/GPa) = 0.02807779
#
# Stress axis : x y z
#
# Youngs Moduli (GPa) = 137.19760 104.34358 44.69716
#
# Poissons Ratio (x) = -0.02731 0.04542
# Poissons Ratio (y) = -0.03591 0.21586
# Poissons Ratio (z) = 0.13940 0.50392
#
# Static dielectric constant tensor:
#      x y z
#    x 2.123120 0.020600 -0.092690 
#    y 0.020600 2.018010 0.044160 
#    z -0.092690 0.044160 2.120500 
# 
# From -- ./inp_files/243447.got.cif
#   From: 2010.05.17/outbox.cif.g08.bks.cpg/sg2_122_cif.got.tgz:243447.got - 2010.06.03 11:33:40.
