data_PCOD9095496
_publ_section_title
;
Structure prediction by ZEFSAII (Michael W. Deem and Ramdas Pophale) SiO2 
 PCOD9095496
Probable space group: P -1
;
_chemical_formula_sum "Si O2"
_cell_formula_units_Z 16
_cell_length_a 9.429109
_cell_length_b 10.044765
_cell_length_c 8.996634
_cell_angle_alpha 112.434368
_cell_angle_beta 80.794076
_cell_angle_gamma 116.951606
_cell_volume 701.980795
_symmetry_space_group_name_H-M "P -1"
_symmetry_group_IT_number 2
_symmetry_cell_setting 'triclinic'
loop_
_space_group_symop_operation_xyz
x,y,z
-x,-y,-z
loop_
_atom_site_type_symbol
_atom_site_label
_atom_site_fract_x
_atom_site_fract_y
_atom_site_fract_z
Si Si1 0.510969 0.547009 0.690335
Si Si2 0.413780 0.999625 0.712538
Si Si3 0.755651 0.006136 0.655596
Si Si4 0.900193 0.834674 0.028884
Si Si5 0.727520 0.781751 0.319750
Si Si6 0.139311 0.414883 0.286704
Si Si7 0.364255 0.120462 0.073525
Si Si8 0.111171 0.736588 0.492436
O O1 0.500000 0.500000 0.500000
O O2 0.365080 0.407666 0.738856
O O3 0.675680 0.543332 0.711441
O O4 0.514998 0.721144 0.792204
O O5 0.582327 0.002386 0.649224
O O6 0.385796 0.141486 0.697634
O O7 0.264267 0.840760 0.614652
O O8 0.414433 0.026051 0.901878
O O9 0.876191 0.156649 0.607405
O O10 0.764105 0.855430 0.509651
O O11 0.753168 0.992069 0.827717
O O12 0.931796 0.692251 0.893939
O O13 0.726721 0.803770 0.982284
O O14 0.879043 0.840349 0.210371
O O15 0.000000 0.000000 0.000000
O O16 0.116575 0.575189 0.368178
O O17 0.041988 0.308085 0.397227
#
# Coordination Sequence:
#
# PCOD9095496 Si02
#       8
#     2   2   2   2   2   2   2   2
#     4  11  21  37  55  83 121 144 188 245 281 333
#     4  10  20  35  58  83 113 151 190 236 279 337
#     4  11  19  35  55  87 115 149 190 236 284 340
#     4  10  21  40  60  83 115 148 187 239 281 342
#     4  10  20  35  59  83 108 153 195 226 286 334
#     4  10  21  38  60  83 111 153 191 235 283 337
#     4  10  22  34  56  85 116 147 189 233 296 328
#     4  10  21  37  62  82 111 151 198 229 281 345
#
# _framework density 22.792646000000001
#
# number of rings (size 3 to 8) (size 9 to 14) (size 15 to 20)
#    0.000    1.750    1.250    5.625    0.000    5.500 
#    2.250    1.875    0.000    2.250    0.000    0.000 
#    0.000    0.000    0.000    0.000    0.000    0.000 
#
# Total GULP energy -89349.028104 kJ/mol
# GULP energy per Si atom -5584.314256 kJ/mol
# Density = 2.274077 g / cm^3
# Si number density = 22.792646 Si / 1000 Ang^3
#
#
#
# Elastic Constant Matrix: (Units=GPa)
#
#
# Indices 1 2 3 4 5 6 
#
# 1 37.1406 5.7959 12.9427 -3.2674 -1.3107 -3.9142
# 2 5.7959 122.5426 48.7518 -3.9791 -18.9939 9.4654
# 3 12.9427 48.7518 170.9488 -5.7410 -18.8829 -3.6509
# 4 -3.2674 -3.9791 -5.7410 41.0575 0.2252 -5.4768
# 5 -1.3107 -18.9939 -18.8829 0.2252 33.9808 -8.5059
# 6 -3.9142 9.4654 -3.6509 -5.4768 -8.5059 19.2005
#
#
#
# Elastic Compliance Matrix: (Units=1/GPa)
#
#
# Indices 1 2 3 4 5 6 
#
# 1 0.028715 -0.001028 -0.001436 0.002999 0.001634 0.007667
# 2 -0.001028 0.010024 -0.002533 -0.000053 0.003084 -0.004282
# 3 -0.001436 -0.002533 0.007209 0.001197 0.003593 0.004260
# 4 0.002999 -0.000053 0.001197 0.026022 0.002984 0.009609
# 5 0.001634 0.003084 0.003593 0.002984 0.037430 0.016929
# 6 0.007667 -0.004282 0.004260 0.009609 0.016929 0.066806
#
#
# Mechanical properties :
#
#
# Convention : Reuss Voigt Hill
#
# Bulk Modulus (GPa) = 27.81432 51.73475 39.77453
# Shear Modulus (GPa) = 25.22887 36.39054 30.80971
#
# Velocity S-wave (km/s) = 3.33060 4.00007 3.68059
# Velocity P-wave (km/s) = 5.19810 6.63938 5.96245
#
# Compressibility (1/GPa) = 0.03595271
#
# Stress axis : x y z
#
# Youngs Moduli (GPa) = 34.82499 99.76076 138.71702
#
# Poissons Ratio (x) = 0.10260 0.19917
# Poissons Ratio (y) = 0.03582 0.35142
# Poissons Ratio (z) = 0.05000 0.25273
#
# Static dielectric constant tensor:
#      x y z
#    x 1.908450 0.021420 0.036720 
#    y 0.021420 1.836410 0.013230 
#    z 0.036720 0.013230 1.923620 
# 
# From -- ./inp_files/259998.got.cif
#   From: 2010.05.17/outbox.cif.g08.bks.cpg/sg2_130_cif.got.tgz:259998.got - 2010.06.03 11:33:40.
