data_PCOD9095859
_publ_section_title
;
Structure prediction by ZEFSAII (Michael W. Deem and Ramdas Pophale) SiO2 
 PCOD9095859
Probable space group: P -1
;
_chemical_formula_sum "Si O2"
_cell_formula_units_Z 16
_cell_length_a 11.540501
_cell_length_b 23.365662
_cell_length_c 7.608716
_cell_angle_alpha 134.844781
_cell_angle_beta 118.065861
_cell_angle_gamma 28.415951
_cell_volume 620.338710
_symmetry_space_group_name_H-M "P -1"
_symmetry_group_IT_number 2
_symmetry_cell_setting 'triclinic'
loop_
_space_group_symop_operation_xyz
x,y,z
-x,-y,-z
loop_
_atom_site_type_symbol
_atom_site_label
_atom_site_fract_x
_atom_site_fract_y
_atom_site_fract_z
Si Si1 0.563629 0.992943 0.332218
Si Si2 0.038537 0.787252 0.999931
Si Si3 0.126415 0.970712 0.801219
Si Si4 0.630378 0.461728 0.829387
Si Si5 0.088961 0.574055 0.481421
Si Si6 0.347571 0.230959 0.139319
Si Si7 0.313268 0.742072 0.628753
Si Si8 0.068693 0.358486 0.848124
O O1 0.330865 0.183192 0.547191
O O2 0.500000 0.000000 0.500000
O O3 0.864002 0.860965 0.211269
O O4 0.539390 0.919948 0.064511
O O5 0.902666 0.944352 0.179836
O O6 0.360433 0.631214 0.898279
O O7 0.024942 0.706400 0.714092
O O8 0.390532 0.855669 0.849896
O O9 0.207592 0.832283 0.558771
O O10 0.850954 0.125387 0.048147
O O11 0.764996 0.309364 0.515716
O O12 0.856422 0.407838 0.884886
O O13 0.500000 0.500000 0.000000
O O14 0.368612 0.423811 0.465179
O O15 0.106252 0.521153 0.188426
O O16 0.872748 0.641899 0.590596
O O17 0.208455 0.315243 0.032309
#
# Coordination Sequence:
#
# PCOD9095859 Si02
#       8
#     2   2   2   2   2   2   2   2
#     4   9  17  31  52  86 121 147 193 251 304 353
#     4  10  20  35  60  90 117 159 209 253 305 364
#     4  11  22  39  60  86 126 163 203 251 305 377
#     4  11  21  38  63  90 123 158 207 262 304 361
#     4  10  20  38  61  88 120 156 208 259 304 361
#     4  10  21  36  57  90 122 155 199 253 310 365
#     4  10  23  40  59  86 121 168 206 246 310 365
#     4  11  20  33  60  91 118 153 201 258 313 360
#
# _framework density 25.792361
#
# number of rings (size 3 to 8) (size 9 to 14) (size 15 to 20)
#    0.000    1.750    0.000    6.750    0.000    5.500 
#    0.000    1.250    0.000    7.500    0.000    7.000 
#    0.000    0.000    0.000    0.000    0.000    0.000 
#
# Total GULP energy -89235.518438 kJ/mol
# GULP energy per Si atom -5577.219902 kJ/mol
# Density = 2.573366 g / cm^3
# Si number density = 25.792361 Si / 1000 Ang^3
#
#
#
# Elastic Constant Matrix: (Units=GPa)
#
#
# Indices 1 2 3 4 5 6 
#
# 1 98.5486 32.8610 19.0037 12.1328 -24.4809 9.5862
# 2 32.8610 101.6345 15.4745 6.8383 7.4113 14.2211
# 3 19.0037 15.4745 51.8981 12.7083 -9.7005 5.1254
# 4 12.1328 6.8383 12.7083 31.3448 5.9879 -0.4106
# 5 -24.4809 7.4113 -9.7005 5.9879 28.7706 8.9637
# 6 9.5862 14.2211 5.1254 -0.4106 8.9637 58.9226
#
#
#
# Elastic Compliance Matrix: (Units=1/GPa)
#
#
# Indices 1 2 3 4 5 6 
#
# 1 0.019872 -0.007008 0.002716 -0.011885 0.023812 -0.005483
# 2 -0.007008 0.013386 -0.004609 0.003922 -0.011824 0.000136
# 3 0.002716 -0.004609 0.026662 -0.014114 0.016764 -0.004297
# 4 -0.011885 0.003922 -0.014114 0.046754 -0.027718 0.006757
# 5 0.023812 -0.011824 0.016764 -0.027718 0.073818 -0.013901
# 6 -0.005483 0.000136 -0.004297 0.006757 -0.013901 0.020366
#
#
# Mechanical properties :
#
#
# Convention : Reuss Voigt Hill
#
# Bulk Modulus (GPa) = 23.74304 42.97328 33.35816
# Shear Modulus (GPa) = 21.48674 36.12372 28.80523
#
# Velocity S-wave (km/s) = 2.88942 3.74646 3.34550
# Velocity P-wave (km/s) = 4.51188 5.95080 5.28059
#
# Compressibility (1/GPa) = 0.04211760
#
# Stress axis : x y z
#
# Youngs Moduli (GPa) = 50.32112 74.70411 37.50586
#
# Poissons Ratio (x) = 0.52354 -0.10185
# Poissons Ratio (y) = 0.35266 0.17287
# Poissons Ratio (z) = -0.13665 0.34431
#
# Static dielectric constant tensor:
#      x y z
#    x 2.168660 0.111490 0.142520 
#    y 0.111490 2.104280 -0.018160 
#    z 0.142520 -0.018160 2.162190 
# 
# From -- ./inp_files/284961.got.cif
#   From: 2010.05.17/outbox.cif.g08.bks.cpg/sg2_143_cif.got.tgz:284961.got - 2010.06.03 11:33:40.
