data_PCOD9095604
_publ_section_title
;
Structure prediction by ZEFSAII (Michael W. Deem and Ramdas Pophale) SiO2 
 PCOD9095604
Probable space group: P -1
;
_chemical_formula_sum "Si O2"
_cell_formula_units_Z 16
_cell_length_a 9.528003
_cell_length_b 19.010145
_cell_length_c 10.975682
_cell_angle_alpha 153.187557
_cell_angle_beta 73.526723
_cell_angle_gamma 118.017370
_cell_volume 744.280753
_symmetry_space_group_name_H-M "P -1"
_symmetry_group_IT_number 2
_symmetry_cell_setting 'triclinic'
loop_
_space_group_symop_operation_xyz
x,y,z
-x,-y,-z
loop_
_atom_site_type_symbol
_atom_site_label
_atom_site_fract_x
_atom_site_fract_y
_atom_site_fract_z
Si Si1 0.828692 0.388416 0.290832
Si Si2 0.932183 0.726586 0.017909
Si Si3 0.029061 0.940252 0.558237
Si Si4 0.581850 0.877907 0.322208
Si Si5 0.355307 0.503592 0.681615
Si Si6 0.544726 0.340696 0.733961
Si Si7 0.585300 0.353766 0.471371
Si Si8 0.126406 0.425607 0.853518
O O1 0.758192 0.501356 0.411333
O O2 0.671249 0.267235 0.231755
O O3 0.000000 0.500000 0.500000
O O4 0.906449 0.301217 0.046279
O O5 0.914825 0.822422 0.290474
O O6 0.985198 0.882674 0.144677
O O7 0.753240 0.550833 0.761638
O O8 0.969301 0.788723 0.439574
O O9 0.221604 0.012437 0.586343
O O10 0.541059 0.800006 0.350927
O O11 0.500000 0.000000 0.500000
O O12 0.500777 0.708377 0.987908
O O13 0.446633 0.384540 0.482127
O O14 0.237272 0.463887 0.765950
O O15 0.515234 0.271766 0.495370
O O16 0.500000 0.500000 0.000000
O O17 0.744104 0.453644 0.885945
O O18 0.000000 0.500000 0.000000
#
# Coordination Sequence:
#
# PCOD9095604 Si02
#       8
#     2   2   2   2   2   2   2   2
#     4  10  23  39  62  88 118 163 212 255 295 364
#     4  10  20  35  58  92 122 158 204 239 307 365
#     4  11  20  34  62  89 127 157 188 252 315 361
#     4  11  22  36  59  94 130 159 191 258 316 363
#     4  11  22  40  58  91 123 154 217 247 305 367
#     4  11  20  38  60  92 123 154 207 248 304 363
#     4  11  20  39  64  87 121 167 206 251 297 369
#     4  11  22  34  59  92 124 153 199 256 302 358
#
# _framework density 21.497266
#
# number of rings (size 3 to 8) (size 9 to 14) (size 15 to 20)
#    0.000    1.250    5.000    3.375    3.500    0.000 
#    0.000    0.000    0.000   11.250    0.000    0.000 
#    0.000    0.000    0.000    0.000    0.000    0.000 
#
# Total GULP energy -89213.946472 kJ/mol
# GULP energy per Si atom -5575.871655 kJ/mol
# Density = 2.144834 g / cm^3
# Si number density = 21.497266 Si / 1000 Ang^3
#
#
#
# Elastic Constant Matrix: (Units=GPa)
#
#
# Indices 1 2 3 4 5 6 
#
# 1 153.0791 22.8888 -2.6685 -5.6469 -10.5872 -5.7456
# 2 22.8888 73.7794 3.9355 -0.1541 4.0199 -12.2534
# 3 -2.6685 3.9355 17.4899 4.1249 9.4591 0.9167
# 4 -5.6469 -0.1541 4.1249 20.0907 6.1793 1.2851
# 5 -10.5872 4.0199 9.4591 6.1793 31.2563 -0.9404
# 6 -5.7456 -12.2534 0.9167 1.2851 -0.9404 31.4296
#
#
#
# Elastic Compliance Matrix: (Units=1/GPa)
#
#
# Indices 1 2 3 4 5 6 
#
# 1 0.007103 -0.002260 -0.000061 0.001197 0.002492 0.000445
# 2 -0.002260 0.015459 -0.003302 0.000306 -0.001645 0.005649
# 3 -0.000061 -0.003302 0.070561 -0.008329 -0.019411 -0.003597
# 4 0.001197 0.000306 -0.008329 0.054379 -0.007921 -0.001879
# 5 0.002492 -0.001645 -0.019411 -0.007921 0.040547 0.001917
# 6 0.000445 0.005649 -0.003597 -0.001879 0.001917 0.034340
#
#
# Mechanical properties :
#
#
# Convention : Reuss Voigt Hill
#
# Bulk Modulus (GPa) = 12.21334 32.51778 22.36556
# Shear Modulus (GPa) = 19.16245 31.23481 25.19863
#
# Velocity S-wave (km/s) = 2.98886 3.81592 3.42742
# Velocity P-wave (km/s) = 4.19579 5.87999 5.10779
#
# Compressibility (1/GPa) = 0.08187767
#
# Stress axis : x y z
#
# Youngs Moduli (GPa) = 140.79477 64.68538 14.17217
#
# Poissons Ratio (x) = 0.14616 0.00087
# Poissons Ratio (y) = 0.31813 0.04680
# Poissons Ratio (z) = 0.00860 0.21359
#
# Static dielectric constant tensor:
#      x y z
#    x 1.835200 -0.065760 -0.025450 
#    y -0.065760 1.921970 -0.057780 
#    z -0.025450 -0.057780 1.900210 
# 
# From -- ./inp_files/403563.got.cif
#   From: 2010.05.17/outbox.cif.g08.bks.cpg/sg2_202_cif.got.tgz:403563.got - 2010.06.03 11:33:40.
