data_PCOD9095882
_publ_section_title
;
Structure prediction by ZEFSAII (Michael W. Deem and Ramdas Pophale) SiO2 
 PCOD9095882
Probable space group: P -1
;
_chemical_formula_sum "Si O2"
_cell_formula_units_Z 16
_cell_length_a 8.968005
_cell_length_b 16.202162
_cell_length_c 10.906069
_cell_angle_alpha 41.917812
_cell_angle_beta 41.848834
_cell_angle_gamma 50.581402
_cell_volume 694.629864
_symmetry_space_group_name_H-M "P -1"
_symmetry_group_IT_number 2
_symmetry_cell_setting 'triclinic'
loop_
_space_group_symop_operation_xyz
x,y,z
-x,-y,-z
loop_
_atom_site_type_symbol
_atom_site_label
_atom_site_fract_x
_atom_site_fract_y
_atom_site_fract_z
Si Si1 0.956871 0.229218 0.911461
Si Si2 0.454420 0.115168 0.996909
Si Si3 0.940868 0.059541 0.819520
Si Si4 0.332936 0.783588 0.674729
Si Si5 0.221686 0.258090 0.408123
Si Si6 0.800131 0.920209 0.586405
Si Si7 0.146251 0.565958 0.434397
Si Si8 0.573829 0.689354 0.404104
O O1 0.865248 0.252500 0.080948
O O2 0.805999 0.319951 0.806317
O O3 0.957552 0.082636 0.054925
O O4 0.213629 0.254961 0.729140
O O5 0.676336 0.091466 0.973614
O O6 0.453223 0.244657 0.783527
O O7 0.230752 0.109951 0.219894
O O8 0.500000 0.000000 0.000000
O O9 0.108420 0.149278 0.663059
O O10 0.967151 0.078785 0.632989
O O11 0.559778 0.720421 0.677613
O O12 0.360903 0.735021 0.572859
O O13 0.322681 0.934631 0.515172
O O14 0.288190 0.190783 0.312239
O O15 0.019160 0.376580 0.416453
O O16 0.349707 0.460389 0.472594
O O17 0.000000 0.500000 0.500000
#
# Coordination Sequence:
#
# PCOD9095882 Si02
#       8
#     2   2   2   2   2   2   2   2
#     4  10  20  35  60  92 117 155 192 242 319 345
#     4  12  21  39  65  85 122 163 206 237 298 354
#     4   9  22  37  59  96 118 155 196 250 306 341
#     4  11  19  37  61  94 122 149 192 254 315 350
#     4  10  21  40  59  88 133 148 192 260 297 358
#     4   9  22  36  56  93 123 148 196 247 305 342
#     4  10  21  41  60  84 128 159 196 247 295 359
#     4  11  23  40  59  91 123 156 205 250 282 361
#
# _framework density 23.033850000000001
#
# number of rings (size 3 to 8) (size 9 to 14) (size 15 to 20)
#    0.750    1.000    5.000    0.375    0.000    3.500 
#    0.000    1.250    0.000    0.000    0.000    0.000 
#    0.000    0.000    0.000    0.000    0.000    0.000 
#
# Total GULP energy -89219.738044 kJ/mol
# GULP energy per Si atom -5576.233628 kJ/mol
# Density = 2.298142 g / cm^3
# Si number density = 23.033850 Si / 1000 Ang^3
#
#
#
# Elastic Constant Matrix: (Units=GPa)
#
#
# Indices 1 2 3 4 5 6 
#
# 1 32.9227 -1.0942 5.6768 -7.0547 7.2021 -4.1479
# 2 -1.0942 118.7447 35.6099 -3.8985 23.6694 -6.5673
# 3 5.6768 35.6099 95.5451 8.3982 25.9328 -1.7308
# 4 -7.0547 -3.8985 8.3982 44.4956 -1.2978 9.9233
# 5 7.2021 23.6694 25.9328 -1.2978 37.1479 -2.2211
# 6 -4.1479 -6.5673 -1.7308 9.9233 -2.2211 22.9409
#
#
#
# Elastic Compliance Matrix: (Units=1/GPa)
#
#
# Indices 1 2 3 4 5 6 
#
# 1 0.033685 0.002452 -0.001447 0.004745 -0.006679 0.003984
# 2 0.002452 0.010428 -0.002727 0.001173 -0.005042 0.002227
# 3 -0.001447 -0.002727 0.014021 -0.003517 -0.007847 0.000777
# 4 0.004745 0.001173 -0.003517 0.026335 0.001088 -0.010357
# 5 -0.006679 -0.005042 -0.007847 0.001088 0.036935 -0.000138
# 6 0.003984 0.002227 0.000777 -0.010357 -0.000138 0.049474
#
#
# Mechanical properties :
#
#
# Convention : Reuss Voigt Hill
#
# Bulk Modulus (GPa) = 18.28468 36.39973 27.34220
# Shear Modulus (GPa) = 25.96693 34.71823 30.34258
#
# Velocity S-wave (km/s) = 3.36123 3.88657 3.63341
# Velocity P-wave (km/s) = 4.79783 5.99813 5.43124
#
# Compressibility (1/GPa) = 0.05469058
#
# Stress axis : x y z
#
# Youngs Moduli (GPa) = 29.68679 95.89114 71.31935
#
# Poissons Ratio (x) = -0.23511 0.10323
# Poissons Ratio (y) = -0.07279 0.19446
# Poissons Ratio (z) = 0.04297 0.26145
#
# Static dielectric constant tensor:
#      x y z
#    x 1.938970 0.071620 0.069340 
#    y 0.071620 1.930670 0.045500 
#    z 0.069340 0.045500 1.905720 
# 
# From -- ./inp_files/435447.got.cif
#   From: 2010.05.17/outbox.cif.g08.bks.cpg/sg2_218_cif.got.tgz:435447.got - 2010.06.03 11:33:40.
