data_PCOD9095731
_publ_section_title
;
Structure prediction by ZEFSAII (Michael W. Deem and Ramdas Pophale) SiO2 
 PCOD9095731
Probable space group: P -1
;
_chemical_formula_sum "Si O2"
_cell_formula_units_Z 13
_cell_length_a 10.885053
_cell_length_b 12.417492
_cell_length_c 5.215814
_cell_angle_alpha 68.530827
_cell_angle_beta 51.552734
_cell_angle_gamma 56.275298
_cell_volume 458.988629
_symmetry_space_group_name_H-M "P -1"
_symmetry_group_IT_number 2
_symmetry_cell_setting 'triclinic'
loop_
_space_group_symop_operation_xyz
x,y,z
-x,-y,-z
loop_
_atom_site_type_symbol
_atom_site_label
_atom_site_fract_x
_atom_site_fract_y
_atom_site_fract_z
Si Si1 0.646873 0.421486 0.097769
Si Si2 0.048485 0.708715 0.539543
Si Si3 0.676505 0.758453 0.500021
Si Si4 0.904938 0.113586 0.314365
Si Si5 0.000000 0.500000 0.500000
Si Si6 0.586649 0.664722 0.181031
Si Si7 0.780370 0.945084 0.426675
O O1 0.724864 0.519123 0.019750
O O2 0.550178 0.375725 0.471492
O O3 0.500000 0.500000 0.000000
O O4 0.803948 0.307046 0.849887
O O5 0.123566 0.750191 0.651154
O O6 0.040603 0.574577 0.634101
O O7 0.861060 0.833343 0.634817
O O8 0.643904 0.727486 0.282306
O O9 0.664327 0.898532 0.449259
O O10 0.870011 0.647338 0.422087
O O11 0.549714 0.741932 0.894978
O O12 0.740793 0.086182 0.463929
O O13 0.000000 0.000000 0.500000
O O14 0.054399 0.082059 0.940489
#
# Coordination Sequence:
#
# PCOD9095731 Si02
#       7
#     2   2   2   2   1   2   2
#     4  11  22  40  58  87 123 170 210 245 294 366
#     4  10  20  35  59  90 122 159 198 252 298 368
#     4  11  23  38  60  89 124 161 198 257 303 368
#     4   9  19  37  58  86 120 155 202 245 313 366
#     4  10  20  36  52  96 124 156 194 244 316 364
#     4  11  23  39  57  84 121 167 206 241 300 354
#     4   9  21  36  59  92 117 159 196 254 313 365
#
# _framework density 28.323139999999999
#
# number of rings (size 3 to 8) (size 9 to 14) (size 15 to 20)
#    0.000    1.846    3.077    0.000    6.462    4.308 
#    0.000    0.000    0.000    1.846    0.000    0.000 
#    0.000    0.000    0.000    0.000    0.000    0.000 
#
# Total GULP energy -72472.287295 kJ/mol
# GULP energy per Si atom -5574.791330 kJ/mol
# Density = 2.825868 g / cm^3
# Si number density = 28.323140 Si / 1000 Ang^3
#
#
#
# Elastic Constant Matrix: (Units=GPa)
#
#
# Indices 1 2 3 4 5 6 
#
# 1 121.1538 86.7813 16.3604 4.6554 17.5810 23.0896
# 2 86.7813 180.5279 24.5514 -11.2803 -2.4023 73.2130
# 3 16.3604 24.5514 143.3680 -5.4055 10.8844 19.9515
# 4 4.6554 -11.2803 -5.4055 38.0863 14.3225 0.7723
# 5 17.5810 -2.4023 10.8844 14.3225 27.6635 8.5377
# 6 23.0896 73.2130 19.9515 0.7723 8.5377 97.2586
#
#
#
# Elastic Compliance Matrix: (Units=1/GPa)
#
#
# Indices 1 2 3 4 5 6 
#
# 1 0.016298 -0.009941 0.000133 -0.000284 -0.012575 0.004693
# 2 -0.009941 0.014392 -0.000714 0.001918 0.009693 -0.009194
# 3 0.000133 -0.000714 0.007589 0.002434 -0.004176 -0.000703
# 4 -0.000284 0.001918 0.002434 0.034000 -0.018040 -0.000562
# 5 -0.012575 0.009693 -0.004176 -0.018040 0.058574 -0.008453
# 6 0.004693 -0.009194 -0.000703 -0.000562 -0.008453 0.016979
#
#
# Mechanical properties :
#
#
# Convention : Reuss Voigt Hill
#
# Bulk Modulus (GPa) = 58.02001 77.82621 67.92311
# Shear Modulus (GPa) = 28.63333 53.75879 41.19606
#
# Velocity S-wave (km/s) = 3.18300 4.36139 3.81793
# Velocity P-wave (km/s) = 5.83422 7.27323 6.59310
#
# Compressibility (1/GPa) = 0.01723543
#
# Stress axis : x y z
#
# Youngs Moduli (GPa) = 61.35779 69.48078 131.77248
#
# Poissons Ratio (x) = 0.69070 -0.01759
# Poissons Ratio (y) = 0.60995 0.09415
# Poissons Ratio (z) = -0.00819 0.04964
#
# Static dielectric constant tensor:
#      x y z
#    x 2.186670 0.084040 0.252300 
#    y 0.084040 2.280260 0.016100 
#    z 0.252300 0.016100 1.974380 
# 
# From -- ./inp_files/66037.got.cif
#   From: 2010.05.17/outbox.cif.g08.bks.cpg/sg2_34_cif.got.tgz:66037.got - 2010.06.03 11:33:40.
