data_PCOD9095165
_publ_section_title
;
Structure prediction by ZEFSAII (Michael W. Deem and Ramdas Pophale) SiO2 
 PCOD9095165
Probable space group: P -1
;
_chemical_formula_sum "Si O2"
_cell_formula_units_Z 12
_cell_length_a 14.461806
_cell_length_b 8.035072
_cell_length_c 7.813312
_cell_angle_alpha 134.088174
_cell_angle_beta 73.417725
_cell_angle_gamma 122.761641
_cell_volume 542.120502
_symmetry_space_group_name_H-M "P -1"
_symmetry_group_IT_number 2
_symmetry_cell_setting 'triclinic'
loop_
_space_group_symop_operation_xyz
x,y,z
-x,-y,-z
loop_
_atom_site_type_symbol
_atom_site_label
_atom_site_fract_x
_atom_site_fract_y
_atom_site_fract_z
Si Si1 0.426877 0.369372 0.185038
Si Si2 0.844973 0.789773 0.287985
Si Si3 0.939144 0.615158 0.408447
Si Si4 0.070565 0.315177 0.157172
Si Si5 0.432177 0.778463 0.234326
Si Si6 0.648310 0.854051 0.581792
O O1 0.531767 0.616691 0.400134
O O2 0.345398 0.196624 0.256142
O O3 0.381741 0.497809 0.161220
O O4 0.480152 0.219268 0.946833
O O5 0.858107 0.619257 0.311384
O O6 0.742957 0.834756 0.414160
O O7 0.844638 0.653988 0.012628
O O8 0.954352 0.085030 0.436817
O O9 0.888421 0.556580 0.585136
O O10 0.988675 0.420170 0.209306
O O11 0.000000 0.000000 0.000000
O O12 0.500000 0.000000 0.500000
O O13 0.355240 0.876354 0.255399
#
# Coordination Sequence:
#
# PCOD9095165 Si02
#       6
#     2   2   2   2   2   2
#     4   9  19  37  56  77 114 148 182 232 279 333
#     4  10  20  35  55  84 110 145 189 228 282 335
#     4   9  19  37  56  77 114 148 182 232 279 333
#     4   9  18  36  57  77 109 149 183 229 283 331
#     4   9  18  36  57  77 109 149 183 229 283 331
#     4  10  20  35  55  84 110 145 189 228 282 335
#
# _framework density 22.135300000000001
#
# number of rings (size 3 to 8) (size 9 to 14) (size 15 to 20)
#    0.000    2.667    0.000    1.000    0.000    1.333 
#   18.000    0.000    0.000    0.000    0.000    0.000 
#    0.000    0.000    0.000    0.000    0.000    0.000 
#
# Total GULP energy -67020.209356 kJ/mol
# GULP energy per Si atom -5585.017446 kJ/mol
# Density = 2.208492 g / cm^3
# Si number density = 22.135300 Si / 1000 Ang^3
#
#
#
# Elastic Constant Matrix: (Units=GPa)
#
#
# Indices 1 2 3 4 5 6 
#
# 1 76.3788 50.0822 42.4567 -13.3417 -35.1474 -22.6586
# 2 50.0822 75.5932 64.5500 -23.3009 -26.2933 -22.0767
# 3 42.4567 64.5500 134.8374 -19.9192 -49.0070 -18.2463
# 4 -13.3417 -23.3009 -19.9192 40.4654 5.7361 5.0132
# 5 -35.1474 -26.2933 -49.0070 5.7361 38.7612 16.0309
# 6 -22.6586 -22.0767 -18.2463 5.0132 16.0309 24.6883
#
#
#
# Elastic Compliance Matrix: (Units=1/GPa)
#
#
# Indices 1 2 3 4 5 6 
#
# 1 0.035896 -0.021498 0.010161 -0.000019 0.030124 0.001675
# 2 -0.021498 0.043797 -0.018157 0.010031 -0.021697 0.018066
# 3 0.010161 -0.018157 0.022216 0.000916 0.028702 -0.009315
# 4 -0.000019 0.010031 0.000916 0.030334 0.002763 0.001675
# 5 0.030124 -0.021697 0.028702 0.002763 0.085209 -0.026431
# 6 0.001675 0.018066 -0.009315 0.001675 -0.026431 0.068135
#
#
# Mechanical properties :
#
#
# Convention : Reuss Voigt Hill
#
# Bulk Modulus (GPa) = 23.29775 66.77633 45.03704
# Shear Modulus (GPa) = 13.93216 29.43102 21.68159
#
# Velocity S-wave (km/s) = 2.51152 3.65032 3.13310
# Velocity P-wave (km/s) = 4.35412 6.92815 5.78609
#
# Compressibility (1/GPa) = 0.04292260
#
# Stress axis : x y z
#
# Youngs Moduli (GPa) = 27.85792 22.83236 45.01310
#
# Poissons Ratio (x) = 0.49085 -0.45739
# Poissons Ratio (y) = 0.59889 0.81730
# Poissons Ratio (z) = -0.28307 0.41456
#
# Static dielectric constant tensor:
#      x y z
#    x 1.796580 -0.021000 0.021490 
#    y -0.021000 1.833310 -0.008260 
#    z 0.021490 -0.008260 1.796150 
# 
# From -- ./inp_files/33531.got.cif
#   From: 2010.05.17/outbox.cif.g08.bks.cpg/sg2_17_cif.got.tgz:33531.got - 2010.06.03 11:33:40.
