data_PCOD9095975
_publ_section_title
;
Structure prediction by ZEFSAII (Michael W. Deem and Ramdas Pophale) SiO2 
 PCOD9095975
Probable space group: P -1
;
_chemical_formula_sum "Si O2"
_cell_formula_units_Z 16
_cell_length_a 10.477235
_cell_length_b 11.831265
_cell_length_c 18.562537
_cell_angle_alpha 25.336608
_cell_angle_beta 134.888426
_cell_angle_gamma 133.016670
_cell_volume 690.115673
_symmetry_space_group_name_H-M "P -1"
_symmetry_group_IT_number 2
_symmetry_cell_setting 'triclinic'
loop_
_space_group_symop_operation_xyz
x,y,z
-x,-y,-z
loop_
_atom_site_type_symbol
_atom_site_label
_atom_site_fract_x
_atom_site_fract_y
_atom_site_fract_z
Si Si1 0.353260 0.285896 0.766477
Si Si2 0.759587 0.241659 0.925448
Si Si3 0.357439 0.144373 0.140885
Si Si4 0.702125 0.407904 0.645350
Si Si5 0.149737 0.084655 0.660172
Si Si6 0.178493 0.312119 0.215906
Si Si7 0.489916 0.874130 0.489081
Si Si8 0.293568 0.571092 0.961646
O O1 0.564834 0.257764 0.878211
O O2 0.150152 0.347012 0.462526
O O3 0.346511 0.599826 0.589206
O O4 0.296517 0.181071 0.724682
O O5 0.737536 0.346431 0.777218
O O6 0.894466 0.437161 0.917783
O O7 0.771372 0.927284 0.110761
O O8 0.228303 0.348258 0.003186
O O9 0.285809 0.862746 0.237971
O O10 0.455019 0.058459 0.302487
O O11 0.499052 0.312341 0.045859
O O12 0.500000 0.500000 0.500000
O O13 0.966837 0.948501 0.704038
O O14 0.206135 0.842189 0.775842
O O15 0.311976 0.216012 0.384454
O O16 0.274879 0.427733 0.114629
O O17 0.500000 0.000000 0.500000
#
# Coordination Sequence:
#
# PCOD9095975 Si02
#       8
#     2   2   2   2   2   2   2   2
#     4  10  20  35  61  89 119 162 219 255 304 379
#     4  10  21  36  61  91 123 161 218 265 303 361
#     4  11  23  40  66  97 122 169 218 264 320 369
#     4  12  21  39  64  92 127 168 221 266 303 384
#     4  12  23  41  65  96 130 170 212 261 328 382
#     4  11  24  40  64  97 128 169 212 264 324 380
#     4  11  22  41  63  93 128 167 218 265 311 379
#     4  11  23  39  63  94 132 164 208 269 318 382
#
# _framework density 23.184519999999999
#
# number of rings (size 3 to 8) (size 9 to 14) (size 15 to 20)
#    0.000    1.000    6.250    1.125    3.500    0.500 
#    0.000    2.500    0.000    0.750    0.000    0.000 
#    0.000    0.000    0.000    0.000    0.000    0.000 
#
# Total GULP energy -89291.432426 kJ/mol
# GULP energy per Si atom -5580.714527 kJ/mol
# Density = 2.313175 g / cm^3
# Si number density = 23.184520 Si / 1000 Ang^3
#
#
#
# Elastic Constant Matrix: (Units=GPa)
#
#
# Indices 1 2 3 4 5 6 
#
# 1 62.2994 46.3551 45.6517 -15.2654 -28.9795 -22.1738
# 2 46.3551 134.4439 48.3491 -41.0898 -16.3009 -17.6327
# 3 45.6517 48.3491 122.6624 -28.8124 -42.6519 -4.3840
# 4 -15.2654 -41.0898 -28.8124 47.1882 -1.6812 1.6346
# 5 -28.9795 -16.3009 -42.6519 -1.6812 45.4533 -8.2617
# 6 -22.1738 -17.6327 -4.3840 1.6346 -8.2617 35.3103
#
#
#
# Elastic Compliance Matrix: (Units=1/GPa)
#
#
# Indices 1 2 3 4 5 6 
#
# 1 0.061961 -0.004606 0.001113 0.016791 0.048102 0.047225
# 2 -0.004606 0.012758 -0.000016 0.009577 0.002642 0.003651
# 3 0.001113 -0.000016 0.016891 0.011080 0.018149 0.006522
# 4 0.016791 0.009577 0.011080 0.042045 0.030053 0.021788
# 5 0.048102 0.002642 0.018149 0.030053 0.081093 0.051361
# 6 0.047225 0.003651 0.006522 0.021788 0.051361 0.071618
#
#
# Mechanical properties :
#
#
# Convention : Reuss Voigt Hill
#
# Bulk Modulus (GPa) = 11.82145 66.67973 39.25059
# Shear Modulus (GPa) = 15.54813 37.52701 26.53757
#
# Velocity S-wave (km/s) = 2.59245 4.02758 3.38690
# Velocity P-wave (km/s) = 3.75113 7.10291 5.67989
#
# Compressibility (1/GPa) = 0.08459199
#
# Stress axis : x y z
#
# Youngs Moduli (GPa) = 16.13907 78.38130 59.20314
#
# Poissons Ratio (x) = 0.36105 -0.06589
# Poissons Ratio (y) = 0.07434 0.00094
# Poissons Ratio (z) = -0.01796 0.00124
#
# Static dielectric constant tensor:
#      x y z
#    x 1.970190 0.005150 0.067700 
#    y 0.005150 1.921910 -0.076250 
#    z 0.067700 -0.076250 1.963650 
# 
# From -- ./inp_files/567814.got.cif
#   From: 2010.05.17/outbox.cif.g08.bks.cpg/sg2_284_cif.got.tgz:567814.got - 2010.06.03 11:33:40.
