data_PCOD9095789
_publ_section_title
;
Structure prediction by ZEFSAII (Michael W. Deem and Ramdas Pophale) SiO2 
 PCOD9095789
Probable space group: P -1
;
_chemical_formula_sum "Si O2"
_cell_formula_units_Z 14
_cell_length_a 14.556812
_cell_length_b 11.304933
_cell_length_c 7.433476
_cell_angle_alpha 139.883246
_cell_angle_beta 51.428462
_cell_angle_gamma 134.287147
_cell_volume 553.518311
_symmetry_space_group_name_H-M "P -1"
_symmetry_group_IT_number 2
_symmetry_cell_setting 'triclinic'
loop_
_space_group_symop_operation_xyz
x,y,z
-x,-y,-z
loop_
_atom_site_type_symbol
_atom_site_label
_atom_site_fract_x
_atom_site_fract_y
_atom_site_fract_z
Si Si1 0.387309 0.562315 0.181499
Si Si2 0.442942 0.968743 0.742670
Si Si3 0.703941 0.187405 0.899606
Si Si4 0.173735 0.514896 0.170230
Si Si5 0.066483 0.856753 0.320570
Si Si6 0.119044 0.262157 0.264939
Si Si7 0.172086 0.882489 0.842571
O O1 0.447292 0.804157 0.407010
O O2 0.309573 0.496019 0.012310
O O3 0.265168 0.440735 0.320922
O O4 0.500000 0.500000 0.000000
O O5 0.324377 0.018349 0.879033
O O6 0.587400 0.105589 0.801489
O O7 0.371249 0.831532 0.847075
O O8 0.813721 0.411382 0.963774
O O9 0.788390 0.057615 0.668267
O O10 0.082240 0.324860 0.187292
O O11 0.175259 0.708721 0.505021
O O12 0.973091 0.737776 0.461158
O O13 0.093751 0.778410 0.002842
O O14 0.000000 0.000000 0.500000
O O15 0.130478 0.049595 0.003692
#
# Coordination Sequence:
#
# PCOD9095789 Si02
#       7
#     2   2   2   2   2   2   2
#     4   9  20  36  58  87 116 151 192 235 285 346
#     4   9  20  37  59  88 114 157 191 234 294 341
#     4  10  20  35  60  84 122 149 192 242 289 345
#     4   9  21  33  57  92 108 154 189 234 298 330
#     4   9  19  39  60  79 114 159 195 234 285 347
#     4   9  20  35  59  85 116 147 199 235 275 349
#     4   9  18  36  62  82 114 156 191 232 284 348
#
# _framework density 25.292752
#
# number of rings (size 3 to 8) (size 9 to 14) (size 15 to 20)
#    0.857    2.000    0.000    0.000    4.000    2.286 
#    0.000    3.571    9.429    0.000    0.000    0.000 
#    0.000    0.000    0.000    0.000    0.000    0.000 
#
# Total GULP energy -77948.436712 kJ/mol
# GULP energy per Si atom -5567.745479 kJ/mol
# Density = 2.523518 g / cm^3
# Si number density = 25.292752 Si / 1000 Ang^3
#
#
#
# Elastic Constant Matrix: (Units=GPa)
#
#
# Indices 1 2 3 4 5 6 
#
# 1 117.8181 19.3479 27.7572 -1.1486 -26.1572 -9.0985
# 2 19.3479 141.0601 7.5581 -11.1521 -10.0686 -2.9054
# 3 27.7572 7.5581 42.0156 -1.6140 -16.0870 4.1704
# 4 -1.1486 -11.1521 -1.6140 50.1408 -1.1287 -1.3689
# 5 -26.1572 -10.0686 -16.0870 -1.1287 41.8124 -7.1909
# 6 -9.0985 -2.9054 4.1704 -1.3689 -7.1909 39.6941
#
#
#
# Elastic Compliance Matrix: (Units=1/GPa)
#
#
# Indices 1 2 3 4 5 6 
#
# 1 0.011528 -0.000779 -0.005770 0.000144 0.005530 0.004198
# 2 -0.000779 0.007457 -0.000313 0.001680 0.001354 0.000703
# 3 -0.005770 -0.000313 0.030969 0.000882 0.007708 -0.003172
# 4 0.000144 0.001680 0.000882 0.020413 0.001566 0.001051
# 5 0.005530 0.001354 0.007708 0.001566 0.031806 0.006373
# 6 0.004198 0.000703 -0.003172 0.001051 0.006373 0.027730
#
#
# Mechanical properties :
#
#
# Convention : Reuss Voigt Hill
#
# Bulk Modulus (GPa) = 27.60208 45.58003 36.59106
# Shear Modulus (GPa) = 32.11197 42.74485 37.42841
#
# Velocity S-wave (km/s) = 3.56703 4.11543 3.85100
# Velocity P-wave (km/s) = 5.28220 6.37514 5.85423
#
# Compressibility (1/GPa) = 0.03622915
#
# Stress axis : x y z
#
# Youngs Moduli (GPa) = 86.74225 134.10519 32.29048
#
# Poissons Ratio (x) = 0.10453 0.18630
# Poissons Ratio (y) = 0.06761 0.01012
# Poissons Ratio (z) = 0.50047 0.04203
#
# Static dielectric constant tensor:
#      x y z
#    x 2.122120 0.027820 0.065920 
#    y 0.027820 2.151890 -0.014670 
#    z 0.065920 -0.014670 1.958330 
# 
# From -- ./inp_files/277680.got.cif
#   From: 2010.05.17/outbox.cif.g08.bks.cpg/sg2_139_cif.got.tgz:277680.got - 2010.06.03 11:33:40.
