data_PCOD9095446
_publ_section_title
;
Structure prediction by ZEFSAII (Michael W. Deem and Ramdas Pophale) SiO2 
 PCOD9095446
Probable space group: P -1
;
_chemical_formula_sum "Si O2"
_cell_formula_units_Z 16
_cell_length_a 13.937313
_cell_length_b 14.668778
_cell_length_c 14.282611
_cell_angle_alpha 30.117117
_cell_angle_beta 145.836827
_cell_angle_gamma 127.732767
_cell_volume 764.947050
_symmetry_space_group_name_H-M "P -1"
_symmetry_group_IT_number 2
_symmetry_cell_setting 'triclinic'
loop_
_space_group_symop_operation_xyz
x,y,z
-x,-y,-z
loop_
_atom_site_type_symbol
_atom_site_label
_atom_site_fract_x
_atom_site_fract_y
_atom_site_fract_z
Si Si1 0.772503 0.905503 0.661094
Si Si2 0.073459 0.848120 0.813773
Si Si3 0.345302 0.322420 0.789697
Si Si4 0.955944 0.477464 0.267362
Si Si5 0.854494 0.800050 0.506469
Si Si6 0.535089 0.865824 0.338944
Si Si7 0.635156 0.429546 0.586460
Si Si8 0.386427 0.656522 0.844931
O O1 0.641649 0.838972 0.546970
O O2 0.896351 0.961181 0.632819
O O3 0.674488 0.117189 0.441104
O O4 0.876494 0.713364 0.977798
O O5 0.012469 0.782091 0.726468
O O6 0.187124 0.985360 0.762629
O O7 0.174142 0.666169 0.121854
O O8 0.388955 0.408367 0.652617
O O9 0.122578 0.417769 0.531228
O O10 0.473480 0.357298 0.943217
O O11 0.411626 0.092105 0.033040
O O12 0.790155 0.401574 0.221874
O O13 0.057333 0.358390 0.361666
O O14 0.681405 0.802953 0.426419
O O15 0.408045 0.741778 0.346247
O O16 0.500000 0.500000 0.500000
O O17 0.500000 0.500000 0.000000
#
# Coordination Sequence:
#
# PCOD9095446 Si02
#       8
#     2   2   2   2   2   2   2   2
#     4  10  22  42  64  93 124 168 217 265 327 395
#     4  10  20  35  57  89 134 171 217 250 301 381
#     4  11  25  44  66 100 131 172 224 262 320 394
#     4  12  23  41  72  94 129 171 216 267 332 383
#     4  10  21  36  58  91 133 185 212 250 308 380
#     4  10  23  38  58  90 141 179 215 259 306 377
#     4  12  23  34  59  95 137 178 214 256 306 374
#     4  11  27  50  71  93 126 165 216 287 345 388
#
# _framework density 20.91648
#
# number of rings (size 3 to 8) (size 9 to 14) (size 15 to 20)
#    0.000    1.250    2.500    3.000    5.250    3.500 
#    0.000    0.625    0.000    0.000    0.000    0.000 
#    0.000    0.000    0.000    0.000    0.000    0.000 
#
# Total GULP energy -89307.772379 kJ/mol
# GULP energy per Si atom -5581.735774 kJ/mol
# Density = 2.086887 g / cm^3
# Si number density = 20.916480 Si / 1000 Ang^3
#
#
#
# Elastic Constant Matrix: (Units=GPa)
#
#
# Indices 1 2 3 4 5 6 
#
# 1 16.6537 26.7855 6.9431 -2.6651 34.2299 7.0847
# 2 26.7855 72.4067 33.3955 -1.0082 14.7401 11.2480
# 3 6.9431 33.3955 101.1710 0.0160 19.8026 5.5552
# 4 -2.6651 -1.0082 0.0160 33.3612 1.0300 7.5021
# 5 34.2299 14.7401 19.8026 1.0300 -4.2027 -13.4073
# 6 7.0847 11.2480 5.5552 7.5021 -13.4073 27.1110
#
#
#
# Elastic Compliance Matrix: (Units=1/GPa)
#
#
# Indices 1 2 3 4 5 6 
#
# 1 0.017603 -0.013359 -0.003195 -0.003565 0.028067 0.016463
# 2 -0.013359 0.024595 -0.004775 0.002443 -0.009308 -0.011014
# 3 -0.003195 -0.004775 0.011068 -0.000949 0.002544 0.002069
# 4 -0.003565 0.002443 -0.000949 0.031135 0.003810 -0.006619
# 5 0.028067 -0.009308 0.002544 0.003810 -0.005031 -0.007536
# 6 0.016463 -0.011014 0.002069 -0.006619 -0.007536 0.034834
#
#
# Mechanical properties :
#
#
# Convention : Reuss Voigt Hill
#
# Bulk Modulus (GPa) = 94.27738 36.05330 65.16534
# Shear Modulus (GPa) = 31.17209 19.46104 25.31656
#
# Velocity S-wave (km/s) = 3.86464 3.05358 3.48280
# Velocity P-wave (km/s) = 8.06753 5.45038 6.88447
#
# Compressibility (1/GPa) = 0.01060700
#
# Stress axis : x y z
#
# Youngs Moduli (GPa) = 56.80853 40.65833 90.34723
#
# Poissons Ratio (x) = 0.54315 0.28870
# Poissons Ratio (y) = 0.75890 0.43145
# Poissons Ratio (z) = 0.18153 0.19416
#
# Static dielectric constant tensor:
#      x y z
#    x 1.745040 0.031870 0.029870 
#    y 0.031870 1.792020 0.020080 
#    z 0.029870 0.020080 1.785780 
# 
# From -- ./inp_files/221929.got.cif
#   From: 2010.05.17/outbox.cif.g08.bks.cpg/sg2_111_cif.got.tgz:221929.got - 2010.06.03 11:33:40.
