data_PCOD9095003
_publ_section_title
;
Structure prediction by ZEFSAII (Michael W. Deem and Ramdas Pophale) SiO2 
 PCOD9095003
Probable space group: P -1
;
_chemical_formula_sum "Si O2"
_cell_formula_units_Z 16
_cell_length_a 11.044110
_cell_length_b 8.248121
_cell_length_c 11.860753
_cell_angle_alpha 83.402191
_cell_angle_beta 34.181294
_cell_angle_gamma 90.460844
_cell_volume 592.604348
_symmetry_space_group_name_H-M "P -1"
_symmetry_group_IT_number 2
_symmetry_cell_setting 'triclinic'
loop_
_space_group_symop_operation_xyz
x,y,z
-x,-y,-z
loop_
_atom_site_type_symbol
_atom_site_label
_atom_site_fract_x
_atom_site_fract_y
_atom_site_fract_z
Si Si1 0.569219 0.569786 0.613715
Si Si2 0.638765 0.033132 0.065735
Si Si3 0.003412 0.662515 0.162724
Si Si4 0.199478 0.148470 0.856182
Si Si5 0.748930 0.404936 0.677709
Si Si6 0.621541 0.823804 0.885594
Si Si7 0.019504 0.696932 0.694889
Si Si8 0.629592 0.261966 0.421716
O O1 0.804039 0.684534 0.398462
O O2 0.591036 0.516680 0.729713
O O3 0.584007 0.412138 0.530610
O O4 0.380938 0.659239 0.700628
O O5 0.411013 0.099676 0.218093
O O6 0.691854 0.875230 0.105660
O O7 0.682553 0.981306 0.909608
O O8 0.801807 0.188954 0.975279
O O9 0.894925 0.689347 0.122578
O O10 0.048899 0.484366 0.178933
O O11 0.406408 0.131935 0.619447
O O12 0.000000 0.000000 0.000000
O O13 0.604657 0.299863 0.893145
O O14 0.000000 0.500000 0.500000
O O15 0.798127 0.289856 0.545274
O O16 0.814291 0.730285 0.779448
O O17 0.154872 0.792985 0.688827
#
# Coordination Sequence:
#
# PCOD9095003 Si02
#       8
#     2   2   2   2   2   2   2   2
#     4   8  14  27  52  79 104 137 177 224 276 321
#     4  10  20  35  52  79 117 150 183 221 272 338
#     4   8  16  32  58  83 106 143 185 230 280 323
#     4   9  16  30  56  81 108 149 185 221 277 333
#     4  10  20  35  56  82 112 145 183 228 277 327
#     4  11  23  37  56  83 115 150 184 224 275 331
#     4  10  21  37  60  86 109 141 188 236 276 319
#     4   8  14  29  51  79 107 136 180 227 271 320
#
# _framework density 26.999462999999999
#
# number of rings (size 3 to 8) (size 9 to 14) (size 15 to 20)
#    0.000    3.000    0.000    3.750    0.000    2.000 
#    0.000    8.125    0.000   17.250    0.000    0.000 
#    0.000    0.000    0.000    0.000    0.000    0.000 
#
# Total GULP energy -89150.651349 kJ/mol
# GULP energy per Si atom -5571.915709 kJ/mol
# Density = 2.693801 g / cm^3
# Si number density = 26.999463 Si / 1000 Ang^3
#
#
#
# Elastic Constant Matrix: (Units=GPa)
#
#
# Indices 1 2 3 4 5 6 
#
# 1 124.9211 54.8872 37.4391 6.7166 -24.7486 -56.1731
# 2 54.8872 95.9037 36.0942 18.6336 -15.0116 -57.7461
# 3 37.4391 36.0942 86.4196 6.5190 -33.3016 -10.3467
# 4 6.7166 18.6336 6.5190 29.3224 -6.7436 -8.8747
# 5 -24.7486 -15.0116 -33.3016 -6.7436 41.0142 8.4354
# 6 -56.1731 -57.7461 -10.3467 -8.8747 8.4354 78.1420
#
#
#
# Elastic Compliance Matrix: (Units=1/GPa)
#
#
# Indices 1 2 3 4 5 6 
#
# 1 0.014044 -0.001719 -0.002960 0.001957 0.004073 0.008216
# 2 -0.001719 0.025516 -0.008669 -0.009963 -0.003610 0.015731
# 3 -0.002960 -0.008669 0.020738 0.002627 0.013745 -0.006974
# 4 0.001957 -0.009963 0.002627 0.040410 0.006669 -0.001738
# 5 0.004073 -0.003610 0.013745 0.006669 0.038036 -0.001268
# 6 0.008216 0.015731 -0.006974 -0.001738 -0.001268 0.029344
#
#
# Mechanical properties :
#
#
# Convention : Reuss Voigt Hill
#
# Bulk Modulus (GPa) = 29.76028 62.67616 46.21822
# Shear Modulus (GPa) = 24.27360 41.61732 32.94546
#
# Velocity S-wave (km/s) = 3.00165 3.93034 3.49696
# Velocity P-wave (km/s) = 4.80205 6.62277 5.78449
#
# Compressibility (1/GPa) = 0.03360183
#
# Stress axis : x y z
#
# Youngs Moduli (GPa) = 71.20644 39.19115 48.22018
#
# Poissons Ratio (x) = 0.06737 0.14275
# Poissons Ratio (y) = 0.12241 0.41800
# Poissons Ratio (z) = 0.21080 0.33973
#
# Static dielectric constant tensor:
#      x y z
#    x 2.140060 -0.013260 0.019900 
#    y -0.013260 2.460220 0.077710 
#    z 0.019900 0.077710 2.197800 
# 
# From -- ./inp_files/568647.got.cif
#   From: 2010.05.17/outbox.cif.g08.bks.cpg/sg2_285_cif.got.tgz:568647.got - 2010.06.03 11:33:40.
