data_PCOD9095660
_publ_section_title
;
Structure prediction by ZEFSAII (Michael W. Deem and Ramdas Pophale) SiO2 
 PCOD9095660
Probable space group: P -1
;
_chemical_formula_sum "Si O2"
_cell_formula_units_Z 16
_cell_length_a 14.603576
_cell_length_b 8.691206
_cell_length_c 13.942736
_cell_angle_alpha 76.399182
_cell_angle_beta 139.190525
_cell_angle_gamma 72.725650
_cell_volume 746.491589
_symmetry_space_group_name_H-M "P -1"
_symmetry_group_IT_number 2
_symmetry_cell_setting 'triclinic'
loop_
_space_group_symop_operation_xyz
x,y,z
-x,-y,-z
loop_
_atom_site_type_symbol
_atom_site_label
_atom_site_fract_x
_atom_site_fract_y
_atom_site_fract_z
Si Si1 0.918479 0.387317 0.446634
Si Si2 0.824293 0.140791 0.920741
Si Si3 0.170558 0.664259 0.924144
Si Si4 0.397518 0.155339 0.127894
Si Si5 0.974483 0.732489 0.236463
Si Si6 0.434306 0.310013 0.611831
Si Si7 0.803574 0.996231 0.440304
Si Si8 0.449930 0.461601 0.813052
O O1 0.000000 0.500000 0.500000
O O2 0.966353 0.278343 0.606447
O O3 0.664641 0.574384 0.206830
O O4 0.037921 0.181421 0.493453
O O5 0.828393 0.288156 0.971052
O O6 0.589991 0.290567 0.677218
O O7 0.888652 0.949992 0.075543
O O8 0.000000 0.000000 0.000000
O O9 0.291908 0.396276 0.055862
O O10 0.313151 0.668966 0.974078
O O11 0.940955 0.852426 0.666614
O O12 0.612602 0.033859 0.269794
O O13 0.468911 0.946587 0.279045
O O14 0.208542 0.242841 0.902819
O O15 0.183090 0.505054 0.376379
O O16 0.452039 0.378669 0.721368
O O17 0.694222 0.260244 0.324050
#
# Coordination Sequence:
#
# PCOD9095660 Si02
#       8
#     2   2   2   2   2   2   2   2
#     4  11  21  35  57  86 119 157 198 232 279 344
#     4  10  22  40  65  90 110 146 196 239 291 351
#     4  10  20  37  59  84 118 150 186 243 293 332
#     4  10  20  35  59  85 116 156 193 232 284 343
#     4  10  21  40  60  82 120 157 189 242 287 329
#     4   9  18  37  59  84 116 149 189 235 289 347
#     4  11  21  35  56  85 118 154 198 236 280 339
#     4   9  20  35  53  79 114 153 193 237 281 337
#
# _framework density 21.433599999999998
#
# number of rings (size 3 to 8) (size 9 to 14) (size 15 to 20)
#    0.000    2.000    0.000    4.875    0.000    1.500 
#    0.000   15.000    0.000    4.500    0.000    0.000 
#    0.000    0.000    0.000    0.000    0.000    0.000 
#
# Total GULP energy -89145.085945 kJ/mol
# GULP energy per Si atom -5571.567872 kJ/mol
# Density = 2.138482 g / cm^3
# Si number density = 21.433600 Si / 1000 Ang^3
#
#
#
# Elastic Constant Matrix: (Units=GPa)
#
#
# Indices 1 2 3 4 5 6 
#
# 1 79.9784 29.8415 20.9685 6.7349 24.3296 -3.1716
# 2 29.8415 72.2552 18.7858 -0.1804 6.4391 6.3901
# 3 20.9685 18.7858 83.5557 0.7242 29.5865 3.4275
# 4 6.7349 -0.1804 0.7242 29.2047 9.5623 6.5254
# 5 24.3296 6.4391 29.5865 9.5623 38.6495 -5.4166
# 6 -3.1716 6.3901 3.4275 6.5254 -5.4166 23.7999
#
#
#
# Elastic Compliance Matrix: (Units=1/GPa)
#
#
# Indices 1 2 3 4 5 6 
#
# 1 0.018240 -0.006975 0.000417 -0.001551 -0.009917 0.002412
# 2 -0.006975 0.017737 -0.002859 0.002227 0.002322 -0.005362
# 3 0.000417 -0.002859 0.018699 0.006592 -0.016782 -0.007497
# 4 -0.001551 0.002227 0.006592 0.044341 -0.017933 -0.017993
# 5 -0.009917 0.002322 -0.016782 -0.017933 0.051408 0.017089
# 6 0.002412 -0.005362 -0.007497 -0.017993 0.017089 0.053680
#
#
# Mechanical properties :
#
#
# Convention : Reuss Voigt Hill
#
# Bulk Modulus (GPa) = 27.90033 41.66453 34.78243
# Shear Modulus (GPa) = 21.28707 29.41037 25.34872
#
# Velocity S-wave (km/s) = 3.15487 3.70829 3.44272
# Velocity P-wave (km/s) = 5.12994 6.14950 5.66271
#
# Compressibility (1/GPa) = 0.03584187
#
# Stress axis : x y z
#
# Youngs Moduli (GPa) = 54.82603 56.38072 53.47899
#
# Poissons Ratio (x) = 0.39324 -0.02230
# Poissons Ratio (y) = 0.38240 0.15288
# Poissons Ratio (z) = -0.02286 0.16118
#
# Static dielectric constant tensor:
#      x y z
#    x 1.812820 0.055880 0.059790 
#    y 0.055880 1.777390 0.033000 
#    z 0.059790 0.033000 1.892500 
# 
# From -- ./inp_files/315134.got.cif
#   From: 2010.05.17/outbox.cif.g08.bks.cpg/sg2_158_cif.got.tgz:315134.got - 2010.06.03 11:33:40.
