data_PCOD9095612
_publ_section_title
;
Structure prediction by ZEFSAII (Michael W. Deem and Ramdas Pophale) SiO2 
 PCOD9095612
Probable space group: P -1
;
_chemical_formula_sum "Si O2"
_cell_formula_units_Z 16
_cell_length_a 11.820662
_cell_length_b 5.660765
_cell_length_c 11.850128
_cell_angle_alpha 85.742662
_cell_angle_beta 102.601522
_cell_angle_gamma 105.978264
_cell_volume 743.856909
_symmetry_space_group_name_H-M "P -1"
_symmetry_group_IT_number 2
_symmetry_cell_setting 'triclinic'
loop_
_space_group_symop_operation_xyz
x,y,z
-x,-y,-z
loop_
_atom_site_type_symbol
_atom_site_label
_atom_site_fract_x
_atom_site_fract_y
_atom_site_fract_z
Si Si1 0.349460 0.042221 0.726229
Si Si2 0.123530 0.865839 0.816697
Si Si3 0.669137 0.064764 0.825137
Si Si4 0.211562 0.514051 0.987114
Si Si5 0.414451 0.596307 0.625477
Si Si6 0.649318 0.796526 0.040942
Si Si7 0.856722 0.798560 0.800572
Si Si8 0.645354 0.446656 0.643916
O O1 0.363889 0.309945 0.663080
O O2 0.405975 0.117510 0.862808
O O3 0.206162 0.927099 0.722343
O O4 0.387494 0.815902 0.684440
O O5 0.991066 0.893704 0.782496
O O6 0.208943 0.056322 0.915140
O O7 0.126530 0.602452 0.877871
O O8 0.724499 0.271653 0.921388
O O9 0.603722 0.197346 0.716933
O O10 0.778577 0.992702 0.789317
O O11 0.607020 0.843824 0.905162
O O12 0.142064 0.312690 0.069227
O O13 0.327657 0.470110 0.947360
O O14 0.557015 0.617604 0.647650
O O15 0.367434 0.613198 0.487925
O O16 0.777476 0.587843 0.709462
#
# Coordination Sequence:
#
# PCOD9095612 Si02
#       8
#     2   2   2   2   2   2   2   2
#     4  10  23  42  68  92 127 163 212 251 315 382
#     4   9  19  33  59  91 129 166 202 247 313 388
#     4   9  19  35  59  90 127 155 204 261 311 362
#     4   9  16  32  56  91 129 168 203 249 303 375
#     4  11  25  46  70  89 115 173 217 268 299 371
#     4   8  18  33  60  88 130 162 198 245 311 384
#     4  10  20  35  58  94 128 161 204 265 314 363
#     4  10  25  41  67  88 118 157 221 267 311 355
#
# _framework density 21.509513999999999
#
# number of rings (size 3 to 8) (size 9 to 14) (size 15 to 20)
#    0.750    1.750    0.000    1.125    3.500    7.500 
#    0.000    2.500    0.000    0.000    0.000    0.000 
#    0.000    0.000    0.000    0.000    0.000    0.000 
#
# Total GULP energy -89071.974161 kJ/mol
# GULP energy per Si atom -5566.998385 kJ/mol
# Density = 2.146056 g / cm^3
# Si number density = 21.509514 Si / 1000 Ang^3
#
#
#
# Elastic Constant Matrix: (Units=GPa)
#
#
# Indices 1 2 3 4 5 6 
#
# 1 90.8054 47.0910 48.7374 11.5454 -9.6301 -7.1473
# 2 47.0910 94.1854 47.8696 8.6533 -9.2758 -25.2054
# 3 48.7374 47.8696 125.6024 0.2516 3.2041 -16.9152
# 4 11.5454 8.6533 0.2516 18.8177 -9.5166 -5.9554
# 5 -9.6301 -9.2758 3.2041 -9.5166 20.7869 3.9292
# 6 -7.1473 -25.2054 -16.9152 -5.9554 3.9292 36.8320
#
#
#
# Elastic Compliance Matrix: (Units=1/GPa)
#
#
# Indices 1 2 3 4 5 6 
#
# 1 0.018365 -0.006782 -0.005318 -0.007855 0.003685 -0.005183
# 2 -0.006782 0.018570 -0.003265 0.000829 0.004217 0.009576
# 3 -0.005318 -0.003265 0.011818 0.003132 -0.004912 0.003192
# 4 -0.007855 0.000829 0.003132 0.075150 0.028847 0.009555
# 5 0.003685 0.004217 -0.004912 0.028847 0.065852 -0.001015
# 6 -0.005183 0.009576 0.003192 0.009555 -0.001015 0.035817
#
#
# Mechanical properties :
#
#
# Convention : Reuss Voigt Hill
#
# Bulk Modulus (GPa) = 55.48319 66.44322 60.96320
# Shear Modulus (GPa) = 19.06135 26.41368 22.73751
#
# Velocity S-wave (km/s) = 2.98011 3.50808 3.25482
# Velocity P-wave (km/s) = 6.13939 6.88230 6.52143
#
# Compressibility (1/GPa) = 0.01802348
#
# Stress axis : x y z
#
# Youngs Moduli (GPa) = 54.45025 53.85097 84.61390
#
# Poissons Ratio (x) = 0.36522 0.44996
# Poissons Ratio (y) = 0.36928 0.27629
# Poissons Ratio (z) = 0.28956 0.17584
#
# Static dielectric constant tensor:
#      x y z
#    x 1.828270 -0.022920 -0.025380 
#    y -0.022920 1.968660 -0.060080 
#    z -0.025380 -0.060080 1.809720 
# 
# From -- ./inp_files/409191.got.cif
#   From: 2010.05.17/outbox.cif.g08.bks.cpg/sg2_205_cif.got.tgz:409191.got - 2010.06.03 11:33:40.
