data_PCOD9095766
_publ_section_title
;
Structure prediction by ZEFSAII (Michael W. Deem and Ramdas Pophale) SiO2 
 PCOD9095766
Probable space group: P -1
;
_chemical_formula_sum "Si O2"
_cell_formula_units_Z 16
_cell_length_a 10.688920
_cell_length_b 8.889151
_cell_length_c 9.616050
_cell_angle_alpha 136.063932
_cell_angle_beta 86.308035
_cell_angle_gamma 85.590102
_cell_volume 622.536380
_symmetry_space_group_name_H-M "P -1"
_symmetry_group_IT_number 2
_symmetry_cell_setting 'triclinic'
loop_
_space_group_symop_operation_xyz
x,y,z
-x,-y,-z
loop_
_atom_site_type_symbol
_atom_site_label
_atom_site_fract_x
_atom_site_fract_y
_atom_site_fract_z
Si Si1 0.695091 0.779629 0.378895
Si Si2 0.158338 0.893633 0.323034
Si Si3 0.940872 0.521334 0.862092
Si Si4 0.607009 0.376119 0.013042
Si Si5 0.094744 0.841769 0.985708
Si Si6 0.562272 0.116957 0.388711
Si Si7 0.722431 0.892905 0.986859
Si Si8 0.567833 0.571597 0.681338
O O1 0.705151 0.532100 0.159554
O O2 0.588364 0.806028 0.525594
O O3 0.823069 0.875953 0.458314
O O4 0.617364 0.923280 0.359143
O O5 0.110099 0.710410 0.300304
O O6 0.303363 0.805860 0.202648
O O7 0.081754 0.913126 0.196161
O O8 0.822286 0.725277 0.968267
O O9 0.051780 0.604126 0.818113
O O10 0.000000 0.500000 0.000000
O O11 0.530180 0.332926 0.126524
O O12 0.500000 0.500000 0.000000
O O13 0.222731 0.913135 0.966677
O O14 0.000000 0.000000 0.000000
O O15 0.627930 0.324532 0.562071
O O16 0.608145 0.021474 0.173567
O O17 0.670299 0.729599 0.774785
O O18 0.500000 0.500000 0.500000
#
# Coordination Sequence:
#
# PCOD9095766 Si02
#       8
#     2   2   2   2   2   2   2   2
#     4  10  20  35  59  95 124 157 202 251 295 368
#     4  11  20  36  69  86 117 165 205 254 314 361
#     4   9  19  39  65  93 110 153 220 268 307 355
#     4  11  22  38  60  94 130 163 206 247 298 379
#     4   9  22  39  62  90 115 160 215 259 312 366
#     4  10  21  36  58  89 130 159 201 237 298 373
#     4  11  21  39  66  85 126 171 197 246 319 369
#     4  11  25  37  55  94 137 161 196 244 299 386
#
# _framework density 25.701308000000001
#
# number of rings (size 3 to 8) (size 9 to 14) (size 15 to 20)
#    0.000    1.750    0.000    6.000    5.250    0.500 
#    0.000    0.000    0.000   60.000    0.000    0.000 
#    0.000    0.000    0.000    0.000    0.000    0.000 
#
# Total GULP energy -89352.914276 kJ/mol
# GULP energy per Si atom -5584.557142 kJ/mol
# Density = 2.564281 g / cm^3
# Si number density = 25.701308 Si / 1000 Ang^3
#
#
#
# Elastic Constant Matrix: (Units=GPa)
#
#
# Indices 1 2 3 4 5 6 
#
# 1 88.7257 32.8937 46.9417 -0.2706 17.7051 5.1478
# 2 32.8937 143.9709 39.3313 -2.2387 14.2813 33.7433
# 3 46.9417 39.3313 93.8183 13.9858 16.9027 29.9212
# 4 -0.2706 -2.2387 13.9858 48.8614 7.4397 17.6081
# 5 17.7051 14.2813 16.9027 7.4397 37.7146 8.4739
# 6 5.1478 33.7433 29.9212 17.6081 8.4739 59.4139
#
#
#
# Elastic Compliance Matrix: (Units=1/GPa)
#
#
# Indices 1 2 3 4 5 6 
#
# 1 0.017238 -0.002103 -0.008454 0.001649 -0.004765 0.004149
# 2 -0.002103 0.009135 -0.001381 0.002783 -0.001290 -0.004951
# 3 -0.008454 -0.001381 0.018296 -0.002691 -0.001681 -0.006660
# 4 0.001649 0.002783 -0.002691 0.024514 -0.003866 -0.007082
# 5 -0.004765 -0.001290 -0.001681 -0.003866 0.031046 -0.001290
# 6 0.004149 -0.004951 -0.006660 -0.007082 -0.001290 0.024920
#
#
# Mechanical properties :
#
#
# Convention : Reuss Voigt Hill
#
# Bulk Modulus (GPa) = 48.09281 62.76092 55.42686
# Shear Modulus (GPa) = 32.06020 43.02119 37.54069
#
# Velocity S-wave (km/s) = 3.53571 4.09576 3.82600
# Velocity P-wave (km/s) = 5.95157 6.84393 6.41329
#
# Compressibility (1/GPa) = 0.02079313
#
# Stress axis : x y z
#
# Youngs Moduli (GPa) = 58.01040 109.46572 54.65744
#
# Poissons Ratio (x) = 0.23022 0.46208
# Poissons Ratio (y) = 0.12200 0.07547
# Poissons Ratio (z) = 0.49043 0.15116
#
# Static dielectric constant tensor:
#      x y z
#    x 2.108590 -0.001300 0.024300 
#    y -0.001300 2.229490 0.031230 
#    z 0.024300 0.031230 1.975040 
# 
# From -- ./inp_files/245972.got.cif
#   From: 2010.05.17/outbox.cif.g08.bks.cpg/sg2_123_cif.got.tgz:245972.got - 2010.06.03 11:33:40.
