data_PCOD9095776
_publ_section_title
;
Structure prediction by ZEFSAII (Michael W. Deem and Ramdas Pophale) SiO2 
 PCOD9095776
Probable space group: P -1
;
_chemical_formula_sum "Si O2"
_cell_formula_units_Z 14
_cell_length_a 18.412757
_cell_length_b 8.481232
_cell_length_c 9.459077
_cell_angle_alpha 102.804695
_cell_angle_beta 38.946523
_cell_angle_gamma 117.714342
_cell_volume 795.544401
_symmetry_space_group_name_H-M "P -1"
_symmetry_group_IT_number 2
_symmetry_cell_setting 'triclinic'
loop_
_space_group_symop_operation_xyz
x,y,z
-x,-y,-z
loop_
_atom_site_type_symbol
_atom_site_label
_atom_site_fract_x
_atom_site_fract_y
_atom_site_fract_z
Si Si1 0.537929 0.640221 0.340289
Si Si2 0.903931 0.636759 0.416103
Si Si3 0.300237 0.615274 0.539284
Si Si4 0.059213 0.990766 0.058095
Si Si5 0.165690 0.612047 0.019240
Si Si6 0.682320 0.039283 0.302675
Si Si7 0.811818 0.663774 0.868300
O O1 0.500000 0.500000 0.500000
O O2 0.419408 0.580356 0.397908
O O3 0.568824 0.839132 0.395841
O O4 0.671437 0.659721 0.075895
O O5 0.773586 0.478127 0.509751
O O6 0.873086 0.686599 0.626133
O O7 0.017579 0.576983 0.244288
O O8 0.962004 0.811951 0.258964
O O9 0.347937 0.833789 0.520448
O O10 0.193448 0.537354 0.814377
O O11 0.097165 0.169663 0.132143
O O12 0.194557 0.981321 0.830317
O O13 0.000000 0.000000 0.000000
O O14 0.202020 0.520344 0.073897
O O15 0.260962 0.830931 0.897044
#
# Coordination Sequence:
#
# PCOD9095776 Si02
#       7
#     2   2   2   2   2   2   2
#     4  11  20  37  60  82 109 147 198 228 270 332
#     4  11  22  36  55  87 120 143 181 235 290 327
#     4  10  20  35  60  79 111 149 191 228 269 331
#     4  10  21  35  59  83 115 145 188 229 277 337
#     4   9  19  37  57  81 109 150 188 223 279 337
#     4   8  20  34  58  83 102 142 193 232 268 320
#     4  11  22  36  57  85 115 150 181 236 285 323
#
# _framework density 17.598012000000001
#
# number of rings (size 3 to 8) (size 9 to 14) (size 15 to 20)
#    0.857    1.143    1.429    2.571    4.000    0.571 
#    0.000    0.000    0.000    1.714    0.000    0.000 
#    0.000    0.000    0.000    0.000    0.000    0.000 
#
# Total GULP energy -78040.673488 kJ/mol
# GULP energy per Si atom -5574.333821 kJ/mol
# Density = 1.755796 g / cm^3
# Si number density = 17.598012 Si / 1000 Ang^3
#
#
#
# Elastic Constant Matrix: (Units=GPa)
#
#
# Indices 1 2 3 4 5 6 
#
# 1 87.5221 47.9842 45.8868 20.0913 -5.6247 5.4347
# 2 47.9842 71.5203 20.4041 -5.2413 -7.0565 3.8396
# 3 45.8868 20.4041 54.6934 17.3634 -3.7270 10.5643
# 4 20.0913 -5.2413 17.3634 18.2257 1.4719 1.9908
# 5 -5.6247 -7.0565 -3.7270 1.4719 25.8057 -1.4323
# 6 5.4347 3.8396 10.5643 1.9908 -1.4323 24.2131
#
#
#
# Elastic Compliance Matrix: (Units=1/GPa)
#
#
# Indices 1 2 3 4 5 6 
#
# 1 0.045418 -0.030480 -0.012090 -0.047978 0.002778 0.004023
# 2 -0.030480 0.039467 -0.004487 0.049338 0.000604 -0.001480
# 3 -0.012090 -0.004487 0.040801 -0.025742 0.002828 -0.012093
# 4 -0.047978 0.049338 -0.025742 0.147025 -0.008983 0.001557
# 5 0.002778 0.000604 0.002828 -0.008983 0.040508 0.001182
# 6 0.004023 -0.001480 -0.012093 0.001557 0.001182 0.045850
#
#
# Mechanical properties :
#
#
# Convention : Reuss Voigt Hill
#
# Bulk Modulus (GPa) = 31.67451 49.14290 40.40870
# Shear Modulus (GPa) = 10.78267 20.27963 15.53115
#
# Velocity S-wave (km/s) = 2.47801 3.39836 2.97400
# Velocity P-wave (km/s) = 5.12107 6.58668 5.89956
#
# Compressibility (1/GPa) = 0.03157113
#
# Stress axis : x y z
#
# Youngs Moduli (GPa) = 22.01793 25.33775 24.50892
#
# Poissons Ratio (x) = 0.77230 0.29630
# Poissons Ratio (y) = 0.67111 0.10998
# Poissons Ratio (z) = 0.26619 0.11370
#
# Static dielectric constant tensor:
#      x y z
#    x 1.577940 -0.013020 -0.023780 
#    y -0.013020 1.631350 -0.012260 
#    z -0.023780 -0.012260 1.589870 
# 
# From -- ./inp_files/329102.got.cif
#   From: 2010.05.17/outbox.cif.g08.bks.cpg/sg2_165_cif.got.tgz:329102.got - 2010.06.03 11:33:40.
