data_PCOD9095180
_publ_section_title
;
Structure prediction by ZEFSAII (Michael W. Deem and Ramdas Pophale) SiO2 
 PCOD9095180
Probable space group: P -1
;
_chemical_formula_sum "Si O2"
_cell_formula_units_Z 16
_cell_length_a 16.274150
_cell_length_b 9.146831
_cell_length_c 9.253026
_cell_angle_alpha 62.492192
_cell_angle_beta 91.891399
_cell_angle_gamma 51.505411
_cell_volume 848.152915
_symmetry_space_group_name_H-M "P -1"
_symmetry_group_IT_number 2
_symmetry_cell_setting 'triclinic'
loop_
_space_group_symop_operation_xyz
x,y,z
-x,-y,-z
loop_
_atom_site_type_symbol
_atom_site_label
_atom_site_fract_x
_atom_site_fract_y
_atom_site_fract_z
Si Si1 0.737935 0.639576 0.413282
Si Si2 0.325481 0.172407 0.191697
Si Si3 0.512060 0.173161 0.167212
Si Si4 0.148583 0.960643 0.061686
Si Si5 0.533759 0.296861 0.409195
Si Si6 0.698723 0.968090 0.047645
Si Si7 0.317400 0.649254 0.458269
Si Si8 0.873429 0.391475 0.826374
O O1 0.767713 0.724406 0.249523
O O2 0.712523 0.491238 0.426818
O O3 0.828998 0.505080 0.611755
O O4 0.613079 0.893417 0.345216
O O5 0.393659 0.239085 0.115047
O O6 0.204113 0.398947 0.157556
O O7 0.404103 0.956760 0.408484
O O8 0.313724 0.071992 0.098675
O O9 0.504145 0.312505 0.233424
O O10 0.570479 0.160839 0.030267
O O11 0.201532 0.883241 0.262626
O O12 0.153247 0.766171 0.094458
O O13 0.230435 0.965124 0.973315
O O14 0.012942 0.212580 0.935019
O O15 0.416087 0.494095 0.407323
O O16 0.625175 0.313083 0.438799
#
# Coordination Sequence:
#
# PCOD9095180 Si02
#       8
#     2   2   2   2   2   2   2   2
#     4   9  19  37  56  83 111 155 180 228 294 333
#     4  12  19  37  60  90 113 150 194 236 282 341
#     4  10  20  35  55  85 118 148 182 232 287 347
#     4  10  21  41  58  87 116 147 197 238 280 335
#     4  11  19  34  60  86 112 154 196 231 278 344
#     4  10  22  37  57  86 123 147 184 236 296 339
#     4  10  20  35  59  83 116 151 194 238 276 334
#     4  10  22  38  66  81 111 155 196 238 275 334
#
# _framework density 18.864522000000001
#
# number of rings (size 3 to 8) (size 9 to 14) (size 15 to 20)
#    0.750    1.000    3.750    2.250    0.000    1.000 
#    2.250    1.250    0.000    2.250    0.000    0.000 
#    0.000    0.000    0.000    0.000    0.000    0.000 
#
# Total GULP energy -89254.009950 kJ/mol
# GULP energy per Si atom -5578.375622 kJ/mol
# Density = 1.882159 g / cm^3
# Si number density = 18.864522 Si / 1000 Ang^3
#
#
#
# Elastic Constant Matrix: (Units=GPa)
#
#
# Indices 1 2 3 4 5 6 
#
# 1 55.1112 0.9448 6.9762 0.8879 -17.3201 7.5252
# 2 0.9448 50.0339 -1.6088 12.0631 5.7229 -3.5345
# 3 6.9762 -1.6088 33.1700 -6.3016 -6.6309 -5.9412
# 4 0.8879 12.0631 -6.3016 27.0034 -4.3899 6.0421
# 5 -17.3201 5.7229 -6.6309 -4.3899 20.6260 -4.7240
# 6 7.5252 -3.5345 -5.9412 6.0421 -4.7240 18.5339
#
#
#
# Elastic Compliance Matrix: (Units=1/GPa)
#
#
# Indices 1 2 3 4 5 6 
#
# 1 0.026726 -0.005456 -0.001578 0.006883 0.022897 -0.008805
# 2 -0.005456 0.026072 -0.001954 -0.016036 -0.013972 0.008227
# 3 -0.001578 -0.001954 0.037903 0.009421 0.016512 0.013556
# 4 0.006883 -0.016036 0.009421 0.052893 0.021152 -0.014685
# 5 0.022897 -0.013972 0.016512 0.021152 0.083144 0.007628
# 6 -0.008805 0.008227 0.013556 -0.014685 0.007628 0.070176
#
#
# Mechanical properties :
#
#
# Convention : Reuss Voigt Hill
#
# Bulk Modulus (GPa) = 13.75022 16.77107 15.26065
# Shear Modulus (GPa) = 14.74354 22.03286 18.38820
#
# Velocity S-wave (km/s) = 2.79865 3.42124 3.12549
# Velocity P-wave (km/s) = 4.21284 4.95137 4.59696
#
# Compressibility (1/GPa) = 0.07272612
#
# Stress axis : x y z
#
# Youngs Moduli (GPa) = 37.41710 38.35485 26.38279
#
# Poissons Ratio (x) = 0.20926 0.04163
# Poissons Ratio (y) = 0.20414 0.05155
# Poissons Ratio (z) = 0.05904 0.07495
#
# Static dielectric constant tensor:
#      x y z
#    x 1.655780 0.020080 -0.016720 
#    y 0.020080 1.638780 -0.013580 
#    z -0.016720 -0.013580 1.669190 
# 
# From -- ./inp_files/328723.got.cif
#   From: 2010.05.17/outbox.cif.g08.bks.cpg/sg2_165_cif.got.tgz:328723.got - 2010.06.03 11:33:40.
