data_PCOD9095613
_publ_section_title
;
Structure prediction by ZEFSAII (Michael W. Deem and Ramdas Pophale) SiO2 
 PCOD9095613
Probable space group: P -1
;
_chemical_formula_sum "Si O2"
_cell_formula_units_Z 16
_cell_length_a 16.764665
_cell_length_b 7.438994
_cell_length_c 8.063872
_cell_angle_alpha 72.232526
_cell_angle_beta 123.572467
_cell_angle_gamma 125.829974
_cell_volume 679.082271
_symmetry_space_group_name_H-M "P -1"
_symmetry_group_IT_number 2
_symmetry_cell_setting 'triclinic'
loop_
_space_group_symop_operation_xyz
x,y,z
-x,-y,-z
loop_
_atom_site_type_symbol
_atom_site_label
_atom_site_fract_x
_atom_site_fract_y
_atom_site_fract_z
Si Si1 0.387318 0.864284 0.614605
Si Si2 0.615013 0.604311 0.989147
Si Si3 0.870250 0.375477 0.097186
Si Si4 0.547790 0.660510 0.359542
Si Si5 0.632858 0.033188 0.799324
Si Si6 0.073315 0.377780 0.251215
Si Si7 0.772688 0.807309 0.410638
Si Si8 0.827918 0.304083 0.422084
O O1 0.511106 0.920986 0.774345
O O2 0.290505 0.710750 0.673988
O O3 0.394255 0.092158 0.585608
O O4 0.363959 0.831861 0.399313
O O5 0.562078 0.399584 0.859724
O O6 0.636077 0.811590 0.840939
O O7 0.500000 0.500000 0.000000
O O8 0.726699 0.723048 0.195282
O O9 0.888995 0.452382 0.288573
O O10 0.940396 0.258214 0.166048
O O11 0.901427 0.546971 0.932775
O O12 0.737879 0.198648 0.983313
O O13 0.500000 0.500000 0.500000
O O14 0.652021 0.651134 0.406524
O O15 0.134984 0.250234 0.412444
O O16 0.115077 0.590356 0.364203
O O17 0.812268 0.064110 0.426262
#
# Coordination Sequence:
#
# PCOD9095613 Si02
#       8
#     2   2   2   2   2   2   2   2
#     4  10  23  36  65  97 131 177 212 274 346 404
#     4  10  21  37  58  91 137 168 215 274 326 402
#     4  11  25  46  70  99 135 178 237 286 332 409
#     4  10  20  35  58  94 137 166 213 267 328 408
#     4  11  21  40  64  95 138 178 216 279 345 400
#     4  11  26  48  72  95 138 185 227 289 341 393
#     4  10  24  43  64  98 135 176 228 279 334 408
#     4  11  23  46  70 102 135 173 232 283 339 410
#
# _framework density 23.561209999999999
#
# number of rings (size 3 to 8) (size 9 to 14) (size 15 to 20)
#    0.000    1.500    3.750    0.375    5.250    2.000 
#    0.000    2.500    0.000    0.000    0.000    0.000 
#    0.000    0.000    0.000    0.000    0.000    0.000 
#
# Total GULP energy -89096.986649 kJ/mol
# GULP energy per Si atom -5568.561666 kJ/mol
# Density = 2.350758 g / cm^3
# Si number density = 23.561210 Si / 1000 Ang^3
#
#
#
# Elastic Constant Matrix: (Units=GPa)
#
#
# Indices 1 2 3 4 5 6 
#
# 1 91.4648 17.5217 48.7292 -17.3269 9.7717 13.9223
# 2 17.5217 45.9813 19.3432 -11.7483 -7.8627 -1.8959
# 3 48.7292 19.3432 115.8726 -6.0855 6.3001 -0.0188
# 4 -17.3269 -11.7483 -6.0855 25.1334 3.3855 -3.0288
# 5 9.7717 -7.8627 6.3001 3.3855 46.8543 -3.9542
# 6 13.9223 -1.8959 -0.0188 -3.0288 -3.9542 30.3110
#
#
#
# Elastic Compliance Matrix: (Units=1/GPa)
#
#
# Indices 1 2 3 4 5 6 
#
# 1 0.018619 -0.003119 -0.006547 0.009437 -0.004921 -0.008450
# 2 -0.003119 0.027941 -0.003122 0.010009 0.005449 0.004889
# 3 -0.006547 -0.003122 0.011777 -0.002776 -0.000331 0.002499
# 4 0.009437 0.010009 -0.002776 0.050884 -0.003515 0.000916
# 5 -0.004921 0.005449 -0.000331 -0.003515 0.024036 0.005385
# 6 -0.008450 0.004889 0.002499 0.000916 0.005385 0.037974
#
#
# Mechanical properties :
#
#
# Convention : Reuss Voigt Hill
#
# Bulk Modulus (GPa) = 30.52602 47.16742 38.84672
# Shear Modulus (GPa) = 24.06991 31.64139 27.85565
#
# Velocity S-wave (km/s) = 3.19970 3.66860 3.44214
# Velocity P-wave (km/s) = 5.16091 6.16501 5.68517
#
# Compressibility (1/GPa) = 0.03275894
#
# Stress axis : x y z
#
# Youngs Moduli (GPa) = 53.70986 35.79000 84.90829
#
# Poissons Ratio (x) = 0.11164 0.55592
# Poissons Ratio (y) = 0.16754 0.26511
# Poissons Ratio (z) = 0.35166 0.11175
#
# Static dielectric constant tensor:
#      x y z
#    x 2.012440 0.049650 -0.020710 
#    y 0.049650 1.988350 0.028450 
#    z -0.020710 0.028450 2.006300 
# 
# From -- ./inp_files/327447.got.cif
#   From: 2010.05.17/outbox.cif.g08.bks.cpg/sg2_164_cif.got.tgz:327447.got - 2010.06.03 11:33:40.
