data_PCOD9095271
_publ_section_title
;
Structure prediction by ZEFSAII (Michael W. Deem and Ramdas Pophale) SiO2 
 PCOD9095271
Probable space group: P -1
;
_chemical_formula_sum "Si O2"
_cell_formula_units_Z 16
_cell_length_a 6.118019
_cell_length_b 15.287677
_cell_length_c 11.701381
_cell_angle_alpha 129.590956
_cell_angle_beta 135.252456
_cell_angle_gamma 51.531677
_cell_volume 564.020673
_symmetry_space_group_name_H-M "P -1"
_symmetry_group_IT_number 2
_symmetry_cell_setting 'triclinic'
loop_
_space_group_symop_operation_xyz
x,y,z
-x,-y,-z
loop_
_atom_site_type_symbol
_atom_site_label
_atom_site_fract_x
_atom_site_fract_y
_atom_site_fract_z
Si Si1 0.197968 0.591605 0.032868
Si Si2 0.222660 0.337099 0.400137
Si Si3 0.338808 0.273826 0.657533
Si Si4 0.141355 0.989317 0.872646
Si Si5 0.753929 0.209286 0.070605
Si Si6 0.292530 0.903336 0.627717
Si Si7 0.272877 0.535011 0.283329
Si Si8 0.299732 0.125707 0.711281
O O1 0.857369 0.580292 0.846858
O O2 0.500000 0.500000 0.000000
O O3 0.318526 0.706085 0.165120
O O4 0.242457 0.557443 0.154849
O O5 0.259995 0.302031 0.519226
O O6 0.466918 0.218235 0.334996
O O7 0.380352 0.445154 0.533700
O O8 0.873678 0.325741 0.220229
O O9 0.366376 0.150905 0.627075
O O10 0.018234 0.363469 0.676949
O O11 0.175963 0.866591 0.850388
O O12 0.059698 0.974546 0.699638
O O13 0.500000 0.000000 0.000000
O O14 0.942649 0.107947 0.964506
O O15 0.388039 0.222658 0.904303
O O16 0.078281 0.865449 0.421664
O O17 0.465133 0.992751 0.710665
#
# Coordination Sequence:
#
# PCOD9095271 Si02
#       8
#     2   2   2   2   2   2   2   2
#     4   8  16  32  59  86 110 138 179 231 274 325
#     4  11  21  35  56  81 110 151 192 230 267 325
#     4  10  20  35  56  83 117 143 182 231 276 332
#     4  11  20  40  55  71 102 152 202 238 267 317
#     4  11  23  35  56  78 104 149 197 232 275 326
#     4  11  22  37  56  74 112 154 191 233 274 321
#     4   9  17  34  56  86 110 141 182 228 275 327
#     4  11  23  36  51  83 113 148 187 230 285 321
#
# _framework density 28.367754000000001
#
# number of rings (size 3 to 8) (size 9 to 14) (size 15 to 20)
#    0.000    1.750    3.750    1.500    0.000    3.000 
#    0.000    0.000    0.000    0.750    0.000   29.750 
#    0.000    0.000    0.000    0.000    0.000    0.000 
#
# Total GULP energy -89477.120076 kJ/mol
# GULP energy per Si atom -5592.320005 kJ/mol
# Density = 2.830319 g / cm^3
# Si number density = 28.367754 Si / 1000 Ang^3
#
#
#
# Elastic Constant Matrix: (Units=GPa)
#
#
# Indices 1 2 3 4 5 6 
#
# 1 129.9364 31.6752 61.9536 16.7607 -6.5210 15.9237
# 2 31.6752 72.6235 34.0868 9.0287 3.7610 11.5519
# 3 61.9536 34.0868 236.2879 28.0620 65.1925 13.8524
# 4 16.7607 9.0287 28.0620 44.1177 8.3169 6.6349
# 5 -6.5210 3.7610 65.1925 8.3169 80.1664 19.2090
# 6 15.9237 11.5519 13.8524 6.6349 19.2090 37.5107
#
#
#
# Elastic Compliance Matrix: (Units=1/GPa)
#
#
# Indices 1 2 3 4 5 6 
#
# 1 0.011057 -0.002441 -0.003494 -0.001709 0.005239 -0.005032
# 2 -0.002441 0.016347 -0.001797 -0.000972 0.001544 -0.003953
# 3 -0.003494 -0.001797 0.007326 -0.002177 -0.006684 0.003139
# 4 -0.001709 -0.000972 -0.002177 0.025339 -0.000361 -0.002469
# 5 0.005239 0.001544 -0.006684 -0.000361 0.020906 -0.010873
# 6 -0.005032 -0.003953 0.003139 -0.002469 -0.010873 0.034858
#
#
# Mechanical properties :
#
#
# Convention : Reuss Voigt Hill
#
# Bulk Modulus (GPa) = 51.90476 77.14213 64.52344
# Shear Modulus (GPa) = 36.30526 53.10112 44.70319
#
# Velocity S-wave (km/s) = 3.58132 4.33122 3.97400
# Velocity P-wave (km/s) = 5.95298 7.22947 6.62205
#
# Compressibility (1/GPa) = 0.01926606
#
# Stress axis : x y z
#
# Youngs Moduli (GPa) = 90.43747 61.17167 136.49538
#
# Poissons Ratio (x) = 0.14931 0.47698
# Poissons Ratio (y) = 0.22075 0.24530
# Poissons Ratio (z) = 0.31603 0.10993
#
# Static dielectric constant tensor:
#      x y z
#    x 2.215640 -0.053040 0.067220 
#    y -0.053040 2.166930 -0.032190 
#    z 0.067220 -0.032190 2.338320 
# 
# From -- ./inp_files/47116.got.cif
#   From: 2010.05.17/outbox.cif.g08.bks.cpg/sg2_24_cif.got.tgz:47116.got - 2010.06.03 11:33:40.
