data_PCOD9095061
_publ_section_title
;
Structure prediction by ZEFSAII (Michael W. Deem and Ramdas Pophale) SiO2 
 PCOD9095061
Probable space group: P -1
;
_chemical_formula_sum "Si O2"
_cell_formula_units_Z 16
_cell_length_a 13.922350
_cell_length_b 9.297722
_cell_length_c 16.453868
_cell_angle_alpha 60.549462
_cell_angle_beta 71.666197
_cell_angle_gamma 28.369060
_cell_volume 844.598567
_symmetry_space_group_name_H-M "P -1"
_symmetry_group_IT_number 2
_symmetry_cell_setting 'triclinic'
loop_
_space_group_symop_operation_xyz
x,y,z
-x,-y,-z
loop_
_atom_site_type_symbol
_atom_site_label
_atom_site_fract_x
_atom_site_fract_y
_atom_site_fract_z
Si Si1 0.409674 0.590877 0.754191
Si Si2 0.442847 0.212753 0.026910
Si Si3 0.006353 0.723792 0.751299
Si Si4 0.106181 0.975748 0.860917
Si Si5 0.122850 0.219986 0.929424
Si Si6 0.526602 0.835885 0.228481
Si Si7 0.580310 0.323004 0.613469
Si Si8 0.161711 0.913380 0.142519
O O1 0.192201 0.925041 0.766644
O O2 0.447579 0.340958 0.799574
O O3 0.447414 0.592103 0.650256
O O4 0.595890 0.396372 0.814720
O O5 0.651219 0.019675 0.046250
O O6 0.391611 0.173707 0.130263
O O7 0.263841 0.599037 0.945504
O O8 0.500000 0.000000 0.000000
O O9 0.983011 0.573857 0.837979
O O10 0.242282 0.420651 0.743608
O O11 0.959685 0.906944 0.789605
O O12 0.824604 0.009889 0.654380
O O13 0.884337 0.199089 0.851585
O O14 0.127911 0.081334 0.894248
O O15 0.072679 0.187029 0.032654
O O16 0.446722 0.836761 0.322952
O O17 0.500000 0.500000 0.500000
#
# Coordination Sequence:
#
# PCOD9095061 Si02
#       8
#     2   2   2   2   2   2   2   2
#     4   9  19  34  52  77 103 139 174 215 264 308
#     4  11  18  33  52  72 106 149 179 205 251 308
#     4  10  20  35  54  77 107 139 178 216 263 318
#     4  12  21  34  49  75 119 144 179 211 252 315
#     4  11  23  32  48  81 112 148 177 213 255 303
#     4   9  18  33  50  81  98 137 173 210 270 300
#     4   9  19  35  57  83 101 125 179 234 270 306
#     4  11  19  33  51  73 105 150 181 208 251 309
#
# _framework density 18.943911
#
# number of rings (size 3 to 8) (size 9 to 14) (size 15 to 20)
#    0.750    1.000    3.750    1.875    1.750    0.500 
#    0.000    0.000    0.000    0.750    0.000    7.000 
#    0.000    0.000    0.000    0.000    0.000    0.000 
#
# Total GULP energy -89186.145399 kJ/mol
# GULP energy per Si atom -5574.134087 kJ/mol
# Density = 1.890079 g / cm^3
# Si number density = 18.943911 Si / 1000 Ang^3
#
#
#
# Elastic Constant Matrix: (Units=GPa)
#
#
# Indices 1 2 3 4 5 6 
#
# 1 120.7179 25.5236 39.7179 -2.9090 19.0055 -4.0937
# 2 25.5236 28.7693 19.2126 3.0358 7.9219 0.1910
# 3 39.7179 19.2126 116.3400 0.9331 11.4157 -6.4358
# 4 -2.9090 3.0358 0.9331 4.8689 -2.0313 4.2164
# 5 19.0055 7.9219 11.4157 -2.0313 21.3224 3.1185
# 6 -4.0937 0.1910 -6.4358 4.2164 3.1185 28.7576
#
#
#
# Elastic Compliance Matrix: (Units=1/GPa)
#
#
# Indices 1 2 3 4 5 6 
#
# 1 0.011960 -0.008839 -0.002180 0.010648 -0.005236 0.000280
# 2 -0.008839 0.055017 -0.003642 -0.051823 -0.016567 0.006956
# 3 -0.002180 -0.003642 0.010478 -0.005146 -0.003268 0.003168
# 4 0.010648 -0.051823 -0.005146 0.308810 0.049237 -0.049908
# 5 -0.005236 -0.016567 -0.003268 0.049237 0.066472 -0.015794
# 6 0.000280 0.006956 0.003168 -0.049908 -0.015794 0.044506
#
#
# Mechanical properties :
#
#
# Convention : Reuss Voigt Hill
#
# Bulk Modulus (GPa) = 20.77502 48.30392 34.53947
# Shear Modulus (GPa) = 9.21473 23.08132 16.14803
#
# Velocity S-wave (km/s) = 2.20789 3.49435 2.92278
# Velocity P-wave (km/s) = 4.18212 6.46795 5.44631
#
# Compressibility (1/GPa) = 0.04813472
#
# Stress axis : x y z
#
# Youngs Moduli (GPa) = 83.61081 18.17610 95.43643
#
# Poissons Ratio (x) = 0.16066 0.20801
# Poissons Ratio (y) = 0.73902 0.34758
# Poissons Ratio (z) = 0.18224 0.06620
#
# Static dielectric constant tensor:
#      x y z
#    x 1.703790 -0.037500 -0.005740 
#    y -0.037500 1.685960 0.023980 
#    z -0.005740 0.023980 1.660070 
# 
# From -- ./inp_files/514200.got.cif
#   From: 2010.05.17/outbox.cif.g08.bks.cpg/sg2_258_cif.got.tgz:514200.got - 2010.06.03 11:33:40.
