data_PCOD9095090
_publ_section_title
;
Structure prediction by ZEFSAII (Michael W. Deem and Ramdas Pophale) SiO2 
 PCOD9095090
Probable space group: P -1
;
_chemical_formula_sum "Si O2"
_cell_formula_units_Z 10
_cell_length_a 14.378643
_cell_length_b 14.439626
_cell_length_c 9.635704
_cell_angle_alpha 66.276624
_cell_angle_beta 53.272661
_cell_angle_gamma 20.250661
_cell_volume 455.185949
_symmetry_space_group_name_H-M "P -1"
_symmetry_group_IT_number 2
_symmetry_cell_setting 'triclinic'
loop_
_space_group_symop_operation_xyz
x,y,z
-x,-y,-z
loop_
_atom_site_type_symbol
_atom_site_label
_atom_site_fract_x
_atom_site_fract_y
_atom_site_fract_z
Si Si1 0.587413 0.207010 0.514751
Si Si2 0.288897 0.070534 0.623652
Si Si3 0.407792 0.810045 0.906137
Si Si4 0.359669 0.761500 0.261704
Si Si5 0.457550 0.475863 0.238911
O O1 0.473117 0.317083 0.709950
O O2 0.435858 0.424174 0.426053
O O3 0.509886 0.166313 0.529978
O O4 0.040312 0.837215 0.333421
O O5 0.860012 0.443811 0.737978
O O6 0.500000 0.000000 0.500000
O O7 0.292195 0.001325 0.802675
O O8 0.337025 0.764170 0.912057
O O9 0.261122 0.915511 0.129015
O O10 0.595505 0.472493 0.161158
O O11 0.000000 0.000000 0.500000
#
# Coordination Sequence:
#
# PCOD9095090 Si02
#       5
#     2   2   2   2   2
#     4   9  19  33  53  78 105 139 179 214 260 315
#     4  10  21  40  58  75 103 142 185 230 262 298
#     4  10  21  35  57  83 105 139 183 213 262 327
#     4  10  20  35  54  83 116 142 166 214 268 322
#     4   9  18  33  52  77 109 142 171 209 260 320
#
# _framework density 21.969047
#
# number of rings (size 3 to 8) (size 9 to 14) (size 15 to 20)
#    0.000    2.400    0.000    1.800    0.000    6.400 
#    0.000   14.000    0.000    0.000    0.000    0.000 
#    0.000    0.000    0.000    0.000    0.000    0.000 
#
# Total GULP energy -55898.108540 kJ/mol
# GULP energy per Si atom -5589.810854 kJ/mol
# Density = 2.191904 g / cm^3
# Si number density = 21.969047 Si / 1000 Ang^3
#
#
#
# Elastic Constant Matrix: (Units=GPa)
#
#
# Indices 1 2 3 4 5 6 
#
# 1 185.4662 35.6630 76.8380 -32.0879 -3.0482 6.9696
# 2 35.6630 80.5298 22.4803 -8.7811 -14.6055 3.1728
# 3 76.8380 22.4803 97.6394 -22.7076 11.8653 1.1063
# 4 -32.0879 -8.7811 -22.7076 35.3874 -8.4426 2.9931
# 5 -3.0482 -14.6055 11.8653 -8.4426 37.7369 -7.0741
# 6 6.9696 3.1728 1.1063 2.9931 -7.0741 27.9518
#
#
#
# Elastic Compliance Matrix: (Units=1/GPa)
#
#
# Indices 1 2 3 4 5 6 
#
# 1 0.009105 -0.001192 -0.006094 0.004901 0.002974 -0.001666
# 2 -0.001192 0.015370 -0.002894 0.002620 0.007397 0.000258
# 3 -0.006094 -0.002894 0.017282 0.003378 -0.006446 -0.000829
# 4 0.004901 0.002620 0.003378 0.037764 0.008113 -0.003643
# 5 0.002974 0.007397 -0.006446 0.008113 0.034678 0.006581
# 6 -0.001666 0.000258 -0.000829 -0.003643 0.006581 0.038251
#
#
# Mechanical properties :
#
#
# Convention : Reuss Voigt Hill
#
# Bulk Modulus (GPa) = 46.73104 70.39976 58.56540
# Shear Modulus (GPa) = 27.78703 35.45882 31.62292
#
# Velocity S-wave (km/s) = 3.56030 4.02186 3.79810
# Velocity P-wave (km/s) = 6.18211 7.32678 6.77865
#
# Compressibility (1/GPa) = 0.02139905
#
# Stress axis : x y z
#
# Youngs Moduli (GPa) = 109.83135 65.06059 57.86436
#
# Poissons Ratio (x) = 0.07753 0.35261
# Poissons Ratio (y) = 0.13088 0.16744
# Poissons Ratio (z) = 0.66927 0.18826
#
# Static dielectric constant tensor:
#      x y z
#    x 1.831260 -0.001490 0.072030 
#    y -0.001490 1.871920 0.059000 
#    z 0.072030 0.059000 1.814900 
# 
# From -- ./inp_files/15394.got.cif
#   From: 2010.05.17/outbox.cif.g08.bks.cpg/sg2_8_cif.got.tgz:15394.got - 2010.06.03 11:33:40.
