data_PCOD9095355
_publ_section_title
;
Structure prediction by ZEFSAII (Michael W. Deem and Ramdas Pophale) SiO2 
 PCOD9095355
Probable space group: P -1
;
_chemical_formula_sum "Si O2"
_cell_formula_units_Z 16
_cell_length_a 5.429654
_cell_length_b 9.038108
_cell_length_c 19.560725
_cell_angle_alpha 47.971145
_cell_angle_beta 99.609902
_cell_angle_gamma 96.055382
_cell_volume 703.003637
_symmetry_space_group_name_H-M "P -1"
_symmetry_group_IT_number 2
_symmetry_cell_setting 'triclinic'
loop_
_space_group_symop_operation_xyz
x,y,z
-x,-y,-z
loop_
_atom_site_type_symbol
_atom_site_label
_atom_site_fract_x
_atom_site_fract_y
_atom_site_fract_z
Si Si1 0.533107 0.417323 0.714876
Si Si2 0.453373 0.298477 0.019891
Si Si3 0.608993 0.889000 0.428522
Si Si4 0.162413 0.157211 0.685178
Si Si5 0.023538 0.940575 0.877754
Si Si6 0.353580 0.194651 0.904590
Si Si7 0.145341 0.500368 0.413270
Si Si8 0.738871 0.185489 0.448673
O O1 0.341165 0.294863 0.696532
O O2 0.512064 0.310973 0.819146
O O3 0.781198 0.403407 0.685699
O O4 0.462419 0.651379 0.641212
O O5 0.730961 0.201249 0.058900
O O6 0.244010 0.155967 0.088858
O O7 0.500000 0.500000 0.000000
O O8 0.336275 0.329840 0.929200
O O9 0.674869 0.937409 0.338635
O O10 0.637791 0.647132 0.505029
O O11 0.364940 0.919383 0.455026
O O12 0.789750 0.027577 0.440065
O O13 0.954324 0.319647 0.600600
O O14 0.036909 0.008548 0.778451
O O15 0.101135 0.115654 0.881056
O O16 0.500000 0.000000 0.000000
O O17 0.947913 0.334589 0.436082
#
# Coordination Sequence:
#
# PCOD9095355 Si02
#       8
#     2   2   2   2   2   2   2   2
#     4   9  20  38  55  85 117 151 201 254 300 369
#     4  11  23  43  65  95 130 165 211 266 319 377
#     4  10  20  37  56  82 116 158 198 243 307 365
#     4  10  22  35  58  86 116 155 199 255 304 362
#     4  10  23  42  64  93 130 166 212 259 317 382
#     4   9  20  39  65  90 120 170 208 255 317 380
#     4  10  20  35  57  82 116 150 201 249 301 363
#     4   9  20  37  55  80 118 155 198 245 301 376
#
# _framework density 22.759484
#
# number of rings (size 3 to 8) (size 9 to 14) (size 15 to 20)
#    0.000    2.250    0.000    1.500    5.250    6.500 
#    9.000    0.000    0.000    0.000    0.000    0.000 
#    0.000    0.000    0.000    0.000    0.000    0.000 
#
# Total GULP energy -89183.853926 kJ/mol
# GULP energy per Si atom -5573.990870 kJ/mol
# Density = 2.270768 g / cm^3
# Si number density = 22.759484 Si / 1000 Ang^3
#
#
#
# Elastic Constant Matrix: (Units=GPa)
#
#
# Indices 1 2 3 4 5 6 
#
# 1 51.5881 21.2846 15.1446 0.2642 -15.0011 2.2194
# 2 21.2846 138.5921 39.0160 21.3291 -16.2888 1.1773
# 3 15.1446 39.0160 106.1044 26.8202 -35.8187 3.4509
# 4 0.2642 21.3291 26.8202 28.0166 -7.1835 -7.3026
# 5 -15.0011 -16.2888 -35.8187 -7.1835 40.3624 -7.7893
# 6 2.2194 1.1773 3.4509 -7.3026 -7.7893 31.1011
#
#
#
# Elastic Compliance Matrix: (Units=1/GPa)
#
#
# Indices 1 2 3 4 5 6 
#
# 1 0.023175 -0.003258 -0.000970 0.005679 0.007808 0.001866
# 2 -0.003258 0.009005 -0.001328 -0.005931 -0.000076 -0.001373
# 3 -0.000970 -0.001328 0.017442 -0.013135 0.011873 -0.001927
# 4 0.005679 -0.005931 -0.013135 0.056884 0.001060 0.014899
# 5 0.007808 -0.000076 0.011873 0.001060 0.039992 0.008393
# 6 0.001866 -0.001373 -0.001927 0.014899 0.008393 0.037886
#
#
# Mechanical properties :
#
#
# Convention : Reuss Voigt Hill
#
# Bulk Modulus (GPa) = 25.96743 49.68611 37.82677
# Shear Modulus (GPa) = 24.00006 34.61863 29.30934
#
# Velocity S-wave (km/s) = 3.25084 3.90431 3.59247
# Velocity P-wave (km/s) = 5.05222 6.49640 5.81928
#
# Compressibility (1/GPa) = 0.03850978
#
# Stress axis : x y z
#
# Youngs Moduli (GPa) = 43.15085 111.04741 57.33154
#
# Poissons Ratio (x) = 0.36181 0.05561
# Poissons Ratio (y) = 0.14059 0.07614
# Poissons Ratio (z) = 0.04185 0.14748
#
# Static dielectric constant tensor:
#      x y z
#    x 2.031970 -0.041350 0.068760 
#    y -0.041350 1.860710 0.000220 
#    z 0.068760 0.000220 1.902400 
# 
# From -- ./inp_files/137844.got.cif
#   From: 2010.05.17/outbox.cif.g08.bks.cpg/sg2_69_cif.got.tgz:137844.got - 2010.06.03 11:33:40.
