data_PCOD9095062
_publ_section_title
;
Structure prediction by ZEFSAII (Michael W. Deem and Ramdas Pophale) SiO2 
 PCOD9095062
Probable space group: P -1
;
_chemical_formula_sum "Si O2"
_cell_formula_units_Z 16
_cell_length_a 26.881493
_cell_length_b 27.633418
_cell_length_c 12.116132
_cell_angle_alpha 149.872902
_cell_angle_beta 31.545943
_cell_angle_gamma 169.602210
_cell_volume 815.188423
_symmetry_space_group_name_H-M "P -1"
_symmetry_group_IT_number 2
_symmetry_cell_setting 'triclinic'
loop_
_space_group_symop_operation_xyz
x,y,z
-x,-y,-z
loop_
_atom_site_type_symbol
_atom_site_label
_atom_site_fract_x
_atom_site_fract_y
_atom_site_fract_z
Si Si1 0.449754 0.420232 0.281228
Si Si2 0.766285 0.456207 0.731398
Si Si3 0.330864 0.936671 0.682523
Si Si4 0.748562 0.564605 0.403863
Si Si5 0.616438 0.446851 0.812100
Si Si6 0.038240 0.920847 0.776042
Si Si7 0.224419 0.971331 0.156601
Si Si8 0.011731 0.892503 0.214336
O O1 0.329167 0.409478 0.459789
O O2 0.732959 0.690125 0.349594
O O3 0.536205 0.450918 0.063455
O O4 0.221289 0.135976 0.210264
O O5 0.665314 0.392508 0.675949
O O6 0.029098 0.636468 0.605339
O O7 0.514183 0.180747 0.739374
O O8 0.890609 0.674594 0.973277
O O9 0.500000 0.000000 0.500000
O O10 0.292269 0.950577 0.902264
O O11 0.894537 0.735242 0.576705
O O12 0.953669 0.699557 0.204527
O O13 0.474129 0.240461 0.293362
O O14 0.886967 0.737843 0.810355
O O15 0.359525 0.201532 0.731014
O O16 0.000000 0.000000 0.000000
O O17 0.160697 0.003351 0.262914
#
# Coordination Sequence:
#
# PCOD9095062 Si02
#       8
#     2   2   2   2   2   2   2   2
#     4  11  21  33  54  79 109 161 201 231 276 320
#     4  10  20  36  62  92 116 145 188 235 293 347
#     4  11  22  41  67  93 116 142 179 232 300 374
#     4  12  25  35  53  79 116 157 203 235 278 323
#     4  11  21  37  58  80 117 154 200 255 274 312
#     4  12  24  37  56  80 111 163 216 247 272 305
#     4  11  23  39  53  81 118 147 183 240 284 353
#     4  10  20  35  54  77 116 155 191 225 277 341
#
# _framework density 19.627364
#
# number of rings (size 3 to 8) (size 9 to 14) (size 15 to 20)
#    0.000    1.000    1.250    9.750    1.750    3.000 
#    0.000    0.000    0.000    0.000    0.000   17.500 
#    0.000    0.000    0.000    0.000    0.000    0.000 
#
# Total GULP energy -89461.819796 kJ/mol
# GULP energy per Si atom -5591.363737 kJ/mol
# Density = 1.958269 g / cm^3
# Si number density = 19.627364 Si / 1000 Ang^3
#
#
#
# Elastic Constant Matrix: (Units=GPa)
#
#
# Indices 1 2 3 4 5 6 
#
# 1 60.0442 -2.8492 28.1310 -5.6983 2.6588 15.8851
# 2 -2.8492 70.5405 8.8022 -15.3894 -0.7298 0.4235
# 3 28.1310 8.8022 63.8820 -15.6544 -3.2387 10.5726
# 4 -5.6983 -15.3894 -15.6544 26.4274 8.2980 3.6538
# 5 2.6588 -0.7298 -3.2387 8.2980 23.7752 -0.7879
# 6 15.8851 0.4235 10.5726 3.6538 -0.7879 48.1875
#
#
#
# Elastic Compliance Matrix: (Units=1/GPa)
#
#
# Indices 1 2 3 4 5 6 
#
# 1 0.023181 0.002881 -0.008908 0.003899 -0.005280 -0.006094
# 2 0.002881 0.016870 -0.000643 0.011582 -0.003997 -0.001900
# 3 -0.008908 -0.000643 0.023052 0.011809 -0.000105 -0.003013
# 4 0.003899 0.011582 0.011809 0.059808 -0.019639 -0.008834
# 5 -0.005280 -0.003997 -0.000105 -0.019639 0.049504 0.004097
# 6 -0.006094 -0.001900 -0.003013 -0.008834 0.004097 0.024176
#
#
# Mechanical properties :
#
#
# Convention : Reuss Voigt Hill
#
# Bulk Modulus (GPa) = 20.09585 29.18164 24.63875
# Shear Modulus (GPa) = 22.07320 30.37022 26.22171
#
# Velocity S-wave (km/s) = 3.35716 3.93789 3.65907
# Velocity P-wave (km/s) = 5.02875 5.96457 5.51654
#
# Compressibility (1/GPa) = 0.04976151
#
# Stress axis : x y z
#
# Youngs Moduli (GPa) = 43.13909 59.27826 43.37928
#
# Poissons Ratio (x) = -0.17076 0.38644
# Poissons Ratio (y) = -0.12427 0.02789
# Poissons Ratio (z) = 0.38430 0.03811
#
# Static dielectric constant tensor:
#      x y z
#    x 1.724790 0.044350 0.011750 
#    y 0.044350 1.715850 -0.002740 
#    z 0.011750 -0.002740 1.709120 
# 
# From -- ./inp_files/477226.got.cif
#   From: 2010.05.17/outbox.cif.g08.bks.cpg/sg2_239_cif.got.tgz:477226.got - 2010.06.03 11:33:40.
