data_PCOD9095034
_publ_section_title
;
Structure prediction by ZEFSAII (Michael W. Deem and Ramdas Pophale) SiO2 
 PCOD9095034
Probable space group: P -1
;
_chemical_formula_sum "Si O2"
_cell_formula_units_Z 16
_cell_length_a 24.141604
_cell_length_b 5.557969
_cell_length_c 6.289064
_cell_angle_alpha 70.367131
_cell_angle_beta 58.724999
_cell_angle_gamma 54.676479
_cell_volume 587.675739
_symmetry_space_group_name_H-M "P -1"
_symmetry_group_IT_number 2
_symmetry_cell_setting 'triclinic'
loop_
_space_group_symop_operation_xyz
x,y,z
-x,-y,-z
loop_
_atom_site_type_symbol
_atom_site_label
_atom_site_fract_x
_atom_site_fract_y
_atom_site_fract_z
Si Si1 0.054436 0.100514 0.088646
Si Si2 0.415793 0.916143 0.483714
Si Si3 0.178326 0.010800 0.182889
Si Si4 0.280266 0.230740 0.891358
Si Si5 0.678786 0.143386 0.686673
Si Si6 0.939496 0.446197 0.516560
Si Si7 0.545048 0.555200 0.080821
Si Si8 0.819542 0.218420 0.352557
O O1 0.120607 0.118721 0.074507
O O2 0.971678 0.365159 0.235467
O O3 0.056130 0.829418 0.290007
O O4 0.092062 0.990177 0.817867
O O5 0.368381 0.858614 0.418457
O O6 0.490721 0.857770 0.230223
O O7 0.439290 0.685051 0.696965
O O8 0.352808 0.207254 0.639620
O O9 0.139930 0.276019 0.353859
O O10 0.183566 0.744112 0.394622
O O11 0.255824 0.982399 0.967324
O O12 0.210990 0.514182 0.835671
O O13 0.302614 0.142676 0.118156
O O14 0.755927 0.126681 0.476674
O O15 0.625464 0.439916 0.845161
O O16 0.000000 0.500000 0.500000
O O17 0.500000 0.500000 0.000000
#
# Coordination Sequence:
#
# PCOD9095034 Si02
#       8
#     2   2   2   2   2   2   2   2
#     4  10  20  38  61  84 115 153 189 238 293 342
#     4   9  16  31  56  80 107 155 190 228 298 334
#     4  10  21  39  58  84 117 149 193 243 285 342
#     4  10  20  35  53  80 117 145 190 243 278 342
#     4   9  19  34  54  80 111 147 190 240 283 337
#     4   9  19  39  62  84 118 148 189 245 284 340
#     4   8  15  30  55  82 111 146 192 238 283 337
#     4  11  22  36  57  84 112 153 193 232 293 349
#
# _framework density 27.225895000000001
#
# number of rings (size 3 to 8) (size 9 to 14) (size 15 to 20)
#    0.000    2.500    1.250    0.750    0.000    1.500 
#    2.250    6.250    0.000   25.500    0.000    0.000 
#    0.000    0.000    0.000    0.000    0.000    0.000 
#
# Total GULP energy -89217.268868 kJ/mol
# GULP energy per Si atom -5576.079304 kJ/mol
# Density = 2.716393 g / cm^3
# Si number density = 27.225895 Si / 1000 Ang^3
#
#
#
# Elastic Constant Matrix: (Units=GPa)
#
#
# Indices 1 2 3 4 5 6 
#
# 1 82.0656 15.0969 19.4874 -13.3159 25.3638 -22.9281
# 2 15.0969 62.5694 34.4001 23.6782 -18.2162 -25.4487
# 3 19.4874 34.4001 186.5447 -9.4823 -11.9398 -9.8679
# 4 -13.3159 23.6782 -9.4823 40.8649 -12.8115 -3.9867
# 5 25.3638 -18.2162 -11.9398 -12.8115 50.4907 -1.1662
# 6 -22.9281 -25.4487 -9.8679 -3.9867 -1.1662 28.7552
#
#
#
# Elastic Compliance Matrix: (Units=1/GPa)
#
#
# Indices 1 2 3 4 5 6 
#
# 1 0.021590 -0.006012 -0.000776 0.008139 -0.010848 0.012317
# 2 -0.006012 0.046378 -0.006617 -0.023235 0.013015 0.031288
# 3 -0.000776 -0.006617 0.006793 0.005082 0.000819 -0.003406
# 4 0.008139 -0.023235 0.005082 0.040771 -0.001079 -0.006720
# 5 -0.010848 0.013015 0.000819 -0.001079 0.029968 0.004215
# 6 0.012317 0.031288 -0.003406 -0.006720 0.004215 0.070357
#
#
# Mechanical properties :
#
#
# Convention : Reuss Voigt Hill
#
# Bulk Modulus (GPa) = 20.85451 52.12760 36.49106
# Shear Modulus (GPa) = 19.33106 41.50184 30.41645
#
# Velocity S-wave (km/s) = 2.66752 3.90853 3.34606
# Velocity P-wave (km/s) = 4.14294 6.28941 5.32544
#
# Compressibility (1/GPa) = 0.04795125
#
# Stress axis : x y z
#
# Youngs Moduli (GPa) = 46.31722 21.56184 147.21896
#
# Poissons Ratio (x) = 0.12962 0.11423
# Poissons Ratio (y) = 0.27844 0.97421
# Poissons Ratio (z) = 0.03594 0.14268
#
# Static dielectric constant tensor:
#      x y z
#    x 2.054550 -0.020070 0.014820 
#    y -0.020070 2.326180 0.043030 
#    z 0.014820 0.043030 2.196070 
# 
# From -- ./inp_files/120399.got.cif
#   From: 2010.05.17/outbox.cif.g08.bks.cpg/sg2_61_cif.got.tgz:120399.got - 2010.06.03 11:33:40.
