data_PCOD9095749
_publ_section_title
;
Structure prediction by ZEFSAII (Michael W. Deem and Ramdas Pophale) SiO2 
 PCOD9095749
Probable space group: P -1
;
_chemical_formula_sum "Si O2"
_cell_formula_units_Z 14
_cell_length_a 5.686065
_cell_length_b 8.142086
_cell_length_c 18.828106
_cell_angle_alpha 35.816378
_cell_angle_beta 86.749096
_cell_angle_gamma 85.848092
_cell_volume 508.752840
_symmetry_space_group_name_H-M "P -1"
_symmetry_group_IT_number 2
_symmetry_cell_setting 'triclinic'
loop_
_space_group_symop_operation_xyz
x,y,z
-x,-y,-z
loop_
_atom_site_type_symbol
_atom_site_label
_atom_site_fract_x
_atom_site_fract_y
_atom_site_fract_z
Si Si1 0.755640 0.728227 0.443542
Si Si2 0.079435 0.121819 0.239343
Si Si3 0.513351 0.908659 0.949141
Si Si4 0.459747 0.785537 0.637937
Si Si5 0.972488 0.131508 0.075358
Si Si6 0.026587 0.494282 0.239977
Si Si7 0.462130 0.750007 0.309399
O O1 0.669054 0.644512 0.395772
O O2 0.720288 0.496633 0.585943
O O3 0.007030 0.858236 0.382457
O O4 0.598721 0.004817 0.369814
O O5 0.950020 0.120560 0.165349
O O6 0.342070 0.039115 0.239429
O O7 0.021221 0.387649 0.196070
O O8 0.767169 0.758835 0.982462
O O9 0.495657 0.165639 0.801881
O O10 0.278981 0.748294 0.990646
O O11 0.500000 0.000000 0.000000
O O12 0.710132 0.619751 0.703408
O O13 0.211023 0.639242 0.678685
O O14 0.500000 0.000000 0.500000
O O15 0.002568 0.823281 0.144558
#
# Coordination Sequence:
#
# PCOD9095749 Si02
#       7
#     2   2   2   2   2   2   2
#     4  10  20  35  59  91 132 171 213 256 325 386
#     4  10  21  39  61  95 135 170 216 262 325 390
#     4  11  24  45  70  99 128 170 224 277 332 386
#     4  11  24  38  56  93 140 178 214 269 315 392
#     4  11  24  42  74  95 128 176 217 276 328 391
#     4  11  24  41  63  94 133 175 219 265 327 387
#     4  10  20  36  61  90 127 171 215 265 320 391
#
# _framework density 27.518276
#
# number of rings (size 3 to 8) (size 9 to 14) (size 15 to 20)
#    0.000    1.429    2.857    2.143    6.000    0.000 
#    0.000    0.000    0.000   12.000    0.000    0.000 
#    0.000    0.000    0.000    0.000    0.000    0.000 
#
# Total GULP energy -78191.129339 kJ/mol
# GULP energy per Si atom -5585.080667 kJ/mol
# Density = 2.745564 g / cm^3
# Si number density = 27.518276 Si / 1000 Ang^3
#
#
#
# Elastic Constant Matrix: (Units=GPa)
#
#
# Indices 1 2 3 4 5 6 
#
# 1 186.8621 23.7556 53.3668 -5.7684 -14.6668 -10.8138
# 2 23.7556 132.4585 26.1658 15.8448 5.4206 -10.3539
# 3 53.3668 26.1658 155.9423 20.4898 -17.8566 1.6177
# 4 -5.7684 15.8448 20.4898 44.8306 2.1156 9.6735
# 5 -14.6668 5.4206 -17.8566 2.1156 48.2754 3.3024
# 6 -10.8138 -10.3539 1.6177 9.6735 3.3024 38.9428
#
#
#
# Elastic Compliance Matrix: (Units=1/GPa)
#
#
# Indices 1 2 3 4 5 6 
#
# 1 0.006271 -0.000883 -0.002125 0.001812 0.001067 0.001054
# 2 -0.000883 0.008590 -0.000924 -0.003306 -0.001637 0.003037
# 3 -0.002125 -0.000924 0.008083 -0.003661 0.002642 -0.000486
# 4 0.001812 -0.003306 -0.003661 0.026904 -0.001146 -0.006809
# 5 0.001067 -0.001637 0.002642 -0.001146 0.022377 -0.001862
# 6 0.001054 0.003037 -0.000486 -0.006809 -0.001862 0.028648
#
#
# Mechanical properties :
#
#
# Convention : Reuss Voigt Hill
#
# Bulk Modulus (GPa) = 66.30680 75.75993 71.03336
# Shear Modulus (GPa) = 43.94986 51.20808 47.57897
#
# Velocity S-wave (km/s) = 4.00073 4.31847 4.16263
# Velocity P-wave (km/s) = 6.74455 7.24266 6.99804
#
# Compressibility (1/GPa) = 0.01508141
#
# Stress axis : x y z
#
# Youngs Moduli (GPa) = 159.45476 116.41150 123.70947
#
# Poissons Ratio (x) = 0.10279 0.26287
# Poissons Ratio (y) = 0.14080 0.11429
# Poissons Ratio (z) = 0.33883 0.10755
#
# Static dielectric constant tensor:
#      x y z
#    x 2.190220 -0.004380 -0.046430 
#    y -0.004380 2.379340 0.044860 
#    z -0.046430 0.044860 2.225200 
# 
# From -- ./inp_files/370321.got.cif
#   From: 2010.05.17/outbox.cif.g08.bks.cpg/sg2_186_cif.got.tgz:370321.got - 2010.06.03 11:33:40.
