data_PCOD9095243
_publ_section_title
;
Structure prediction by ZEFSAII (Michael W. Deem and Ramdas Pophale) SiO2 
 PCOD9095243
Probable space group: P -1
;
_chemical_formula_sum "Si O2"
_cell_formula_units_Z 16
_cell_length_a 8.712025
_cell_length_b 19.421245
_cell_length_c 7.259101
_cell_angle_alpha 38.338459
_cell_angle_beta 69.444194
_cell_angle_gamma 58.451389
_cell_volume 645.174175
_symmetry_space_group_name_H-M "P -1"
_symmetry_group_IT_number 2
_symmetry_cell_setting 'triclinic'
loop_
_space_group_symop_operation_xyz
x,y,z
-x,-y,-z
loop_
_atom_site_type_symbol
_atom_site_label
_atom_site_fract_x
_atom_site_fract_y
_atom_site_fract_z
Si Si1 0.452225 0.702565 0.612111
Si Si2 0.762472 0.726269 0.016635
Si Si3 0.892711 0.287329 0.182988
Si Si4 0.285245 0.197996 0.541347
Si Si5 0.581029 0.074104 0.078978
Si Si6 0.083561 0.763486 0.309317
Si Si7 0.918246 0.002070 0.326363
Si Si8 0.512181 0.392121 0.591197
O O1 0.311613 0.684381 0.845523
O O2 0.607734 0.724321 0.603571
O O3 0.506799 0.602857 0.635427
O O4 0.365766 0.834027 0.261047
O O5 0.764907 0.767232 0.721129
O O6 0.628076 0.842257 0.952005
O O7 0.979428 0.669295 0.081293
O O8 0.652532 0.644052 0.223301
O O9 0.873122 0.312979 0.356503
O O10 0.993295 0.140393 0.453599
O O11 0.106604 0.238212 0.658140
O O12 0.385991 0.049600 0.785287
O O13 0.705416 0.045056 0.272051
O O14 0.279276 0.706844 0.250239
O O15 0.027575 0.909261 0.009735
O O16 0.000000 0.000000 0.500000
O O17 0.500000 0.500000 0.500000
#
# Coordination Sequence:
#
# PCOD9095243 Si02
#       8
#     2   2   2   2   2   2   2   2
#     4  10  22  38  61  87 119 164 207 234 300 360
#     4  10  21  36  59  86 122 154 198 251 291 350
#     4  10  20  35  56  81 125 164 190 242 288 352
#     4  11  22  36  61  89 125 163 194 242 298 358
#     4  11  20  38  53  87 137 165 195 237 284 358
#     4  10  20  41  58  83 124 161 200 247 290 354
#     4  12  22  31  57  90 130 168 197 224 293 355
#     4  10  22  44  68  82 112 159 202 259 314 345
#
# _framework density 24.799503999999999
#
# number of rings (size 3 to 8) (size 9 to 14) (size 15 to 20)
#    0.000    1.500    6.250    1.875    1.750    2.000 
#    0.000    6.875    0.000    0.000    0.000    0.000 
#    0.000    0.000    0.000    0.000    0.000    0.000 
#
# Total GULP energy -89080.887599 kJ/mol
# GULP energy per Si atom -5567.555475 kJ/mol
# Density = 2.474306 g / cm^3
# Si number density = 24.799504 Si / 1000 Ang^3
#
#
#
# Elastic Constant Matrix: (Units=GPa)
#
#
# Indices 1 2 3 4 5 6 
#
# 1 176.9705 62.7912 29.1620 17.0357 -45.2377 -14.8235
# 2 62.7912 88.8152 28.9885 -2.8242 -41.0844 6.2295
# 3 29.1620 28.9885 45.4648 13.7968 -22.2514 -15.0333
# 4 17.0357 -2.8242 13.7968 32.7312 0.3621 -6.2227
# 5 -45.2377 -41.0844 -22.2514 0.3621 52.8492 27.8246
# 6 -14.8235 6.2295 -15.0333 -6.2227 27.8246 27.9037
#
#
#
# Elastic Compliance Matrix: (Units=1/GPa)
#
#
# Indices 1 2 3 4 5 6 
#
# 1 0.008625 -0.000594 -0.000674 -0.005816 0.010671 -0.007586
# 2 -0.000594 -0.081062 0.038030 0.014519 -0.146246 0.187339
# 3 -0.000674 0.038030 0.015461 -0.019990 0.080535 -0.085283
# 4 -0.005816 0.014519 -0.019990 0.040983 0.003794 -0.011745
# 5 0.010671 -0.146246 0.080535 0.003794 -0.200453 0.282438
# 6 -0.007586 0.187339 -0.085283 -0.011745 0.282438 -0.340219
#
#
# Mechanical properties :
#
#
# Convention : Reuss Voigt Hill
#
# Bulk Modulus (GPa) = 60.43226 61.45931 60.94579
# Shear Modulus (GPa) = -8.00418 35.38408 13.68995
#
# Velocity S-wave (km/s) = -1.79849 3.78141 2.35207
# Velocity P-wave (km/s) = 4.48425 6.62583 5.65730
#
# Compressibility (1/GPa) = 0.01654745
#
# Stress axis : x y z
#
# Youngs Moduli (GPa) = 115.94535 -12.33619 64.67794
#
# Poissons Ratio (x) = -0.00733 0.04360
# Poissons Ratio (y) = 0.06891 -2.45972
# Poissons Ratio (z) = 0.07816 0.46915
#
# Static dielectric constant tensor:
#      x y z
#    x 2.156210 -0.030780 0.046550 
#    y -0.030780 2.086750 0.057200 
#    z 0.046550 0.057200 2.001430 
# 
# From -- ./inp_files/213645.got.cif
#   From: 2010.05.17/outbox.cif.g08.bks.cpg/sg2_107_cif.got.tgz:213645.got - 2010.06.03 11:33:40.
