data_PCOD9095049
_publ_section_title
;
Structure prediction by ZEFSAII (Michael W. Deem and Ramdas Pophale) SiO2 
 PCOD9095049
Probable space group: P -1
;
_chemical_formula_sum "Si O2"
_cell_formula_units_Z 15
_cell_length_a 11.994061
_cell_length_b 9.457292
_cell_length_c 9.659596
_cell_angle_alpha 63.441892
_cell_angle_beta 52.312211
_cell_angle_gamma 37.012809
_cell_volume 520.037937
_symmetry_space_group_name_H-M "P -1"
_symmetry_group_IT_number 2
_symmetry_cell_setting 'triclinic'
loop_
_space_group_symop_operation_xyz
x,y,z
-x,-y,-z
loop_
_atom_site_type_symbol
_atom_site_label
_atom_site_fract_x
_atom_site_fract_y
_atom_site_fract_z
Si Si1 0.885594 0.221171 0.658235
Si Si2 0.549180 0.378200 0.347515
Si Si3 0.972191 0.147126 0.081244
Si Si4 0.323865 0.344587 0.716529
Si Si5 0.346060 0.009845 0.735923
Si Si6 0.500000 0.000000 0.000000
Si Si7 0.876607 0.810801 0.756127
Si Si8 0.192457 0.409448 0.302134
O O1 0.664163 0.405873 0.666872
O O2 0.957134 0.997919 0.765914
O O3 0.860611 0.362121 0.745145
O O4 0.050836 0.148160 0.450154
O O5 0.475241 0.365430 0.555431
O O6 0.655352 0.127146 0.316978
O O7 0.721945 0.367802 0.189679
O O8 0.130057 0.154083 0.918514
O O9 0.000000 0.000000 0.000000
O O10 0.082377 0.599300 0.779543
O O11 0.333029 0.209696 0.638419
O O12 0.394603 0.183844 0.862201
O O13 0.575215 0.796478 0.722939
O O14 0.344562 0.972482 0.101530
O O15 0.791788 0.709642 0.796534
O O16 0.000000 0.500000 0.500000
#
# Coordination Sequence:
#
# PCOD9095049 Si02
#       8
#     2   2   2   2   2   1   2   2
#     4   9  19  36  55  81 120 148 190 224 275 348
#     4   9  20  35  57  82 113 156 186 225 283 335
#     4  10  21  32  52  85 122 157 177 223 286 341
#     4  11  22  37  59  84 111 149 195 234 283 339
#     4  10  20  35  53  89 123 145 185 232 281 341
#     4  12  22  38  56  84 122 138 192 244 290 324
#     4  10  21  36  59  85 106 154 188 239 281 331
#     4   9  18  32  55  85 112 148 182 226 283 327
#
# _framework density 28.844049999999999
#
# number of rings (size 3 to 8) (size 9 to 14) (size 15 to 20)
#    0.000    2.133    1.333    2.400    5.600    4.800 
#    0.000    0.000    0.000    3.200    0.000    7.467 
#    0.000    0.000    0.000    0.000    0.000    0.000 
#
# Total GULP energy -83798.305338 kJ/mol
# GULP energy per Si atom -5586.553689 kJ/mol
# Density = 2.877840 g / cm^3
# Si number density = 28.844050 Si / 1000 Ang^3
#
#
#
# Elastic Constant Matrix: (Units=GPa)
#
#
# Indices 1 2 3 4 5 6 
#
# 1 63.4017 16.8836 28.5415 3.5165 -15.9988 -23.0635
# 2 16.8836 161.4864 67.1202 -4.6364 -18.1007 -14.3948
# 3 28.5415 67.1202 187.5578 9.8815 -29.3367 -32.0518
# 4 3.5165 -4.6364 9.8815 57.4668 -6.9910 -5.9924
# 5 -15.9988 -18.1007 -29.3367 -6.9910 69.5241 12.4531
# 6 -23.0635 -14.3948 -32.0518 -5.9924 12.4531 65.5658
#
#
#
# Elastic Compliance Matrix: (Units=1/GPa)
#
#
# Indices 1 2 3 4 5 6 
#
# 1 0.019215 -0.000673 -0.001325 -0.000106 0.002702 0.005441
# 2 -0.000673 0.007426 -0.002463 0.001180 0.000833 0.000139
# 3 -0.001325 -0.002463 0.007062 -0.000926 0.001571 0.002062
# 4 -0.000106 0.001180 -0.000926 0.017962 0.001496 0.001126
# 5 0.002702 0.000833 0.001571 0.001496 0.016222 -0.001043
# 6 0.005441 0.000139 0.002062 0.001126 -0.001043 0.018505
#
#
# Mechanical properties :
#
#
# Convention : Reuss Voigt Hill
#
# Bulk Modulus (GPa) = 40.35555 70.83737 55.59646
# Shear Modulus (GPa) = 48.27366 58.50470 53.38918
#
# Velocity S-wave (km/s) = 4.09541 4.50856 4.30695
# Velocity P-wave (km/s) = 6.03196 7.19131 6.63700
#
# Compressibility (1/GPa) = 0.02477974
#
# Stress axis : x y z
#
# Youngs Moduli (GPa) = 52.04225 134.65611 141.60739
#
# Poissons Ratio (x) = 0.09068 0.18764
# Poissons Ratio (y) = 0.03505 0.34882
# Poissons Ratio (z) = 0.06896 0.33169
#
# Static dielectric constant tensor:
#      x y z
#    x 2.577530 0.111000 0.150540 
#    y 0.111000 1.848980 -0.182970 
#    z 0.150540 -0.182970 1.979900 
# 
# From -- ./inp_files/422415.got.cif
#   From: 2010.05.17/outbox.cif.g08.bks.cpg/sg2_212_cif.got.tgz:422415.got - 2010.06.03 11:33:40.
