data_PCOD9095041
_publ_section_title
;
Structure prediction by ZEFSAII (Michael W. Deem and Ramdas Pophale) SiO2 
 PCOD9095041
Probable space group: P -1
;
_chemical_formula_sum "Si O2"
_cell_formula_units_Z 16
_cell_length_a 12.088454
_cell_length_b 13.804457
_cell_length_c 9.320110
_cell_angle_alpha 62.473951
_cell_angle_beta 51.336712
_cell_angle_gamma 35.584648
_cell_volume 703.057029
_symmetry_space_group_name_H-M "P -1"
_symmetry_group_IT_number 2
_symmetry_cell_setting 'triclinic'
loop_
_space_group_symop_operation_xyz
x,y,z
-x,-y,-z
loop_
_atom_site_type_symbol
_atom_site_label
_atom_site_fract_x
_atom_site_fract_y
_atom_site_fract_z
Si Si1 0.331866 0.091776 0.911909
Si Si2 0.022307 0.601212 0.808658
Si Si3 0.495458 0.626759 0.362351
Si Si4 0.320282 0.318773 0.326864
Si Si5 0.087653 0.370263 0.721533
Si Si6 0.109506 0.959625 0.599011
Si Si7 0.211229 0.143408 0.404620
Si Si8 0.323661 0.846386 0.071597
O O1 0.193024 0.196196 0.807271
O O2 0.565659 0.007730 0.759265
O O3 0.184164 0.237641 0.046631
O O4 0.364745 0.946587 0.020366
O O5 0.256471 0.480972 0.765814
O O6 0.001715 0.491176 0.842055
O O7 0.994952 0.694800 0.628288
O O8 0.500000 0.500000 0.500000
O O9 0.344479 0.773544 0.502686
O O10 0.405888 0.711750 0.217370
O O11 0.278070 0.331739 0.520731
O O12 0.280550 0.212663 0.388898
O O13 0.119788 0.507574 0.297981
O O14 0.537193 0.236573 0.132101
O O15 0.141831 0.063503 0.560443
O O16 0.000000 0.000000 0.500000
O O17 0.937084 0.008695 0.815289
#
# Coordination Sequence:
#
# PCOD9095041 Si02
#       8
#     2   2   2   2   2   2   2   2
#     4  11  21  35  58  88 118 146 189 239 289 337
#     4  11  20  33  56  86 115 147 190 238 288 339
#     4  11  21  35  56  84 119 152 184 232 296 348
#     4   9  21  40  60  83 115 153 196 232 275 337
#     4  10  21  36  58  86 116 151 189 237 286 333
#     4  10  20  35  53  82 116 147 184 230 287 339
#     4  10  21  36  57  83 118 153 184 232 287 342
#     4  10  21  37  59  85 116 151 191 234 278 343
#
# _framework density 22.757756000000001
#
# number of rings (size 3 to 8) (size 9 to 14) (size 15 to 20)
#    0.000    1.750    0.000    6.000    0.000    8.000 
#    0.000    0.000    0.000   20.250    0.000    0.000 
#    0.000    0.000    0.000    0.000    0.000    0.000 
#
# Total GULP energy -89128.198193 kJ/mol
# GULP energy per Si atom -5570.512387 kJ/mol
# Density = 2.270596 g / cm^3
# Si number density = 22.757756 Si / 1000 Ang^3
#
#
#
# Elastic Constant Matrix: (Units=GPa)
#
#
# Indices 1 2 3 4 5 6 
#
# 1 22.0202 6.7112 16.5930 3.4053 -10.1228 -6.0101
# 2 6.7112 93.9603 27.8983 2.4912 6.6469 -1.8900
# 3 16.5930 27.8983 140.4546 23.3475 -19.6926 8.9868
# 4 3.4053 2.4912 23.3475 57.2813 -2.4353 -6.4318
# 5 -10.1228 6.6469 -19.6926 -2.4353 21.6698 3.4973
# 6 -6.0101 -1.8900 8.9868 -6.4318 3.4973 15.4961
#
#
#
# Elastic Compliance Matrix: (Units=1/GPa)
#
#
# Indices 1 2 3 4 5 6 
#
# 1 0.068865 -0.004497 -0.005780 0.002300 0.024531 0.024931
# 2 -0.004497 0.012989 -0.004105 0.001515 -0.010487 0.005216
# 3 -0.005780 -0.004105 0.012047 -0.005546 0.011234 -0.014566
# 4 0.002300 0.001515 -0.005546 0.020897 -0.004333 0.013945
# 5 0.024531 -0.010487 0.011234 -0.004333 0.073225 -0.016604
# 6 0.024931 0.005216 -0.014566 0.013945 -0.016604 0.092821
#
#
# Mechanical properties :
#
#
# Convention : Reuss Voigt Hill
#
# Bulk Modulus (GPa) = 15.35241 39.87113 27.61177
# Shear Modulus (GPa) = 15.09110 32.57160 23.83135
#
# Velocity S-wave (km/s) = 2.57790 3.78727 3.23952
# Velocity P-wave (km/s) = 3.95240 6.05659 5.11389
#
# Compressibility (1/GPa) = 0.06513635
#
# Stress axis : x y z
#
# Youngs Moduli (GPa) = 14.52121 76.98595 83.00840
#
# Poissons Ratio (x) = 0.34623 0.47982
# Poissons Ratio (y) = 0.06531 0.34073
# Poissons Ratio (z) = 0.08394 0.31601
#
# Static dielectric constant tensor:
#      x y z
#    x 1.977830 -0.035680 0.144310 
#    y -0.035680 1.907110 -0.041710 
#    z 0.144310 -0.041710 1.954550 
# 
# From -- ./inp_files/454613.got.cif
#   From: 2010.05.17/outbox.cif.g08.bks.cpg/sg2_228_cif.got.tgz:454613.got - 2010.06.03 11:33:40.
