data_PCOD9095302
_publ_section_title
;
Structure prediction by ZEFSAII (Michael W. Deem and Ramdas Pophale) SiO2 
 PCOD9095302
Probable space group: P -1
;
_chemical_formula_sum "Si O2"
_cell_formula_units_Z 16
_cell_length_a 11.260801
_cell_length_b 23.115191
_cell_length_c 25.303749
_cell_angle_alpha 11.863985
_cell_angle_beta 30.250276
_cell_angle_gamma 27.993669
_cell_volume 635.577537
_symmetry_space_group_name_H-M "P -1"
_symmetry_group_IT_number 2
_symmetry_cell_setting 'triclinic'
loop_
_space_group_symop_operation_xyz
x,y,z
-x,-y,-z
loop_
_atom_site_type_symbol
_atom_site_label
_atom_site_fract_x
_atom_site_fract_y
_atom_site_fract_z
Si Si1 0.728074 0.193746 0.961012
Si Si2 0.990311 0.344140 0.404716
Si Si3 0.891296 0.693153 0.422363
Si Si4 0.439998 0.860073 0.703444
Si Si5 0.840399 0.953850 0.945904
Si Si6 0.385723 0.888267 0.222606
Si Si7 0.828799 0.693718 0.970398
Si Si8 0.098321 0.114743 0.448532
O O1 0.743993 0.520921 0.664100
O O2 0.457229 0.231329 0.006804
O O3 0.734862 0.023675 0.165018
O O4 0.000000 0.000000 0.000000
O O5 0.028274 0.286058 0.379609
O O6 0.144479 0.062058 0.635149
O O7 0.694006 0.398641 0.478661
O O8 0.057223 0.625737 0.147306
O O9 0.000000 0.500000 0.500000
O O10 0.103962 0.753597 0.320547
O O11 0.603239 0.941980 0.612809
O O12 0.500000 0.000000 0.500000
O O13 0.500000 0.500000 0.000000
O O14 0.710826 0.000399 0.897624
O O15 0.664931 0.895839 0.111222
O O16 0.218154 0.121882 0.121655
O O17 0.966196 0.344628 0.246655
O O18 0.998021 0.836342 0.742166
#
# Coordination Sequence:
#
# PCOD9095302 Si02
#       8
#     2   2   2   2   2   2   2   2
#     4  10  21  38  56  80 107 151 195 241 280 327
#     4  10  21  35  55  83 124 157 194 231 290 357
#     4  10  22  39  56  77 109 154 203 240 278 322
#     4  10  20  35  58  82 122 157 190 236 287 355
#     4  11  22  36  55  81 122 162 196 234 283 355
#     4  10  21  35  52  85 122 160 189 224 295 351
#     4  11  20  37  60  83 119 149 193 239 286 350
#     4  10  20  35  56  89 112 152 189 235 295 345
#
# _framework density 25.173954999999999
#
# number of rings (size 3 to 8) (size 9 to 14) (size 15 to 20)
#    0.000    1.750    1.250    4.875    3.500    1.000 
#    4.500    0.000    0.000    0.000    0.000    5.250 
#    0.000    0.000    0.000    0.000    0.000    0.000 
#
# Total GULP energy -89261.088467 kJ/mol
# GULP energy per Si atom -5578.818029 kJ/mol
# Density = 2.511666 g / cm^3
# Si number density = 25.173955 Si / 1000 Ang^3
#
#
#
# Elastic Constant Matrix: (Units=GPa)
#
#
# Indices 1 2 3 4 5 6 
#
# 1 67.3840 18.2437 41.6497 6.2998 5.0011 -22.9410
# 2 18.2437 65.9082 30.0560 13.4303 -0.8129 -16.1817
# 3 41.6497 30.0560 209.5995 21.5666 15.2772 -11.9024
# 4 6.2998 13.4303 21.5666 33.8290 -11.0620 -6.8391
# 5 5.0011 -0.8129 15.2772 -11.0620 49.3487 -1.4471
# 6 -22.9410 -16.1817 -11.9024 -6.8391 -1.4471 38.2793
#
#
#
# Elastic Compliance Matrix: (Units=1/GPa)
#
#
# Indices 1 2 3 4 5 6 
#
# 1 0.021106 -0.001814 -0.003366 0.000964 -0.000588 0.010985
# 2 -0.001814 0.018725 -0.001494 -0.005044 -0.000016 0.005462
# 3 -0.003366 -0.001494 0.006142 -0.003814 -0.002484 -0.001515
# 4 0.000964 -0.005044 -0.003814 0.037844 0.009612 0.004384
# 5 -0.000588 -0.000016 -0.002484 0.009612 0.023290 0.001466
# 6 0.010985 0.005462 -0.001515 0.004384 0.001466 0.035384
#
#
# Mechanical properties :
#
#
# Convention : Reuss Voigt Hill
#
# Bulk Modulus (GPa) = 30.65275 58.08783 44.37029
# Shear Modulus (GPa) = 29.99161 41.15423 35.57292
#
# Velocity S-wave (km/s) = 3.45537 4.04765 3.76318
# Velocity P-wave (km/s) = 5.30304 6.70591 6.04531
#
# Compressibility (1/GPa) = 0.03262351
#
# Stress axis : x y z
#
# Youngs Moduli (GPa) = 47.38087 53.40499 162.82195
#
# Poissons Ratio (x) = 0.09685 0.54812
# Poissons Ratio (y) = 0.08593 0.24332
# Poissons Ratio (z) = 0.15950 0.07981
#
# Static dielectric constant tensor:
#      x y z
#    x 2.241500 -0.123390 -0.153470 
#    y -0.123390 2.274530 0.084350 
#    z -0.153470 0.084350 2.111410 
# 
# From -- ./inp_files/623231.got.cif
#   From: 2010.05.17/outbox.cif.g08.bks.cpg/sg2_312_cif.got.tgz:623231.got - 2010.06.03 11:33:40.
