data_PCOD9095931
_publ_section_title
;
Structure prediction by ZEFSAII (Michael W. Deem and Ramdas Pophale) SiO2 
 PCOD9095931
Probable space group: P -1
;
_chemical_formula_sum "Si O2"
_cell_formula_units_Z 14
_cell_length_a 10.196594
_cell_length_b 11.391598
_cell_length_c 9.018568
_cell_angle_alpha 52.336370
_cell_angle_beta 127.850574
_cell_angle_gamma 127.430225
_cell_volume 607.656599
_symmetry_space_group_name_H-M "P -1"
_symmetry_group_IT_number 2
_symmetry_cell_setting 'triclinic'
loop_
_space_group_symop_operation_xyz
x,y,z
-x,-y,-z
loop_
_atom_site_type_symbol
_atom_site_label
_atom_site_fract_x
_atom_site_fract_y
_atom_site_fract_z
Si Si1 0.796376 0.212975 0.353554
Si Si2 0.046002 0.560188 0.179116
Si Si3 0.557150 0.348145 0.659629
Si Si4 0.839197 0.005758 0.787736
Si Si5 0.690377 0.241971 0.558570
Si Si6 0.094798 0.190296 0.232853
Si Si7 0.747191 0.944278 0.294542
O O1 0.931127 0.374918 0.254646
O O2 0.673833 0.254638 0.360434
O O3 0.901941 0.140145 0.597660
O O4 0.716242 0.073877 0.284227
O O5 0.066149 0.348394 0.045845
O O6 0.234836 0.598424 0.197544
O O7 0.119065 0.638273 0.332083
O O8 0.500000 0.500000 0.500000
O O9 0.554982 0.280465 0.542538
O O10 0.430031 0.194476 0.780685
O O11 0.781048 0.845365 0.776791
O O12 0.695928 0.064751 0.721740
O O13 0.000000 0.000000 0.000000
O O14 0.164999 0.159434 0.464788
O O15 0.892721 0.054216 0.196415
#
# Coordination Sequence:
#
# PCOD9095931 Si02
#       7
#     2   2   2   2   2   2   2
#     4   9  19  35  60  85 114 148 191 234 279 338
#     4  10  20  37  59  89 110 151 194 235 278 334
#     4  10  23  38  56  84 117 151 189 234 293 332
#     4   9  15  32  56  87 108 145 188 239 270 331
#     4   8  19  32  59  84 110 147 189 232 281 334
#     4  10  20  35  61  84 116 146 199 228 279 343
#     4  10  23  38  57  85 118 155 184 234 291 338
#
# _framework density 23.03933
#
# number of rings (size 3 to 8) (size 9 to 14) (size 15 to 20)
#    1.714    0.857    1.429    0.429    6.000    1.714 
#    0.000    0.000    0.000    0.857    0.000    0.000 
#    0.000    0.000    0.000    0.000    0.000    0.000 
#
# Total GULP energy -77934.791097 kJ/mol
# GULP energy per Si atom -5566.770793 kJ/mol
# Density = 2.298689 g / cm^3
# Si number density = 23.039330 Si / 1000 Ang^3
#
#
#
# Elastic Constant Matrix: (Units=GPa)
#
#
# Indices 1 2 3 4 5 6 
#
# 1 93.2311 47.1810 5.5314 -2.0402 5.0119 -29.8560
# 2 47.1810 141.8429 35.0365 -17.4199 15.7099 -2.7727
# 3 5.5314 35.0365 63.3652 -15.5733 9.7624 -7.0797
# 4 -2.0402 -17.4199 -15.5733 31.2160 -12.3808 -1.9612
# 5 5.0119 15.7099 9.7624 -12.3808 20.5366 -2.7699
# 6 -29.8560 -2.7727 -7.0797 -1.9612 -2.7699 42.8438
#
#
#
# Elastic Compliance Matrix: (Units=1/GPa)
#
#
# Indices 1 2 3 4 5 6 
#
# 1 0.017890 -0.006620 0.003460 0.000397 0.001005 0.012693
# 2 -0.006620 0.011047 -0.005136 0.001114 -0.004393 -0.004980
# 3 0.003460 -0.005136 0.021082 0.007626 -0.001557 0.005811
# 4 0.000397 0.001114 0.007626 0.046377 0.024098 0.005290
# 5 0.001005 -0.004393 -0.001557 0.024098 0.067839 0.005647
# 6 0.012693 -0.004980 0.005811 0.005290 0.005647 0.033431
#
#
# Mechanical properties :
#
#
# Convention : Reuss Voigt Hill
#
# Bulk Modulus (GPa) = 29.91551 52.65966 41.28758
# Shear Modulus (GPa) = 22.18266 32.96530 27.57398
#
# Velocity S-wave (km/s) = 3.10630 3.78673 3.46326
# Velocity P-wave (km/s) = 5.08706 6.48268 5.82680
#
# Compressibility (1/GPa) = 0.03342748
#
# Stress axis : x y z
#
# Youngs Moduli (GPa) = 55.89584 90.52498 47.43275
#
# Poissons Ratio (x) = 0.59926 -0.16410
# Poissons Ratio (y) = 0.37002 0.24361
# Poissons Ratio (z) = -0.19338 0.46492
#
# Static dielectric constant tensor:
#      x y z
#    x 2.043480 -0.039970 0.013250 
#    y -0.039970 1.886390 0.062090 
#    z 0.013250 0.062090 1.889350 
# 
# From -- ./inp_files/421168.got.cif
#   From: 2010.05.17/outbox.cif.g08.bks.cpg/sg2_211_cif.got.tgz:421168.got - 2010.06.03 11:33:40.
