data_PCOD9095318
_publ_section_title
;
Structure prediction by ZEFSAII (Michael W. Deem and Ramdas Pophale) SiO2 
 PCOD9095318
Probable space group: P -1
;
_chemical_formula_sum "Si O2"
_cell_formula_units_Z 15
_cell_length_a 8.814845
_cell_length_b 9.393430
_cell_length_c 14.359113
_cell_angle_alpha 106.211926
_cell_angle_beta 144.125927
_cell_angle_gamma 58.119182
_cell_volume 564.570260
_symmetry_space_group_name_H-M "P -1"
_symmetry_group_IT_number 2
_symmetry_cell_setting 'triclinic'
loop_
_space_group_symop_operation_xyz
x,y,z
-x,-y,-z
loop_
_atom_site_type_symbol
_atom_site_label
_atom_site_fract_x
_atom_site_fract_y
_atom_site_fract_z
Si Si1 0.792765 0.877308 0.432856
Si Si2 0.936111 0.842897 0.280204
Si Si3 0.000000 0.500000 0.500000
Si Si4 0.318162 0.570078 0.016222
Si Si5 0.252805 0.844647 0.158511
Si Si6 0.451869 0.209180 0.079692
Si Si7 0.574427 0.407244 0.647232
Si Si8 0.624423 0.745465 0.738115
O O1 0.854130 0.835623 0.345152
O O2 0.004841 0.685482 0.549323
O O3 0.467383 0.910061 0.307833
O O4 0.692335 0.082040 0.425670
O O5 0.278308 0.688091 0.394382
O O6 0.806652 0.046465 0.225818
O O7 0.716362 0.809029 0.097107
O O8 0.752370 0.554907 0.474789
O O9 0.949219 0.689245 0.843041
O O10 0.500000 0.500000 0.000000
O O11 0.439565 0.676111 0.152202
O O12 0.386499 0.401731 0.075812
O O13 0.193519 0.754794 0.197800
O O14 0.000000 0.000000 0.000000
O O15 0.354741 0.199421 0.135221
O O16 0.609416 0.572292 0.705644
#
# Coordination Sequence:
#
# PCOD9095318 Si02
#       8
#     2   2   1   2   2   2   2   2
#     4  10  23  42  63  87 119 166 207 251 302 363
#     4  10  21  34  64  92 123 157 202 244 299 368
#     4  10  26  46  64  82 116 166 216 260 308 350
#     4  12  22  30  53  91 133 160 189 236 293 373
#     4  11  22  35  56  88 131 165 187 238 312 368
#     4  10  20  35  56  96 134 159 187 236 307 384
#     4  11  23  41  65  87 121 164 211 257 297 357
#     4  11  21  39  61  90 124 164 203 241 309 366
#
# _framework density 26.568878999999999
#
# number of rings (size 3 to 8) (size 9 to 14) (size 15 to 20)
#    0.000    1.333    4.000    2.000    5.600    1.067 
#    0.000    0.000    0.000    4.000    0.000    0.000 
#    0.000    0.000    0.000    0.000    0.000    0.000 
#
# Total GULP energy -83515.851242 kJ/mol
# GULP energy per Si atom -5567.723416 kJ/mol
# Density = 2.650841 g / cm^3
# Si number density = 26.568879 Si / 1000 Ang^3
#
#
#
# Elastic Constant Matrix: (Units=GPa)
#
#
# Indices 1 2 3 4 5 6 
#
# 1 100.6136 45.1520 18.8523 -4.7812 23.7166 -13.9736
# 2 45.1520 191.7100 13.8048 -34.8101 -0.8763 10.2907
# 3 18.8523 13.8048 71.1368 -32.8407 9.1226 10.2655
# 4 -4.7812 -34.8101 -32.8407 44.1982 -2.2211 0.3280
# 5 23.7166 -0.8763 9.1226 -2.2211 36.0033 -8.2119
# 6 -13.9736 10.2907 10.2655 0.3280 -8.2119 45.9144
#
#
#
# Elastic Compliance Matrix: (Units=1/GPa)
#
#
# Indices 1 2 3 4 5 6 
#
# 1 0.015723 -0.004949 -0.006503 -0.007471 -0.007926 0.005984
# 2 -0.004949 0.007928 0.004222 0.008978 0.002041 -0.003926
# 3 -0.006503 0.004222 0.027361 0.022855 -0.003374 -0.009809
# 4 -0.007471 0.008978 0.022855 0.045941 -0.000036 -0.009731
# 5 -0.007926 0.002041 -0.003374 -0.000036 0.034837 0.004116
# 6 0.005984 -0.003926 -0.009809 -0.009731 0.004116 0.027480
#
#
# Mechanical properties :
#
#
# Convention : Reuss Voigt Hill
#
# Bulk Modulus (GPa) = 27.35712 57.67540 42.51626
# Shear Modulus (GPa) = 26.89454 44.26659 35.58057
#
# Velocity S-wave (km/s) = 3.18505 4.08623 3.66345
# Velocity P-wave (km/s) = 4.88314 6.63461 5.82508
#
# Compressibility (1/GPa) = 0.03655355
#
# Stress axis : x y z
#
# Youngs Moduli (GPa) = 63.60279 126.13597 36.54853
#
# Poissons Ratio (x) = 0.62422 0.23766
# Poissons Ratio (y) = 0.31476 -0.15432
# Poissons Ratio (z) = 0.41358 -0.53260
#
# Static dielectric constant tensor:
#      x y z
#    x 2.050400 -0.013940 -0.005580 
#    y -0.013940 2.073400 0.145380 
#    z -0.005580 0.145380 2.090780 
# 
# From -- ./inp_files/198267.got.cif
#   From: 2010.05.17/outbox.cif.g08.bks.cpg/sg2_100_cif.got.tgz:198267.got - 2010.06.03 11:33:40.
