data_PCOD9095202
_publ_section_title
;
Structure prediction by ZEFSAII (Michael W. Deem and Ramdas Pophale) SiO2 
 PCOD9095202
Probable space group: P -1
;
_chemical_formula_sum "Si O2"
_cell_formula_units_Z 16
_cell_length_a 19.320453
_cell_length_b 12.434061
_cell_length_c 14.005379
_cell_angle_alpha 149.069595
_cell_angle_beta 150.982861
_cell_angle_gamma 47.520254
_cell_volume 800.233948
_symmetry_space_group_name_H-M "P -1"
_symmetry_group_IT_number 2
_symmetry_cell_setting 'triclinic'
loop_
_space_group_symop_operation_xyz
x,y,z
-x,-y,-z
loop_
_atom_site_type_symbol
_atom_site_label
_atom_site_fract_x
_atom_site_fract_y
_atom_site_fract_z
Si Si1 0.363557 0.591465 0.437919
Si Si2 0.201997 0.471238 0.889720
Si Si3 0.488278 0.551459 0.752519
Si Si4 0.512691 0.983753 0.209461
Si Si5 0.818576 0.088202 0.317331
Si Si6 0.447600 0.828260 0.389522
Si Si7 0.943804 0.451579 0.043857
Si Si8 0.933856 0.007168 0.588405
O O1 0.500000 0.500000 0.500000
O O2 0.381896 0.593808 0.575807
O O3 0.190858 0.478397 0.116771
O O4 0.394501 0.829681 0.608558
O O5 0.357302 0.462284 0.119719
O O6 0.106914 0.568099 0.921665
O O7 0.282580 0.647370 0.040035
O O8 0.114235 0.215108 0.575460
O O9 0.532933 0.751744 0.031388
O O10 0.440188 0.320157 0.572813
O O11 0.341571 0.962632 0.962539
O O12 0.552719 0.052646 0.418815
O O13 0.920922 0.996451 0.299731
O O14 0.815160 0.995568 0.350089
O O15 0.906850 0.346654 0.629863
O O16 0.500000 0.000000 0.500000
O O17 0.954355 0.227878 0.840433
#
# Coordination Sequence:
#
# PCOD9095202 Si02
#       8
#     2   2   2   2   2   2   2   2
#     4  12  19  34  59  85 122 155 187 233 291 346
#     4   9  19  35  54  84 105 144 195 236 279 344
#     4  10  21  34  57  88 117 148 192 232 300 345
#     4  12  22  37  59  87 119 155 186 246 293 348
#     4  10  24  33  51  85 123 153 198 225 280 348
#     4  10  23  40  59  86 117 147 197 254 295 341
#     4  11  20  36  53  82 121 162 189 226 281 349
#     4  10  20  35  56  76 123 162 190 227 279 344
#
# _framework density 19.994153000000001
#
# number of rings (size 3 to 8) (size 9 to 14) (size 15 to 20)
#    0.750    0.750    3.750    3.000    3.500    1.500 
#    0.000    0.000    0.000    3.000    0.000    5.250 
#    0.000    0.000    0.000    0.000    0.000    0.000 
#
# Total GULP energy -89197.237833 kJ/mol
# GULP energy per Si atom -5574.827365 kJ/mol
# Density = 1.994865 g / cm^3
# Si number density = 19.994153 Si / 1000 Ang^3
#
#
#
# Elastic Constant Matrix: (Units=GPa)
#
#
# Indices 1 2 3 4 5 6 
#
# 1 79.3981 48.0082 38.5317 31.3525 -1.2551 -3.6661
# 2 48.0082 56.4555 33.9161 32.9218 -1.8098 14.5295
# 3 38.5317 33.9161 96.0477 29.5766 8.0796 6.8712
# 4 31.3525 32.9218 29.5766 43.1802 -6.4932 10.0859
# 5 -1.2551 -1.8098 8.0796 -6.4932 35.1224 13.2895
# 6 -3.6661 14.5295 6.8712 10.0859 13.2895 35.8909
#
#
#
# Elastic Compliance Matrix: (Units=1/GPa)
#
#
# Indices 1 2 3 4 5 6 
#
# 1 0.036686 -0.031515 -0.001855 -0.008198 -0.010063 0.022890
# 2 -0.031515 0.062620 -0.004147 -0.013811 0.011097 -0.028003
# 3 -0.001855 -0.004147 0.015288 -0.007637 -0.006369 0.003067
# 4 -0.008198 -0.013811 -0.007637 0.050319 0.015180 -0.013545
# 5 -0.010063 0.011097 -0.006369 0.015180 0.042095 -0.024153
# 6 0.022890 -0.028003 0.003067 -0.013545 -0.024153 0.053699
#
#
# Mechanical properties :
#
#
# Convention : Reuss Voigt Hill
#
# Bulk Modulus (GPa) = 25.27786 52.53479 38.90633
# Shear Modulus (GPa) = 14.32964 30.26841 22.29903
#
# Velocity S-wave (km/s) = 2.68001 3.89506 3.34320
# Velocity P-wave (km/s) = 4.71664 6.82355 5.86547
#
# Compressibility (1/GPa) = 0.03956031
#
# Stress axis : x y z
#
# Youngs Moduli (GPa) = 27.25853 15.96936 65.40987
#
# Poissons Ratio (x) = 0.50327 0.12136
# Poissons Ratio (y) = 0.85905 0.27122
# Poissons Ratio (z) = 0.05058 0.06622
#
# Static dielectric constant tensor:
#      x y z
#    x 1.743860 -0.024610 0.009310 
#    y -0.024610 1.727580 0.030540 
#    z 0.009310 0.030540 1.761290 
# 
# From -- ./inp_files/541191.got.cif
#   From: 2010.05.17/outbox.cif.g08.bks.cpg/sg2_271_cif.got.tgz:541191.got - 2010.06.03 11:33:40.
