data_PCOD9095027
_publ_section_title
;
Structure prediction by ZEFSAII (Michael W. Deem and Ramdas Pophale) SiO2 
 PCOD9095027
Probable space group: P -1
;
_chemical_formula_sum "Si O2"
_cell_formula_units_Z 16
_cell_length_a 16.874929
_cell_length_b 13.382603
_cell_length_c 8.782433
_cell_angle_alpha 66.663272
_cell_angle_beta 92.600298
_cell_angle_gamma 33.920418
_cell_volume 694.459484
_symmetry_space_group_name_H-M "P -1"
_symmetry_group_IT_number 2
_symmetry_cell_setting 'triclinic'
loop_
_space_group_symop_operation_xyz
x,y,z
-x,-y,-z
loop_
_atom_site_type_symbol
_atom_site_label
_atom_site_fract_x
_atom_site_fract_y
_atom_site_fract_z
Si Si1 0.666137 0.569216 0.098874
Si Si2 0.789847 0.146396 0.885241
Si Si3 0.359286 0.138813 0.081984
Si Si4 0.789079 0.876406 0.401888
Si Si5 0.194797 0.366983 0.608361
Si Si6 0.359306 0.958707 0.397244
Si Si7 0.806481 0.348879 0.933981
Si Si8 0.542764 0.596621 0.349593
O O1 0.671003 0.512372 0.300715
O O2 0.672545 0.691775 0.023233
O O3 0.828296 0.328602 0.129282
O O4 0.439799 0.816973 0.868911
O O5 0.805762 0.222967 0.961975
O O6 0.698952 0.321566 0.621036
O O7 0.621055 0.270414 0.835026
O O8 0.014899 0.821362 0.047694
O O9 0.609443 0.806748 0.308097
O O10 0.276804 0.177809 0.194533
O O11 0.269437 0.214649 0.866298
O O12 0.827588 0.698334 0.480167
O O13 0.975382 0.696956 0.434954
O O14 0.786347 0.903089 0.565538
O O15 0.584700 0.681118 0.666146
O O16 0.406669 0.829160 0.328250
#
# Coordination Sequence:
#
# PCOD9095027 Si02
#       8
#     2   2   2   2   2   2   2   2
#     4  10  21  36  55  81 111 143 179 216 264 322
#     4   9  20  39  59  80 106 136 178 229 275 317
#     4  10  20  35  53  78 113 147 178 215 257 314
#     4   9  19  33  49  73 104 140 182 218 253 305
#     4   9  18  33  49  68 103 145 181 214 252 297
#     4  10  20  35  55  79 111 146 178 215 263 317
#     4   9  20  38  58  82 107 137 179 224 271 321
#     4  10  20  36  58  81 107 140 177 223 273 318
#
# _framework density 23.0395
#
# number of rings (size 3 to 8) (size 9 to 14) (size 15 to 20)
#    0.000    2.500    0.000    2.250    0.000    8.000 
#    0.000    5.000    0.000    0.000    0.000    0.000 
#    0.000    0.000    0.000    0.000    0.000    0.000 
#
# Total GULP energy -89297.227154 kJ/mol
# GULP energy per Si atom -5581.076697 kJ/mol
# Density = 2.298706 g / cm^3
# Si number density = 23.039500 Si / 1000 Ang^3
#
#
#
# Elastic Constant Matrix: (Units=GPa)
#
#
# Indices 1 2 3 4 5 6 
#
# 1 52.3423 8.6867 9.9447 7.6219 -0.5065 -0.5465
# 2 8.6867 89.9487 13.4800 16.3745 -7.1367 5.8655
# 3 9.9447 13.4800 30.9602 3.9378 -7.1072 0.1200
# 4 7.6219 16.3745 3.9378 30.0020 -9.2214 6.9899
# 5 -0.5065 -7.1367 -7.1072 -9.2214 30.2835 5.3383
# 6 -0.5465 5.8655 0.1200 6.9899 5.3383 14.3624
#
#
#
# Elastic Compliance Matrix: (Units=1/GPa)
#
#
# Indices 1 2 3 4 5 6 
#
# 1 0.021571 -0.000525 -0.006885 -0.007211 -0.004693 0.006347
# 2 -0.000525 0.013121 -0.004641 -0.005452 0.000864 -0.003007
# 3 -0.006885 -0.004641 0.038308 0.002951 0.009312 -0.003585
# 4 -0.007211 -0.005452 0.002951 0.051046 0.020193 -0.030421
# 5 -0.004693 0.000864 0.009312 0.020193 0.046358 -0.027668
# 6 0.006347 -0.003007 -0.003585 -0.030421 -0.027668 0.096215
#
#
# Mechanical properties :
#
#
# Convention : Reuss Voigt Hill
#
# Bulk Modulus (GPa) = 20.45056 26.38600 23.41828
# Shear Modulus (GPa) = 16.28562 24.33890 20.31226
#
# Velocity S-wave (km/s) = 2.66156 3.25375 2.97244
# Velocity P-wave (km/s) = 4.28261 5.05898 4.68690
#
# Compressibility (1/GPa) = 0.04889842
#
# Stress axis : x y z
#
# Youngs Moduli (GPa) = 46.35809 76.21466 26.10427
#
# Poissons Ratio (x) = 0.04001 0.17973
# Poissons Ratio (y) = 0.02433 0.12114
# Poissons Ratio (z) = 0.31918 0.35369
#
# Static dielectric constant tensor:
#      x y z
#    x 1.851230 0.017890 0.023390 
#    y 0.017890 1.903590 -0.026330 
#    z 0.023390 -0.026330 1.900420 
# 
# From -- ./inp_files/207279.got.cif
#   From: 2010.05.17/outbox.cif.g08.bks.cpg/sg2_104_cif.got.tgz:207279.got - 2010.06.03 11:33:40.
