data_PCOD9095022
_publ_section_title
;
Structure prediction by ZEFSAII (Michael W. Deem and Ramdas Pophale) SiO2 
 PCOD9095022
Probable space group: P -1
;
_chemical_formula_sum "Si O2"
_cell_formula_units_Z 12
_cell_length_a 24.414065
_cell_length_b 14.429486
_cell_length_c 12.244170
_cell_angle_alpha 159.805070
_cell_angle_beta 146.963102
_cell_angle_gamma 29.596776
_cell_volume 729.142485
_symmetry_space_group_name_H-M "P -1"
_symmetry_group_IT_number 2
_symmetry_cell_setting 'triclinic'
loop_
_space_group_symop_operation_xyz
x,y,z
-x,-y,-z
loop_
_atom_site_type_symbol
_atom_site_label
_atom_site_fract_x
_atom_site_fract_y
_atom_site_fract_z
Si Si1 0.682073 0.730823 0.309399
Si Si2 0.421711 0.832669 0.195586
Si Si3 0.402097 0.217526 0.157379
Si Si4 0.442365 0.761016 0.910394
Si Si5 0.118899 0.798214 0.027179
Si Si6 0.781753 0.750801 0.276494
O O1 0.696454 0.855429 0.353312
O O2 0.666257 0.968742 0.640572
O O3 0.573430 0.667511 0.050600
O O4 0.793925 0.420533 0.159184
O O5 0.500000 0.000000 0.500000
O O6 0.500000 0.500000 0.000000
O O7 0.381825 0.820962 0.993204
O O8 0.423066 0.504715 0.533592
O O9 0.286215 0.292404 0.984832
O O10 0.500000 0.000000 0.000000
O O11 0.405925 0.046458 0.086992
O O12 0.171675 0.007812 0.395611
O O13 0.122487 0.563060 0.865578
O O14 0.000000 0.000000 0.000000
#
# Coordination Sequence:
#
# PCOD9095022 Si02
#       6
#     2   2   2   2   2   2
#     4   9  21  32  53  74 108 132 171 209 253 291
#     4  10  21  33  49  72 107 140 174 205 240 299
#     4  12  20  32  49  73 108 139 167 200 244 315
#     4  11  21  32  49  76 106 145 166 192 249 308
#     4  10  20  35  53  77 101 126 171 218 267 298
#     4  10  21  32  52  76 104 130 167 208 262 299
#
# _framework density 16.457688000000001
#
# number of rings (size 3 to 8) (size 9 to 14) (size 15 to 20)
#    1.000    0.667    1.667    5.000    4.667    0.000 
#    0.000    0.000    0.000    0.000    0.000    7.000 
#    0.000    0.000    0.000    0.000    0.000    0.000 
#
# Total GULP energy -66838.077200 kJ/mol
# GULP energy per Si atom -5569.839767 kJ/mol
# Density = 1.642023 g / cm^3
# Si number density = 16.457688 Si / 1000 Ang^3
#
#
#
# Elastic Constant Matrix: (Units=GPa)
#
#
# Indices 1 2 3 4 5 6 
#
# 1 38.5564 16.2191 2.9778 0.2478 -8.5323 8.7181
# 2 16.2191 94.1792 5.7458 5.9606 -12.1711 -5.4243
# 3 2.9778 5.7458 64.8871 8.0114 -0.8658 -10.4133
# 4 0.2478 5.9606 8.0114 26.1314 11.1120 4.5704
# 5 -8.5323 -12.1711 -0.8658 11.1120 22.4908 4.1810
# 6 8.7181 -5.4243 -10.4133 4.5704 4.1810 22.1073
#
#
#
# Elastic Compliance Matrix: (Units=1/GPa)
#
#
# Indices 1 2 3 4 5 6 
#
# 1 0.036326 -0.005198 -0.004173 -0.000676 0.014905 -0.020245
# 2 -0.005198 0.013314 0.001073 -0.007755 0.008007 0.005911
# 3 -0.004173 0.001073 0.018562 -0.008781 0.001795 0.012128
# 4 -0.000676 -0.007755 -0.008781 0.058121 -0.031301 -0.011868
# 5 0.014905 0.008007 0.001795 -0.031301 0.071878 -0.010190
# 6 -0.020245 0.005911 0.012128 -0.011868 -0.010190 0.064762
#
#
# Mechanical properties :
#
#
# Convention : Reuss Voigt Hill
#
# Bulk Modulus (GPa) = 19.37859 27.50089 23.43974
# Shear Modulus (GPa) = 16.84852 25.65791 21.25322
#
# Velocity S-wave (km/s) = 3.20308 3.95273 3.59748
# Velocity P-wave (km/s) = 5.04777 6.13012 5.61509
#
# Compressibility (1/GPa) = 0.05160335
#
# Stress axis : x y z
#
# Youngs Moduli (GPa) = 27.52887 75.10975 53.87246
#
# Poissons Ratio (x) = 0.39044 0.22483
# Poissons Ratio (y) = 0.14310 -0.05778
# Poissons Ratio (z) = 0.11489 -0.08056
#
# Static dielectric constant tensor:
#      x y z
#    x 1.587510 0.012940 -0.017400 
#    y 0.012940 1.557090 0.011690 
#    z -0.017400 0.011690 1.553710 
# 
# From -- ./inp_files/72938.got.cif
#   From: 2010.05.17/outbox.cif.g08.bks.cpg/sg2_37_cif.got.tgz:72938.got - 2010.06.03 11:33:40.
