data_PCOD9095191
_publ_section_title
;
Structure prediction by ZEFSAII (Michael W. Deem and Ramdas Pophale) SiO2 
 PCOD9095191
Probable space group: P -1
;
_chemical_formula_sum "Si O2"
_cell_formula_units_Z 16
_cell_length_a 11.166133
_cell_length_b 9.628158
_cell_length_c 18.149759
_cell_angle_alpha 98.360354
_cell_angle_beta 21.446816
_cell_angle_gamma 98.886066
_cell_volume 704.886097
_symmetry_space_group_name_H-M "P -1"
_symmetry_group_IT_number 2
_symmetry_cell_setting 'triclinic'
loop_
_space_group_symop_operation_xyz
x,y,z
-x,-y,-z
loop_
_atom_site_type_symbol
_atom_site_label
_atom_site_fract_x
_atom_site_fract_y
_atom_site_fract_z
Si Si1 0.125951 0.785505 0.779691
Si Si2 0.440624 0.969555 0.419967
Si Si3 0.345214 0.988308 0.867087
Si Si4 0.643804 0.218538 0.963997
Si Si5 0.508058 0.468945 0.404043
Si Si6 0.833758 0.593043 0.798056
Si Si7 0.263003 0.965633 0.222965
Si Si8 0.888576 0.734343 0.174041
O O1 0.334641 0.681591 0.701858
O O2 0.963331 0.691481 0.799884
O O3 0.394518 0.908672 0.613909
O O4 0.853142 0.877521 0.981559
O O5 0.563086 0.821053 0.362816
O O6 0.590831 0.000413 0.254766
O O7 0.059368 0.980793 0.626205
O O8 0.684675 0.012400 0.719267
O O9 0.151324 0.838109 0.986985
O O10 0.708902 0.189292 0.838728
O O11 0.949797 0.279758 0.838793
O O12 0.318551 0.303483 0.166636
O O13 0.573936 0.063729 0.025306
O O14 0.500000 0.500000 0.500000
O O15 0.752903 0.575790 0.225956
O O16 0.136034 0.499447 0.596023
O O17 0.500000 0.500000 0.000000
#
# Coordination Sequence:
#
# PCOD9095191 Si02
#       8
#     2   2   2   2   2   2   2   2
#     4  10  21  37  59  87 116 156 206 240 296 354
#     4  11  23  38  63  88 122 161 209 248 283 351
#     4  10  21  43  60  89 119 163 206 246 292 343
#     4  10  20  35  55  88 121 157 192 238 311 360
#     4  10  22  37  57  89 122 154 197 240 305 371
#     4  11  22  36  56  82 125 156 186 241 305 369
#     4  10  21  34  60  87 121 155 196 245 301 353
#     4  10  21  38  60  86 126 154 196 250 299 355
#
# _framework density 22.698702000000001
#
# number of rings (size 3 to 8) (size 9 to 14) (size 15 to 20)
#    0.000    1.750    1.250    4.125    7.000    0.500 
#    0.000    2.500    0.000    0.000    0.000   13.125 
#    0.000    0.000    0.000    0.000    0.000    0.000 
#
# Total GULP energy -89159.264961 kJ/mol
# GULP energy per Si atom -5572.454060 kJ/mol
# Density = 2.264704 g / cm^3
# Si number density = 22.698702 Si / 1000 Ang^3
#
#
#
# Elastic Constant Matrix: (Units=GPa)
#
#
# Indices 1 2 3 4 5 6 
#
# 1 59.8029 -0.2662 28.0962 -0.5155 -15.2372 2.7627
# 2 -0.2662 115.6934 36.9669 -3.9014 -0.4234 -18.1629
# 3 28.0962 36.9669 119.3680 1.7211 -23.3156 -4.6564
# 4 -0.5155 -3.9014 1.7211 29.6396 -6.8854 -17.7017
# 5 -15.2372 -0.4234 -23.3156 -6.8854 52.6704 -0.5536
# 6 2.7627 -18.1629 -4.6564 -17.7017 -0.5536 27.6105
#
#
#
# Elastic Compliance Matrix: (Units=1/GPa)
#
#
# Indices 1 2 3 4 5 6 
#
# 1 0.019843 0.001311 -0.004366 0.001009 0.003938 -0.001133
# 2 0.001311 0.012366 -0.003673 0.010304 0.000347 0.013998
# 3 -0.004366 -0.003673 0.011238 -0.000622 0.003597 -0.000411
# 4 0.001009 0.010304 -0.000622 0.067034 0.009385 0.049738
# 5 0.003938 0.000347 0.003597 0.009385 0.023020 0.006919
# 6 -0.001133 0.013998 -0.000411 0.049738 0.006919 0.077497
#
#
# Mechanical properties :
#
#
# Convention : Reuss Voigt Hill
#
# Bulk Modulus (GPa) = 33.34252 47.16201 40.25227
# Shear Modulus (GPa) = 21.32638 37.32193 29.32416
#
# Velocity S-wave (km/s) = 3.06852 4.05931 3.59818
# Velocity P-wave (km/s) = 5.22259 6.54165 5.91898
#
# Compressibility (1/GPa) = 0.02999173
#
# Stress axis : x y z
#
# Youngs Moduli (GPa) = 50.39503 80.86383 88.98274
#
# Poissons Ratio (x) = -0.10604 0.38852
# Poissons Ratio (y) = -0.06608 0.32685
# Poissons Ratio (z) = 0.22003 0.29703
#
# Static dielectric constant tensor:
#      x y z
#    x 1.959780 -0.013390 0.004860 
#    y -0.013390 1.905140 -0.004510 
#    z 0.004860 -0.004510 1.872790 
# 
# From -- ./inp_files/493697.got.cif
#   From: 2010.05.17/outbox.cif.g08.bks.cpg/sg2_247_cif.got.tgz:493697.got - 2010.06.03 11:33:40.
