data_PCOD9095416
_publ_section_title
;
Structure prediction by ZEFSAII (Michael W. Deem and Ramdas Pophale) SiO2 
 PCOD9095416
Probable space group: P -1
;
_chemical_formula_sum "Si O2"
_cell_formula_units_Z 12
_cell_length_a 8.498074
_cell_length_b 11.189416
_cell_length_c 11.136099
_cell_angle_alpha 96.992563
_cell_angle_beta 61.651259
_cell_angle_gamma 47.770153
_cell_volume 508.143650
_symmetry_space_group_name_H-M "P -1"
_symmetry_group_IT_number 2
_symmetry_cell_setting 'triclinic'
loop_
_space_group_symop_operation_xyz
x,y,z
-x,-y,-z
loop_
_atom_site_type_symbol
_atom_site_label
_atom_site_fract_x
_atom_site_fract_y
_atom_site_fract_z
Si Si1 0.455739 0.017056 0.714088
Si Si2 0.809747 0.042637 0.722328
Si Si3 0.183004 0.525227 0.956768
Si Si4 0.431437 0.906861 0.955113
Si Si5 0.925030 0.574221 0.397639
Si Si6 0.469150 0.406192 0.590872
O O1 0.632060 0.032308 0.715127
O O2 0.388604 0.957928 0.837454
O O3 0.721408 0.811768 0.504185
O O4 0.088278 0.255714 0.838313
O O5 0.547936 0.296830 0.841573
O O6 0.837969 0.995355 0.848215
O O7 0.179409 0.837997 0.520547
O O8 0.240473 0.553706 0.808420
O O9 0.000000 0.500000 0.000000
O O10 0.737545 0.642702 0.819152
O O11 0.500000 0.000000 0.000000
O O12 0.686411 0.611966 0.431491
O O13 0.000000 0.500000 0.500000
O O14 0.500000 0.500000 0.500000
#
# Coordination Sequence:
#
# PCOD9095416 Si02
#       6
#     2   2   2   2   2   2
#     4   9  18  36  58  83 114 156 196 234 281 346
#     4  10  20  36  58  86 115 151 194 241 285 338
#     4  10  21  39  61  84 116 160 196 227 284 360
#     4   9  16  33  57  79 108 150 192 226 275 346
#     4  10  20  35  57  87 116 150 194 240 286 342
#     4  12  22  37  61  89 115 149 195 246 288 336
#
# _framework density 23.615366999999999
#
# number of rings (size 3 to 8) (size 9 to 14) (size 15 to 20)
#    0.000    2.000    0.000    7.500    0.000    0.000 
#    0.000   17.500    0.000    0.000    0.000    0.000 
#    0.000    0.000    0.000    0.000    0.000    0.000 
#
# Total GULP energy -66927.888522 kJ/mol
# GULP energy per Si atom -5577.324044 kJ/mol
# Density = 2.356162 g / cm^3
# Si number density = 23.615367 Si / 1000 Ang^3
#
#
#
# Elastic Constant Matrix: (Units=GPa)
#
#
# Indices 1 2 3 4 5 6 
#
# 1 24.5113 2.5531 18.8950 8.2336 1.8308 -11.7151
# 2 2.5531 90.2457 50.3302 20.0954 4.8266 -6.8808
# 3 18.8950 50.3302 183.9987 31.2578 10.6439 -3.3128
# 4 8.2336 20.0954 31.2578 63.8551 0.6931 -0.8909
# 5 1.8308 4.8266 10.6439 0.6931 33.4720 11.6764
# 6 -11.7151 -6.8808 -3.3128 -0.8909 11.6764 21.4261
#
#
#
# Elastic Compliance Matrix: (Units=1/GPa)
#
#
# Indices 1 2 3 4 5 6 
#
# 1 0.075585 0.008692 -0.006445 -0.008317 -0.022334 0.054947
# 2 0.008692 0.014996 -0.003831 -0.003741 -0.005456 0.011794
# 3 -0.006445 -0.003831 0.007363 -0.001616 -0.000146 -0.003604
# 4 -0.008317 -0.003741 -0.001616 0.018561 0.003639 -0.007210
# 5 -0.022334 -0.005456 -0.000146 0.003639 0.045291 -0.038517
# 6 0.054947 0.011794 -0.003604 -0.007210 -0.038517 0.100636
#
#
# Mechanical properties :
#
#
# Convention : Reuss Voigt Hill
#
# Bulk Modulus (GPa) = 10.55132 49.14580 29.84856
# Shear Modulus (GPa) = 16.82420 38.88246 27.85333
#
# Velocity S-wave (km/s) = 2.67203 4.06210 3.43805
# Velocity P-wave (km/s) = 3.74130 6.54652 5.33171
#
# Compressibility (1/GPa) = 0.09477484
#
# Stress axis : x y z
#
# Youngs Moduli (GPa) = 13.23021 66.68660 135.81981
#
# Poissons Ratio (x) = -0.57966 0.87540
# Poissons Ratio (y) = -0.11500 0.52032
# Poissons Ratio (z) = 0.08527 0.25547
#
# Static dielectric constant tensor:
#      x y z
#    x 1.787040 -0.032800 0.006340 
#    y -0.032800 1.997350 -0.033110 
#    z 0.006340 -0.033110 1.981670 
# 
# From -- ./inp_files/146981.got.cif
#   From: 2010.05.17/outbox.cif.g08.bks.cpg/sg2_74_cif.got.tgz:146981.got - 2010.06.03 11:33:40.
