data_PCOD9095525
_publ_section_title
;
Structure prediction by ZEFSAII (Michael W. Deem and Ramdas Pophale) SiO2 
 PCOD9095525
Probable space group: P -1
;
_chemical_formula_sum "Si O2"
_cell_formula_units_Z 16
_cell_length_a 11.903286
_cell_length_b 8.594452
_cell_length_c 15.111008
_cell_angle_alpha 58.533937
_cell_angle_beta 53.978340
_cell_angle_gamma 33.934758
_cell_volume 695.992337
_symmetry_space_group_name_H-M "P -1"
_symmetry_group_IT_number 2
_symmetry_cell_setting 'triclinic'
loop_
_space_group_symop_operation_xyz
x,y,z
-x,-y,-z
loop_
_atom_site_type_symbol
_atom_site_label
_atom_site_fract_x
_atom_site_fract_y
_atom_site_fract_z
Si Si1 0.493910 0.195483 0.553913
Si Si2 0.213897 0.813670 0.009738
Si Si3 0.097071 0.891952 0.247896
Si Si4 0.414451 0.296252 0.349669
Si Si5 0.239369 0.777017 0.490070
Si Si6 0.361852 0.968557 0.148960
Si Si7 0.491661 0.820945 0.940228
Si Si8 0.615567 0.430085 0.271029
O O1 0.440216 0.238904 0.460833
O O2 0.303978 0.516381 0.579689
O O3 0.703257 0.104191 0.511793
O O4 0.526223 0.957795 0.642890
O O5 0.170998 0.828979 0.130265
O O6 0.370465 0.493856 0.006819
O O7 0.325281 0.901660 0.924168
O O8 0.000000 0.000000 0.000000
O O9 0.192052 0.610490 0.329405
O O10 0.192348 0.972936 0.231212
O O11 0.845986 0.164445 0.280879
O O12 0.573305 0.307471 0.258003
O O13 0.420436 0.617424 0.376548
O O14 0.000000 0.000000 0.500000
O O15 0.581766 0.654355 0.171498
O O16 0.353199 0.161705 0.152685
O O17 0.364546 0.007217 0.031739
#
# Coordination Sequence:
#
# PCOD9095525 Si02
#       8
#     2   2   2   2   2   2   2   2
#     4   9  20  38  60  85 111 147 193 238 290 354
#     4  10  20  35  58  85 117 155 196 240 291 347
#     4  10  21  37  58  85 117 155 195 243 297 343
#     4   9  20  38  59  83 113 149 189 238 291 348
#     4  10  22  39  60  85 115 153 195 243 297 353
#     4   9  19  36  58  83 117 156 197 240 286 346
#     4   9  19  36  57  84 116 156 198 237 285 346
#     4  10  21  37  56  84 118 151 194 243 294 351
#
# _framework density 22.988759000000002
#
# number of rings (size 3 to 8) (size 9 to 14) (size 15 to 20)
#    0.000    2.500    0.000    0.750    0.000   13.000 
#    0.000   11.250    0.000    3.000    0.000    0.000 
#    0.000    0.000    0.000    0.000    0.000    0.000 
#
# Total GULP energy -89097.307149 kJ/mol
# GULP energy per Si atom -5568.581697 kJ/mol
# Density = 2.293644 g / cm^3
# Si number density = 22.988759 Si / 1000 Ang^3
#
#
#
# Elastic Constant Matrix: (Units=GPa)
#
#
# Indices 1 2 3 4 5 6 
#
# 1 169.1144 98.2803 32.2236 -24.1868 -12.1013 -4.7519
# 2 98.2803 125.3154 33.6670 -20.1078 -19.1836 -24.3259
# 3 32.2236 33.6670 65.6656 -6.5423 1.8460 8.8539
# 4 -24.1868 -20.1078 -6.5423 37.4321 12.1686 -2.6935
# 5 -12.1013 -19.1836 1.8460 12.1686 30.4379 -10.9878
# 6 -4.7519 -24.3259 8.8539 -2.6935 -10.9878 54.1531
#
#
#
# Elastic Compliance Matrix: (Units=1/GPa)
#
#
# Indices 1 2 3 4 5 6 
#
# 1 0.012049 -0.010843 0.000788 0.003445 -0.005212 -0.004829
# 2 -0.010843 0.024828 -0.009973 0.000008 0.017491 0.015381
# 3 0.000788 -0.009973 0.021884 0.002088 -0.011849 -0.010289
# 4 0.003445 0.000008 0.002088 0.033269 -0.012374 -0.000891
# 5 -0.005212 0.017491 -0.011849 -0.012374 0.054620 0.019804
# 6 -0.004829 0.015381 -0.010289 -0.000891 0.019804 0.030608
#
#
# Mechanical properties :
#
#
# Convention : Reuss Voigt Hill
#
# Bulk Modulus (GPa) = 53.46777 76.49304 64.98040
# Shear Modulus (GPa) = 22.36640 37.46624 29.91632
#
# Velocity S-wave (km/s) = 3.12256 4.04141 3.61133
# Velocity P-wave (km/s) = 6.02572 7.42453 6.76140
#
# Compressibility (1/GPa) = 0.01870286
#
# Stress axis : x y z
#
# Youngs Moduli (GPa) = 82.99586 40.27702 45.69591
#
# Poissons Ratio (x) = 0.43674 -0.03599
# Poissons Ratio (y) = 0.89996 0.45573
# Poissons Ratio (z) = -0.06537 0.40169
#
# Static dielectric constant tensor:
#      x y z
#    x 1.954540 0.023860 0.030310 
#    y 0.023860 1.860540 0.009880 
#    z 0.030310 0.009880 2.074580 
# 
# From -- ./inp_files/565812.got.cif
#   From: 2010.05.17/outbox.cif.g08.bks.cpg/sg2_283_cif.got.tgz:565812.got - 2010.06.03 11:33:40.
