data_PCOD9095237
_publ_section_title
;
Structure prediction by ZEFSAII (Michael W. Deem and Ramdas Pophale) SiO2 
 PCOD9095237
Probable space group: P -1
;
_chemical_formula_sum "Si O2"
_cell_formula_units_Z 16
_cell_length_a 9.653535
_cell_length_b 23.318743
_cell_length_c 6.428875
_cell_angle_alpha 56.236868
_cell_angle_beta 52.678543
_cell_angle_gamma 40.200264
_cell_volume 730.635379
_symmetry_space_group_name_H-M "P -1"
_symmetry_group_IT_number 2
_symmetry_cell_setting 'triclinic'
loop_
_space_group_symop_operation_xyz
x,y,z
-x,-y,-z
loop_
_atom_site_type_symbol
_atom_site_label
_atom_site_fract_x
_atom_site_fract_y
_atom_site_fract_z
Si Si1 0.231687 0.775438 0.590299
Si Si2 0.745233 0.951847 0.611619
Si Si3 0.468203 0.353106 0.803605
Si Si4 0.312250 0.626862 0.057940
Si Si5 0.464778 0.120634 0.839468
Si Si6 0.730172 0.069033 0.093489
Si Si7 0.787487 0.505617 0.604308
Si Si8 0.545087 0.765389 0.672261
O O1 0.367500 0.725049 0.357313
O O2 0.393202 0.765810 0.638825
O O3 0.015360 0.878262 0.540611
O O4 0.169115 0.717564 0.868260
O O5 0.623062 0.032362 0.728103
O O6 0.681985 0.002731 0.347549
O O7 0.677715 0.892342 0.856208
O O8 0.625595 0.359687 0.797501
O O9 0.293339 0.442566 0.647437
O O10 0.348211 0.323327 0.109806
O O11 0.191160 0.583013 0.258973
O O12 0.564260 0.564678 0.841150
O O13 0.333376 0.207168 0.633615
O O14 0.630494 0.112482 0.873346
O O15 0.616040 0.150004 0.197412
O O16 0.000000 0.000000 0.000000
O O17 0.000000 0.500000 0.500000
#
# Coordination Sequence:
#
# PCOD9095237 Si02
#       8
#     2   2   2   2   2   2   2   2
#     4  10  20  38  59  83 118 157 198 246 301 353
#     4  10  21  36  55  80 117 157 199 249 305 347
#     4  10  20  38  64  89 123 159 201 248 298 367
#     4   9  21  41  63  94 127 157 202 247 302 370
#     4  10  21  36  54  80 119 155 201 256 298 348
#     4  11  20  33  56  82 107 153 206 245 294 353
#     4  10  21  41  70  93 125 160 195 250 307 366
#     4  10  20  35  56  81 113 155 196 246 295 350
#
# _framework density 21.898748000000001
#
# number of rings (size 3 to 8) (size 9 to 14) (size 15 to 20)
#    0.000    2.000    0.000    3.750    0.000    3.500 
#    9.000    0.000    5.500    0.000    0.000    0.000 
#    0.000    0.000    0.000    0.000    0.000    0.000 
#
# Total GULP energy -89177.437296 kJ/mol
# GULP energy per Si atom -5573.589831 kJ/mol
# Density = 2.184891 g / cm^3
# Si number density = 21.898748 Si / 1000 Ang^3
#
#
#
# Elastic Constant Matrix: (Units=GPa)
#
#
# Indices 1 2 3 4 5 6 
#
# 1 77.8523 31.4444 56.2001 0.2907 -0.3350 24.2278
# 2 31.4444 86.0271 47.1334 5.5875 19.2500 43.9880
# 3 56.2001 47.1334 173.5925 -39.8349 6.3075 17.1063
# 4 0.2907 5.5875 -39.8349 54.6245 19.5719 23.2363
# 5 -0.3350 19.2500 6.3075 19.5719 56.9544 17.2055
# 6 24.2278 43.9880 17.1063 23.2363 17.2055 61.9654
#
#
#
# Elastic Compliance Matrix: (Units=1/GPa)
#
#
# Indices 1 2 3 4 5 6 
#
# 1 0.019773 -0.002408 -0.006631 -0.004717 0.004385 -0.003640
# 2 -0.002408 0.021859 -0.003020 0.002800 -0.003888 -0.013712
# 3 -0.006631 -0.003020 0.011394 0.010481 -0.003466 -0.001377
# 4 -0.004717 0.002800 0.010481 0.034995 -0.010129 -0.013347
# 5 0.004385 -0.003888 -0.003466 -0.010129 0.022934 -0.000568
# 6 -0.003640 -0.013712 -0.001377 -0.013347 -0.000568 0.032838
#
#
# Mechanical properties :
#
#
# Convention : Reuss Voigt Hill
#
# Bulk Modulus (GPa) = 34.59324 67.44752 51.02038
# Shear Modulus (GPa) = 28.16134 48.22178 38.19156
#
# Velocity S-wave (km/s) = 3.58995 4.69767 4.18066
# Velocity P-wave (km/s) = 5.74585 7.76471 6.83028
#
# Compressibility (1/GPa) = 0.02890738
#
# Stress axis : x y z
#
# Youngs Moduli (GPa) = 50.57293 45.74798 87.76504
#
# Poissons Ratio (x) = 0.11018 0.58196
# Poissons Ratio (y) = 0.12180 0.26507
# Poissons Ratio (z) = 0.33534 0.13817
#
# Static dielectric constant tensor:
#      x y z
#    x 1.789810 0.047820 -0.052570 
#    y 0.047820 1.781690 -0.060300 
#    z -0.052570 -0.060300 1.827680 
# 
# From -- ./inp_files/52361.got.cif
#   From: 2010.05.17/outbox.cif.g08.bks.cpg/sg2_27_cif.got.tgz:52361.got - 2010.06.03 11:33:40.
