data_PCOD9095377
_publ_section_title
;
Structure prediction by ZEFSAII (Michael W. Deem and Ramdas Pophale) SiO2 
 PCOD9095377
Probable space group: P -1
;
_chemical_formula_sum "Si O2"
_cell_formula_units_Z 16
_cell_length_a 14.128146
_cell_length_b 19.776698
_cell_length_c 8.058624
_cell_angle_alpha 93.830944
_cell_angle_beta 92.423392
_cell_angle_gamma 160.495550
_cell_volume 711.669758
_symmetry_space_group_name_H-M "P -1"
_symmetry_group_IT_number 2
_symmetry_cell_setting 'triclinic'
loop_
_space_group_symop_operation_xyz
x,y,z
-x,-y,-z
loop_
_atom_site_type_symbol
_atom_site_label
_atom_site_fract_x
_atom_site_fract_y
_atom_site_fract_z
Si Si1 0.994980 0.131704 0.884359
Si Si2 0.205833 0.863582 0.098205
Si Si3 0.846919 0.247498 0.604702
Si Si4 0.582119 0.652122 0.464568
Si Si5 0.102027 0.705969 0.763646
Si Si6 0.253430 0.086406 0.493365
Si Si7 0.533560 0.554694 0.776685
Si Si8 0.813512 0.376986 0.638365
O O1 0.255574 0.349322 0.840309
O O2 0.776777 0.043968 0.904596
O O3 0.177642 0.224977 0.064665
O O4 0.835048 0.973817 0.718093
O O5 0.059654 0.739600 0.240293
O O6 0.542425 0.064555 0.169780
O O7 0.046452 0.723682 0.903145
O O8 0.985362 0.338045 0.443144
O O9 0.852914 0.327556 0.694127
O O10 0.500000 0.000000 0.500000
O O11 0.594583 0.738581 0.423812
O O12 0.468205 0.561908 0.625827
O O13 0.413622 0.483553 0.309466
O O14 0.933110 0.866332 0.523676
O O15 0.956179 0.535521 0.774656
O O16 0.472420 0.171116 0.551378
O O17 0.000000 0.500000 0.500000
#
# Coordination Sequence:
#
# PCOD9095377 Si02
#       8
#     2   2   2   2   2   2   2   2
#     4  10  20  36  57  83 115 147 183 245 290 333
#     4  10  20  37  56  84 116 153 190 238 284 345
#     4   9  18  35  55  77 113 151 189 229 279 341
#     4   9  20  39  59  86 108 148 196 230 288 351
#     4   9  20  36  55  81 114 152 193 235 280 340
#     4  10  20  36  60  82 117 149 186 240 287 341
#     4   9  20  38  58  84 110 142 194 239 284 346
#     4  10  20  35  57  84 115 153 192 233 283 347
#
# _framework density 22.482337000000001
#
# number of rings (size 3 to 8) (size 9 to 14) (size 15 to 20)
#    0.000    2.500    0.000    2.250    1.750    3.000 
#   11.250    0.000    5.500    0.000    0.000    0.000 
#    0.000    0.000    0.000    0.000    0.000    0.000 
#
# Total GULP energy -89218.657863 kJ/mol
# GULP energy per Si atom -5576.166116 kJ/mol
# Density = 2.243117 g / cm^3
# Si number density = 22.482337 Si / 1000 Ang^3
#
#
#
# Elastic Constant Matrix: (Units=GPa)
#
#
# Indices 1 2 3 4 5 6 
#
# 1 57.5333 -0.5629 15.5882 2.1724 7.7760 2.2429
# 2 -0.5629 41.3369 2.2769 1.5431 -1.8937 7.5116
# 3 15.5882 2.2769 72.5193 4.6528 -10.9662 4.3641
# 4 2.1724 1.5431 4.6528 17.4755 -4.1439 -9.9417
# 5 7.7760 -1.8937 -10.9662 -4.1439 27.8164 8.6871
# 6 2.2429 7.5116 4.3641 -9.9417 8.6871 31.6681
#
#
#
# Elastic Compliance Matrix: (Units=1/GPa)
#
#
# Indices 1 2 3 4 5 6 
#
# 1 0.020064 0.000145 -0.005466 -0.002594 -0.008385 0.000784
# 2 0.000145 0.026367 0.000795 -0.007130 0.004042 -0.009721
# 3 -0.005466 0.000795 0.017116 -0.005360 0.009550 -0.006462
# 4 -0.002594 -0.007130 -0.005360 0.074490 0.001208 0.025667
# 5 -0.008385 0.004042 0.009550 0.001208 0.046942 -0.014179
# 6 0.000784 -0.009721 -0.006462 0.025667 -0.014179 0.046665
#
#
# Mechanical properties :
#
#
# Convention : Reuss Voigt Hill
#
# Bulk Modulus (GPa) = 18.35058 22.88823 20.61940
# Shear Modulus (GPa) = 19.31515 25.66451 22.48983
#
# Velocity S-wave (km/s) = 2.93426 3.38234 3.16624
# Velocity P-wave (km/s) = 4.43394 5.04542 4.74953
#
# Compressibility (1/GPa) = 0.05449418
#
# Stress axis : x y z
#
# Youngs Moduli (GPa) = 49.83950 37.92566 58.42382
#
# Poissons Ratio (x) = -0.00548 0.31936
# Poissons Ratio (y) = -0.00721 -0.04642
# Poissons Ratio (z) = 0.27243 -0.03014
#
# Static dielectric constant tensor:
#      x y z
#    x 1.948210 -0.001740 0.013200 
#    y -0.001740 1.860030 -0.016280 
#    z 0.013200 -0.016280 1.848080 
# 
# From -- ./inp_files/178856.got.cif
#   From: 2010.05.17/outbox.cif.g08.bks.cpg/sg2_90_cif.got.tgz:178856.got - 2010.06.03 11:33:40.
