data_PCOD9095164
_publ_section_title
;
Structure prediction by ZEFSAII (Michael W. Deem and Ramdas Pophale) SiO2 
 PCOD9095164
Probable space group: P -1
;
_chemical_formula_sum "Si O2"
_cell_formula_units_Z 15
_cell_length_a 14.264314
_cell_length_b 9.717027
_cell_length_c 13.526120
_cell_angle_alpha 81.071368
_cell_angle_beta 61.432231
_cell_angle_gamma 28.711561
_cell_volume 616.722363
_symmetry_space_group_name_H-M "P -1"
_symmetry_group_IT_number 2
_symmetry_cell_setting 'triclinic'
loop_
_space_group_symop_operation_xyz
x,y,z
-x,-y,-z
loop_
_atom_site_type_symbol
_atom_site_label
_atom_site_fract_x
_atom_site_fract_y
_atom_site_fract_z
Si Si1 0.194989 0.081794 0.046689
Si Si2 0.698214 0.650746 0.880074
Si Si3 0.055908 0.291485 0.553470
Si Si4 0.456421 0.214576 0.485396
Si Si5 0.500000 0.500000 0.500000
Si Si6 0.060742 0.007696 0.261092
Si Si7 0.256006 0.796323 0.382868
Si Si8 0.842691 0.788244 0.174102
O O1 0.125396 0.011415 0.126930
O O2 0.988978 0.457368 0.148021
O O3 0.171171 0.141936 0.936707
O O4 0.513217 0.735998 0.956969
O O5 0.798697 0.573704 0.727644
O O6 0.971296 0.328309 0.845203
O O7 0.500000 0.000000 0.000000
O O8 0.000000 0.500000 0.500000
O O9 0.335052 0.956796 0.522558
O O10 0.136609 0.087767 0.449503
O O11 0.147999 0.627637 0.623380
O O12 0.500000 0.000000 0.500000
O O13 0.543514 0.138680 0.338203
O O14 0.848631 0.131631 0.353062
O O15 0.477239 0.503203 0.391530
O O16 0.317676 0.701492 0.245343
O O17 0.000000 0.000000 0.500000
#
# Coordination Sequence:
#
# PCOD9095164 Si02
#       8
#     2   2   2   2   1   2   2   2
#     4  10  20  35  55  83 127 169 199 242 319 389
#     4   9  21  36  51  86 133 165 199 250 315 389
#     4  11  23  36  64 101 129 165 216 269 330 375
#     4  11  20  34  57  94 132 157 203 268 314 380
#     4  10  22  46  60  92 120 164 218 272 312 378
#     4  11  22  37  65  92 118 162 218 259 321 372
#     4  10  23  41  65  93 127 170 213 273 322 382
#     4   9  20  34  51  84 129 170 193 242 317 385
#
# _framework density 24.322127999999999
#
# number of rings (size 3 to 8) (size 9 to 14) (size 15 to 20)
#    0.000    1.867    2.667    0.800    7.467    2.133 
#    0.000    0.000    0.000    4.000    0.000    0.000 
#    0.000    0.000    0.000    0.000    0.000    0.000 
#
# Total GULP energy -83513.039668 kJ/mol
# GULP energy per Si atom -5567.535978 kJ/mol
# Density = 2.426677 g / cm^3
# Si number density = 24.322128 Si / 1000 Ang^3
#
#
#
# Elastic Constant Matrix: (Units=GPa)
#
#
# Indices 1 2 3 4 5 6 
#
# 1 119.3662 28.5724 12.3734 -19.6387 1.7309 -16.9202
# 2 28.5724 91.5134 18.2871 -16.8228 2.3820 -16.5668
# 3 12.3734 18.2871 111.0782 -18.6312 -6.9826 -3.1173
# 4 -19.6387 -16.8228 -18.6312 40.8920 2.1564 7.3934
# 5 1.7309 2.3820 -6.9826 2.1564 31.3719 -3.3706
# 6 -16.9202 -16.5668 -3.1173 7.3934 -3.3706 49.7797
#
#
#
# Elastic Compliance Matrix: (Units=1/GPa)
#
#
# Indices 1 2 3 4 5 6 
#
# 1 0.009738 -0.001988 -0.000150 0.003434 -0.000430 0.002100
# 2 -0.001988 0.012994 -0.001350 0.003290 -0.001081 0.003002
# 3 -0.000150 -0.001350 0.010012 0.003884 0.002039 -0.000312
# 4 0.003434 0.003290 0.003884 0.029690 -0.001834 -0.002029
# 5 -0.000430 -0.001081 0.002039 -0.001834 0.032788 0.002114
# 6 0.002100 0.003002 -0.000312 -0.002029 0.002114 0.022226
#
#
# Mechanical properties :
#
#
# Convention : Reuss Voigt Hill
#
# Bulk Modulus (GPa) = 38.80482 48.93597 43.87039
# Shear Modulus (GPa) = 37.59013 41.92372 39.75692
#
# Velocity S-wave (km/s) = 3.93556 4.15623 4.04740
# Velocity P-wave (km/s) = 6.05316 6.57237 6.31810
#
# Compressibility (1/GPa) = 0.02577000
#
# Stress axis : x y z
#
# Youngs Moduli (GPa) = 102.69328 76.95717 99.87685
#
# Poissons Ratio (x) = 0.15298 0.01494
# Poissons Ratio (y) = 0.20414 0.13480
# Poissons Ratio (z) = 0.01537 0.10386
#
# Static dielectric constant tensor:
#      x y z
#    x 2.010430 0.049920 -0.026130 
#    y 0.049920 2.090300 -0.009530 
#    z -0.026130 -0.009530 2.052110 
# 
# From -- ./inp_files/395100.got.cif
#   From: 2010.05.17/outbox.cif.g08.bks.cpg/sg2_198_cif.got.tgz:395100.got - 2010.06.03 11:33:40.
