data_PCOD9095510
_publ_section_title
;
Structure prediction by ZEFSAII (Michael W. Deem and Ramdas Pophale) SiO2 
 PCOD9095510
Probable space group: P -1
;
_chemical_formula_sum "Si O2"
_cell_formula_units_Z 14
_cell_length_a 10.511251
_cell_length_b 10.346249
_cell_length_c 18.935097
_cell_angle_alpha 38.100342
_cell_angle_beta 151.610718
_cell_angle_gamma 136.937580
_cell_volume 598.957699
_symmetry_space_group_name_H-M "P -1"
_symmetry_group_IT_number 2
_symmetry_cell_setting 'triclinic'
loop_
_space_group_symop_operation_xyz
x,y,z
-x,-y,-z
loop_
_atom_site_type_symbol
_atom_site_label
_atom_site_fract_x
_atom_site_fract_y
_atom_site_fract_z
Si Si1 0.307758 0.299084 0.773661
Si Si2 0.021548 0.891286 0.949828
Si Si3 0.459250 0.948659 0.608863
Si Si4 0.613201 0.073183 0.117832
Si Si5 0.906684 0.677768 0.119360
Si Si6 0.284046 0.678494 0.506480
Si Si7 0.706690 0.227907 0.246825
O O1 0.374394 0.464337 0.672080
O O2 0.034800 0.355748 0.652477
O O3 0.248076 0.070001 0.806517
O O4 0.540496 0.283942 0.952031
O O5 0.975428 0.112960 0.870734
O O6 0.747320 0.852244 0.788932
O O7 0.036853 0.708002 0.092946
O O8 0.313177 0.945387 0.035820
O O9 0.533115 0.193487 0.518187
O O10 0.298414 0.828227 0.518319
O O11 0.319862 0.898133 0.638368
O O12 0.750842 0.109737 0.245432
O O13 0.904152 0.448012 0.249937
O O14 0.595883 0.713419 0.938973
#
# Coordination Sequence:
#
# PCOD9095510 Si02
#       7
#     2   2   2   2   2   2   2
#     4  10  22  39  59  79 113 156 188 226 278 333
#     4   9  16  30  53  85 114 135 178 231 277 326
#     4  10  20  35  58  84 113 144 193 229 269 338
#     4  10  20  37  58  88 114 139 187 242 283 318
#     4   8  16  27  49  86 117 134 171 228 292 322
#     4  10  22  39  57  79 113 158 191 216 272 349
#     4   9  18  31  56  86 112 140 184 237 282 320
#
# _framework density 23.373937999999999
#
# number of rings (size 3 to 8) (size 9 to 14) (size 15 to 20)
#    0.000    2.571    1.429    0.857    8.000    0.000 
#    0.000    5.000    0.000    0.000    0.000    0.000 
#    0.000    0.000    0.000    0.000    0.000    0.000 
#
# Total GULP energy -78098.541069 kJ/mol
# GULP energy per Si atom -5578.467219 kJ/mol
# Density = 2.332074 g / cm^3
# Si number density = 23.373938 Si / 1000 Ang^3
#
#
#
# Elastic Constant Matrix: (Units=GPa)
#
#
# Indices 1 2 3 4 5 6 
#
# 1 76.0010 29.0861 37.8762 -14.4109 -39.8658 -3.3835
# 2 29.0861 67.9430 31.8606 -14.9594 -21.1920 9.5737
# 3 37.8762 31.8606 93.3520 -14.2382 -27.7973 14.4790
# 4 -14.4109 -14.9594 -14.2382 35.2985 18.1162 -15.9821
# 5 -39.8658 -21.1920 -27.7973 18.1162 42.8005 -4.7721
# 6 -3.3835 9.5737 14.4790 -15.9821 -4.7721 25.5924
#
#
#
# Elastic Compliance Matrix: (Units=1/GPa)
#
#
# Indices 1 2 3 4 5 6 
#
# 1 0.031865 -0.004870 -0.006240 0.003779 0.023434 0.016294
# 2 -0.004870 0.020032 -0.003274 0.002162 0.001829 -0.004594
# 3 -0.006240 -0.003274 0.016562 -0.004149 0.003871 -0.010839
# 4 0.003779 0.002162 -0.004149 0.051758 -0.016524 0.031279
# 5 0.023434 0.001829 0.003871 -0.016524 0.055636 0.000279
# 6 0.016294 -0.004594 -0.010839 0.031279 0.000279 0.068665
#
#
# Mechanical properties :
#
#
# Convention : Reuss Voigt Hill
#
# Bulk Modulus (GPa) = 25.19414 48.32688 36.76051
# Shear Modulus (GPa) = 17.45096 29.96984 23.71040
#
# Velocity S-wave (km/s) = 2.73536 3.58465 3.18841
# Velocity P-wave (km/s) = 4.55833 6.15251 5.41442
#
# Compressibility (1/GPa) = 0.03969177
#
# Stress axis : x y z
#
# Youngs Moduli (GPa) = 31.38224 49.91979 60.37772
#
# Poissons Ratio (x) = 0.24312 0.37674
# Poissons Ratio (y) = 0.15284 0.19768
# Poissons Ratio (z) = 0.19582 0.16344
#
# Static dielectric constant tensor:
#      x y z
#    x 1.889340 0.003500 -0.061250 
#    y 0.003500 1.905820 -0.009970 
#    z -0.061250 -0.009970 1.933390 
# 
# From -- ./inp_files/384299.got.cif
#   From: 2010.05.17/outbox.cif.g08.bks.cpg/sg2_193_cif.got.tgz:384299.got - 2010.06.03 11:33:40.
