data_PCOD9095124
_publ_section_title
;
Structure prediction by ZEFSAII (Michael W. Deem and Ramdas Pophale) SiO2 
 PCOD9095124
Probable space group: P -1
;
_chemical_formula_sum "Si O2"
_cell_formula_units_Z 14
_cell_length_a 8.954785
_cell_length_b 7.969495
_cell_length_c 15.694258
_cell_angle_alpha 44.660511
_cell_angle_beta 115.518002
_cell_angle_gamma 126.957436
_cell_volume 629.082871
_symmetry_space_group_name_H-M "P -1"
_symmetry_group_IT_number 2
_symmetry_cell_setting 'triclinic'
loop_
_space_group_symop_operation_xyz
x,y,z
-x,-y,-z
loop_
_atom_site_type_symbol
_atom_site_label
_atom_site_fract_x
_atom_site_fract_y
_atom_site_fract_z
Si Si1 0.913466 0.943694 0.273568
Si Si2 0.437571 0.828600 0.670685
Si Si3 0.040459 0.776745 0.638650
Si Si4 0.294953 0.375834 0.160797
Si Si5 0.649183 0.368182 0.725796
Si Si6 0.380662 0.906606 0.918341
Si Si7 0.376944 0.601438 0.547445
O O1 0.927139 0.131454 0.288756
O O2 0.760347 0.964420 0.167735
O O3 0.113925 0.084623 0.227847
O O4 0.829459 0.645113 0.400694
O O5 0.228716 0.775286 0.656542
O O6 0.524861 0.663738 0.800857
O O7 0.433030 0.734616 0.606236
O O8 0.576318 0.149140 0.592900
O O9 0.851993 0.495288 0.687977
O O10 0.000000 0.000000 0.500000
O O11 0.316785 0.502618 0.216097
O O12 0.277019 0.584291 0.016062
O O13 0.517048 0.475478 0.609861
O O14 0.526239 0.049913 0.825607
O O15 0.500000 0.000000 0.000000
#
# Coordination Sequence:
#
# PCOD9095124 Si02
#       7
#     2   2   2   2   2   2   2
#     4  10  21  35  58  88 108 143 196 222 269 341
#     4  10  20  35  55  79 117 148 180 228 284 323
#     4  11  21  37  55  83 118 151 178 226 283 330
#     4   9  18  33  55  81 109 143 181 234 273 314
#     4   8  16  33  55  80 105 146 187 219 269 332
#     4   9  17  35  61  81 106 143 191 236 267 317
#     4   9  18  35  55  79 110 145 188 229 265 326
#
# _framework density 22.254618000000001
#
# number of rings (size 3 to 8) (size 9 to 14) (size 15 to 20)
#    0.000    2.571    1.429    1.286    2.000    1.143 
#    0.000    1.429    0.000    0.000    0.000    0.000 
#    0.000    0.000    0.000    0.000    0.000    0.000 
#
# Total GULP energy -78103.696169 kJ/mol
# GULP energy per Si atom -5578.835441 kJ/mol
# Density = 2.220397 g / cm^3
# Si number density = 22.254618 Si / 1000 Ang^3
#
#
#
# Elastic Constant Matrix: (Units=GPa)
#
#
# Indices 1 2 3 4 5 6 
#
# 1 108.5100 16.9184 47.0416 -15.6480 6.6393 31.0899
# 2 16.9184 55.9723 3.3353 -14.0019 -10.8704 14.3177
# 3 47.0416 3.3353 77.9393 -17.5216 -6.6705 15.9850
# 4 -15.6480 -14.0019 -17.5216 43.0190 12.2400 -14.6586
# 5 6.6393 -10.8704 -6.6705 12.2400 19.5945 -6.1984
# 6 31.0899 14.3177 15.9850 -14.6586 -6.1984 38.2329
#
#
#
# Elastic Compliance Matrix: (Units=1/GPa)
#
#
# Indices 1 2 3 4 5 6 
#
# 1 0.018969 -0.005081 -0.009882 0.002390 -0.017691 -0.011342
# 2 -0.005081 0.023237 0.004478 0.002589 0.013488 -0.003263
# 3 -0.009882 0.004478 0.020070 0.003263 0.010941 0.000993
# 4 0.002390 0.002589 0.003263 0.033083 -0.017148 0.005627
# 5 -0.017691 0.013488 0.010941 -0.017148 0.082611 0.011579
# 6 -0.011342 -0.003263 0.000993 0.005627 0.011579 0.040220
#
#
# Mechanical properties :
#
#
# Convention : Reuss Voigt Hill
#
# Bulk Modulus (GPa) = 24.21027 41.89023 33.05025
# Shear Modulus (GPa) = 19.76841 31.84438 25.80640
#
# Velocity S-wave (km/s) = 2.98364 3.78684 3.40898
# Velocity P-wave (km/s) = 4.77199 6.16314 5.51163
#
# Compressibility (1/GPa) = 0.04130479
#
# Stress axis : x y z
#
# Youngs Moduli (GPa) = 52.71741 43.03511 49.82613
#
# Poissons Ratio (x) = 0.21868 0.49240
# Poissons Ratio (y) = 0.26788 -0.22313
# Poissons Ratio (z) = 0.52097 -0.19272
#
# Static dielectric constant tensor:
#      x y z
#    x 1.817630 0.019960 -0.022670 
#    y 0.019960 1.903640 -0.011850 
#    z -0.022670 -0.011850 1.857490 
# 
# From -- ./inp_files/176941.got.cif
#   From: 2010.05.17/outbox.cif.g08.bks.cpg/sg2_89_cif.got.tgz:176941.got - 2010.06.03 11:33:40.
