data_PCOD9095136
_publ_section_title
;
Structure prediction by ZEFSAII (Michael W. Deem and Ramdas Pophale) SiO2 
 PCOD9095136
Probable space group: P -1
;
_chemical_formula_sum "Si O2"
_cell_formula_units_Z 16
_cell_length_a 7.686804
_cell_length_b 20.354624
_cell_length_c 20.221894
_cell_angle_alpha 159.973904
_cell_angle_beta 136.898159
_cell_angle_gamma 40.342049
_cell_volume 699.991028
_symmetry_space_group_name_H-M "P -1"
_symmetry_group_IT_number 2
_symmetry_cell_setting 'triclinic'
loop_
_space_group_symop_operation_xyz
x,y,z
-x,-y,-z
loop_
_atom_site_type_symbol
_atom_site_label
_atom_site_fract_x
_atom_site_fract_y
_atom_site_fract_z
Si Si1 0.902699 0.748714 0.366189
Si Si2 0.894601 0.666468 0.923240
Si Si3 0.309148 0.983090 0.557393
Si Si4 0.508244 0.397833 0.681274
Si Si5 0.509493 0.518296 0.440981
Si Si6 0.090567 0.912096 0.699800
Si Si7 0.513360 0.160329 0.910217
Si Si8 0.923858 0.762071 0.650650
O O1 0.873002 0.535015 0.178339
O O2 0.200665 0.675871 0.344442
O O3 0.923695 0.877327 0.557925
O O4 0.698715 0.887724 0.388230
O O5 0.699404 0.578639 0.742138
O O6 0.730866 0.775888 0.045714
O O7 0.953081 0.852077 0.079512
O O8 0.417632 0.077039 0.738553
O O9 0.463579 0.742845 0.379275
O O10 0.000000 0.000000 0.500000
O O11 0.288155 0.353989 0.532046
O O12 0.426967 0.634463 0.895365
O O13 0.500000 0.500000 0.500000
O O14 0.394277 0.760501 0.625453
O O15 0.810559 0.382116 0.376768
O O16 0.008404 0.822425 0.658690
O O17 0.759614 0.982273 0.841979
#
# Coordination Sequence:
#
# PCOD9095136 Si02
#       8
#     2   2   2   2   2   2   2   2
#     4   9  19  35  56  80 105 139 178 218 259 307
#     4  10  20  35  55  81 107 134 178 224 260 311
#     4   9  17  32  56  81 106 139 177 216 259 309
#     4   9  19  35  54  77 108 139 173 218 263 311
#     4   9  21  37  54  78 104 139 182 217 261 314
#     4  10  20  36  57  78 105 139 180 221 259 311
#     4  10  21  35  53  83 111 137 175 216 267 316
#     4  10  21  36  54  76 106 142 174 218 270 312
#
# _framework density 22.857436
#
# number of rings (size 3 to 8) (size 9 to 14) (size 15 to 20)
#    0.000    2.500    0.000    2.250    0.000   12.000 
#    0.000   11.250    0.000    4.500    0.000    0.000 
#    0.000    0.000    0.000    0.000    0.000    0.000 
#
# Total GULP energy -89348.625588 kJ/mol
# GULP energy per Si atom -5584.289099 kJ/mol
# Density = 2.280541 g / cm^3
# Si number density = 22.857436 Si / 1000 Ang^3
#
#
#
# Elastic Constant Matrix: (Units=GPa)
#
#
# Indices 1 2 3 4 5 6 
#
# 1 59.3650 26.0644 22.0728 12.6546 -5.9562 2.4954
# 2 26.0644 106.3086 31.0817 24.7862 11.6219 11.1901
# 3 22.0728 31.0817 113.1672 33.5900 17.4161 1.0359
# 4 12.6546 24.7862 33.5900 29.0241 10.0872 -5.6089
# 5 -5.9562 11.6219 17.4161 10.0872 18.4819 -2.5008
# 6 2.4954 11.1901 1.0359 -5.6089 -2.5008 32.5038
#
#
#
# Elastic Compliance Matrix: (Units=1/GPa)
#
#
# Indices 1 2 3 4 5 6 
#
# 1 0.024149 -0.004881 -0.003724 -0.008706 0.019101 -0.000088
# 2 -0.004881 0.014112 0.001262 -0.010291 -0.006944 -0.006834
# 3 -0.003724 0.001262 0.014842 -0.014350 -0.008658 -0.003764
# 4 -0.008706 -0.010291 -0.014350 0.074028 -0.021075 0.015822
# 5 0.019101 -0.006944 -0.008658 -0.021075 0.084843 0.004091
# 6 -0.000088 -0.006834 -0.003764 0.015822 0.004091 0.036290
#
#
# Mechanical properties :
#
#
# Convention : Reuss Voigt Hill
#
# Bulk Modulus (GPa) = 26.03035 48.58651 37.30843
# Shear Modulus (GPa) = 18.13196 29.31008 23.72102
#
# Velocity S-wave (km/s) = 2.81955 3.58481 3.22496
# Velocity P-wave (km/s) = 4.69176 6.19975 5.49771
#
# Compressibility (1/GPa) = 0.03841669
#
# Stress axis : x y z
#
# Youngs Moduli (GPa) = 41.41040 70.86025 67.37483
#
# Poissons Ratio (x) = 0.34586 0.25092
# Poissons Ratio (y) = 0.20212 -0.08502
# Poissons Ratio (z) = 0.15422 -0.08942
#
# Static dielectric constant tensor:
#      x y z
#    x 1.988330 -0.024970 0.023040 
#    y -0.024970 1.879850 0.051290 
#    z 0.023040 0.051290 1.822060 
# 
# From -- ./inp_files/336582.got.cif
#   From: 2010.05.17/outbox.cif.g08.bks.cpg/sg2_169_cif.got.tgz:336582.got - 2010.06.03 11:33:40.
