data_PCOD9095333
_publ_section_title
;
Structure prediction by ZEFSAII (Michael W. Deem and Ramdas Pophale) SiO2 
 PCOD9095333
Probable space group: P -1
;
_chemical_formula_sum "Si O2"
_cell_formula_units_Z 16
_cell_length_a 10.941920
_cell_length_b 9.049636
_cell_length_c 8.303898
_cell_angle_alpha 106.124474
_cell_angle_beta 71.157643
_cell_angle_gamma 70.576071
_cell_volume 662.061957
_symmetry_space_group_name_H-M "P -1"
_symmetry_group_IT_number 2
_symmetry_cell_setting 'triclinic'
loop_
_space_group_symop_operation_xyz
x,y,z
-x,-y,-z
loop_
_atom_site_type_symbol
_atom_site_label
_atom_site_fract_x
_atom_site_fract_y
_atom_site_fract_z
Si Si1 0.237923 0.237468 0.248318
Si Si2 0.448823 0.516754 0.748557
Si Si3 0.978445 0.056962 0.709264
Si Si4 0.361905 0.435045 0.088933
Si Si5 0.298691 0.351028 0.586592
Si Si6 0.342287 0.857249 0.014224
Si Si7 0.906253 0.706450 0.120570
Si Si8 0.966124 0.269754 0.255221
O O1 0.312705 0.245403 0.385989
O O2 0.071177 0.277884 0.353067
O O3 0.324823 0.048889 0.073754
O O4 0.240036 0.384991 0.177691
O O5 0.352096 0.512702 0.942446
O O6 0.429591 0.392539 0.593004
O O7 0.605809 0.462788 0.747920
O O8 0.379832 0.723519 0.808236
O O9 0.810740 0.116968 0.843568
O O10 0.025013 0.205636 0.763236
O O11 0.000000 0.000000 0.500000
O O12 0.067045 0.886859 0.732158
O O13 0.516025 0.257262 0.971332
O O14 0.245332 0.269035 0.729604
O O15 0.169159 0.545499 0.663688
O O16 0.000000 0.500000 0.000000
O O17 0.928865 0.777717 0.960757
#
# Coordination Sequence:
#
# PCOD9095333 Si02
#       8
#     2   2   2   2   2   2   2   2
#     4  11  21  35  60  86 116 145 192 245 288 332
#     4   9  20  39  61  78 113 152 201 229 281 346
#     4  11  22  37  59  88 121 150 190 242 292 338
#     4   9  20  39  63  79 107 158 201 227 283 346
#     4  11  22  38  57  91 120 148 190 247 291 333
#     4   9  19  37  58  80 111 151 191 230 280 347
#     4  10  20  35  57  80 114 154 191 226 280 346
#     4  10  22  37  57  88 119 157 191 228 291 357
#
# _framework density 24.166923000000001
#
# number of rings (size 3 to 8) (size 9 to 14) (size 15 to 20)
#    0.750    1.250    0.000    4.875    0.000    4.500 
#    0.000    0.625    0.000    0.000    0.000    0.000 
#    0.000    0.000    0.000    0.000    0.000    0.000 
#
# Total GULP energy -89277.559957 kJ/mol
# GULP energy per Si atom -5579.847497 kJ/mol
# Density = 2.411192 g / cm^3
# Si number density = 24.166923 Si / 1000 Ang^3
#
#
#
# Elastic Constant Matrix: (Units=GPa)
#
#
# Indices 1 2 3 4 5 6 
#
# 1 67.9776 21.5395 22.4796 17.0068 16.7593 26.6526
# 2 21.5395 119.7528 48.4011 4.0255 11.9878 24.9255
# 3 22.4796 48.4011 112.1043 0.1899 20.6674 20.3773
# 4 17.0068 4.0255 0.1899 18.8012 14.6761 13.3778
# 5 16.7593 11.9878 20.6674 14.6761 34.5729 4.5396
# 6 26.6526 24.9255 20.3773 13.3778 4.5396 45.2350
#
#
#
# Elastic Compliance Matrix: (Units=1/GPa)
#
#
# Indices 1 2 3 4 5 6 
#
# 1 0.022631 -0.000811 -0.002088 -0.011940 -0.003311 -0.008083
# 2 -0.000811 0.010955 -0.003191 0.003981 -0.002525 -0.005045
# 3 -0.002088 -0.003191 0.014519 0.018212 -0.013293 -0.007604
# 4 -0.011940 0.003981 0.018212 0.135994 -0.059267 -0.037634
# 5 -0.003311 -0.002525 -0.013293 -0.059267 0.061798 0.020656
# 6 -0.008083 -0.005045 -0.007604 -0.037634 0.020656 0.042131
#
#
# Mechanical properties :
#
#
# Convention : Reuss Voigt Hill
#
# Bulk Modulus (GPa) = 27.83666 53.85279 40.84472
# Shear Modulus (GPa) = 16.01616 33.54945 24.78281
#
# Velocity S-wave (km/s) = 2.57715 3.72995 3.20579
# Velocity P-wave (km/s) = 4.51654 6.39391 5.53539
#
# Compressibility (1/GPa) = 0.03592385
#
# Stress axis : x y z
#
# Youngs Moduli (GPa) = 44.18705 91.27914 68.87599
#
# Poissons Ratio (x) = 0.07407 0.14380
# Poissons Ratio (y) = 0.03586 0.21982
# Poissons Ratio (z) = 0.09225 0.29132
#
# Static dielectric constant tensor:
#      x y z
#    x 1.978070 0.020200 0.051530 
#    y 0.020200 1.968700 -0.015790 
#    z 0.051530 -0.015790 1.956280 
# 
# From -- ./inp_files/240256.got.cif
#   From: 2010.05.17/outbox.cif.g08.bks.cpg/sg2_121_cif.got.tgz:240256.got - 2010.06.03 11:33:40.
