data_PCOD9095990
_publ_section_title
;
Structure prediction by ZEFSAII (Michael W. Deem and Ramdas Pophale) SiO2 
 PCOD9095990
Probable space group: P -1
;
_chemical_formula_sum "Si O2"
_cell_formula_units_Z 14
_cell_length_a 9.008585
_cell_length_b 6.005598
_cell_length_c 15.964034
_cell_angle_alpha 130.851771
_cell_angle_beta 59.412192
_cell_angle_gamma 101.646821
_cell_volume 550.896375
_symmetry_space_group_name_H-M "P -1"
_symmetry_group_IT_number 2
_symmetry_cell_setting 'triclinic'
loop_
_space_group_symop_operation_xyz
x,y,z
-x,-y,-z
loop_
_atom_site_type_symbol
_atom_site_label
_atom_site_fract_x
_atom_site_fract_y
_atom_site_fract_z
Si Si1 0.367109 0.811065 0.621933
Si Si2 0.380155 0.760259 0.355840
Si Si3 0.704944 0.364266 0.234055
Si Si4 0.577949 0.565009 0.905904
Si Si5 0.010574 0.163617 0.303174
Si Si6 0.946339 0.760455 0.365015
Si Si7 0.781493 0.052694 0.968475
O O1 0.500000 0.500000 0.500000
O O2 0.302104 0.879141 0.751798
O O3 0.197624 0.782414 0.612988
O O4 0.470432 0.051809 0.621368
O O5 0.492381 0.464186 0.297889
O O6 0.379297 0.682856 0.239402
O O7 0.196971 0.976357 0.484754
O O8 0.823221 0.581101 0.298180
O O9 0.808046 0.225228 0.087861
O O10 0.744617 0.719799 0.913187
O O11 0.500000 0.500000 0.000000
O O12 0.408240 0.780016 0.967433
O O13 0.031915 0.502280 0.348062
O O14 0.086443 0.968568 0.152267
O O15 0.058815 0.947759 0.318260
#
# Coordination Sequence:
#
# PCOD9095990 Si02
#       7
#     2   2   2   2   2   2   2
#     4  11  19  34  59  95 132 166 200 257 322 390
#     4  11  20  37  64  93 124 169 217 262 320 380
#     4  10  20  35  61  90 132 162 211 260 318 389
#     4  10  23  45  67  86 120 171 226 270 311 378
#     4  11  24  40  64  96 140 165 210 262 321 391
#     4  11  23  39  63 101 132 168 202 264 330 385
#     4  10  24  43  61  92 122 174 217 265 320 375
#
# _framework density 25.413129999999999
#
# number of rings (size 3 to 8) (size 9 to 14) (size 15 to 20)
#    0.000    1.429    4.286    2.143    2.000    2.857 
#    0.000    1.429    0.000    0.000    0.000    0.000 
#    0.000    0.000    0.000    0.000    0.000    0.000 
#
# Total GULP energy -77967.648219 kJ/mol
# GULP energy per Si atom -5569.117730 kJ/mol
# Density = 2.535529 g / cm^3
# Si number density = 25.413130 Si / 1000 Ang^3
#
#
#
# Elastic Constant Matrix: (Units=GPa)
#
#
# Indices 1 2 3 4 5 6 
#
# 1 57.3311 16.3754 12.6283 11.7762 0.8664 -10.7756
# 2 16.3754 115.5226 35.4143 -26.3581 8.9165 -11.4749
# 3 12.6283 35.4143 169.3864 -9.2969 11.2014 5.5264
# 4 11.7762 -26.3581 -9.2969 37.4512 -1.2648 -2.7339
# 5 0.8664 8.9165 11.2014 -1.2648 43.5627 6.9797
# 6 -10.7756 -11.4749 5.5264 -2.7339 6.9797 36.3820
#
#
#
# Elastic Compliance Matrix: (Units=1/GPa)
#
#
# Indices 1 2 3 4 5 6 
#
# 1 0.021981 -0.004533 -0.001383 -0.010118 -0.000179 0.004565
# 2 -0.004533 0.012766 -0.001746 0.010199 -0.002448 0.004185
# 3 -0.001383 -0.001746 0.006531 0.000669 -0.001001 -0.001710
# 4 -0.010118 0.010199 0.000669 0.037412 -0.001487 0.003215
# 5 -0.000179 -0.002448 -0.001001 -0.001487 0.024555 -0.005496
# 6 0.004565 0.004185 -0.001710 0.003215 -0.005496 0.031714
#
#
# Mechanical properties :
#
#
# Convention : Reuss Voigt Hill
#
# Bulk Modulus (GPa) = 38.53195 52.34179 45.43687
# Shear Modulus (GPa) = 31.45963 42.00065 36.73014
#
# Velocity S-wave (km/s) = 3.52224 4.06977 3.80586
# Velocity P-wave (km/s) = 5.63353 6.53644 6.10171
#
# Compressibility (1/GPa) = 0.02595249
#
# Stress axis : x y z
#
# Youngs Moduli (GPa) = 45.49363 78.33350 153.12729
#
# Poissons Ratio (x) = 0.35510 0.21184
# Poissons Ratio (y) = 0.20623 0.26734
# Poissons Ratio (z) = 0.06294 0.13676
#
# Static dielectric constant tensor:
#      x y z
#    x 1.984020 0.019750 0.074160 
#    y 0.019750 2.069590 -0.145980 
#    z 0.074160 -0.145980 1.979950 
# 
# From -- ./inp_files/40271.got.cif
#   From: 2010.05.17/outbox.cif.g08.bks.cpg/sg2_21_cif.got.tgz:40271.got - 2010.06.03 11:33:40.
