data_PCOD9095620
_publ_section_title
;
Structure prediction by ZEFSAII (Michael W. Deem and Ramdas Pophale) SiO2 
 PCOD9095620
Probable space group: P -1
;
_chemical_formula_sum "Si O2"
_cell_formula_units_Z 13
_cell_length_a 12.643963
_cell_length_b 10.028120
_cell_length_c 6.996694
_cell_angle_alpha 110.565487
_cell_angle_beta 97.072291
_cell_angle_gamma 136.204504
_cell_volume 467.747733
_symmetry_space_group_name_H-M "P -1"
_symmetry_group_IT_number 2
_symmetry_cell_setting 'triclinic'
loop_
_space_group_symop_operation_xyz
x,y,z
-x,-y,-z
loop_
_atom_site_type_symbol
_atom_site_label
_atom_site_fract_x
_atom_site_fract_y
_atom_site_fract_z
Si Si1 0.350812 0.761453 0.536465
Si Si2 0.032541 0.889337 0.168276
Si Si3 0.708585 0.034321 0.861133
Si Si4 0.910838 0.747505 0.619542
Si Si5 0.374415 0.541562 0.128367
Si Si6 0.500000 0.500000 0.500000
Si Si7 0.243540 0.944713 0.688013
O O1 0.567979 0.006761 0.769782
O O2 0.352010 0.664830 0.301577
O O3 0.239819 0.543473 0.556869
O O4 0.255467 0.807906 0.513360
O O5 0.129534 0.842971 0.184942
O O6 0.988625 0.842589 0.904721
O O7 0.164868 0.173498 0.385204
O O8 0.833391 0.703347 0.127993
O O9 0.580986 0.751267 0.686077
O O10 0.783127 0.136548 0.140967
O O11 0.079689 0.879657 0.590832
O O12 0.414540 0.464867 0.254509
O O13 0.555996 0.759639 0.148852
#
# Coordination Sequence:
#
# PCOD9095620 Si02
#       7
#     2   2   2   2   2   1   2
#     4  10  20  37  56  82 116 154 185 220 278 339
#     4   9  17  34  55  81 107 149 188 222 286 332
#     4  10  20  35  59  80 110 149 190 229 270 333
#     4   9  18  32  57  80 109 147 188 233 275 329
#     4  10  21  36  58  82 114 148 186 233 280 333
#     4  10  20  36  56  80 108 146 184 228 288 326
#     4  11  21  35  56  87 115 147 187 230 274 332
#
# _framework density 27.792757999999999
#
# number of rings (size 3 to 8) (size 9 to 14) (size 15 to 20)
#    0.000    2.154    0.000    6.000    0.000    2.462 
#    0.000    3.846    0.000   27.692    0.000    5.385 
#    0.000    0.000    0.000    0.000    0.000    0.000 
#
# Total GULP energy -72535.232406 kJ/mol
# GULP energy per Si atom -5579.633262 kJ/mol
# Density = 2.772950 g / cm^3
# Si number density = 27.792758 Si / 1000 Ang^3
#
#
#
# Elastic Constant Matrix: (Units=GPa)
#
#
# Indices 1 2 3 4 5 6 
#
# 1 216.0310 70.0839 32.5872 -9.8643 8.0477 -6.2703
# 2 70.0839 97.7304 -0.2339 5.0306 11.9059 12.8053
# 3 32.5872 -0.2339 49.2237 -9.4501 3.7083 -8.0991
# 4 -9.8643 5.0306 -9.4501 19.3823 8.1879 7.6692
# 5 8.0477 11.9059 3.7083 8.1879 34.9614 -11.4746
# 6 -6.2703 12.8053 -8.0991 7.6692 -11.4746 54.5527
#
#
#
# Elastic Compliance Matrix: (Units=1/GPa)
#
#
# Indices 1 2 3 4 5 6 
#
# 1 0.007162 -0.005500 -0.004154 0.002306 0.000548 0.001289
# 2 -0.005500 0.015577 0.003166 -0.000923 -0.005767 -0.004902
# 3 -0.004154 0.003166 0.025817 0.012254 -0.005841 -0.000339
# 4 0.002306 -0.000923 0.012254 0.073834 -0.023051 -0.012928
# 5 0.000548 -0.005767 -0.005841 -0.023051 0.040498 0.012308
# 6 0.001289 -0.004902 -0.000339 -0.012928 0.012308 0.023986
#
#
# Mechanical properties :
#
#
# Convention : Reuss Voigt Hill
#
# Bulk Modulus (GPa) = 28.10630 63.09551 45.60090
# Shear Modulus (GPa) = 23.61707 39.14915 31.38311
#
# Velocity S-wave (km/s) = 2.91822 3.75722 3.36398
# Velocity P-wave (km/s) = 4.63567 6.44776 5.61530
#
# Compressibility (1/GPa) = 0.03557922
#
# Stress axis : x y z
#
# Youngs Moduli (GPa) = 139.61912 64.19891 38.73350
#
# Poissons Ratio (x) = 0.35312 0.16091
# Poissons Ratio (y) = 0.76797 -0.12264
# Poissons Ratio (z) = 0.58002 -0.20327
#
# Static dielectric constant tensor:
#      x y z
#    x 1.863950 -0.438210 0.109010 
#    y -0.438210 1.448730 -0.007660 
#    z 0.109010 -0.007660 2.236810 
# 
# From -- ./inp_files/198747.got.cif
#   From: 2010.05.17/outbox.cif.g08.bks.cpg/sg2_100_cif.got.tgz:198747.got - 2010.06.03 11:33:40.
