data_PCOD9095722
_publ_section_title
;
Structure prediction by ZEFSAII (Michael W. Deem and Ramdas Pophale) SiO2 
 PCOD9095722
Probable space group: P -1
;
_chemical_formula_sum "Si O2"
_cell_formula_units_Z 16
_cell_length_a 13.949341
_cell_length_b 14.124708
_cell_length_c 14.897376
_cell_angle_alpha 28.431040
_cell_angle_beta 48.529425
_cell_angle_gamma 32.213395
_cell_volume 705.210436
_symmetry_space_group_name_H-M "P -1"
_symmetry_group_IT_number 2
_symmetry_cell_setting 'triclinic'
loop_
_space_group_symop_operation_xyz
x,y,z
-x,-y,-z
loop_
_atom_site_type_symbol
_atom_site_label
_atom_site_fract_x
_atom_site_fract_y
_atom_site_fract_z
Si Si1 0.357908 0.475963 0.457009
Si Si2 0.507035 0.022927 0.870978
Si Si3 0.819977 0.547120 0.939342
Si Si4 0.627043 0.003389 0.542102
Si Si5 0.651749 0.353485 0.107130
Si Si6 0.195058 0.062849 0.017720
Si Si7 0.114679 0.534268 0.278317
Si Si8 0.025826 0.738214 0.348539
O O1 0.460487 0.296944 0.633813
O O2 0.450187 0.222074 0.536647
O O3 0.136135 0.684162 0.412697
O O4 0.349954 0.712272 0.233005
O O5 0.707326 0.722638 0.954229
O O6 0.326022 0.101797 0.884115
O O7 0.500000 0.000000 0.000000
O O8 0.794470 0.771357 0.704385
O O9 0.696549 0.508100 0.002735
O O10 0.045042 0.246313 0.041561
O O11 0.628587 0.205194 0.318346
O O12 0.680312 0.758891 0.646749
O O13 0.843041 0.080960 0.163933
O O14 0.500000 0.500000 0.000000
O O15 0.048451 0.205380 0.906289
O O16 0.037993 0.409586 0.464519
O O17 0.134941 0.632187 0.275180
#
# Coordination Sequence:
#
# PCOD9095722 Si02
#       8
#     2   2   2   2   2   2   2   2
#     4  11  22  40  66  90 124 168 216 264 318 385
#     4  11  26  46  68  95 127 163 211 279 340 380
#     4  10  23  43  66  93 127 168 215 258 323 389
#     4   9  22  37  55  85 126 169 209 259 306 364
#     4  11  23  37  60  94 134 172 212 259 309 373
#     4  11  22  41  69  93 127 169 212 264 322 383
#     4   9  20  36  56  88 126 171 207 251 306 372
#     4  10  20  35  59  89 127 168 216 247 304 375
#
# _framework density 22.688265000000001
#
# number of rings (size 3 to 8) (size 9 to 14) (size 15 to 20)
#    0.000    1.750    2.500    0.750    3.500    7.500 
#    0.000    0.625    0.000    0.000    0.000    0.000 
#    0.000    0.000    0.000    0.000    0.000    0.000 
#
# Total GULP energy -89078.277078 kJ/mol
# GULP energy per Si atom -5567.392317 kJ/mol
# Density = 2.263663 g / cm^3
# Si number density = 22.688265 Si / 1000 Ang^3
#
#
#
# Elastic Constant Matrix: (Units=GPa)
#
#
# Indices 1 2 3 4 5 6 
#
# 1 2.7086 3.9072 23.8355 18.4089 -0.5379 1.7806
# 2 3.9072 118.5654 36.0423 0.0383 10.1636 25.2567
# 3 23.8355 36.0423 111.4416 -13.9732 6.9221 21.8528
# 4 18.4089 0.0383 -13.9732 17.2998 -2.3079 4.2080
# 5 -0.5379 10.1636 6.9221 -2.3079 24.9361 9.4233
# 6 1.7806 25.2567 21.8528 4.2080 9.4233 30.7345
#
#
#
# Elastic Compliance Matrix: (Units=1/GPa)
#
#
# Indices 1 2 3 4 5 6 
#
# 1 -0.025297 -0.000527 0.013520 0.042285 0.005579 -0.015214
# 2 -0.000527 0.010611 -0.001742 0.000749 -0.001051 -0.007231
# 3 0.013520 -0.001742 0.005957 -0.009148 -0.000697 -0.002121
# 4 0.042285 0.000749 -0.009148 0.005377 0.002966 0.001793
# 5 0.005579 -0.001051 -0.000697 0.002966 0.046239 -0.013547
# 6 -0.015214 -0.007231 -0.002121 0.001793 -0.013547 0.044777
#
#
# Mechanical properties :
#
#
# Convention : Reuss Voigt Hill
#
# Bulk Modulus (GPa) = 72.60526 40.03174 56.31850
# Shear Modulus (GPa) = 71.68058 25.85613 48.76836
#
# Velocity S-wave (km/s) = 5.62692 3.37950 4.64130
# Velocity P-wave (km/s) = 8.61899 5.73677 7.32112
#
# Compressibility (1/GPa) = 0.01377311
#
# Stress axis : x y z
#
# Youngs Moduli (GPa) = -39.53049 94.23901 167.86333
#
# Poissons Ratio (x) = 0.04969 -2.26949
# Poissons Ratio (y) = -0.02084 0.29240
# Poissons Ratio (z) = 0.53445 0.16415
#
# Static dielectric constant tensor:
#      x y z
#    x 1.876640 0.035400 -0.031600 
#    y 0.035400 1.928260 -0.031970 
#    z -0.031600 -0.031970 1.929540 
# 
# From -- ./inp_files/214710.got.cif
#   From: 2010.05.17/outbox.cif.g08.bks.cpg/sg2_108_cif.got.tgz:214710.got - 2010.06.03 11:33:40.
