data_PCOD9095265
_publ_section_title
;
Structure prediction by ZEFSAII (Michael W. Deem and Ramdas Pophale) SiO2 
 PCOD9095265
Probable space group: P -1
;
_chemical_formula_sum "Si O2"
_cell_formula_units_Z 16
_cell_length_a 13.708327
_cell_length_b 6.598210
_cell_length_c 7.889831
_cell_angle_alpha 91.680241
_cell_angle_beta 124.908613
_cell_angle_gamma 78.332318
_cell_volume 569.810860
_symmetry_space_group_name_H-M "P -1"
_symmetry_group_IT_number 2
_symmetry_cell_setting 'triclinic'
loop_
_space_group_symop_operation_xyz
x,y,z
-x,-y,-z
loop_
_atom_site_type_symbol
_atom_site_label
_atom_site_fract_x
_atom_site_fract_y
_atom_site_fract_z
Si Si1 0.997974 0.962559 0.796377
Si Si2 0.322047 0.563850 0.674916
Si Si3 0.423733 0.458371 0.149584
Si Si4 0.243083 0.998647 0.971478
Si Si5 0.501153 0.025593 0.702596
Si Si6 0.245678 0.062742 0.588114
Si Si7 0.177097 0.445241 0.053175
Si Si8 0.930251 0.435830 0.680346
O O1 0.884949 0.864229 0.631777
O O2 0.970375 0.187126 0.682040
O O3 0.138296 0.871880 0.883417
O O4 0.000000 0.000000 0.000000
O O5 0.444544 0.490332 0.680215
O O6 0.278886 0.809375 0.594530
O O7 0.195824 0.485297 0.544079
O O8 0.373599 0.528315 0.914745
O O9 0.460831 0.203361 0.179579
O O10 0.305878 0.505144 0.154526
O O11 0.234715 0.092136 0.778142
O O12 0.382446 0.879519 0.135262
O O13 0.212826 0.191452 0.077478
O O14 0.366183 0.124540 0.637549
O O15 0.500000 0.000000 0.500000
O O16 0.119766 0.532821 0.175854
O O17 0.061183 0.497918 0.809816
#
# Coordination Sequence:
#
# PCOD9095265 Si02
#       8
#     2   2   2   2   2   2   2   2
#     4  10  20  35  56  83 113 145 186 231 276 329
#     4   9  19  36  56  80 109 141 181 226 276 330
#     4   9  19  36  55  81 109 138 182 228 274 330
#     4  10  20  36  55  81 113 145 187 229 275 333
#     4  10  20  37  58  81 112 147 185 229 278 332
#     4  10  20  36  59  83 112 148 183 229 281 329
#     4   9  19  36  54  77 109 144 185 225 269 326
#     4   9  19  36  55  76 107 146 184 225 273 323
#
# _framework density 28.079495999999999
#
# number of rings (size 3 to 8) (size 9 to 14) (size 15 to 20)
#    0.000    2.500    0.000    1.500    0.000    2.000 
#    0.000   20.000    0.000    0.000    0.000    0.000 
#    0.000    0.000    0.000    0.000    0.000    0.000 
#
# Total GULP energy -89594.653885 kJ/mol
# GULP energy per Si atom -5599.665868 kJ/mol
# Density = 2.801559 g / cm^3
# Si number density = 28.079496 Si / 1000 Ang^3
#
#
#
# Elastic Constant Matrix: (Units=GPa)
#
#
# Indices 1 2 3 4 5 6 
#
# 1 208.0950 35.0021 63.9729 25.5216 49.9351 23.6689
# 2 35.0021 76.5773 13.8123 2.6907 35.7135 12.6611
# 3 63.9729 13.8123 171.7400 15.7365 54.1067 8.6703
# 4 25.5216 2.6907 15.7365 51.2868 -3.2032 26.4871
# 5 49.9351 35.7135 54.1067 -3.2032 39.4609 9.0735
# 6 23.6689 12.6611 8.6703 26.4871 9.0735 63.3278
#
#
#
# Elastic Compliance Matrix: (Units=1/GPa)
#
#
# Indices 1 2 3 4 5 6 
#
# 1 0.009235 0.006965 0.004895 -0.009120 -0.025905 0.002012
# 2 0.006965 0.041494 0.019408 -0.019045 -0.075734 0.005260
# 3 0.004895 0.019408 0.021160 -0.016692 -0.055586 0.006339
# 4 -0.009120 -0.019045 -0.016692 0.042468 0.058953 -0.016708
# 5 -0.025905 -0.075734 -0.055586 0.058953 0.212892 -0.022727
# 6 0.002012 0.005260 0.006339 -0.016708 -0.022727 0.023364
#
#
# Mechanical properties :
#
#
# Convention : Reuss Voigt Hill
#
# Bulk Modulus (GPa) = 7.43905 75.77632 41.60769
# Shear Modulus (GPa) = 15.02017 53.72343 34.37180
#
# Velocity S-wave (km/s) = 2.31533 4.37883 3.50249
# Velocity P-wave (km/s) = 3.13093 7.25331 5.58629
#
# Compressibility (1/GPa) = 0.13442569
#
# Stress axis : x y z
#
# Youngs Moduli (GPa) = 108.28483 24.09965 47.25851
#
# Poissons Ratio (x) = -0.16785 -0.23134
# Poissons Ratio (y) = -0.75420 -0.91719
# Poissons Ratio (z) = -0.53007 -0.46773
#
# Static dielectric constant tensor:
#      x y z
#    x 2.148580 0.076150 0.066870 
#    y 0.076150 2.324120 -0.021670 
#    z 0.066870 -0.021670 2.111220 
# 
# From -- ./inp_files/298389.got.cif
#   From: 2010.05.17/outbox.cif.g08.bks.cpg/sg2_150_cif.got.tgz:298389.got - 2010.06.03 11:33:40.
