data_PCOD9095223
_publ_section_title
;
Structure prediction by ZEFSAII (Michael W. Deem and Ramdas Pophale) SiO2 
 PCOD9095223
Probable space group: P -1
;
_chemical_formula_sum "Si O2"
_cell_formula_units_Z 16
_cell_length_a 5.967680
_cell_length_b 23.162012
_cell_length_c 6.039145
_cell_angle_alpha 93.899633
_cell_angle_beta 106.170587
_cell_angle_gamma 56.578369
_cell_volume 665.345750
_symmetry_space_group_name_H-M "P -1"
_symmetry_group_IT_number 2
_symmetry_cell_setting 'triclinic'
loop_
_space_group_symop_operation_xyz
x,y,z
-x,-y,-z
loop_
_atom_site_type_symbol
_atom_site_label
_atom_site_fract_x
_atom_site_fract_y
_atom_site_fract_z
Si Si1 0.230053 0.471804 0.871727
Si Si2 0.100000 0.795756 0.299988
Si Si3 0.917006 0.286355 0.341338
Si Si4 0.302872 0.236167 0.057160
Si Si5 0.772305 0.004726 0.629500
Si Si6 0.815489 0.109628 0.930686
Si Si7 0.315603 0.560356 0.644648
Si Si8 0.429298 0.323468 0.863910
O O1 0.134682 0.533950 0.693042
O O2 0.503281 0.447852 0.089965
O O3 0.284486 0.401566 0.767219
O O4 0.000000 0.500000 0.000000
O O5 0.052312 0.775402 0.520872
O O6 0.074860 0.864926 0.232978
O O7 0.407934 0.731098 0.299372
O O8 0.883546 0.790311 0.089348
O O9 0.826416 0.359973 0.448087
O O10 0.669066 0.307082 0.104811
O O11 0.210277 0.255407 0.287894
O O12 0.231993 0.305632 0.932366
O O13 0.610327 0.176176 0.045379
O O14 0.500000 0.000000 0.500000
O O15 0.954593 0.945559 0.848948
O O16 0.000000 0.000000 0.500000
O O17 0.670360 0.075846 0.755206
O O18 0.500000 0.500000 0.500000
#
# Coordination Sequence:
#
# PCOD9095223 Si02
#       8
#     2   2   2   2   2   2   2   2
#     4  10  20  35  56  80 117 166 218 280 351 408
#     4  10  22  40  65  94 130 177 218 286 347 416
#     4  10  21  38  61  90 129 171 229 284 358 419
#     4  10  22  40  65  94 130 177 225 290 347 422
#     4  11  28  50  83 115 155 203 238 301 360 432
#     4  10  26  48  72 110 149 180 250 287 354 436
#     4  10  21  36  56  87 122 169 225 287 348 427
#     4   9  20  38  54  85 126 164 221 285 345 420
#
# _framework density 24.047650000000001
#
# number of rings (size 3 to 8) (size 9 to 14) (size 15 to 20)
#    0.000    2.000    0.000    1.500    3.500   10.500 
#    0.000    0.000    0.000    0.000    0.000    0.000 
#    0.000    0.000    0.000    0.000    0.000    0.000 
#
# Total GULP energy -89255.590619 kJ/mol
# GULP energy per Si atom -5578.474414 kJ/mol
# Density = 2.399292 g / cm^3
# Si number density = 24.047650 Si / 1000 Ang^3
#
#
#
# Elastic Constant Matrix: (Units=GPa)
#
#
# Indices 1 2 3 4 5 6 
#
# 1 102.0523 58.9260 50.4596 -9.9687 -13.1131 35.6030
# 2 58.9260 99.6769 50.4016 -7.8557 10.4018 22.3063
# 3 50.4596 50.4016 90.7083 -17.0007 -11.0464 6.2879
# 4 -9.9687 -7.8557 -17.0007 37.5996 2.7757 -4.6965
# 5 -13.1131 10.4018 -11.0464 2.7757 46.6680 8.9186
# 6 35.6030 22.3063 6.2879 -4.6965 8.9186 32.0797
#
#
#
# Elastic Compliance Matrix: (Units=1/GPa)
#
#
# Indices 1 2 3 4 5 6 
#
# 1 0.033298 -0.009113 -0.009765 -0.002826 0.015640 -0.033466
# 2 -0.009113 0.019905 -0.007206 -0.000882 -0.008642 -0.000041
# 3 -0.009765 -0.007206 0.021016 0.006885 0.001049 0.012445
# 4 -0.002826 -0.000882 0.006885 0.029855 -0.002152 0.007369
# 5 0.015640 -0.008642 0.001049 -0.002152 0.032099 -0.020793
# 6 -0.033466 -0.000041 0.012445 0.007369 -0.020793 0.072763
#
#
# Mechanical properties :
#
#
# Convention : Reuss Voigt Hill
#
# Bulk Modulus (GPa) = 45.34781 68.00132 56.67456
# Shear Modulus (GPa) = 18.62536 32.11282 25.36909
#
# Velocity S-wave (km/s) = 2.78604 3.65825 3.25152
# Velocity P-wave (km/s) = 5.40812 6.79580 6.14128
#
# Compressibility (1/GPa) = 0.02205178
#
# Stress axis : x y z
#
# Youngs Moduli (GPa) = 30.03203 50.23965 47.58366
#
# Poissons Ratio (x) = 0.45781 0.46465
# Poissons Ratio (y) = 0.27367 0.34287
# Poissons Ratio (z) = 0.29326 0.36201
#
# Static dielectric constant tensor:
#      x y z
#    x 1.943650 0.016190 -0.043440 
#    y 0.016190 1.934360 0.015760 
#    z -0.043440 0.015760 1.900910 
# 
# From -- ./inp_files/11274.got.cif
#   From: 2010.05.17/outbox.cif.g08.bks.cpg/sg2_6_cif.got.tgz:11274.got - 2010.06.03 11:33:40.
