data_PCOD9095406
_publ_section_title
;
Structure prediction by ZEFSAII (Michael W. Deem and Ramdas Pophale) SiO2 
 PCOD9095406
Probable space group: P -1
;
_chemical_formula_sum "Si O2"
_cell_formula_units_Z 16
_cell_length_a 19.194562
_cell_length_b 18.382404
_cell_length_c 11.344691
_cell_angle_alpha 43.657464
_cell_angle_beta 147.462623
_cell_angle_gamma 158.890711
_cell_volume 733.241250
_symmetry_space_group_name_H-M "P -1"
_symmetry_group_IT_number 2
_symmetry_cell_setting 'triclinic'
loop_
_space_group_symop_operation_xyz
x,y,z
-x,-y,-z
loop_
_atom_site_type_symbol
_atom_site_label
_atom_site_fract_x
_atom_site_fract_y
_atom_site_fract_z
Si Si1 0.856240 0.029813 0.370592
Si Si2 0.870199 0.974631 0.722966
Si Si3 0.812757 0.461883 0.503435
Si Si4 0.565466 0.639567 0.838760
Si Si5 0.358686 0.793156 0.852373
Si Si6 0.378057 0.355873 0.608908
Si Si7 0.185007 0.461025 0.854539
Si Si8 0.331365 0.981838 0.439595
O O1 0.874422 0.023903 0.541763
O O2 0.747499 0.842350 0.384302
O O3 0.632902 0.957159 0.109331
O O4 0.139458 0.248243 0.458503
O O5 0.667981 0.735599 0.739176
O O6 0.790875 0.016804 0.646298
O O7 0.158887 0.131560 0.974554
O O8 0.687903 0.467201 0.392649
O O9 0.813648 0.505821 0.319532
O O10 0.105986 0.641589 0.749717
O O11 0.598557 0.217881 0.491889
O O12 0.500000 0.500000 0.000000
O O13 0.250944 0.614466 0.837912
O O14 0.393380 0.918205 0.671360
O O15 0.500000 0.500000 0.500000
O O16 0.595502 0.468422 0.880264
O O17 0.895748 0.207159 0.757018
#
# Coordination Sequence:
#
# PCOD9095406 Si02
#       8
#     2   2   2   2   2   2   2   2
#     4  10  23  41  58  84 121 151 192 240 282 351
#     4  10  22  37  58  88 116 153 192 237 298 341
#     4  10  20  35  57  86 114 149 193 237 288 338
#     4  10  20  36  58  84 117 151 192 241 287 340
#     4  10  22  38  56  83 117 157 197 234 283 343
#     4  10  23  41  62  86 113 152 194 237 292 346
#     4  10  21  37  59  85 112 147 194 244 290 339
#     4  10  21  37  59  86 117 149 193 244 287 340
#
# _framework density 21.820921999999999
#
# number of rings (size 3 to 8) (size 9 to 14) (size 15 to 20)
#    0.000    2.000    0.000    3.750    0.000   12.500 
#    0.000    2.500    0.000    0.000    0.000    0.000 
#    0.000    0.000    0.000    0.000    0.000    0.000 
#
# Total GULP energy -89216.740983 kJ/mol
# GULP energy per Si atom -5576.046311 kJ/mol
# Density = 2.177126 g / cm^3
# Si number density = 21.820922 Si / 1000 Ang^3
#
#
#
# Elastic Constant Matrix: (Units=GPa)
#
#
# Indices 1 2 3 4 5 6 
#
# 1 48.2777 18.7907 42.6585 -6.0229 13.0147 16.6824
# 2 18.7907 160.9731 61.8315 -8.5796 14.4778 30.7036
# 3 42.6585 61.8315 172.3497 15.6504 20.9876 22.6770
# 4 -6.0229 -8.5796 15.6504 24.9896 5.7525 9.9861
# 5 13.0147 14.4778 20.9876 5.7525 32.8159 -1.8561
# 6 16.6824 30.7036 22.6770 9.9861 -1.8561 42.0692
#
#
#
# Elastic Compliance Matrix: (Units=1/GPa)
#
#
# Indices 1 2 3 4 5 6 
#
# 1 0.051093 0.009365 -0.012575 0.041797 -0.025453 -0.031362
# 2 0.009365 0.011410 -0.005006 0.016955 -0.009298 -0.013777
# 3 -0.012575 -0.005006 0.010811 -0.014860 0.003253 0.006484
# 4 0.041797 0.016955 -0.014860 0.090294 -0.032860 -0.043822
# 5 -0.025453 -0.009298 0.003253 -0.032860 0.049770 0.025122
# 6 -0.031362 -0.013777 0.006484 -0.043822 0.025122 0.054278
#
#
# Mechanical properties :
#
#
# Convention : Reuss Voigt Hill
#
# Bulk Modulus (GPa) = 17.58055 69.79578 43.68816
# Shear Modulus (GPa) = 16.49899 37.19625 26.84762
#
# Velocity S-wave (km/s) = 2.75273 4.13318 3.51146
# Velocity P-wave (km/s) = 4.26352 7.40491 6.04195
#
# Compressibility (1/GPa) = 0.05688105
#
# Stress axis : x y z
#
# Youngs Moduli (GPa) = 19.57201 87.64520 92.50112
#
# Poissons Ratio (x) = -0.82079 1.16324
# Poissons Ratio (y) = -0.18329 0.46305
# Poissons Ratio (z) = 0.24613 0.43874
#
# Static dielectric constant tensor:
#      x y z
#    x 1.900400 -0.034870 0.031300 
#    y -0.034870 1.858340 -0.010660 
#    z 0.031300 -0.010660 1.784760 
# 
# From -- ./inp_files/472747.got.cif
#   From: 2010.05.17/outbox.cif.g08.bks.cpg/sg2_237_cif.got.tgz:472747.got - 2010.06.03 11:33:40.
