data_PCOD9095372
_publ_section_title
;
Structure prediction by ZEFSAII (Michael W. Deem and Ramdas Pophale) SiO2 
 PCOD9095372
Probable space group: P -1
;
_chemical_formula_sum "Si O2"
_cell_formula_units_Z 16
_cell_length_a 13.403119
_cell_length_b 21.956327
_cell_length_c 13.312433
_cell_angle_alpha 146.360726
_cell_angle_beta 32.978582
_cell_angle_gamma 154.846271
_cell_volume 859.816906
_symmetry_space_group_name_H-M "P -1"
_symmetry_group_IT_number 2
_symmetry_cell_setting 'triclinic'
loop_
_space_group_symop_operation_xyz
x,y,z
-x,-y,-z
loop_
_atom_site_type_symbol
_atom_site_label
_atom_site_fract_x
_atom_site_fract_y
_atom_site_fract_z
Si Si1 0.102893 0.917328 0.080768
Si Si2 0.498189 0.085773 0.331636
Si Si3 0.294805 0.844474 0.520143
Si Si4 0.934342 0.892603 0.500564
Si Si5 0.716016 0.646660 0.194896
Si Si6 0.345901 0.619485 0.140234
Si Si7 0.299968 0.599547 0.387666
Si Si8 0.092489 0.148708 0.073559
O O1 0.896012 0.776384 0.135821
O O2 0.163492 0.063552 0.272410
O O3 0.345084 0.938077 0.896838
O O4 0.994209 0.882888 0.012981
O O5 0.590215 0.117767 0.412938
O O6 0.573775 0.240988 0.450299
O O7 0.200111 0.951133 0.391180
O O8 0.244593 0.701437 0.324975
O O9 0.038885 0.805988 0.695250
O O10 0.500000 0.000000 0.500000
O O11 0.760333 0.727962 0.373484
O O12 0.000000 0.000000 0.500000
O O13 0.427161 0.548753 0.267222
O O14 0.789113 0.548973 0.006630
O O15 0.381439 0.622866 0.235162
O O16 0.609617 0.725827 0.006796
O O17 0.000000 0.500000 0.500000
O O18 0.000000 0.000000 0.000000
#
# Coordination Sequence:
#
# PCOD9095372 Si02
#       8
#     2   2   2   2   2   2   2   2
#     4  10  20  37  57  85 115 153 196 237 287 337
#     4  10  20  35  57  84 112 151 196 235 282 340
#     4  10  21  36  57  89 112 145 194 242 292 342
#     4  10  20  38  54  81 117 159 199 228 274 350
#     4  11  22  36  56  81 124 158 185 236 292 354
#     4  11  22  36  54  85 122 146 185 239 299 343
#     4  11  21  34  55  85 122 154 182 237 300 350
#     4  11  21  36  62  88 111 152 195 241 296 343
#
# _framework density 18.608612000000001
#
# number of rings (size 3 to 8) (size 9 to 14) (size 15 to 20)
#    0.000    1.500    5.000    1.875    5.250    2.000 
#    2.250    0.000    0.000    1.500    0.000    0.000 
#    0.000    0.000    0.000    0.000    0.000    0.000 
#
# Total GULP energy -89230.228964 kJ/mol
# GULP energy per Si atom -5576.889310 kJ/mol
# Density = 1.856626 g / cm^3
# Si number density = 18.608612 Si / 1000 Ang^3
#
#
#
# Elastic Constant Matrix: (Units=GPa)
#
#
# Indices 1 2 3 4 5 6 
#
# 1 17.0324 12.0623 22.9255 2.2335 -12.5846 -3.1778
# 2 12.0623 60.6380 43.7793 4.1970 -0.8607 -6.9155
# 3 22.9255 43.7793 167.9225 10.5399 -11.9524 1.0879
# 4 2.2335 4.1970 10.5399 37.0581 0.0370 -3.0342
# 5 -12.5846 -0.8607 -11.9524 0.0370 24.1279 -0.2404
# 6 -3.1778 -6.9155 1.0879 -3.0342 -0.2404 22.3462
#
#
#
# Elastic Compliance Matrix: (Units=1/GPa)
#
#
# Indices 1 2 3 4 5 6 
#
# 1 0.134510 -0.017415 -0.009128 -0.002411 0.065163 0.014557
# 2 -0.017415 0.023672 -0.004576 0.000088 -0.010456 0.004971
# 3 -0.009128 -0.004576 0.008463 -0.001612 -0.000763 -0.003353
# 4 -0.002411 0.000088 -0.001612 0.027869 -0.002061 0.003525
# 5 0.065163 -0.010456 -0.000763 -0.002061 0.074751 0.006592
# 6 0.014557 0.004971 -0.003353 0.003525 0.006592 0.049072
#
#
# Mechanical properties :
#
#
# Convention : Reuss Voigt Hill
#
# Bulk Modulus (GPa) = 9.57792 44.79189 27.18490
# Shear Modulus (GPa) = 12.03723 27.82814 19.93269
#
# Velocity S-wave (km/s) = 2.54611 3.87129 3.27640
# Velocity P-wave (km/s) = 3.71508 6.64118 5.38085
#
# Compressibility (1/GPa) = 0.10440679
#
# Stress axis : x y z
#
# Youngs Moduli (GPa) = 7.43437 42.24455 118.16158
#
# Poissons Ratio (x) = 0.73568 1.07863
# Poissons Ratio (y) = 0.12947 0.54069
# Poissons Ratio (z) = 0.06786 0.19331
#
# Static dielectric constant tensor:
#      x y z
#    x 1.644350 -0.003290 -0.029590 
#    y -0.003290 1.668490 0.022570 
#    z -0.029590 0.022570 1.695310 
# 
# From -- ./inp_files/432285.got.cif
#   From: 2010.05.17/outbox.cif.g08.bks.cpg/sg2_217_cif.got.tgz:432285.got - 2010.06.03 11:33:40.
