data_PCOD9095211
_publ_section_title
;
Structure prediction by ZEFSAII (Michael W. Deem and Ramdas Pophale) SiO2 
 PCOD9095211
Probable space group: P -1
;
_chemical_formula_sum "Si O2"
_cell_formula_units_Z 16
_cell_length_a 10.228592
_cell_length_b 17.328869
_cell_length_c 15.479639
_cell_angle_alpha 153.335808
_cell_angle_beta 107.148213
_cell_angle_gamma 54.247403
_cell_volume 780.732562
_symmetry_space_group_name_H-M "P -1"
_symmetry_group_IT_number 2
_symmetry_cell_setting 'triclinic'
loop_
_space_group_symop_operation_xyz
x,y,z
-x,-y,-z
loop_
_atom_site_type_symbol
_atom_site_label
_atom_site_fract_x
_atom_site_fract_y
_atom_site_fract_z
Si Si1 0.199539 0.385535 0.777849
Si Si2 0.607421 0.948744 0.339159
Si Si3 0.066329 0.773905 0.728786
Si Si4 0.287480 0.658244 0.478432
Si Si5 0.366866 0.954171 0.034591
Si Si6 0.971006 0.843521 0.296848
Si Si7 0.492216 0.807617 0.716061
Si Si8 0.152941 0.528770 0.188867
O O1 0.308013 0.202374 0.702338
O O2 0.006632 0.450489 0.776339
O O3 0.373726 0.221022 0.576306
O O4 0.113845 0.652998 0.054695
O O5 0.743624 0.986314 0.379046
O O6 0.643274 0.765527 0.093111
O O7 0.136248 0.768913 0.641551
O O8 0.276044 0.484455 0.513583
O O9 0.860406 0.850705 0.773469
O O10 0.000000 0.000000 0.000000
O O11 0.487124 0.345435 0.214522
O O12 0.366742 0.778518 0.612136
O O13 0.181159 0.679510 0.394511
O O14 0.370397 0.945572 0.921502
O O15 0.475032 0.033932 0.157241
O O16 0.049555 0.654323 0.202152
O O17 0.000000 0.000000 0.500000
#
# Coordination Sequence:
#
# PCOD9095211 Si02
#       8
#     2   2   2   2   2   2   2   2
#     4   8  15  31  52  71  93 130 174 203 244 309
#     4   8  15  31  53  70  92 131 172 207 245 303
#     4  11  18  35  59  77 104 145 186 221 261 322
#     4  11  21  35  53  79 111 143 177 224 278 321
#     4  10  20  36  56  79 104 141 183 226 265 320
#     4   9  17  31  52  78 102 135 173 209 256 313
#     4  10  20  35  56  80 104 138 185 223 268 321
#     4   9  19  33  50  73 104 134 169 217 265 308
#
# _framework density 20.493573000000001
#
# number of rings (size 3 to 8) (size 9 to 14) (size 15 to 20)
#    0.000    2.500    2.500    2.625    0.000    1.500 
#    4.500    0.000    0.000    1.500    0.000    0.000 
#    0.000    0.000    0.000    0.000    0.000    0.000 
#
# Total GULP energy -89118.676656 kJ/mol
# GULP energy per Si atom -5569.917291 kJ/mol
# Density = 2.044693 g / cm^3
# Si number density = 20.493573 Si / 1000 Ang^3
#
#
#
# Elastic Constant Matrix: (Units=GPa)
#
#
# Indices 1 2 3 4 5 6 
#
# 1 103.8990 18.3796 73.7543 -10.0861 -9.0258 -28.9856
# 2 18.3796 35.6366 9.9753 -16.0835 -6.9337 -5.9365
# 3 73.7543 9.9753 132.8598 -15.5516 -11.6016 -28.9362
# 4 -10.0861 -16.0835 -15.5516 23.7109 -13.9601 8.0606
# 5 -9.0258 -6.9337 -11.6016 -13.9601 49.8585 -0.9032
# 6 -28.9856 -5.9365 -28.9362 8.0606 -0.9032 20.2318
#
#
#
# Elastic Compliance Matrix: (Units=1/GPa)
#
#
# Indices 1 2 3 4 5 6 
#
# 1 0.022286 -0.012266 -0.008706 -0.013573 -0.003114 0.021147
# 2 -0.012266 0.063729 0.009784 0.062947 0.026385 -0.008781
# 3 -0.008706 0.009784 0.015638 0.015465 0.007880 0.006955
# 4 -0.013573 0.062947 0.015465 0.124236 0.044203 -0.026380
# 5 -0.003114 0.026385 0.007880 0.044203 0.037347 -0.001394
# 6 0.021147 -0.008781 0.006955 -0.026380 -0.001394 0.097542
#
#
# Mechanical properties :
#
#
# Convention : Reuss Voigt Hill
#
# Bulk Modulus (GPa) = 12.61396 52.95710 32.78553
# Shear Modulus (GPa) = 12.20771 30.11265 21.16018
#
# Velocity S-wave (km/s) = 2.44331 3.83740 3.21678
# Velocity P-wave (km/s) = 3.75874 6.74767 5.46165
#
# Compressibility (1/GPa) = 0.07927724
#
# Stress axis : x y z
#
# Youngs Moduli (GPa) = 44.87199 15.69153 63.94746
#
# Poissons Ratio (x) = 0.19247 0.55669
# Poissons Ratio (y) = 0.55040 -0.62566
# Poissons Ratio (z) = 0.39063 -0.15353
#
# Static dielectric constant tensor:
#      x y z
#    x 1.748070 0.024040 0.013580 
#    y 0.024040 1.848380 -0.007680 
#    z 0.013580 -0.007680 1.739840 
# 
# From -- ./inp_files/562787.got.cif
#   From: 2010.05.17/outbox.cif.g08.bks.cpg/sg2_282_cif.got.tgz:562787.got - 2010.06.03 11:33:40.
