data_PCOD9095216
_publ_section_title
;
Structure prediction by ZEFSAII (Michael W. Deem and Ramdas Pophale) SiO2 
 PCOD9095216
Probable space group: P -1
;
_chemical_formula_sum "Si O2"
_cell_formula_units_Z 16
_cell_length_a 6.989589
_cell_length_b 20.229529
_cell_length_c 8.350176
_cell_angle_alpha 142.029024
_cell_angle_beta 107.727637
_cell_angle_gamma 63.289529
_cell_volume 646.237278
_symmetry_space_group_name_H-M "P -1"
_symmetry_group_IT_number 2
_symmetry_cell_setting 'triclinic'
loop_
_space_group_symop_operation_xyz
x,y,z
-x,-y,-z
loop_
_atom_site_type_symbol
_atom_site_label
_atom_site_fract_x
_atom_site_fract_y
_atom_site_fract_z
Si Si1 0.821792 0.814107 0.360189
Si Si2 0.311141 0.073919 0.980695
Si Si3 0.757791 0.032022 0.559128
Si Si4 0.669611 0.288936 0.126884
Si Si5 0.685534 0.630921 0.060948
Si Si6 0.076157 0.758461 0.613118
Si Si7 0.122148 0.436662 0.714693
Si Si8 0.137590 0.297971 0.186458
O O1 0.674569 0.762633 0.330303
O O2 0.039982 0.783624 0.462853
O O3 0.750289 0.943710 0.527155
O O4 0.826766 0.742504 0.063045
O O5 0.333494 0.996679 0.682984
O O6 0.305432 0.193696 0.131757
O O7 0.082974 0.123119 0.114604
O O8 0.500000 0.000000 0.000000
O O9 0.675594 0.161769 0.843562
O O10 0.000000 0.000000 0.500000
O O11 0.695697 0.286763 0.323005
O O12 0.893720 0.301510 0.155920
O O13 0.482175 0.372133 0.124888
O O14 0.684175 0.580967 0.144485
O O15 0.926710 0.554543 0.918889
O O16 0.980294 0.658499 0.437088
O O17 0.164478 0.409630 0.485905
#
# Coordination Sequence:
#
# PCOD9095216 Si02
#       8
#     2   2   2   2   2   2   2   2
#     4  10  21  36  53  79 112 141 177 222 265 309
#     4   9  18  32  53  77 106 143 177 212 264 318
#     4  11  19  37  54  76 110 149 175 212 267 324
#     4  10  20  35  56  80 108 142 183 212 269 321
#     4  10  20  35  58  86 102 137 181 230 263 314
#     4   9  19  36  53  81 109 141 178 225 260 314
#     4   8  18  37  59  76 110 141 175 215 280 320
#     4   9  19  37  54  78 108 146 177 216 264 327
#
# _framework density 24.758709
#
# number of rings (size 3 to 8) (size 9 to 14) (size 15 to 20)
#    0.000    2.750    3.750    0.000    5.250    3.500 
#    2.250    1.250    0.000    7.500    0.000    0.000 
#    0.000    0.000    0.000    0.000    0.000    0.000 
#
# Total GULP energy -89097.479249 kJ/mol
# GULP energy per Si atom -5568.592453 kJ/mol
# Density = 2.470236 g / cm^3
# Si number density = 24.758709 Si / 1000 Ang^3
#
#
#
# Elastic Constant Matrix: (Units=GPa)
#
#
# Indices 1 2 3 4 5 6 
#
# 1 59.9733 28.8269 -0.7306 -1.8849 2.5815 -14.5805
# 2 28.8269 205.6790 40.5038 -39.1035 7.9572 -37.7024
# 3 -0.7306 40.5038 85.0570 -18.8767 -7.6247 -8.0511
# 4 -1.8849 -39.1035 -18.8767 39.0973 -6.3392 5.6059
# 5 2.5815 7.9572 -7.6247 -6.3392 18.7947 -6.0322
# 6 -14.5805 -37.7024 -8.0511 5.6059 -6.0322 29.1100
#
#
#
# Elastic Compliance Matrix: (Units=1/GPa)
#
#
# Indices 1 2 3 4 5 6 
#
# 1 0.019498 -0.001769 0.001665 -0.001050 0.001075 0.008360
# 2 -0.001769 0.008051 -0.001645 0.006150 0.000833 0.008074
# 3 0.001665 -0.001645 0.015379 0.006988 0.010264 0.003737
# 4 -0.001050 0.006150 0.006988 0.036631 0.014435 0.005309
# 5 0.001075 0.000833 0.010264 0.014435 0.066713 0.015501
# 6 0.008360 0.008074 0.003737 0.005309 0.015501 0.052221
#
#
# Mechanical properties :
#
#
# Convention : Reuss Voigt Hill
#
# Bulk Modulus (GPa) = 25.36250 54.21218 39.78734
# Shear Modulus (GPa) = 23.24109 36.20768 29.72438
#
# Velocity S-wave (km/s) = 3.06715 3.82831 3.46867
# Velocity P-wave (km/s) = 4.77591 6.44089 5.66985
#
# Compressibility (1/GPa) = 0.03942829
#
# Stress axis : x y z
#
# Youngs Moduli (GPa) = 51.28741 124.20769 65.02231
#
# Poissons Ratio (x) = 0.21977 -0.10824
# Poissons Ratio (y) = 0.09075 0.10698
# Poissons Ratio (z) = -0.08538 0.20436
#
# Static dielectric constant tensor:
#      x y z
#    x 2.055100 0.049610 -0.082890 
#    y 0.049610 2.039660 -0.063930 
#    z -0.082890 -0.063930 2.037010 
# 
# From -- ./inp_files/222649.got.cif
#   From: 2010.05.17/outbox.cif.g08.bks.cpg/sg2_112_cif.got.tgz:222649.got - 2010.06.03 11:33:40.
