data_PCOD9095690
_publ_section_title
;
Structure prediction by ZEFSAII (Michael W. Deem and Ramdas Pophale) SiO2 
 PCOD9095690
Probable space group: P -1
;
_chemical_formula_sum "Si O2"
_cell_formula_units_Z 14
_cell_length_a 14.459668
_cell_length_b 6.574093
_cell_length_c 19.916267
_cell_angle_alpha 71.335516
_cell_angle_beta 158.630668
_cell_angle_gamma 106.849722
_cell_volume 653.387343
_symmetry_space_group_name_H-M "P -1"
_symmetry_group_IT_number 2
_symmetry_cell_setting 'triclinic'
loop_
_space_group_symop_operation_xyz
x,y,z
-x,-y,-z
loop_
_atom_site_type_symbol
_atom_site_label
_atom_site_fract_x
_atom_site_fract_y
_atom_site_fract_z
Si Si1 0.065273 0.899606 0.869822
Si Si2 0.281831 0.516131 0.546343
Si Si3 0.829856 0.535628 0.946607
Si Si4 0.149642 0.880458 0.173543
Si Si5 0.656364 0.653562 0.537307
Si Si6 0.379527 0.061387 0.742613
Si Si7 0.978048 0.261003 0.540598
O O1 0.885752 0.796671 0.703721
O O2 0.194412 0.694392 0.014590
O O3 0.334069 0.017049 0.033140
O O4 0.873730 0.003118 0.783986
O O5 0.555783 0.622730 0.731943
O O6 0.253230 0.480906 0.451767
O O7 0.308497 0.278013 0.625248
O O8 0.081721 0.678385 0.429082
O O9 0.000000 0.500000 0.000000
O O10 0.984049 0.669284 0.089861
O O11 0.429455 0.819006 0.345607
O O12 0.000000 0.000000 0.000000
O O13 0.500000 0.500000 0.500000
O O14 0.225257 0.122984 0.699986
O O15 0.250813 0.867568 0.635300
O O16 0.000000 0.500000 0.500000
#
# Coordination Sequence:
#
# PCOD9095690 Si02
#       7
#     2   2   2   2   2   2   2
#     4  11  22  37  56  85 124 161 199 252 305 355
#     4  10  20  35  59  87 119 163 202 246 302 356
#     4  11  18  36  55  83 118 155 209 256 282 350
#     4  12  22  36  60  81 112 169 216 249 291 345
#     4  12  24  41  55  87 138 171 201 244 297 364
#     4   9  19  38  63  94 113 148 208 261 304 360
#     4   9  18  37  67  90 115 146 203 263 312 360
#
# _framework density 21.4268
#
# number of rings (size 3 to 8) (size 9 to 14) (size 15 to 20)
#    0.000    1.429    4.286    2.143    0.000    0.000 
#    2.571    0.714    0.000    7.714    0.000    0.000 
#    0.000    0.000    0.000    0.000    0.000    0.000 
#
# Total GULP energy -77939.166798 kJ/mol
# GULP energy per Si atom -5567.083343 kJ/mol
# Density = 2.137803 g / cm^3
# Si number density = 21.426800 Si / 1000 Ang^3
#
#
#
# Elastic Constant Matrix: (Units=GPa)
#
#
# Indices 1 2 3 4 5 6 
#
# 1 92.8579 24.2117 25.8872 2.5910 3.5269 -46.3595
# 2 24.2117 76.5786 11.2035 15.4303 -1.9563 -26.5568
# 3 25.8872 11.2035 78.3317 17.1338 0.6739 -13.3550
# 4 2.5910 15.4303 17.1338 29.4238 -4.5517 -3.5745
# 5 3.5269 -1.9563 0.6739 -4.5517 17.2914 3.7733
# 6 -46.3595 -26.5568 -13.3550 -3.5745 3.7733 44.7408
#
#
#
# Elastic Compliance Matrix: (Units=1/GPa)
#
#
# Indices 1 2 3 4 5 6 
#
# 1 0.025279 0.001407 -0.004144 0.001093 -0.010386 0.026755
# 2 0.001407 0.018562 0.001096 -0.009529 -0.003429 0.012330
# 3 -0.004144 0.001096 0.016294 -0.009998 -0.002435 0.000627
# 4 0.001093 -0.009529 -0.009998 0.046015 0.012263 -0.004866
# 5 -0.010386 -0.003429 -0.002435 0.012263 0.066853 -0.018182
# 6 0.026755 0.012330 0.000627 -0.004866 -0.018182 0.058725
#
#
# Mechanical properties :
#
#
# Convention : Reuss Voigt Hill
#
# Bulk Modulus (GPa) = 17.58908 41.15255 29.37081
# Shear Modulus (GPa) = 19.68812 30.72226 25.20519
#
# Velocity S-wave (km/s) = 3.03455 3.79069 3.43350
# Velocity P-wave (km/s) = 4.52821 6.19734 5.42732
#
# Compressibility (1/GPa) = 0.05685347
#
# Stress axis : x y z
#
# Youngs Moduli (GPa) = 39.55851 53.87380 61.37337
#
# Poissons Ratio (x) = -0.07578 0.25431
# Poissons Ratio (y) = -0.05565 -0.06729
# Poissons Ratio (z) = 0.16391 -0.05906
#
# Static dielectric constant tensor:
#      x y z
#    x 2.004420 0.375250 0.189580 
#    y 0.375250 2.451320 0.339010 
#    z 0.189580 0.339010 1.976540 
# 
# From -- ./inp_files/99324.got.cif
#   From: 2010.05.17/outbox.cif.g08.bks.cpg/sg2_50_cif.got.tgz:99324.got - 2010.06.03 11:33:40.
