data_PCOD9095972
_publ_section_title
;
Structure prediction by ZEFSAII (Michael W. Deem and Ramdas Pophale) SiO2 
 PCOD9095972
Probable space group: P -1
;
_chemical_formula_sum "Si O2"
_cell_formula_units_Z 16
_cell_length_a 19.376935
_cell_length_b 17.673897
_cell_length_c 9.643190
_cell_angle_alpha 35.477673
_cell_angle_beta 44.359760
_cell_angle_gamma 20.762571
_cell_volume 661.888813
_symmetry_space_group_name_H-M "P -1"
_symmetry_group_IT_number 2
_symmetry_cell_setting 'triclinic'
loop_
_space_group_symop_operation_xyz
x,y,z
-x,-y,-z
loop_
_atom_site_type_symbol
_atom_site_label
_atom_site_fract_x
_atom_site_fract_y
_atom_site_fract_z
Si Si1 0.317879 0.993705 0.882248
Si Si2 0.968991 0.598016 0.097548
Si Si3 0.712791 0.634101 0.362715
Si Si4 0.382899 0.622907 0.342861
Si Si5 0.938503 0.112808 0.734627
Si Si6 0.642913 0.976513 0.523013
Si Si7 0.719452 0.190203 0.159984
Si Si8 0.403787 0.875487 0.245620
O O1 0.099607 0.274077 0.842266
O O2 0.344521 0.045430 0.628557
O O3 0.359736 0.797597 0.067851
O O4 0.440828 0.863956 0.045159
O O5 0.855249 0.594788 0.224698
O O6 0.202272 0.301227 0.211612
O O7 0.839039 0.843108 0.819000
O O8 0.845179 0.354951 0.562710
O O9 0.534690 0.825103 0.220562
O O10 0.585462 0.778456 0.470807
O O11 0.500000 0.500000 0.500000
O O12 0.161768 0.812822 0.377071
O O13 0.509812 0.362845 0.475821
O O14 0.854907 0.096072 0.981698
O O15 0.171359 0.868241 0.778158
O O16 0.708637 0.046443 0.376037
O O17 0.500000 0.500000 0.000000
#
# Coordination Sequence:
#
# PCOD9095972 Si02
#       8
#     2   2   2   2   2   2   2   2
#     4   9  20  37  60  85 121 164 194 248 304 360
#     4  10  22  39  60  85 123 162 202 238 307 363
#     4  11  21  37  62  92 115 156 203 251 300 363
#     4   9  16  35  64  89 111 162 207 240 298 365
#     4  10  20  35  61  89 116 157 200 247 311 357
#     4  12  22  36  61  91 123 154 200 255 303 357
#     4  11  21  36  57  91 121 154 198 258 304 351
#     4   8  20  37  61  85 116 162 201 242 305 356
#
# _framework density 24.173244
#
# number of rings (size 3 to 8) (size 9 to 14) (size 15 to 20)
#    0.750    1.250    3.750    0.750    0.000    1.000 
#    0.000    0.000    0.000    0.750    3.250    0.000 
#    0.000    0.000    0.000    0.000    0.000    0.000 
#
# Total GULP energy -89179.165212 kJ/mol
# GULP energy per Si atom -5573.697826 kJ/mol
# Density = 2.411823 g / cm^3
# Si number density = 24.173244 Si / 1000 Ang^3
#
#
#
# Elastic Constant Matrix: (Units=GPa)
#
#
# Indices 1 2 3 4 5 6 
#
# 1 59.3577 26.8658 38.9380 0.6564 13.0367 -6.8124
# 2 26.8658 88.5197 19.4142 -14.5525 11.0304 -16.7463
# 3 38.9380 19.4142 63.8859 -26.7311 -5.6540 -4.0975
# 4 0.6564 -14.5525 -26.7311 33.7387 0.3843 4.7853
# 5 13.0367 11.0304 -5.6540 0.3843 43.0569 -8.9409
# 6 -6.8124 -16.7463 -4.0975 4.7853 -8.9409 31.7806
#
#
#
# Elastic Compliance Matrix: (Units=1/GPa)
#
#
# Indices 1 2 3 4 5 6 
#
# 1 0.080236 -0.015028 -0.075028 -0.067363 -0.029387 0.001482
# 2 -0.015028 0.016641 0.011196 0.015540 0.002745 0.005423
# 3 -0.075028 0.011196 0.094574 0.081063 0.031253 -0.001403
# 4 -0.067363 0.015540 0.081063 0.102167 0.025304 -0.004065
# 5 -0.029387 0.002745 0.031253 0.025304 0.036466 0.005625
# 6 0.001482 0.005423 -0.001403 -0.004065 0.005625 0.036655
#
#
# Mechanical properties :
#
#
# Convention : Reuss Voigt Hill
#
# Bulk Modulus (GPa) = 29.64789 42.46657 36.05723
# Shear Modulus (GPa) = 9.33351 30.15159 19.74255
#
# Velocity S-wave (km/s) = 1.96710 3.53556 2.86092
# Velocity P-wave (km/s) = 4.17740 5.85429 5.08544
#
# Compressibility (1/GPa) = 0.03372921
#
# Stress axis : x y z
#
# Youngs Moduli (GPa) = 12.46324 60.09138 10.57374
#
# Poissons Ratio (x) = 0.90308 0.79333
# Poissons Ratio (y) = 0.18730 -0.11838
# Poissons Ratio (z) = 0.93509 -0.67276
#
# Static dielectric constant tensor:
#      x y z
#    x 1.989800 0.049300 0.049050 
#    y 0.049300 1.994230 -0.015100 
#    z 0.049050 -0.015100 2.021950 
# 
# From -- ./inp_files/472715.got.cif
#   From: 2010.05.17/outbox.cif.g08.bks.cpg/sg2_237_cif.got.tgz:472715.got - 2010.06.03 11:33:40.
