data_PCOD9095480
_publ_section_title
;
Structure prediction by ZEFSAII (Michael W. Deem and Ramdas Pophale) SiO2 
 PCOD9095480
Probable space group: P -1
;
_chemical_formula_sum "Si O2"
_cell_formula_units_Z 16
_cell_length_a 21.749444
_cell_length_b 7.369133
_cell_length_c 7.909181
_cell_angle_alpha 51.888324
_cell_angle_beta 135.588987
_cell_angle_gamma 137.185780
_cell_volume 591.205356
_symmetry_space_group_name_H-M "P -1"
_symmetry_group_IT_number 2
_symmetry_cell_setting 'triclinic'
loop_
_space_group_symop_operation_xyz
x,y,z
-x,-y,-z
loop_
_atom_site_type_symbol
_atom_site_label
_atom_site_fract_x
_atom_site_fract_y
_atom_site_fract_z
Si Si1 0.343736 0.268290 0.719245
Si Si2 0.960523 0.001872 0.105583
Si Si3 0.167685 0.314151 0.520491
Si Si4 0.527412 0.336508 0.510922
Si Si5 0.890968 0.437134 0.480318
Si Si6 0.276840 0.225139 0.258162
Si Si7 0.116940 0.731572 0.807945
Si Si8 0.672771 0.023340 0.805151
O O1 0.266177 0.363891 0.577299
O O2 0.450772 0.519643 0.712290
O O3 0.302437 0.121487 0.540077
O O4 0.350357 0.098538 0.981526
O O5 0.934041 0.726098 0.305534
O O6 0.846552 0.946853 0.888762
O O7 0.060706 0.235170 0.265161
O O8 0.000000 0.000000 0.000000
O O9 0.187766 0.555404 0.546647
O O10 0.134123 0.025976 0.713323
O O11 0.500000 0.500000 0.500000
O O12 0.646649 0.445286 0.743417
O O13 0.431378 0.029702 0.463606
O O14 0.863680 0.252733 0.366425
O O15 0.998205 0.494027 0.742389
O O16 0.309992 0.167612 0.178689
O O17 0.209143 0.719619 0.088110
#
# Coordination Sequence:
#
# PCOD9095480 Si02
#       8
#     2   2   2   2   2   2   2   2
#     4   9  17  28  47  79 100 133 177 214 257 312
#     4  11  17  29  50  73 104 138 168 205 263 313
#     4  10  18  33  55  74 102 142 170 216 263 307
#     4   8  16  28  45  75 107 132 168 224 257 304
#     4  10  20  33  54  77 107 136 173 220 258 309
#     4   9  18  28  45  78 104 128 179 214 253 315
#     4   9  19  33  53  80 102 133 183 213 256 315
#     4  10  16  30  52  68 104 141 170 217 266 302
#
# _framework density 27.063355000000001
#
# number of rings (size 3 to 8) (size 9 to 14) (size 15 to 20)
#    0.750    1.750    1.250    4.125    0.000    0.000 
#    0.000    0.000    5.500    8.250    0.000    0.000 
#    0.000    0.000    0.000    0.000    0.000    0.000 
#
# Total GULP energy -89103.788380 kJ/mol
# GULP energy per Si atom -5568.986774 kJ/mol
# Density = 2.700176 g / cm^3
# Si number density = 27.063355 Si / 1000 Ang^3
#
#
#
# Elastic Constant Matrix: (Units=GPa)
#
#
# Indices 1 2 3 4 5 6 
#
# 1 119.7756 35.0284 31.2866 7.6741 -7.2156 -14.2338
# 2 35.0284 93.9267 45.9061 25.2976 11.2280 -1.3471
# 3 31.2866 45.9061 104.4419 43.8888 -2.3214 -3.4440
# 4 7.6741 25.2976 43.8888 45.9704 10.9293 5.5225
# 5 -7.2156 11.2280 -2.3214 10.9293 44.3537 6.9970
# 6 -14.2338 -1.3471 -3.4440 5.5225 6.9970 45.5173
#
#
#
# Elastic Compliance Matrix: (Units=1/GPa)
#
#
# Indices 1 2 3 4 5 6 
#
# 1 0.010165 -0.003326 -0.002052 0.001401 0.001648 0.002502
# 2 -0.003326 0.015387 -0.004930 -0.002215 -0.004140 -0.000052
# 3 -0.002052 -0.004930 0.019988 -0.017691 0.006012 0.001947
# 4 0.001401 -0.002215 -0.017691 0.042533 -0.009891 -0.004606
# 5 0.001648 -0.004140 0.006012 -0.009891 0.026945 -0.002094
# 6 0.002502 -0.000052 0.001947 -0.004606 -0.002094 0.023778
#
#
# Mechanical properties :
#
#
# Convention : Reuss Voigt Hill
#
# Bulk Modulus (GPa) = 40.12236 60.28737 50.20487
# Shear Modulus (GPa) = 29.81142 40.89648 35.35395
#
# Velocity S-wave (km/s) = 3.32255 3.89155 3.61825
# Velocity P-wave (km/s) = 5.43844 6.52051 6.00390
#
# Compressibility (1/GPa) = 0.02492376
#
# Stress axis : x y z
#
# Youngs Moduli (GPa) = 98.38071 64.98927 50.02904
#
# Poissons Ratio (x) = 0.21615 0.10268
# Poissons Ratio (y) = 0.32721 0.24663
# Poissons Ratio (z) = 0.20192 0.32038
#
# Static dielectric constant tensor:
#      x y z
#    x 2.186160 0.053680 0.100420 
#    y 0.053680 2.229080 0.021780 
#    z 0.100420 0.021780 2.286280 
# 
# From -- ./inp_files/341828.got.cif
#   From: 2010.05.17/outbox.cif.g08.bks.cpg/sg2_171_cif.got.tgz:341828.got - 2010.06.03 11:33:40.
