data_PCOD9095054
_publ_section_title
;
Structure prediction by ZEFSAII (Michael W. Deem and Ramdas Pophale) SiO2 
 PCOD9095054
Probable space group: P -1
;
_chemical_formula_sum "Si O2"
_cell_formula_units_Z 14
_cell_length_a 15.483975
_cell_length_b 13.235430
_cell_length_c 16.534620
_cell_angle_alpha 48.358969
_cell_angle_beta 128.941081
_cell_angle_gamma 162.076128
_cell_volume 779.236329
_symmetry_space_group_name_H-M "P -1"
_symmetry_group_IT_number 2
_symmetry_cell_setting 'triclinic'
loop_
_space_group_symop_operation_xyz
x,y,z
-x,-y,-z
loop_
_atom_site_type_symbol
_atom_site_label
_atom_site_fract_x
_atom_site_fract_y
_atom_site_fract_z
Si Si1 0.069284 0.425486 0.550584
Si Si2 0.607938 0.867209 0.691649
Si Si3 0.436485 0.403849 0.919955
Si Si4 0.821987 0.608545 0.963408
Si Si5 0.231346 0.641547 0.076940
Si Si6 0.133156 0.625275 0.315608
Si Si7 0.573533 0.075969 0.198703
O O1 0.364565 0.699835 0.611160
O O2 0.093367 0.469148 0.445192
O O3 0.000000 0.500000 0.500000
O O4 0.808522 0.053764 0.634613
O O5 0.452629 0.566499 0.799249
O O6 0.813164 0.171155 0.715420
O O7 0.650297 0.548679 0.919113
O O8 0.500000 0.500000 0.000000
O O9 0.142193 0.997953 0.963448
O O10 0.828014 0.561648 0.899283
O O11 0.683666 0.335408 0.081751
O O12 0.342706 0.751895 0.175065
O O13 0.000000 0.500000 0.000000
O O14 0.500000 0.000000 0.000000
O O15 0.860103 0.320511 0.260108
O O16 0.409496 0.916256 0.270052
#
# Coordination Sequence:
#
# PCOD9095054 Si02
#       7
#     2   2   2   2   2   2   2
#     4  10  20  35  54  76 106 143 180 223 274 322
#     4  11  21  36  52  77 113 147 178 216 262 328
#     4  12  24  36  54  81 112 151 185 211 253 323
#     4  11  22  37  53  78 114 149 179 215 263 327
#     4  10  20  36  55  78 108 144 182 224 275 325
#     4  11  20  33  54  82 107 136 175 228 277 313
#     4  11  20  33  55  82 108 136 174 229 275 312
#
# _framework density 17.966308000000001
#
# number of rings (size 3 to 8) (size 9 to 14) (size 15 to 20)
#    0.000    1.143    0.000   11.571    0.000    0.000 
#    0.000    0.000    0.000    0.000    0.000   20.000 
#    0.000    0.000    0.000    0.000    0.000    0.000 
#
# Total GULP energy -78036.023842 kJ/mol
# GULP energy per Si atom -5574.001703 kJ/mol
# Density = 1.792542 g / cm^3
# Si number density = 17.966308 Si / 1000 Ang^3
#
#
#
# Elastic Constant Matrix: (Units=GPa)
#
#
# Indices 1 2 3 4 5 6 
#
# 1 90.9274 45.6858 25.9584 3.6205 0.4763 7.5537
# 2 45.6858 112.3975 27.1165 8.8231 3.0672 7.6651
# 3 25.9584 27.1165 89.7013 -0.9336 -5.5026 -2.0706
# 4 3.6205 8.8231 -0.9336 32.9917 12.6787 -4.8839
# 5 0.4763 3.0672 -5.5026 12.6787 27.3387 1.9040
# 6 7.5537 7.6651 -2.0706 -4.8839 1.9040 42.3700
#
#
#
# Elastic Compliance Matrix: (Units=1/GPa)
#
#
# Indices 1 2 3 4 5 6 
#
# 1 0.014496 -0.005065 -0.002701 -0.000676 0.000217 -0.001888
# 2 -0.005065 0.011826 -0.002193 -0.002814 -0.000259 -0.001656
# 3 -0.002701 -0.002193 0.012787 0.000481 0.002543 0.001444
# 4 -0.000676 -0.002814 0.000481 0.038976 -0.018066 0.005958
# 5 0.000217 -0.000259 0.002543 -0.018066 0.045773 -0.004007
# 6 -0.001888 -0.001656 0.001444 0.005958 -0.004007 0.025175
#
#
# Mechanical properties :
#
#
# Convention : Reuss Voigt Hill
#
# Bulk Modulus (GPa) = 52.10611 54.50530 53.30571
# Shear Modulus (GPa) = 28.51486 33.49111 31.00299
#
# Velocity S-wave (km/s) = 3.98820 4.32221 4.15856
# Velocity P-wave (km/s) = 7.09033 7.43721 7.26584
#
# Compressibility (1/GPa) = 0.01919161
#
# Stress axis : x y z
#
# Youngs Moduli (GPa) = 68.98325 84.56257 78.20444
#
# Poissons Ratio (x) = 0.42828 0.21125
# Poissons Ratio (y) = 0.34938 0.17147
# Poissons Ratio (z) = 0.18634 0.18541
#
# Static dielectric constant tensor:
#      x y z
#    x 1.658700 -0.028440 -0.049410 
#    y -0.028440 1.636900 0.029150 
#    z -0.049410 0.029150 1.651220 
# 
# From -- ./inp_files/63486.got.cif
#   From: 2010.05.17/outbox.cif.g08.bks.cpg/sg2_32_cif.got.tgz:63486.got - 2010.06.03 11:33:40.
