data_PCOD9095734
_publ_section_title
;
Structure prediction by ZEFSAII (Michael W. Deem and Ramdas Pophale) SiO2 
 PCOD9095734
Probable space group: P -1
;
_chemical_formula_sum "Si O2"
_cell_formula_units_Z 16
_cell_length_a 7.695179
_cell_length_b 16.398517
_cell_length_c 12.045950
_cell_angle_alpha 76.107548
_cell_angle_beta 71.250490
_cell_angle_gamma 134.332883
_cell_volume 749.029349
_symmetry_space_group_name_H-M "P -1"
_symmetry_group_IT_number 2
_symmetry_cell_setting 'triclinic'
loop_
_space_group_symop_operation_xyz
x,y,z
-x,-y,-z
loop_
_atom_site_type_symbol
_atom_site_label
_atom_site_fract_x
_atom_site_fract_y
_atom_site_fract_z
Si Si1 0.861874 0.705992 0.943184
Si Si2 0.845400 0.003934 0.180415
Si Si3 0.771227 0.504508 0.714737
Si Si4 0.534307 0.736727 0.746340
Si Si5 0.085311 0.629338 0.061882
Si Si6 0.489780 0.165722 0.485667
Si Si7 0.450157 0.756667 0.170662
Si Si8 0.035885 0.254067 0.346978
O O1 0.856994 0.681709 0.822652
O O2 0.492999 0.598414 0.093814
O O3 0.121014 0.883431 0.848765
O O4 0.971502 0.670067 0.008303
O O5 0.801731 0.941600 0.328157
O O6 0.520607 0.849401 0.223953
O O7 0.188987 0.110045 0.011934
O O8 0.646202 0.373407 0.719082
O O9 0.771180 0.605236 0.655277
O O10 0.171790 0.649131 0.611497
O O11 0.584896 0.833827 0.622245
O O12 0.858289 0.800613 0.647785
O O13 0.218828 0.555189 0.831783
O O14 0.413821 0.720829 0.896704
O O15 0.180336 0.676153 0.156255
O O16 0.646736 0.133150 0.474696
#
# Coordination Sequence:
#
# PCOD9095734 Si02
#       8
#     2   2   2   2   2   2   2   2
#     4  11  20  36  60  86 122 158 188 241 290 354
#     4  10  24  41  58  80 120 162 198 234 294 351
#     4   9  18  34  59  84 113 149 195 240 289 332
#     4  11  20  33  61  97 118 145 191 247 300 343
#     4  11  19  34  61  90 116 149 203 242 281 353
#     4  10  21  39  58  92 117 154 190 245 301 340
#     4  10  21  41  61  83 109 163 206 237 280 352
#     4  10  20  35  59  90 123 146 190 243 297 344
#
# _framework density 21.360980000000001
#
# number of rings (size 3 to 8) (size 9 to 14) (size 15 to 20)
#    0.750    1.000    3.750    1.875    3.500    1.500 
#    2.250    1.250    0.000    2.250    0.000    0.000 
#    0.000    0.000    0.000    0.000    0.000    0.000 
#
# Total GULP energy -89114.892570 kJ/mol
# GULP energy per Si atom -5569.680786 kJ/mol
# Density = 2.131236 g / cm^3
# Si number density = 21.360980 Si / 1000 Ang^3
#
#
#
# Elastic Constant Matrix: (Units=GPa)
#
#
# Indices 1 2 3 4 5 6 
#
# 1 73.9641 5.4321 28.8188 -8.1288 6.0981 -5.7078
# 2 5.4321 115.7388 16.8588 -22.8246 14.7370 -14.0606
# 3 28.8188 16.8588 55.0141 -8.2706 4.4030 -9.1052
# 4 -8.1288 -22.8246 -8.2706 18.0461 5.9610 5.4895
# 5 6.0981 14.7370 4.4030 5.9610 23.0208 -4.4290
# 6 -5.7078 -14.0606 -9.1052 5.4895 -4.4290 25.2683
#
#
#
# Elastic Compliance Matrix: (Units=1/GPa)
#
#
# Indices 1 2 3 4 5 6 
#
# 1 0.018654 0.004005 -0.008460 0.013059 -0.009481 -0.001105
# 2 0.004005 0.016669 -0.001401 0.028378 -0.018770 0.000220
# 3 -0.008460 -0.001401 0.024731 0.004930 -0.001944 0.004809
# 4 0.013059 0.028378 0.004930 0.123509 -0.057712 -0.016430
# 5 -0.009481 -0.018770 -0.001944 -0.057712 0.075690 0.012518
# 6 -0.001105 0.000220 0.004809 -0.016430 0.012518 0.046945
#
#
# Mechanical properties :
#
#
# Convention : Reuss Voigt Hill
#
# Bulk Modulus (GPa) = 20.68593 38.54847 29.61720
# Shear Modulus (GPa) = 14.96895 26.17420 20.57158
#
# Velocity S-wave (km/s) = 2.65006 3.50427 3.10666
# Velocity P-wave (km/s) = 4.36678 5.87014 5.17336
#
# Compressibility (1/GPa) = 0.04834203
#
# Stress axis : x y z
#
# Youngs Moduli (GPa) = 53.60844 59.98994 40.43525
#
# Poissons Ratio (x) = -0.24027 0.34208
# Poissons Ratio (y) = -0.21471 0.05666
# Poissons Ratio (z) = 0.45352 0.08407
#
# Static dielectric constant tensor:
#      x y z
#    x 1.795280 0.012690 -0.020920 
#    y 0.012690 1.832040 -0.038080 
#    z -0.020920 -0.038080 1.764820 
# 
# From -- ./inp_files/402067.got.cif
#   From: 2010.05.17/outbox.cif.g08.bks.cpg/sg2_202_cif.got.tgz:402067.got - 2010.06.03 11:33:40.
