data_PCOD9095467
_publ_section_title
;
Structure prediction by ZEFSAII (Michael W. Deem and Ramdas Pophale) SiO2 
 PCOD9095467
Probable space group: P -1
;
_chemical_formula_sum "Si O2"
_cell_formula_units_Z 16
_cell_length_a 8.989790
_cell_length_b 5.167744
_cell_length_c 14.849353
_cell_angle_alpha 106.969755
_cell_angle_beta 106.078996
_cell_angle_gamma 81.750166
_cell_volume 632.531787
_symmetry_space_group_name_H-M "P -1"
_symmetry_group_IT_number 2
_symmetry_cell_setting 'triclinic'
loop_
_space_group_symop_operation_xyz
x,y,z
-x,-y,-z
loop_
_atom_site_type_symbol
_atom_site_label
_atom_site_fract_x
_atom_site_fract_y
_atom_site_fract_z
Si Si1 0.232908 0.817528 0.833299
Si Si2 0.116384 0.250282 0.169214
Si Si3 0.352134 0.537467 0.149514
Si Si4 0.230183 0.237345 0.712623
Si Si5 0.497396 0.812046 0.369831
Si Si6 0.047980 0.694229 0.448346
Si Si7 0.665121 0.633373 0.611417
Si Si8 0.666031 0.045699 0.945958
O O1 0.295065 0.510857 0.790185
O O2 0.312900 0.955734 0.944877
O O3 0.057462 0.780031 0.834148
O O4 0.233150 0.002843 0.763253
O O5 0.171043 0.501360 0.143280
O O6 0.227244 0.273291 0.277993
O O7 0.172679 0.005880 0.087445
O O8 0.414103 0.734538 0.254336
O O9 0.414693 0.220737 0.129036
O O10 0.389876 0.666233 0.073741
O O11 0.329429 0.150423 0.631473
O O12 0.056735 0.327009 0.660304
O O13 0.473517 0.540893 0.394375
O O14 0.405125 0.087781 0.416398
O O15 0.000000 0.500000 0.500000
O O16 0.222071 0.582830 0.444596
O O17 0.000000 0.000000 0.500000
#
# Coordination Sequence:
#
# PCOD9095467 Si02
#       8
#     2   2   2   2   2   2   2   2
#     4  12  24  38  62  99 142 183 226 285 350 378
#     4   9  21  34  65  92 134 169 243 269 330 386
#     4   9  19  35  59  87 129 180 232 276 311 377
#     4  12  28  45  68 100 143 177 221 285 349 402
#     4  11  22  45  68  99 136 189 230 267 324 410
#     4  12  27  50  76 109 136 164 216 285 351 417
#     4  11  22  43  77  98 130 185 228 266 336 416
#     4  10  20  35  57  99 134 179 234 292 315 381
#
# _framework density 25.295169000000001
#
# number of rings (size 3 to 8) (size 9 to 14) (size 15 to 20)
#    0.750    0.500    2.500    3.375    3.500    0.500 
#    0.000    7.500    0.000    0.000    0.000    0.000 
#    0.000    0.000    0.000    0.000    0.000    0.000 
#
# Total GULP energy -89426.610233 kJ/mol
# GULP energy per Si atom -5589.163140 kJ/mol
# Density = 2.523760 g / cm^3
# Si number density = 25.295169 Si / 1000 Ang^3
#
#
#
# Elastic Constant Matrix: (Units=GPa)
#
#
# Indices 1 2 3 4 5 6 
#
# 1 107.5659 37.9799 11.7874 3.5304 -19.0853 -4.3626
# 2 37.9799 169.4168 26.2059 -7.9125 -15.8175 -0.4616
# 3 11.7874 26.2059 69.7075 9.1139 -2.8354 -5.7776
# 4 3.5304 -7.9125 9.1139 50.3304 0.3575 -9.6074
# 5 -19.0853 -15.8175 -2.8354 0.3575 45.7722 7.5965
# 6 -4.3626 -0.4616 -5.7776 -9.6074 7.5965 30.6980
#
#
#
# Elastic Compliance Matrix: (Units=1/GPa)
#
#
# Indices 1 2 3 4 5 6 
#
# 1 0.010786 -0.001989 -0.000791 -0.000926 0.003746 0.000137
# 2 -0.001989 0.006940 -0.002460 0.001566 0.001491 -0.000520
# 3 -0.000791 -0.002460 0.015924 -0.002811 -0.000520 0.002096
# 4 -0.000926 0.001566 -0.002811 0.021948 -0.001277 0.006548
# 5 0.003746 0.001491 -0.000520 -0.001277 0.024916 -0.006108
# 6 0.000137 -0.000520 0.002096 0.006548 -0.006108 0.036542
#
#
# Mechanical properties :
#
#
# Convention : Reuss Voigt Hill
#
# Bulk Modulus (GPa) = 43.15895 55.40408 49.28151
# Shear Modulus (GPa) = 36.96581 43.40792 40.18686
#
# Velocity S-wave (km/s) = 3.82694 4.14702 3.99020
# Velocity P-wave (km/s) = 6.05198 6.69933 6.38387
#
# Compressibility (1/GPa) = 0.02317016
#
# Stress axis : x y z
#
# Youngs Moduli (GPa) = 92.71187 144.09518 62.79666
#
# Poissons Ratio (x) = 0.28658 0.04970
# Poissons Ratio (y) = 0.18439 0.15447
# Poissons Ratio (z) = 0.07337 0.35446
#
# Static dielectric constant tensor:
#      x y z
#    x 2.066280 -0.043240 0.001210 
#    y -0.043240 2.006720 -0.010480 
#    z 0.001210 -0.010480 2.032160 
# 
# From -- ./inp_files/488657.got.cif
#   From: 2010.05.17/outbox.cif.g08.bks.cpg/sg2_245_cif.got.tgz:488657.got - 2010.06.03 11:33:40.
