data_PCOD9095206
_publ_section_title
;
Structure prediction by ZEFSAII (Michael W. Deem and Ramdas Pophale) SiO2 
 PCOD9095206
Probable space group: P -1
;
_chemical_formula_sum "Si O2"
_cell_formula_units_Z 14
_cell_length_a 5.608536
_cell_length_b 24.000985
_cell_length_c 8.521262
_cell_angle_alpha 33.929388
_cell_angle_beta 62.555661
_cell_angle_gamma 66.224622
_cell_volume 567.697248
_symmetry_space_group_name_H-M "P -1"
_symmetry_group_IT_number 2
_symmetry_cell_setting 'triclinic'
loop_
_space_group_symop_operation_xyz
x,y,z
-x,-y,-z
loop_
_atom_site_type_symbol
_atom_site_label
_atom_site_fract_x
_atom_site_fract_y
_atom_site_fract_z
Si Si1 0.529620 0.619413 0.188794
Si Si2 0.658244 0.865993 0.142830
Si Si3 0.767627 0.937546 0.626228
Si Si4 0.619720 0.388029 0.218404
Si Si5 0.029153 0.619406 0.189294
Si Si6 0.131515 0.935567 0.250603
Si Si7 0.862698 0.682948 0.631409
O O1 0.500000 0.500000 0.500000
O O2 0.226152 0.661563 0.161366
O O3 0.724199 0.658846 0.170454
O O4 0.697086 0.640897 0.928025
O O5 0.352281 0.853812 0.317965
O O6 0.860587 0.802193 0.342182
O O7 0.686288 0.859025 0.964689
O O8 0.714846 0.981930 0.888414
O O9 0.909512 0.893575 0.530206
O O10 0.500000 0.000000 0.500000
O O11 0.000000 0.000000 0.500000
O O12 0.341917 0.332409 0.415186
O O13 0.837432 0.364619 0.343670
O O14 0.500000 0.500000 0.000000
O O15 0.802591 0.372121 0.043634
O O16 0.000000 0.500000 0.500000
O O17 0.000000 0.000000 0.000000
#
# Coordination Sequence:
#
# PCOD9095206 Si02
#       7
#     2   2   2   2   2   2   2
#     4   8  14  27  47  72  95 133 179 216 270 339
#     4  10  22  37  61  92 127 161 205 257 307 365
#     4  10  20  36  60  89 120 166 202 243 304 376
#     4  10  20  35  56  78 106 149 195 237 293 362
#     4   8  14  26  47  69  91 126 173 217 264 332
#     4  10  20  37  64  91 121 166 208 242 307 384
#     4  10  21  34  58  82 113 152 192 249 300 346
#
# _framework density 24.66103
#
# number of rings (size 3 to 8) (size 9 to 14) (size 15 to 20)
#    0.000    2.571    1.429    0.429    2.000    0.000 
#    0.000    0.000   25.143    0.000    0.000    0.000 
#    0.000    0.000    0.000    0.000    0.000    0.000 
#
# Total GULP energy -78032.463076 kJ/mol
# GULP energy per Si atom -5573.747363 kJ/mol
# Density = 2.460490 g / cm^3
# Si number density = 24.661030 Si / 1000 Ang^3
#
#
#
# Elastic Constant Matrix: (Units=GPa)
#
#
# Indices 1 2 3 4 5 6 
#
# 1 245.1579 34.0449 23.0344 -2.9983 24.5097 -42.9512
# 2 34.0449 62.1206 45.9182 12.3636 8.0734 -25.8773
# 3 23.0344 45.9182 134.5957 13.9642 15.6800 -15.8960
# 4 -2.9983 12.3636 13.9642 36.3238 -0.5096 1.5021
# 5 24.5097 8.0734 15.6800 -0.5096 32.1667 -9.2286
# 6 -42.9512 -25.8773 -15.8960 1.5021 -9.2286 35.0415
#
#
#
# Elastic Compliance Matrix: (Units=1/GPa)
#
#
# Indices 1 2 3 4 5 6 
#
# 1 0.005364 -0.000421 0.000152 0.000259 -0.002421 0.005684
# 2 -0.000421 0.032152 -0.007763 -0.008819 0.001793 0.020555
# 3 0.000152 -0.007763 0.010422 -0.001332 -0.003773 -0.001755
# 4 0.000259 -0.008819 -0.001332 0.031405 0.000894 -0.007911
# 5 -0.002421 0.001793 -0.003773 0.000894 0.036089 0.006112
# 6 0.005684 0.020555 -0.001755 -0.007911 0.006112 0.051837
#
#
# Mechanical properties :
#
#
# Convention : Reuss Voigt Hill
#
# Bulk Modulus (GPa) = 31.37322 71.98544 51.67933
# Shear Modulus (GPa) = 25.77865 43.29819 34.53842
#
# Velocity S-wave (km/s) = 3.23665 4.19469 3.74642
# Velocity P-wave (km/s) = 5.16887 7.26044 6.30203
#
# Compressibility (1/GPa) = 0.03187432
#
# Stress axis : x y z
#
# Youngs Moduli (GPa) = 186.41758 31.10262 95.94630
#
# Poissons Ratio (x) = 0.01310 -0.01461
# Poissons Ratio (y) = 0.07854 0.74483
# Poissons Ratio (z) = -0.02838 0.24145
#
# Static dielectric constant tensor:
#      x y z
#    x 2.081740 0.091470 -0.124260 
#    y 0.091470 1.857180 0.027900 
#    z -0.124260 0.027900 2.020150 
# 
# From -- ./inp_files/40005.got.cif
#   From: 2010.05.17/outbox.cif.g08.bks.cpg/sg2_21_cif.got.tgz:40005.got - 2010.06.03 11:33:40.
