data_PCOD9095892
_publ_section_title
;
Structure prediction by ZEFSAII (Michael W. Deem and Ramdas Pophale) SiO2 
 PCOD9095892
Probable space group: P -1
;
_chemical_formula_sum "Si O2"
_cell_formula_units_Z 14
_cell_length_a 5.839372
_cell_length_b 12.099847
_cell_length_c 11.914865
_cell_angle_alpha 58.460680
_cell_angle_beta 105.209740
_cell_angle_gamma 73.818609
_cell_volume 597.301613
_symmetry_space_group_name_H-M "P -1"
_symmetry_group_IT_number 2
_symmetry_cell_setting 'triclinic'
loop_
_space_group_symop_operation_xyz
x,y,z
-x,-y,-z
loop_
_atom_site_type_symbol
_atom_site_label
_atom_site_fract_x
_atom_site_fract_y
_atom_site_fract_z
Si Si1 0.863671 0.401702 0.999838
Si Si2 0.160912 0.410550 0.387245
Si Si3 0.733060 0.367093 0.243839
Si Si4 0.226183 0.834731 0.441534
Si Si5 0.423211 0.880317 0.095548
Si Si6 0.048048 0.091157 0.131885
Si Si7 0.012679 0.663150 0.365019
O O1 0.758238 0.347387 0.123526
O O2 0.070403 0.241131 0.055479
O O3 0.586554 0.512838 0.836652
O O4 0.000000 0.500000 0.000000
O O5 0.444783 0.260069 0.480445
O O6 0.010778 0.399118 0.485285
O O7 0.935422 0.432863 0.256454
O O8 0.210053 0.545096 0.360074
O O9 0.822858 0.223502 0.413704
O O10 0.098545 0.781283 0.353684
O O11 0.103727 0.009131 0.303658
O O12 0.709820 0.735004 0.236905
O O13 0.256472 0.959387 0.145203
O O14 0.244477 0.857408 0.991361
O O15 0.500000 0.000000 0.000000
#
# Coordination Sequence:
#
# PCOD9095892 Si02
#       7
#     2   2   2   2   2   2   2
#     4  11  25  49  67  93 125 176 223 273 318 388
#     4  10  20  37  61  92 132 168 207 260 313 394
#     4  10  24  43  68  93 124 166 230 261 330 381
#     4  11  21  40  64 100 132 166 211 273 325 388
#     4  11  22  40  62  99 133 172 208 259 326 392
#     4  11  25  41  68  96 136 169 217 268 329 381
#     4  10  20  35  60  92 132 173 208 249 320 387
#
# _framework density 23.438744
#
# number of rings (size 3 to 8) (size 9 to 14) (size 15 to 20)
#    0.000    1.429    2.857    2.143    0.000    5.143 
#    0.000    2.857    0.000    0.000    0.000    0.000 
#    0.000    0.000    0.000    0.000    0.000    0.000 
#
# Total GULP energy -78106.915199 kJ/mol
# GULP energy per Si atom -5579.065371 kJ/mol
# Density = 2.338540 g / cm^3
# Si number density = 23.438744 Si / 1000 Ang^3
#
#
#
# Elastic Constant Matrix: (Units=GPa)
#
#
# Indices 1 2 3 4 5 6 
#
# 1 60.9680 15.6661 25.3218 2.4821 8.5446 10.4625
# 2 15.6661 63.7726 34.6281 -19.9866 3.0851 9.4719
# 3 25.3218 34.6281 146.7553 -8.5072 -3.1755 -0.5047
# 4 2.4821 -19.9866 -8.5072 28.5506 -2.2866 -5.3717
# 5 8.5446 3.0851 -3.1755 -2.2866 49.5618 5.3814
# 6 10.4625 9.4719 -0.5047 -5.3717 5.3814 23.2079
#
#
#
# Elastic Compliance Matrix: (Units=1/GPa)
#
#
# Indices 1 2 3 4 5 6 
#
# 1 0.021108 -0.004467 -0.003135 -0.007804 -0.002958 -0.008882
# 2 -0.004467 0.024547 -0.004135 0.015499 0.000186 -0.004551
# 3 -0.003135 -0.004135 0.008396 0.000559 0.001017 0.003177
# 4 -0.007804 0.015499 0.000559 0.048366 0.001781 0.007986
# 5 -0.002958 0.000186 0.001017 0.001781 0.021172 -0.003218
# 6 -0.008882 -0.004551 0.003177 0.007986 -0.003218 0.051614
#
#
# Mechanical properties :
#
#
# Convention : Reuss Voigt Hill
#
# Bulk Modulus (GPa) = 32.70219 46.96977 39.83598
# Shear Modulus (GPa) = 23.93848 33.32273 28.63061
#
# Velocity S-wave (km/s) = 3.19928 3.77463 3.49880
# Velocity P-wave (km/s) = 5.25639 6.25140 5.77536
#
# Compressibility (1/GPa) = 0.03057899
#
# Stress axis : x y z
#
# Youngs Moduli (GPa) = 47.37485 40.73744 119.10517
#
# Poissons Ratio (x) = 0.18196 0.37341
# Poissons Ratio (y) = 0.21160 0.49246
# Poissons Ratio (z) = 0.14853 0.16843
#
# Static dielectric constant tensor:
#      x y z
#    x 1.899630 0.012470 -0.072510 
#    y 0.012470 1.984280 -0.009440 
#    z -0.072510 -0.009440 1.856760 
# 
# From -- ./inp_files/72144.got.cif
#   From: 2010.05.17/outbox.cif.g08.bks.cpg/sg2_37_cif.got.tgz:72144.got - 2010.06.03 11:33:40.
