data_PCOD9095692
_publ_section_title
;
Structure prediction by ZEFSAII (Michael W. Deem and Ramdas Pophale) SiO2 
 PCOD9095692
Probable space group: P -1
;
_chemical_formula_sum "Si O2"
_cell_formula_units_Z 16
_cell_length_a 22.766763
_cell_length_b 5.886181
_cell_length_c 7.038586
_cell_angle_alpha 89.214694
_cell_angle_beta 136.405705
_cell_angle_gamma 82.947972
_cell_volume 638.186671
_symmetry_space_group_name_H-M "P -1"
_symmetry_group_IT_number 2
_symmetry_cell_setting 'triclinic'
loop_
_space_group_symop_operation_xyz
x,y,z
-x,-y,-z
loop_
_atom_site_type_symbol
_atom_site_label
_atom_site_fract_x
_atom_site_fract_y
_atom_site_fract_z
Si Si1 0.675991 0.918395 0.694440
Si Si2 0.080685 0.628988 0.712121
Si Si3 0.477013 0.019249 0.169408
Si Si4 0.811091 0.377587 0.418866
Si Si5 0.481287 0.514556 0.184122
Si Si6 0.192667 0.302818 0.267111
Si Si7 0.327684 0.585812 0.176139
Si Si8 0.075796 0.952936 0.026558
O O1 0.573228 0.979624 0.483759
O O2 0.714731 0.844902 0.577168
O O3 0.700122 0.667050 0.855500
O O4 0.707452 0.159333 0.810492
O O5 0.123803 0.658273 0.608431
O O6 0.000000 0.500000 0.500000
O O7 0.160640 0.503307 0.035002
O O8 0.047491 0.845330 0.769265
O O9 0.441089 0.785129 0.130902
O O10 0.437688 0.288415 0.120341
O O11 0.500000 0.000000 0.000000
O O12 0.807434 0.617831 0.517716
O O13 0.847125 0.200031 0.670198
O O14 0.716051 0.355816 0.131216
O O15 0.572764 0.467876 0.515026
O O16 0.500000 0.500000 0.000000
O O17 0.113990 0.171884 0.058871
O O18 0.000000 0.000000 0.000000
#
# Coordination Sequence:
#
# PCOD9095692 Si02
#       8
#     2   2   2   2   2   2   2   2
#     4  10  20  35  59  87 121 156 204 253 304 364
#     4  11  23  41  62  84 117 155 204 257 312 375
#     4   8  14  26  47  80 114 146 193 244 292 355
#     4  11  24  39  59  87 121 158 207 257 313 369
#     4   8  14  26  47  80 115 145 194 245 290 356
#     4  11  24  39  59  86 122 155 208 257 313 370
#     4  10  20  35  59  88 119 158 203 251 306 364
#     4  11  25  41  60  88 119 161 208 258 315 373
#
# _framework density 25.071031999999999
#
# number of rings (size 3 to 8) (size 9 to 14) (size 15 to 20)
#    0.000    2.000    1.250    2.250    3.500    6.000 
#    0.000    0.000    0.000    0.000    0.000   28.000 
#    0.000    0.000    0.000    0.000    0.000    0.000 
#
# Total GULP energy -89109.098842 kJ/mol
# GULP energy per Si atom -5569.318678 kJ/mol
# Density = 2.501397 g / cm^3
# Si number density = 25.071032 Si / 1000 Ang^3
#
#
#
# Elastic Constant Matrix: (Units=GPa)
#
#
# Indices 1 2 3 4 5 6 
#
# 1 90.4267 30.1678 32.3475 -1.0408 -10.0604 -11.5432
# 2 30.1678 195.9078 48.4473 12.0121 -12.3815 4.5663
# 3 32.3475 48.4473 140.0701 15.7829 -16.6765 -3.3363
# 4 -1.0408 12.0121 15.7829 40.0759 -5.1971 -7.5825
# 5 -10.0604 -12.3815 -16.6765 -5.1971 33.3598 5.0638
# 6 -11.5432 4.5663 -3.3363 -7.5825 5.0638 30.3615
#
#
#
# Elastic Compliance Matrix: (Units=1/GPa)
#
#
# Indices 1 2 3 4 5 6 
#
# 1 0.013469 -0.001652 -0.002543 0.003136 0.001821 0.005570
# 2 -0.001652 0.005925 -0.001417 -0.001543 0.001092 -0.002243
# 3 -0.002543 -0.001417 0.008862 -0.002952 0.002828 -0.000989
# 4 0.003136 -0.001543 -0.002952 0.028420 0.002135 0.007842
# 5 0.001821 0.001092 0.002828 0.002135 0.033312 -0.004184
# 6 0.005570 -0.002243 -0.000989 0.007842 -0.004184 0.037939
#
#
# Mechanical properties :
#
#
# Convention : Reuss Voigt Hill
#
# Bulk Modulus (GPa) = 58.71398 72.03667 65.37532
# Shear Modulus (GPa) = 34.52321 41.78892 38.15606
#
# Velocity S-wave (km/s) = 3.71484 4.08710 3.90541
# Velocity P-wave (km/s) = 6.47070 7.14618 6.81681
#
# Compressibility (1/GPa) = 0.01703172
#
# Stress axis : x y z
#
# Youngs Moduli (GPa) = 74.24321 168.76701 112.83500
#
# Poissons Ratio (x) = 0.27886 0.28694
# Poissons Ratio (y) = 0.12267 0.15992
# Poissons Ratio (z) = 0.18880 0.23920
#
# Static dielectric constant tensor:
#      x y z
#    x 2.067180 -0.040450 0.043340 
#    y -0.040450 2.177870 -0.111790 
#    z 0.043340 -0.111790 2.018240 
# 
# From -- ./inp_files/10580.got.cif
#   From: 2010.05.17/outbox.cif.g08.bks.cpg/sg2_6_cif.got.tgz:10580.got - 2010.06.03 11:33:40.
