data_PCOD9095498
_publ_section_title
;
Structure prediction by ZEFSAII (Michael W. Deem and Ramdas Pophale) SiO2 
 PCOD9095498
Probable space group: P -1
;
_chemical_formula_sum "Si O2"
_cell_formula_units_Z 16
_cell_length_a 11.966594
_cell_length_b 8.881499
_cell_length_c 14.136873
_cell_angle_alpha 71.230755
_cell_angle_beta 58.604467
_cell_angle_gamma 119.535733
_cell_volume 699.608558
_symmetry_space_group_name_H-M "P -1"
_symmetry_group_IT_number 2
_symmetry_cell_setting 'triclinic'
loop_
_space_group_symop_operation_xyz
x,y,z
-x,-y,-z
loop_
_atom_site_type_symbol
_atom_site_label
_atom_site_fract_x
_atom_site_fract_y
_atom_site_fract_z
Si Si1 0.014906 0.938589 0.305759
Si Si2 0.354943 0.643524 0.437489
Si Si3 0.102532 0.689173 0.325730
Si Si4 0.605722 0.930043 0.456747
Si Si5 0.279447 0.444818 0.832827
Si Si6 0.115961 0.951314 0.052479
Si Si7 0.437783 0.989133 0.910328
Si Si8 0.865793 0.608020 0.880628
O O1 0.162877 0.933490 0.274393
O O2 0.003961 0.921886 0.199175
O O3 0.761494 0.626499 0.506299
O O4 0.116534 0.211217 0.225261
O O5 0.501827 0.753587 0.441832
O O6 0.125813 0.515445 0.594999
O O7 0.490986 0.881825 0.253421
O O8 0.000000 0.500000 0.500000
O O9 0.325942 0.811161 0.181253
O O10 0.511345 0.738736 0.626633
O O11 0.500000 0.000000 0.500000
O O12 0.875091 0.195619 0.272736
O O13 0.073953 0.300036 0.884572
O O14 0.228073 0.448532 0.961161
O O15 0.256008 0.230321 0.883738
O O16 0.279780 0.977562 0.013899
O O17 0.294980 0.687615 0.027360
#
# Coordination Sequence:
#
# PCOD9095498 Si02
#       8
#     2   2   2   2   2   2   2   2
#     4   9  20  40  56  85 112 149 198 233 280 350
#     4   9  20  38  59  82 112 151 199 233 279 348
#     4   8  18  36  60  82 107 151 199 238 279 333
#     4  12  23  36  61  87 123 153 188 238 297 345
#     4  10  21  39  54  83 122 156 185 238 283 349
#     4  10  20  35  58  83 114 149 199 233 282 341
#     4  11  21  37  59  85 116 150 193 247 283 335
#     4  11  25  36  58  91 121 151 188 236 300 344
#
# _framework density 22.869931999999999
#
# number of rings (size 3 to 8) (size 9 to 14) (size 15 to 20)
#    0.750    1.250    1.250    2.250    1.750    3.000 
#    0.000    0.000    0.000    0.000    0.000   11.375 
#    0.000    0.000    0.000    0.000    0.000    0.000 
#
# Total GULP energy -89262.127279 kJ/mol
# GULP energy per Si atom -5578.882955 kJ/mol
# Density = 2.281788 g / cm^3
# Si number density = 22.869932 Si / 1000 Ang^3
#
#
#
# Elastic Constant Matrix: (Units=GPa)
#
#
# Indices 1 2 3 4 5 6 
#
# 1 78.2336 21.6256 20.5455 -5.8739 8.1115 -13.2704
# 2 21.6256 71.3132 45.8809 -18.3037 10.3368 -14.8947
# 3 20.5455 45.8809 130.0640 -20.7466 1.3164 2.0916
# 4 -5.8739 -18.3037 -20.7466 28.6949 -14.4837 7.2472
# 5 8.1115 10.3368 1.3164 -14.4837 38.5785 -7.4894
# 6 -13.2704 -14.8947 2.0916 7.2472 -7.4894 28.8099
#
#
#
# Elastic Compliance Matrix: (Units=1/GPa)
#
#
# Indices 1 2 3 4 5 6 
#
# 1 0.015003 -0.002337 -0.002017 -0.002505 -0.002256 0.005893
# 2 -0.002337 0.022855 -0.006852 0.006138 -0.001277 0.009361
# 3 -0.002017 -0.006852 0.011569 0.006758 0.003203 -0.006179
# 4 -0.002505 0.006138 0.006758 0.053811 0.017401 -0.007484
# 5 -0.002256 -0.001277 0.003203 0.017401 0.033634 0.002434
# 6 0.005893 0.009361 -0.006179 -0.007484 0.002434 0.045228
#
#
# Mechanical properties :
#
#
# Convention : Reuss Voigt Hill
#
# Bulk Modulus (GPa) = 37.01545 50.63499 43.82522
# Shear Modulus (GPa) = 23.41719 31.98726 27.70223
#
# Velocity S-wave (km/s) = 3.20336 3.74392 3.48414
# Velocity P-wave (km/s) = 5.46831 6.39357 5.94896
#
# Compressibility (1/GPa) = 0.02701574
#
# Stress axis : x y z
#
# Youngs Moduli (GPa) = 66.65163 43.75366 86.43721
#
# Poissons Ratio (x) = 0.10226 0.17435
# Poissons Ratio (y) = 0.15578 0.59224
# Poissons Ratio (z) = 0.13444 0.29979
#
# Static dielectric constant tensor:
#      x y z
#    x 1.885600 -0.042820 0.036000 
#    y -0.042820 1.882020 0.032160 
#    z 0.036000 0.032160 1.939810 
# 
# From -- ./inp_files/566633.got.cif
#   From: 2010.05.17/outbox.cif.g08.bks.cpg/sg2_284_cif.got.tgz:566633.got - 2010.06.03 11:33:40.
