data_PCOD9095493
_publ_section_title
;
Structure prediction by ZEFSAII (Michael W. Deem and Ramdas Pophale) SiO2 
 PCOD9095493
Probable space group: P -1
;
_chemical_formula_sum "Si O2"
_cell_formula_units_Z 14
_cell_length_a 24.312296
_cell_length_b 19.946658
_cell_length_c 8.784983
_cell_angle_alpha 137.528975
_cell_angle_beta 50.372579
_cell_angle_gamma 165.918495
_cell_volume 616.742207
_symmetry_space_group_name_H-M "P -1"
_symmetry_group_IT_number 2
_symmetry_cell_setting 'triclinic'
loop_
_space_group_symop_operation_xyz
x,y,z
-x,-y,-z
loop_
_atom_site_type_symbol
_atom_site_label
_atom_site_fract_x
_atom_site_fract_y
_atom_site_fract_z
Si Si1 0.654205 0.751279 0.444659
Si Si2 0.042206 0.728249 0.987438
Si Si3 0.678047 0.374216 0.901322
Si Si4 0.383079 0.494470 0.751700
Si Si5 0.252291 0.835372 0.511300
Si Si6 0.367225 0.909035 0.979805
Si Si7 0.232626 0.929123 0.428724
O O1 0.416020 0.473690 0.504516
O O2 0.662139 0.644160 0.266817
O O3 0.664780 0.827667 0.401039
O O4 0.901737 0.121688 0.723215
O O5 0.914610 0.615363 0.884707
O O6 0.854156 0.389176 0.796427
O O7 0.327676 0.074668 0.022861
O O8 0.499094 0.129051 0.658850
O O9 0.777117 0.619543 0.159324
O O10 0.519332 0.129159 0.920872
O O11 0.298012 0.992319 0.592861
O O12 0.000000 0.500000 0.500000
O O13 0.355463 0.003985 0.235355
O O14 0.074430 0.487734 0.751039
O O15 0.500000 0.000000 0.000000
#
# Coordination Sequence:
#
# PCOD9095493 Si02
#       7
#     2   2   2   2   2   2   2
#     4   9  18  38  57  81 107 144 183 234 266 310
#     4  10  20  35  58  83 111 139 183 225 271 326
#     4  12  21  36  58  82 113 147 180 219 279 330
#     4   9  19  37  57  81 107 143 187 227 271 311
#     4  12  21  37  56  80 116 152 172 217 283 335
#     4  11  21  32  55  84 108 139 179 230 276 320
#     4  11  20  36  53  78 115 139 180 229 267 319
#
# _framework density 22.699919999999999
#
# number of rings (size 3 to 8) (size 9 to 14) (size 15 to 20)
#    0.857    0.571    4.286    3.857    0.000    0.571 
#    0.000    0.714    0.000    0.857    0.000    0.000 
#    0.000    0.000    0.000    0.000    0.000    0.000 
#
# Total GULP energy -78124.531774 kJ/mol
# GULP energy per Si atom -5580.323698 kJ/mol
# Density = 2.264825 g / cm^3
# Si number density = 22.699920 Si / 1000 Ang^3
#
#
#
# Elastic Constant Matrix: (Units=GPa)
#
#
# Indices 1 2 3 4 5 6 
#
# 1 184.1191 22.3554 12.3664 8.9229 -1.0859 -19.7955
# 2 22.3554 44.8343 0.0604 -5.4694 4.5161 3.3449
# 3 12.3664 0.0604 29.0132 3.4883 1.6688 -6.1519
# 4 8.9229 -5.4694 3.4883 14.2100 3.9072 2.4716
# 5 -1.0859 4.5161 1.6688 3.9072 49.0879 6.6594
# 6 -19.7955 3.3449 -6.1519 2.4716 6.6594 41.4559
#
#
#
# Elastic Compliance Matrix: (Units=1/GPa)
#
#
# Indices 1 2 3 4 5 6 
#
# 1 0.006784 -0.004509 -0.001358 -0.006475 0.000626 0.003687
# 2 -0.004509 0.027078 -0.000808 0.015153 -0.003110 -0.004862
# 3 -0.001358 -0.000808 0.037454 -0.009302 -0.001266 0.005733
# 4 -0.006475 0.015153 -0.009302 0.086106 -0.006753 -0.009744
# 5 0.000626 -0.003110 -0.001266 -0.006753 0.021620 -0.002708
# 6 0.003687 -0.004862 0.005733 -0.009744 -0.002708 0.028142
#
#
# Mechanical properties :
#
#
# Convention : Reuss Voigt Hill
#
# Bulk Modulus (GPa) = 17.25140 36.39233 26.82187
# Shear Modulus (GPa) = 20.84587 35.82973 28.33780
#
# Velocity S-wave (km/s) = 3.03367 3.97723 3.53705
# Velocity P-wave (km/s) = 4.45950 6.09572 5.34065
#
# Compressibility (1/GPa) = 0.05796631
#
# Stress axis : x y z
#
# Youngs Moduli (GPa) = 147.40910 36.93022 26.69919
#
# Poissons Ratio (x) = 0.16651 0.03625
# Poissons Ratio (y) = 0.66464 0.02158
# Poissons Ratio (z) = 0.20015 0.02985
#
# Static dielectric constant tensor:
#      x y z
#    x 1.865800 0.011190 -0.019170 
#    y 0.011190 1.880670 -0.068250 
#    z -0.019170 -0.068250 1.982550 
# 
# From -- ./inp_files/348138.got.cif
#   From: 2010.05.17/outbox.cif.g08.bks.cpg/sg2_175_cif.got.tgz:348138.got - 2010.06.03 11:33:40.
