data_PCOD9095308
_publ_section_title
;
Structure prediction by ZEFSAII (Michael W. Deem and Ramdas Pophale) SiO2 
 PCOD9095308
Probable space group: P -1
;
_chemical_formula_sum "Si O2"
_cell_formula_units_Z 16
_cell_length_a 6.021705
_cell_length_b 21.445169
_cell_length_c 11.082601
_cell_angle_alpha 148.848197
_cell_angle_beta 86.418577
_cell_angle_gamma 92.411862
_cell_volume 738.728406
_symmetry_space_group_name_H-M "P -1"
_symmetry_group_IT_number 2
_symmetry_cell_setting 'triclinic'
loop_
_space_group_symop_operation_xyz
x,y,z
-x,-y,-z
loop_
_atom_site_type_symbol
_atom_site_label
_atom_site_fract_x
_atom_site_fract_y
_atom_site_fract_z
Si Si1 0.735716 0.152747 0.778348
Si Si2 0.686755 0.414295 0.912740
Si Si3 0.540831 0.024626 0.352526
Si Si4 0.469613 0.201012 0.448433
Si Si5 0.098995 0.182629 0.982807
Si Si6 0.529185 0.642391 0.726418
Si Si7 0.908832 0.621219 0.344818
Si Si8 0.756204 0.253519 0.300328
O O1 0.667126 0.119854 0.591386
O O2 0.647980 0.038126 0.666500
O O3 0.611844 0.274960 0.034944
O O4 0.993504 0.163307 0.822339
O O5 0.562791 0.289504 0.696409
O O6 0.908034 0.394386 0.792783
O O7 0.500000 0.500000 0.000000
O O8 0.772643 0.497321 0.156692
O O9 0.447976 0.078467 0.320102
O O10 0.719238 0.916480 0.148777
O O11 0.255891 0.268905 0.508723
O O12 0.649080 0.192521 0.319887
O O13 0.221155 0.310136 0.191019
O O14 0.896831 0.174855 0.070570
O O15 0.500000 0.500000 0.500000
O O16 0.436703 0.682682 0.665320
O O17 0.061270 0.653485 0.505043
#
# Coordination Sequence:
#
# PCOD9095308 Si02
#       8
#     2   2   2   2   2   2   2   2
#     4   9  21  41  63  89 119 162 206 261 311 365
#     4   8  16  32  51  77 117 161 201 241 293 360
#     4  10  21  40  62  90 124 160 209 262 304 368
#     4  10  20  35  56  90 126 158 205 250 309 373
#     4  10  21  41  65  84 121 164 205 260 317 362
#     4  10  22  43  62  91 120 155 208 260 310 375
#     4   9  17  34  53  79 123 164 194 244 307 363
#     4  10  21  37  59  88 122 163 202 254 314 372
#
# _framework density 21.658842
#
# number of rings (size 3 to 8) (size 9 to 14) (size 15 to 20)
#    0.000    2.500    0.000    1.125    0.000    4.500 
#   18.000    8.750    0.000    0.000    0.000    0.000 
#    0.000    0.000    0.000    0.000    0.000    0.000 
#
# Total GULP energy -89139.746438 kJ/mol
# GULP energy per Si atom -5571.234152 kJ/mol
# Density = 2.160955 g / cm^3
# Si number density = 21.658842 Si / 1000 Ang^3
#
#
#
# Elastic Constant Matrix: (Units=GPa)
#
#
# Indices 1 2 3 4 5 6 
#
# 1 93.2625 17.7453 19.8499 1.9903 13.2807 -7.9606
# 2 17.7453 82.1331 28.4792 10.6007 2.7604 -4.3444
# 3 19.8499 28.4792 82.3905 0.6099 11.9020 -6.8509
# 4 1.9903 10.6007 0.6099 23.6520 -7.1586 8.0562
# 5 13.2807 2.7604 11.9020 -7.1586 42.8778 -17.8677
# 6 -7.9606 -4.3444 -6.8509 8.0562 -17.8677 14.4608
#
#
#
# Elastic Compliance Matrix: (Units=1/GPa)
#
#
# Indices 1 2 3 4 5 6 
#
# 1 0.012048 -0.001353 -0.001790 -0.002483 -0.001535 0.004864
# 2 -0.001353 0.015886 -0.004662 -0.009893 0.004315 0.012662
# 3 -0.001790 -0.004662 0.014633 0.000799 -0.002813 0.000625
# 4 -0.002483 -0.009893 0.000799 0.060885 -0.009144 -0.049178
# 5 -0.001535 0.004315 -0.002813 -0.009144 0.050565 0.066690
# 6 0.004864 0.012662 0.000625 -0.049178 0.066690 0.185730
#
#
# Mechanical properties :
#
#
# Convention : Reuss Voigt Hill
#
# Bulk Modulus (GPa) = 37.09905 43.32610 40.21257
# Shear Modulus (GPa) = 13.72333 28.97887 21.35110
#
# Velocity S-wave (km/s) = 2.51990 3.66179 3.14314
# Velocity P-wave (km/s) = 5.06286 6.15838 5.63729
#
# Compressibility (1/GPa) = 0.02695487
#
# Stress axis : x y z
#
# Youngs Moduli (GPa) = 83.00378 62.94887 68.33975
#
# Poissons Ratio (x) = 0.08516 0.12235
# Poissons Ratio (y) = 0.11229 0.31863
# Poissons Ratio (z) = 0.14861 0.29350
#
# Static dielectric constant tensor:
#      x y z
#    x 1.792530 0.005880 0.024650 
#    y 0.005880 1.754930 -0.030890 
#    z 0.024650 -0.030890 1.889250 
# 
# From -- ./inp_files/370526.got.cif
#   From: 2010.05.17/outbox.cif.g08.bks.cpg/sg2_186_cif.got.tgz:370526.got - 2010.06.03 11:33:40.
