data_PCOD9095320
_publ_section_title
;
Structure prediction by ZEFSAII (Michael W. Deem and Ramdas Pophale) SiO2 
 PCOD9095320
Probable space group: P -1
;
_chemical_formula_sum "Si O2"
_cell_formula_units_Z 16
_cell_length_a 13.818637
_cell_length_b 11.807995
_cell_length_c 7.237277
_cell_angle_alpha 111.949715
_cell_angle_beta 91.831706
_cell_angle_gamma 43.432208
_cell_volume 697.897078
_symmetry_space_group_name_H-M "P -1"
_symmetry_group_IT_number 2
_symmetry_cell_setting 'triclinic'
loop_
_space_group_symop_operation_xyz
x,y,z
-x,-y,-z
loop_
_atom_site_type_symbol
_atom_site_label
_atom_site_fract_x
_atom_site_fract_y
_atom_site_fract_z
Si Si1 0.515217 0.070717 0.313619
Si Si2 0.508692 0.252170 0.078745
Si Si3 0.310455 0.057715 0.409589
Si Si4 0.975800 0.037737 0.741183
Si Si5 0.755124 0.618346 0.991642
Si Si6 0.971048 0.397950 0.527407
Si Si7 0.216474 0.896501 0.923900
Si Si8 0.037288 0.697186 0.915451
O O1 0.485695 0.184427 0.208461
O O2 0.365926 0.142565 0.416964
O O3 0.354202 0.394171 0.041095
O O4 0.589655 0.072883 0.486530
O O5 0.359022 0.156480 0.859650
O O6 0.602393 0.278519 0.166968
O O7 0.631926 0.074176 0.840180
O O8 0.132933 0.208467 0.513663
O O9 0.861910 0.058751 0.856414
O O10 0.915328 0.229298 0.920458
O O11 0.000000 0.000000 0.500000
O O12 0.138450 0.879532 0.762456
O O13 0.848097 0.531432 0.757234
O O14 0.878981 0.491303 0.084842
O O15 0.923783 0.355944 0.330130
O O16 0.000000 0.500000 0.500000
O O17 0.144659 0.098345 0.975904
#
# Coordination Sequence:
#
# PCOD9095320 Si02
#       8
#     2   2   2   2   2   2   2   2
#     4  10  22  37  54  83 122 169 209 244 284 364
#     4  11  21  40  58  85 121 165 201 250 292 362
#     4  10  20  35  57  76 116 164 215 238 290 338
#     4   9  20  40  69  91 112 148 205 258 302 356
#     4  11  25  35  57  88 126 160 202 242 312 347
#     4  12  23  36  57  88 129 164 196 248 295 353
#     4   9  21  38  64  90 112 149 204 249 300 360
#     4  10  23  39  60  92 120 153 201 256 294 360
#
# _framework density 22.926019
#
# number of rings (size 3 to 8) (size 9 to 14) (size 15 to 20)
#    0.750    1.000    1.250    3.750    3.500    4.000 
#    0.000    0.625    0.000    1.500    0.000    0.000 
#    0.000    0.000    0.000    0.000    0.000    0.000 
#
# Total GULP energy -89193.798670 kJ/mol
# GULP energy per Si atom -5574.612417 kJ/mol
# Density = 2.287384 g / cm^3
# Si number density = 22.926019 Si / 1000 Ang^3
#
#
#
# Elastic Constant Matrix: (Units=GPa)
#
#
# Indices 1 2 3 4 5 6 
#
# 1 68.6061 23.4936 31.9849 0.3153 -1.3570 -23.7286
# 2 23.4936 69.2227 27.1694 -13.7047 2.4228 -23.9959
# 3 31.9849 27.1694 124.9247 -22.3333 -0.1934 -13.0937
# 4 0.3153 -13.7047 -22.3333 32.0098 -12.3892 4.4456
# 5 -1.3570 2.4228 -0.1934 -12.3892 23.6727 6.4738
# 6 -23.7286 -23.9959 -13.0937 4.4456 6.4738 29.6539
#
#
#
# Elastic Compliance Matrix: (Units=1/GPa)
#
#
# Indices 1 2 3 4 5 6 
#
# 1 0.024541 -0.000889 -0.006059 -0.011574 -0.010130 0.020189
# 2 -0.000889 0.022427 -0.002204 0.003759 -0.005047 0.017002
# 3 -0.006059 -0.002204 0.011399 0.010255 0.006589 -0.004574
# 4 -0.011574 0.003759 0.010255 0.055073 0.032521 -0.017048
# 5 -0.010130 -0.005047 0.006589 0.032521 0.067131 -0.028812
# 6 0.020189 0.017002 -0.004574 -0.017048 -0.028812 0.070461
#
#
# Mechanical properties :
#
#
# Convention : Reuss Voigt Hill
#
# Bulk Modulus (GPa) = 24.96013 47.56104 36.26058
# Shear Modulus (GPa) = 17.68711 29.07432 23.38071
#
# Velocity S-wave (km/s) = 2.78058 3.56501 3.19695
# Velocity P-wave (km/s) = 4.60648 6.14298 5.42936
#
# Compressibility (1/GPa) = 0.04006390
#
# Stress axis : x y z
#
# Youngs Moduli (GPa) = 40.74874 44.58835 87.72327
#
# Poissons Ratio (x) = 0.03966 0.53148
# Poissons Ratio (y) = 0.03624 0.19332
# Poissons Ratio (z) = 0.24688 0.09826
#
# Static dielectric constant tensor:
#      x y z
#    x 1.979980 -0.005590 0.054620 
#    y -0.005590 1.940320 0.000960 
#    z 0.054620 0.000960 1.844320 
# 
# From -- ./inp_files/98437.got.cif
#   From: 2010.05.17/outbox.cif.g08.bks.cpg/sg2_50_cif.got.tgz:98437.got - 2010.06.03 11:33:40.
