data_PCOD9095428
_publ_section_title
;
Structure prediction by ZEFSAII (Michael W. Deem and Ramdas Pophale) SiO2 
 PCOD9095428
Probable space group: P -1
;
_chemical_formula_sum "Si O2"
_cell_formula_units_Z 16
_cell_length_a 24.020744
_cell_length_b 8.708867
_cell_length_c 12.401121
_cell_angle_alpha 44.114870
_cell_angle_beta 155.502558
_cell_angle_gamma 122.048756
_cell_volume 677.802419
_symmetry_space_group_name_H-M "P -1"
_symmetry_group_IT_number 2
_symmetry_cell_setting 'triclinic'
loop_
_space_group_symop_operation_xyz
x,y,z
-x,-y,-z
loop_
_atom_site_type_symbol
_atom_site_label
_atom_site_fract_x
_atom_site_fract_y
_atom_site_fract_z
Si Si1 0.283390 0.294005 0.447334
Si Si2 0.939715 0.934021 0.818004
Si Si3 0.355023 0.264893 0.122043
Si Si4 0.554658 0.068950 0.885575
Si Si5 0.247706 0.657004 0.902142
Si Si6 0.514290 0.284404 0.209598
Si Si7 0.175563 0.788024 0.134357
Si Si8 0.030520 0.322713 0.537656
O O1 0.153379 0.212091 0.234164
O O2 0.225463 0.563018 0.256678
O O3 0.402044 0.239355 0.589416
O O4 0.360311 0.120595 0.773363
O O5 0.844801 0.165171 0.453968
O O6 0.080432 0.764131 0.078869
O O7 0.000000 0.000000 0.000000
O O8 0.405340 0.411285 0.051627
O O9 0.500000 0.000000 0.500000
O O10 0.342288 0.394074 0.148435
O O11 0.186715 0.306181 0.774247
O O12 0.532549 0.904875 0.836689
O O13 0.650003 0.213709 0.944469
O O14 0.141441 0.612522 0.825679
O O15 0.684562 0.165440 0.604279
O O16 0.500000 0.500000 0.000000
O O17 0.075692 0.037890 0.776160
O O18 0.000000 0.500000 0.500000
#
# Coordination Sequence:
#
# PCOD9095428 Si02
#       8
#     2   2   2   2   2   2   2   2
#     4  10  20  35  57  87 130 170 203 251 322 381
#     4  10  21  34  56  91 130 164 205 260 321 373
#     4  11  22  40  67  91 120 167 217 256 311 378
#     4  10  21  36  57  90 131 164 200 259 323 371
#     4   9  21  39  63  87 123 170 209 253 316 376
#     4  12  24  37  63  99 127 156 212 269 311 373
#     4  11  20  36  61  89 121 164 216 256 310 379
#     4   9  20  41  64  85 117 165 215 253 307 376
#
# _framework density 23.605699000000001
#
# number of rings (size 3 to 8) (size 9 to 14) (size 15 to 20)
#    0.000    1.750    2.500    1.875    5.250    0.000 
#    0.000    1.250    0.000    0.000    0.000    0.000 
#    0.000    0.000    0.000    0.000    0.000    0.000 
#
# Total GULP energy -89256.689349 kJ/mol
# GULP energy per Si atom -5578.543084 kJ/mol
# Density = 2.355197 g / cm^3
# Si number density = 23.605699 Si / 1000 Ang^3
#
#
#
# Elastic Constant Matrix: (Units=GPa)
#
#
# Indices 1 2 3 4 5 6 
#
# 1 54.1455 0.5967 32.2311 9.0696 23.6903 6.5354
# 2 0.5967 131.4503 50.1618 21.5828 12.5988 -6.8213
# 3 32.2311 50.1618 101.0471 13.1623 33.5839 -3.6022
# 4 9.0696 21.5828 13.1623 39.1430 -4.7606 2.3676
# 5 23.6903 12.5988 33.5839 -4.7606 34.8101 3.2501
# 6 6.5354 -6.8213 -3.6022 2.3676 3.2501 41.5933
#
#
#
# Elastic Compliance Matrix: (Units=1/GPa)
#
#
# Indices 1 2 3 4 5 6 
#
# 1 0.032529 0.005391 -0.004734 -0.011310 -0.020848 -0.002364
# 2 0.005391 0.010937 -0.005110 -0.006072 -0.003634 0.001134
# 3 -0.004734 -0.005110 0.019534 -0.004622 -0.014688 0.003008
# 4 -0.011310 -0.006072 -0.004622 0.035637 0.019525 -0.003173
# 5 -0.020848 -0.003634 -0.014688 0.019525 0.061492 -0.004509
# 6 -0.002364 0.001134 0.003008 -0.003173 -0.004509 0.025393
#
#
# Mechanical properties :
#
#
# Convention : Reuss Voigt Hill
#
# Bulk Modulus (GPa) = 18.48621 50.29135 34.38878
# Shear Modulus (GPa) = 23.53396 36.68617 30.11006
#
# Velocity S-wave (km/s) = 3.16089 3.94651 3.57535
# Velocity P-wave (km/s) = 4.60108 6.48981 5.62528
#
# Compressibility (1/GPa) = 0.05409439
#
# Stress axis : x y z
#
# Youngs Moduli (GPa) = 30.74193 91.43264 51.19262
#
# Poissons Ratio (x) = -0.49296 0.24236
# Poissons Ratio (y) = -0.16574 0.26159
# Poissons Ratio (z) = 0.14554 0.46722
#
# Static dielectric constant tensor:
#      x y z
#    x 2.007610 0.034720 -0.046210 
#    y 0.034720 1.863940 0.042230 
#    z -0.046210 0.042230 1.926790 
# 
# From -- ./inp_files/295006.got.cif
#   From: 2010.05.17/outbox.cif.g08.bks.cpg/sg2_148_cif.got.tgz:295006.got - 2010.06.03 11:33:40.
