data_PCOD9095960
_publ_section_title
;
Structure prediction by ZEFSAII (Michael W. Deem and Ramdas Pophale) SiO2 
 PCOD9095960
Probable space group: P -1
;
_chemical_formula_sum "Si O2"
_cell_formula_units_Z 12
_cell_length_a 7.271630
_cell_length_b 14.301377
_cell_length_c 12.144501
_cell_angle_alpha 136.476988
_cell_angle_beta 38.856982
_cell_angle_gamma 138.566534
_cell_volume 493.047970
_symmetry_space_group_name_H-M "P -1"
_symmetry_group_IT_number 2
_symmetry_cell_setting 'triclinic'
loop_
_space_group_symop_operation_xyz
x,y,z
-x,-y,-z
loop_
_atom_site_type_symbol
_atom_site_label
_atom_site_fract_x
_atom_site_fract_y
_atom_site_fract_z
Si Si1 0.178526 0.899653 0.633488
Si Si2 0.120419 0.143886 0.486478
Si Si3 0.251363 0.565870 0.543815
Si Si4 0.373876 0.546040 0.849028
Si Si5 0.649305 0.368900 0.724246
Si Si6 0.474080 0.184445 0.858666
O O1 0.226012 0.747761 0.489920
O O2 0.908923 0.885282 0.656532
O O3 0.500000 0.000000 0.500000
O O4 0.235039 0.009455 0.804380
O O5 0.490152 0.262177 0.434375
O O6 0.848025 0.204485 0.694023
O O7 0.000000 0.000000 0.500000
O O8 0.483536 0.480918 0.354549
O O9 0.000000 0.500000 0.500000
O O10 0.987989 0.511535 0.716733
O O11 0.445835 0.433510 0.801774
O O12 0.562962 0.721708 0.942001
O O13 0.000000 0.500000 0.000000
O O14 0.449473 0.279162 0.845544
#
# Coordination Sequence:
#
# PCOD9095960 Si02
#       6
#     2   2   2   2   2   2
#     4   8  19  34  58  86 111 156 196 235 281 348
#     4  10  20  35  61  88 113 154 205 232 277 357
#     4  10  22  35  61  88 119 149 192 244 296 330
#     4  11  21  36  55  92 117 152 194 238 292 344
#     4   9  20  39  59  83 118 152 194 238 288 341
#     4  10  21  35  61  88 115 154 193 243 289 338
#
# _framework density 24.338404000000001
#
# number of rings (size 3 to 8) (size 9 to 14) (size 15 to 20)
#    0.000    2.667    1.667    0.500   14.000    2.667 
#    0.000    0.833    0.000    4.000    0.000    1.167 
#    0.000    0.000    0.000    0.000    0.000    0.000 
#
# Total GULP energy -66839.055054 kJ/mol
# GULP energy per Si atom -5569.921255 kJ/mol
# Density = 2.428301 g / cm^3
# Si number density = 24.338404 Si / 1000 Ang^3
#
#
#
# Elastic Constant Matrix: (Units=GPa)
#
#
# Indices 1 2 3 4 5 6 
#
# 1 80.2777 36.0347 23.9432 7.9854 -29.3581 18.0275
# 2 36.0347 158.6775 28.4115 20.3071 -16.4975 19.4284
# 3 23.9432 28.4115 87.4471 8.6861 -10.1590 -1.0291
# 4 7.9854 20.3071 8.6861 38.2384 6.7530 -5.8380
# 5 -29.3581 -16.4975 -10.1590 6.7530 40.3409 5.6467
# 6 18.0275 19.4284 -1.0291 -5.8380 5.6467 37.9495
#
#
#
# Elastic Compliance Matrix: (Units=1/GPa)
#
#
# Indices 1 2 3 4 5 6 
#
# 1 0.027772 0.000945 -0.004047 -0.012649 0.024406 -0.019363
# 2 0.000945 0.008679 -0.001843 -0.006451 0.005804 -0.006798
# 3 -0.004047 -0.001843 0.013146 -0.000532 -0.000755 0.003253
# 4 -0.012649 -0.006451 -0.000532 0.038870 -0.021061 0.018410
# 5 0.024406 0.005804 -0.000755 -0.021061 0.051834 -0.025538
# 6 -0.019363 -0.006798 0.003253 0.018410 -0.025538 0.045750
#
#
# Mechanical properties :
#
#
# Convention : Reuss Voigt Hill
#
# Bulk Modulus (GPa) = 25.18570 55.90901 40.54736
# Shear Modulus (GPa) = 23.90330 39.17328 31.53829
#
# Velocity S-wave (km/s) = 3.13728 4.01624 3.60366
# Velocity P-wave (km/s) = 4.84706 6.67295 5.83191
#
# Compressibility (1/GPa) = 0.03970507
#
# Stress axis : x y z
#
# Youngs Moduli (GPa) = 36.00802 115.22210 76.06895
#
# Poissons Ratio (x) = -0.10887 0.30786
# Poissons Ratio (y) = -0.03402 0.14023
# Poissons Ratio (z) = 0.14573 0.21241
#
# Static dielectric constant tensor:
#      x y z
#    x 2.178600 -0.019250 0.136790 
#    y -0.019250 2.084670 0.021190 
#    z 0.136790 0.021190 2.047700 
# 
# From -- ./inp_files/310610.got.cif
#   From: 2010.05.17/outbox.cif.g08.bks.cpg/sg2_156_cif.got.tgz:310610.got - 2010.06.03 11:33:40.
