data_PCOD9095947
_publ_section_title
;
Structure prediction by ZEFSAII (Michael W. Deem and Ramdas Pophale) SiO2 
 PCOD9095947
Probable space group: P -1
;
_chemical_formula_sum "Si O2"
_cell_formula_units_Z 16
_cell_length_a 9.276270
_cell_length_b 11.567536
_cell_length_c 9.455597
_cell_angle_alpha 91.020149
_cell_angle_beta 75.894934
_cell_angle_gamma 65.002646
_cell_volume 883.392268
_symmetry_space_group_name_H-M "P -1"
_symmetry_group_IT_number 2
_symmetry_cell_setting 'triclinic'
loop_
_space_group_symop_operation_xyz
x,y,z
-x,-y,-z
loop_
_atom_site_type_symbol
_atom_site_label
_atom_site_fract_x
_atom_site_fract_y
_atom_site_fract_z
Si Si1 0.378981 0.112304 0.929477
Si Si2 0.587524 0.635344 0.067473
Si Si3 0.271702 0.658328 0.651041
Si Si4 0.863906 0.071212 0.417355
Si Si5 0.060729 0.087316 0.893617
Si Si6 0.398714 0.381339 0.597119
Si Si7 0.262389 0.657628 0.991261
Si Si8 0.505356 0.112671 0.590170
O O1 0.351847 0.256241 0.981519
O O2 0.210712 0.100641 0.937552
O O3 0.471412 0.092643 0.757956
O O4 0.500000 0.000000 0.000000
O O5 0.560119 0.631574 0.244065
O O6 0.711087 0.488627 0.992956
O O7 0.414398 0.669573 0.032001
O O8 0.138967 0.793438 0.625684
O O9 0.258176 0.526660 0.616279
O O10 0.447935 0.634131 0.539180
O O11 0.276052 0.671263 0.819186
O O12 0.685323 0.106109 0.527500
O O13 0.885519 0.983973 0.271661
O O14 0.000000 0.000000 0.500000
O O15 0.909658 0.228753 0.915834
O O16 0.000000 0.000000 0.000000
O O17 0.372688 0.254606 0.573914
O O18 0.500000 0.000000 0.500000
#
# Coordination Sequence:
#
# PCOD9095947 Si02
#       8
#     2   2   2   2   2   2   2   2
#     4  11  24  38  61  85 120 156 197 247 295 352
#     4   9  20  38  58  89 112 158 193 241 292 354
#     4   9  17  34  53  83 110 148 183 237 282 334
#     4  11  24  37  61  84 119 154 193 243 294 350
#     4  12  24  38  58  89 117 159 198 247 300 351
#     4   8  17  31  58  80 108 144 194 230 280 340
#     4  10  20  35  61  86 123 146 198 240 291 359
#     4  10  20  39  58  85 112 153 194 236 289 352
#
# _framework density 18.111999000000001
#
# number of rings (size 3 to 8) (size 9 to 14) (size 15 to 20)
#    0.000    2.000    2.500    0.750    7.000    0.500 
#    0.000    0.000    0.000    0.750    0.000    0.000 
#    0.000    0.000    0.000    0.000    0.000    0.000 
#
# Total GULP energy -89155.130371 kJ/mol
# GULP energy per Si atom -5572.195648 kJ/mol
# Density = 1.807078 g / cm^3
# Si number density = 18.111999 Si / 1000 Ang^3
#
#
#
# Elastic Constant Matrix: (Units=GPa)
#
#
# Indices 1 2 3 4 5 6 
#
# 1 87.0094 73.3994 20.4798 -4.8224 6.1914 5.5805
# 2 73.3994 194.8820 44.0391 -0.8325 14.5221 7.0818
# 3 20.4798 44.0391 38.6192 -0.8672 -9.4748 6.5489
# 4 -4.8224 -0.8325 -0.8672 32.0185 -0.0855 0.4407
# 5 6.1914 14.5221 -9.4748 -0.0855 22.8672 2.0787
# 6 5.5805 7.0818 6.5489 0.4407 2.0787 32.1414
#
#
#
# Elastic Compliance Matrix: (Units=1/GPa)
#
#
# Indices 1 2 3 4 5 6 
#
# 1 0.017312 -0.005582 -0.003168 0.002384 -0.002354 -0.001011
# 2 -0.005582 0.010679 -0.012103 -0.000943 -0.010449 0.001771
# 3 -0.003168 -0.012103 0.050333 0.000776 0.030220 -0.009004
# 4 0.002384 -0.000943 0.000776 0.031600 0.000468 -0.000828
# 5 -0.002354 -0.010449 0.030220 0.000468 0.064219 -0.007606
# 6 -0.001011 0.001771 -0.009004 -0.000828 -0.007606 0.033236
#
#
# Mechanical properties :
#
#
# Convention : Reuss Voigt Hill
#
# Bulk Modulus (GPa) = 27.30783 66.26080 46.78432
# Shear Modulus (GPa) = 19.13583 29.57823 24.35703
#
# Velocity S-wave (km/s) = 3.25395 4.04551 3.67113
# Velocity P-wave (km/s) = 5.40625 7.64754 6.62240
#
# Compressibility (1/GPa) = 0.03661953
#
# Stress axis : x y z
#
# Youngs Moduli (GPa) = 57.76301 93.64186 19.86762
#
# Poissons Ratio (x) = 0.52273 0.06293
# Poissons Ratio (y) = 0.32245 0.24045
# Poissons Ratio (z) = 0.18297 1.13331
#
# Static dielectric constant tensor:
#      x y z
#    x 1.583770 0.025830 -0.032940 
#    y 0.025830 1.793460 0.155800 
#    z -0.032940 0.155800 1.771460 
# 
# From -- ./inp_files/178910.got.cif
#   From: 2010.05.17/outbox.cif.g08.bks.cpg/sg2_90_cif.got.tgz:178910.got - 2010.06.03 11:33:40.
