data_PCOD9095026
_publ_section_title
;
Structure prediction by ZEFSAII (Michael W. Deem and Ramdas Pophale) SiO2 
 PCOD9095026
Probable space group: P -1
;
_chemical_formula_sum "Si O2"
_cell_formula_units_Z 16
_cell_length_a 15.684289
_cell_length_b 12.058311
_cell_length_c 19.472863
_cell_angle_alpha 26.257671
_cell_angle_beta 159.512722
_cell_angle_gamma 149.409543
_cell_volume 565.122050
_symmetry_space_group_name_H-M "P -1"
_symmetry_group_IT_number 2
_symmetry_cell_setting 'triclinic'
loop_
_space_group_symop_operation_xyz
x,y,z
-x,-y,-z
loop_
_atom_site_type_symbol
_atom_site_label
_atom_site_fract_x
_atom_site_fract_y
_atom_site_fract_z
Si Si1 0.535964 0.854714 0.954947
Si Si2 0.925463 0.708055 0.243946
Si Si3 0.189229 0.021165 0.693763
Si Si4 0.847587 0.171238 0.446597
Si Si5 0.812170 0.428859 0.834504
Si Si6 0.621194 0.876345 0.795603
Si Si7 0.205637 0.261651 0.140339
Si Si8 0.573118 0.404330 0.462953
O O1 0.329128 0.816927 0.759898
O O2 0.396699 0.848105 0.926496
O O3 0.678350 0.140227 0.898700
O O4 0.745574 0.687743 0.185463
O O5 0.001394 0.441164 0.429827
O O6 0.745117 0.756154 0.018829
O O7 0.113780 0.961700 0.248576
O O8 0.300130 0.314092 0.609115
O O9 0.038708 0.983322 0.672060
O O10 0.000000 0.000000 0.500000
O O11 0.661392 0.116574 0.399640
O O12 0.590947 0.592116 0.592743
O O13 0.000000 0.500000 0.000000
O O14 0.977169 0.419448 0.895574
O O15 0.673671 0.730576 0.847612
O O16 0.732970 0.173561 0.712845
O O17 0.399396 0.341257 0.301461
#
# Coordination Sequence:
#
# PCOD9095026 Si02
#       8
#     2   2   2   2   2   2   2   2
#     4   8  15  30  52  75  98 135 181 219 259 314
#     4  10  20  37  56  79 111 147 182 223 271 325
#     4   9  18  35  56  78 105 144 181 219 271 323
#     4  10  20  35  53  78 112 146 180 224 270 321
#     4   8  16  32  54  76 104 139 175 219 273 322
#     4  11  21  34  54  86 112 140 184 227 268 321
#     4  10  20  36  57  82 110 144 181 222 274 327
#     4  10  20  37  58  82 110 141 181 231 271 317
#
# _framework density 28.312467000000002
#
# number of rings (size 3 to 8) (size 9 to 14) (size 15 to 20)
#    0.000    2.500    0.000    3.000    0.000    0.000 
#    0.000   31.250    0.000    0.000    0.000   30.625 
#    0.000    0.000    0.000    0.000    0.000    0.000 
#
# Total GULP energy -89696.938331 kJ/mol
# GULP energy per Si atom -5606.058646 kJ/mol
# Density = 2.824803 g / cm^3
# Si number density = 28.312467 Si / 1000 Ang^3
#
#
#
# Elastic Constant Matrix: (Units=GPa)
#
#
# Indices 1 2 3 4 5 6 
#
# 1 193.3566 50.4575 77.7274 -6.9923 51.2481 -22.2231
# 2 50.4575 187.3317 27.3449 -0.7203 12.0050 -26.3090
# 3 77.7274 27.3449 74.3028 -8.7538 20.4332 -24.7238
# 4 -6.9923 -0.7203 -8.7538 35.6480 -8.6943 17.2706
# 5 51.2481 12.0050 20.4332 -8.6943 69.3793 -9.0908
# 6 -22.2231 -26.3090 -24.7238 17.2706 -9.0908 42.7816
#
#
#
# Elastic Compliance Matrix: (Units=1/GPa)
#
#
# Indices 1 2 3 4 5 6 
#
# 1 0.010595 -0.001346 -0.009902 -0.000720 -0.005006 -0.001819
# 2 -0.001346 0.006231 0.000201 -0.002043 0.000138 0.004103
# 3 -0.009902 0.000201 0.027168 -0.000432 0.000665 0.010996
# 4 -0.000720 -0.002043 -0.000432 0.036257 0.003489 -0.015775
# 5 -0.005006 0.000138 0.000665 0.003489 0.018376 0.000365
# 6 -0.001819 0.004103 0.010996 -0.015775 0.000365 0.037753
#
#
# Mechanical properties :
#
#
# Convention : Reuss Voigt Hill
#
# Bulk Modulus (GPa) = 45.65965 85.11675 65.38820
# Shear Modulus (GPa) = 30.16178 49.52586 39.84382
#
# Velocity S-wave (km/s) = 3.26746 4.18695 3.75545
# Velocity P-wave (km/s) = 5.51336 7.31455 6.47688
#
# Compressibility (1/GPa) = 0.02190117
#
# Stress axis : x y z
#
# Youngs Moduli (GPa) = 94.38487 160.49470 36.80861
#
# Poissons Ratio (x) = 0.21601 0.36446
# Poissons Ratio (y) = 0.12703 -0.00741
# Poissons Ratio (z) = 0.93456 -0.03232
#
# Static dielectric constant tensor:
#      x y z
#    x 2.219600 0.065890 0.091220 
#    y 0.065890 2.193420 0.027390 
#    z 0.091220 0.027390 2.164000 
# 
# From -- ./inp_files/613183.got.cif
#   From: 2010.05.17/outbox.cif.g08.bks.cpg/sg2_307_cif.got.tgz:613183.got - 2010.06.03 11:33:40.
