data_PCOD9095383
_publ_section_title
;
Structure prediction by ZEFSAII (Michael W. Deem and Ramdas Pophale) SiO2 
 PCOD9095383
Probable space group: P -1
;
_chemical_formula_sum "Si O2"
_cell_formula_units_Z 15
_cell_length_a 8.112175
_cell_length_b 12.294729
_cell_length_c 9.534029
_cell_angle_alpha 85.001011
_cell_angle_beta 42.096562
_cell_angle_gamma 94.166205
_cell_volume 621.471278
_symmetry_space_group_name_H-M "P -1"
_symmetry_group_IT_number 2
_symmetry_cell_setting 'triclinic'
loop_
_space_group_symop_operation_xyz
x,y,z
-x,-y,-z
loop_
_atom_site_type_symbol
_atom_site_label
_atom_site_fract_x
_atom_site_fract_y
_atom_site_fract_z
Si Si1 0.006187 0.233401 0.113302
Si Si2 0.000000 0.000000 0.000000
Si Si3 0.120396 0.423410 0.830075
Si Si4 0.672465 0.499992 0.588095
Si Si5 0.434120 0.706307 0.143111
Si Si6 0.157164 0.839750 0.492588
Si Si7 0.607639 0.735019 0.729087
Si Si8 0.698277 0.940062 0.460577
O O1 0.824137 0.224440 0.364041
O O2 0.977443 0.303256 0.986160
O O3 0.275379 0.289202 0.003630
O O4 0.016902 0.110082 0.072825
O O5 0.891559 0.923678 0.219435
O O6 0.415700 0.438692 0.679188
O O7 0.118882 0.462693 0.667145
O O8 0.000000 0.500000 0.000000
O O9 0.720687 0.409065 0.680763
O O10 0.618564 0.613307 0.676829
O O11 0.354668 0.808766 0.262768
O O12 0.427959 0.720359 0.979280
O O13 0.886223 0.792550 0.602792
O O14 0.197382 0.969514 0.494178
O O15 0.565410 0.824276 0.629035
O O16 0.500000 0.000000 0.500000
#
# Coordination Sequence:
#
# PCOD9095383 Si02
#       8
#     2   1   2   2   2   2   2   2
#     4   9  19  35  55  84 115 152 195 241 289 346
#     4  10  20  36  58  82 114 146 188 242 290 340
#     4  10  20  35  57  84 120 156 194 241 295 346
#     4  10  22  37  58  89 120 155 199 245 290 351
#     4  10  21  39  59  82 119 157 195 242 292 346
#     4  10  22  39  61  86 119 158 197 241 295 351
#     4  11  24  40  60  89 121 155 199 243 292 354
#     4  11  24  40  62  89 118 155 199 245 296 351
#
# _framework density 24.136272999999999
#
# number of rings (size 3 to 8) (size 9 to 14) (size 15 to 20)
#    0.000    1.867    0.000    3.200    0.000    7.467 
#    0.000    0.000    0.000    0.000    0.000    0.000 
#    0.000    0.000    0.000    0.000    0.000    0.000 
#
# Total GULP energy -83606.878862 kJ/mol
# GULP energy per Si atom -5573.791924 kJ/mol
# Density = 2.408134 g / cm^3
# Si number density = 24.136273 Si / 1000 Ang^3
#
#
#
# Elastic Constant Matrix: (Units=GPa)
#
#
# Indices 1 2 3 4 5 6 
#
# 1 64.7417 -4.0271 8.2785 -11.5658 17.1739 -1.7091
# 2 -4.0271 88.2556 46.5182 -10.6478 26.7315 6.6570
# 3 8.2785 46.5182 199.1081 -3.0382 46.9011 -8.5573
# 4 -11.5658 -10.6478 -3.0382 45.4059 2.4887 4.5035
# 5 17.1739 26.7315 46.9011 2.4887 34.5144 -6.2630
# 6 -1.7091 6.6570 -8.5573 4.5035 -6.2630 26.8491
#
#
#
# Elastic Compliance Matrix: (Units=1/GPa)
#
#
# Indices 1 2 3 4 5 6 
#
# 1 0.023725 0.008874 0.002458 0.010328 -0.024080 -0.007256
# 2 0.008874 0.020871 -0.000134 0.009575 -0.023206 -0.011672
# 3 0.002458 -0.000134 0.007756 0.001804 -0.011863 -0.000408
# 4 0.010328 0.009575 0.001804 0.029099 -0.019002 -0.010455
# 5 -0.024080 -0.023206 -0.011863 -0.019002 0.080483 0.022401
# 6 -0.007256 -0.011672 -0.000408 -0.010455 0.022401 0.046526
#
#
# Mechanical properties :
#
#
# Convention : Reuss Voigt Hill
#
# Bulk Modulus (GPa) = 13.37856 50.40495 31.89176
# Shear Modulus (GPa) = 23.69888 41.44294 32.57091
#
# Velocity S-wave (km/s) = 3.13689 4.14821 3.67748
# Velocity P-wave (km/s) = 4.32147 6.62362 5.59229
#
# Compressibility (1/GPa) = 0.07474644
#
# Stress axis : x y z
#
# Youngs Moduli (GPa) = 42.15019 47.91391 128.93427
#
# Poissons Ratio (x) = -0.42517 -0.31695
# Poissons Ratio (y) = -0.37402 0.01732
# Poissons Ratio (z) = -0.10362 0.00643
#
# Static dielectric constant tensor:
#      x y z
#    x 1.987500 -0.011060 -0.027530 
#    y -0.011060 1.897700 -0.105350 
#    z -0.027530 -0.105350 1.967720 
# 
# From -- ./inp_files/186458.got.cif
#   From: 2010.05.17/outbox.cif.g08.bks.cpg/sg2_94_cif.got.tgz:186458.got - 2010.06.03 11:33:40.
