data_PCOD9095994
_publ_section_title
;
Structure prediction by ZEFSAII (Michael W. Deem and Ramdas Pophale) SiO2 
 PCOD9095994
Probable space group: P -1
;
_chemical_formula_sum "Si O2"
_cell_formula_units_Z 14
_cell_length_a 12.146855
_cell_length_b 7.456560
_cell_length_c 22.645339
_cell_angle_alpha 141.760523
_cell_angle_beta 30.671960
_cell_angle_gamma 151.773298
_cell_volume 491.607692
_symmetry_space_group_name_H-M "P -1"
_symmetry_group_IT_number 2
_symmetry_cell_setting 'triclinic'
loop_
_space_group_symop_operation_xyz
x,y,z
-x,-y,-z
loop_
_atom_site_type_symbol
_atom_site_label
_atom_site_fract_x
_atom_site_fract_y
_atom_site_fract_z
Si Si1 0.361773 0.190721 0.609588
Si Si2 0.782172 0.953401 0.809975
Si Si3 0.205034 0.020298 0.325649
Si Si4 0.225635 0.035870 0.057746
Si Si5 0.753221 0.054182 0.523381
Si Si6 0.716582 0.922843 0.204142
Si Si7 0.399635 0.105017 0.872948
O O1 0.525727 0.540056 0.669109
O O2 0.500000 0.000000 0.500000
O O3 0.374712 0.253768 0.549953
O O4 0.027242 0.931082 0.705687
O O5 0.838614 0.102676 0.755198
O O6 0.795618 0.135444 0.912931
O O7 0.489374 0.529369 0.828061
O O8 0.941044 0.991713 0.458167
O O9 0.312724 0.823490 0.255749
O O10 0.502324 0.481280 0.054519
O O11 0.278708 0.896254 0.937949
O O12 0.971574 0.028864 0.153411
O O13 0.491921 0.014658 0.657223
O O14 0.000000 0.500000 0.500000
O O15 0.798269 0.092980 0.144011
#
# Coordination Sequence:
#
# PCOD9095994 Si02
#       7
#     2   2   2   2   2   2   2
#     4  11  18  33  59  87 122 161 191 243 305 355
#     4  10  20  35  61  91 117 155 208 247 299 360
#     4  11  22  38  59  94 129 154 199 257 300 360
#     4  10  22  43  66  83 117 172 206 249 304 353
#     4  11  20  36  61  91 123 157 200 245 300 368
#     4  11  20  40  65  89 119 161 208 247 303 370
#     4  10  25  42  60  89 124 161 209 252 299 362
#
# _framework density 28.477990999999999
#
# number of rings (size 3 to 8) (size 9 to 14) (size 15 to 20)
#    0.000    1.429    4.286    2.143    0.000    4.571 
#    0.000    4.286    0.000    0.000    0.000    0.000 
#    0.000    0.000    0.000    0.000    0.000    0.000 
#
# Total GULP energy -78270.926683 kJ/mol
# GULP energy per Si atom -5590.780477 kJ/mol
# Density = 2.841317 g / cm^3
# Si number density = 28.477991 Si / 1000 Ang^3
#
#
#
# Elastic Constant Matrix: (Units=GPa)
#
#
# Indices 1 2 3 4 5 6 
#
# 1 181.3990 33.8756 67.0491 -8.2111 9.8228 44.4302
# 2 33.8756 116.3492 25.9609 3.1519 9.0778 30.9447
# 3 67.0491 25.9609 163.8297 -5.5804 -11.1487 18.7930
# 4 -8.2111 3.1519 -5.5804 39.4789 14.8927 3.0668
# 5 9.8228 9.0778 -11.1487 14.8927 59.7975 1.9272
# 6 44.4302 30.9447 18.7930 3.0668 1.9272 47.6420
#
#
#
# Elastic Compliance Matrix: (Units=1/GPa)
#
#
# Indices 1 2 3 4 5 6 
#
# 1 0.008475 0.000113 -0.002754 0.002811 -0.002398 -0.006974
# 2 0.000113 0.010674 -0.001095 0.000156 -0.001671 -0.006549
# 3 -0.002754 -0.001095 0.007509 -0.000223 0.002066 0.000248
# 4 0.002811 0.000156 -0.000223 0.029076 -0.007633 -0.004197
# 5 -0.002398 -0.001671 0.002066 -0.007633 0.019586 0.002206
# 6 -0.006974 -0.006549 0.000248 -0.004197 0.002206 0.031831
#
#
# Mechanical properties :
#
#
# Convention : Reuss Voigt Hill
#
# Bulk Modulus (GPa) = 52.11959 79.48324 65.80141
# Shear Modulus (GPa) = 41.31621 51.69648 46.50635
#
# Velocity S-wave (km/s) = 3.81308 4.26527 4.04550
# Velocity P-wave (km/s) = 6.14228 7.22688 6.70654
#
# Compressibility (1/GPa) = 0.01918664
#
# Stress axis : x y z
#
# Youngs Moduli (GPa) = 117.99679 93.68413 133.17468
#
# Poissons Ratio (x) = -0.01057 0.36672
# Poissons Ratio (y) = -0.01332 0.14580
# Poissons Ratio (z) = 0.32493 0.10257
#
# Static dielectric constant tensor:
#      x y z
#    x 2.301530 -0.085150 0.108740 
#    y -0.085150 2.177080 -0.054500 
#    z 0.108740 -0.054500 2.284910 
# 
# From -- ./inp_files/224301.got.cif
#   From: 2010.05.17/outbox.cif.g08.bks.cpg/sg2_113_cif.got.tgz:224301.got - 2010.06.03 11:33:40.
