data_PCOD9095769
_publ_section_title
;
Structure prediction by ZEFSAII (Michael W. Deem and Ramdas Pophale) SiO2 
 PCOD9095769
Probable space group: P -1
;
_chemical_formula_sum "Si O2"
_cell_formula_units_Z 16
_cell_length_a 12.372328
_cell_length_b 13.230397
_cell_length_c 5.373062
_cell_angle_alpha 70.906346
_cell_angle_beta 111.602059
_cell_angle_gamma 69.535783
_cell_volume 652.869534
_symmetry_space_group_name_H-M "P -1"
_symmetry_group_IT_number 2
_symmetry_cell_setting 'triclinic'
loop_
_space_group_symop_operation_xyz
x,y,z
-x,-y,-z
loop_
_atom_site_type_symbol
_atom_site_label
_atom_site_fract_x
_atom_site_fract_y
_atom_site_fract_z
Si Si1 0.437388 0.952235 0.185616
Si Si2 0.136886 0.046357 0.410716
Si Si3 0.308938 0.745570 0.709898
Si Si4 0.285264 0.166164 0.218185
Si Si5 0.036484 0.388813 0.433443
Si Si6 0.220895 0.407880 0.202327
Si Si7 0.534238 0.305808 0.630208
Si Si8 0.008293 0.826504 0.310267
O O1 0.555385 0.884370 0.547754
O O2 0.421986 0.839832 0.173857
O O3 0.303718 0.074531 0.081003
O O4 0.500000 0.000000 0.000000
O O5 0.215344 0.122001 0.395924
O O6 0.061771 0.080653 0.586317
O O7 0.241518 0.897873 0.563876
O O8 0.029631 0.102811 0.043706
O O9 0.398205 0.695633 0.574076
O O10 0.171544 0.744039 0.560939
O O11 0.400354 0.671012 0.089403
O O12 0.229680 0.313555 0.068300
O O13 0.039873 0.272895 0.657975
O O14 0.000000 0.500000 0.500000
O O15 0.173247 0.357863 0.432291
O O16 0.907475 0.451787 0.077658
O O17 0.368113 0.388432 0.397145
#
# Coordination Sequence:
#
# PCOD9095769 Si02
#       8
#     2   2   2   2   2   2   2   2
#     4  10  21  33  58  95 138 181 210 269 334 422
#     4  12  23  42  68 104 137 183 223 280 340 412
#     4  12  25  47  66 104 141 188 224 275 336 424
#     4  10  20  35  59  95 136 169 219 270 344 402
#     4  11  25  46  74 100 133 177 233 298 349 406
#     4  10  24  44  68 102 133 179 229 293 353 401
#     4  11  25  42  70  98 145 180 226 279 343 409
#     4  12  27  45  72  98 139 183 237 280 339 407
#
# _framework density 24.507193000000001
#
# number of rings (size 3 to 8) (size 9 to 14) (size 15 to 20)
#    0.000    1.000    2.500    3.750    8.750    1.000 
#    0.000    1.250    0.000    0.000    0.000    0.000 
#    0.000    0.000    0.000    0.000    0.000    0.000 
#
# Total GULP energy -89474.881512 kJ/mol
# GULP energy per Si atom -5592.180094 kJ/mol
# Density = 2.445141 g / cm^3
# Si number density = 24.507193 Si / 1000 Ang^3
#
#
#
# Elastic Constant Matrix: (Units=GPa)
#
#
# Indices 1 2 3 4 5 6 
#
# 1 122.2045 17.0188 44.7512 12.4072 20.8519 -30.1868
# 2 17.0188 37.6517 20.1661 7.0511 -2.5617 -13.2155
# 3 44.7512 20.1661 103.2113 22.5131 14.9125 -20.5728
# 4 12.4072 7.0511 22.5131 38.3667 -4.8270 -4.4112
# 5 20.8519 -2.5617 14.9125 -4.8270 46.4102 4.1771
# 6 -30.1868 -13.2155 -20.5728 -4.4112 4.1771 39.0498
#
#
#
# Elastic Compliance Matrix: (Units=1/GPa)
#
#
# Indices 1 2 3 4 5 6 
#
# 1 0.012507 -0.001566 -0.002048 -0.002346 -0.006051 0.008442
# 2 -0.001566 0.032594 -0.004366 -0.001728 0.003096 0.006994
# 3 -0.002048 -0.004366 0.014637 -0.007271 -0.005175 0.004383
# 4 -0.002346 -0.001728 -0.007271 0.031890 0.006915 -0.003366
# 5 -0.006051 0.003096 -0.005175 0.006915 0.027586 -0.008526
# 6 0.008442 0.006994 0.004383 -0.003366 -0.008526 0.037342
#
#
# Mechanical properties :
#
#
# Convention : Reuss Voigt Hill
#
# Bulk Modulus (GPa) = 22.84192 47.43773 35.13983
# Shear Modulus (GPa) = 26.72226 36.84076 31.78151
#
# Velocity S-wave (km/s) = 3.30568 3.88140 3.60505
# Velocity P-wave (km/s) = 4.88986 6.28376 5.63012
#
# Compressibility (1/GPa) = 0.04377916
#
# Stress axis : x y z
#
# Youngs Moduli (GPa) = 79.95432 30.68006 68.31822
#
# Poissons Ratio (x) = 0.04803 0.13994
# Poissons Ratio (y) = 0.12518 0.29827
# Poissons Ratio (z) = 0.16378 0.13395
#
# Static dielectric constant tensor:
#      x y z
#    x 1.745780 0.071970 0.029540 
#    y 0.071970 1.955890 0.014690 
#    z 0.029540 0.014690 2.085920 
# 
# From -- ./inp_files/75828.got.cif
#   From: 2010.05.17/outbox.cif.g08.bks.cpg/sg2_38_cif.got.tgz:75828.got - 2010.06.03 11:33:40.
