data_PCOD9095807
_publ_section_title
;
Structure prediction by ZEFSAII (Michael W. Deem and Ramdas Pophale) SiO2 
 PCOD9095807
Probable space group: P -1
;
_chemical_formula_sum "Si O2"
_cell_formula_units_Z 16
_cell_length_a 11.951267
_cell_length_b 7.040092
_cell_length_c 15.426556
_cell_angle_alpha 92.539399
_cell_angle_beta 46.961582
_cell_angle_gamma 74.504439
_cell_volume 865.567486
_symmetry_space_group_name_H-M "P -1"
_symmetry_group_IT_number 2
_symmetry_cell_setting 'triclinic'
loop_
_space_group_symop_operation_xyz
x,y,z
-x,-y,-z
loop_
_atom_site_type_symbol
_atom_site_label
_atom_site_fract_x
_atom_site_fract_y
_atom_site_fract_z
Si Si1 0.841249 0.315027 0.825209
Si Si2 0.372613 0.863000 0.974044
Si Si3 0.312912 0.509022 0.698120
Si Si4 0.800119 0.103340 0.117263
Si Si5 0.687236 0.213292 0.461441
Si Si6 0.979358 0.949077 0.608722
Si Si7 0.812052 0.842407 0.269499
Si Si8 0.250925 0.230721 0.185713
O O1 0.825514 0.539212 0.808743
O O2 0.995535 0.211391 0.808340
O O3 0.887176 0.163676 0.714930
O O4 0.677021 0.311008 0.957396
O O5 0.292396 0.901970 0.922412
O O6 0.569868 0.804929 0.868564
O O7 0.287294 0.066278 0.084242
O O8 0.255928 0.662231 0.812954
O O9 0.506548 0.348615 0.598951
O O10 0.291099 0.655100 0.628725
O O11 0.210894 0.369070 0.733320
O O12 0.760031 0.972656 0.211395
O O13 0.000000 0.000000 0.000000
O O14 0.838105 0.167420 0.447097
O O15 0.705145 0.993116 0.406599
O O16 0.869951 0.816268 0.683931
O O17 0.000000 0.000000 0.500000
#
# Coordination Sequence:
#
# PCOD9095807 Si02
#       8
#     2   2   2   2   2   2   2   2
#     4  10  20  37  61  83 113 154 194 237 290 351
#     4  10  22  40  57  85 121 150 195 243 280 346
#     4  10  21  36  60  83 113 160 187 230 295 340
#     4  11  23  37  55  88 125 145 186 248 285 338
#     4   9  20  39  56  83 118 147 195 241 277 347
#     4  10  22  38  58  85 117 145 191 252 290 334
#     4  10  20  35  60  86 113 154 192 230 292 349
#     4  10  22  39  62  82 111 162 196 231 292 348
#
# _framework density 18.484981999999999
#
# number of rings (size 3 to 8) (size 9 to 14) (size 15 to 20)
#    0.000    2.000    1.250    1.500    3.500    4.000 
#    0.000    2.500    0.000    0.000    0.000    0.000 
#    0.000    0.000    0.000    0.000    0.000    0.000 
#
# Total GULP energy -89320.917782 kJ/mol
# GULP energy per Si atom -5582.557361 kJ/mol
# Density = 1.844291 g / cm^3
# Si number density = 18.484982 Si / 1000 Ang^3
#
#
#
# Elastic Constant Matrix: (Units=GPa)
#
#
# Indices 1 2 3 4 5 6 
#
# 1 133.8175 36.3346 68.1982 -6.2531 9.0400 -5.5122
# 2 36.3346 83.4297 17.9517 -5.3672 6.5393 9.0031
# 3 68.1982 17.9517 76.8545 -6.6041 4.9802 -3.5977
# 4 -6.2531 -5.3672 -6.6041 26.6104 -2.5520 -2.3711
# 5 9.0400 6.5393 4.9802 -2.5520 15.2442 -3.3016
# 6 -5.5122 9.0031 -3.5977 -2.3711 -3.3016 32.1959
#
#
#
# Elastic Compliance Matrix: (Units=1/GPa)
#
#
# Indices 1 2 3 4 5 6 
#
# 1 0.014977 -0.003927 -0.012127 -0.000381 -0.002869 0.001985
# 2 -0.003927 0.014667 0.000238 0.001157 -0.004967 -0.005171
# 3 -0.012127 0.000238 0.024034 0.003227 -0.000054 0.000775
# 4 -0.000381 0.001157 0.003227 0.039414 0.006030 0.003493
# 5 -0.002869 -0.004967 -0.000054 0.006030 0.072354 0.008755
# 6 0.001985 -0.005171 0.000775 0.003493 0.008755 0.034087
#
#
# Mechanical properties :
#
#
# Convention : Reuss Voigt Hill
#
# Bulk Modulus (GPa) = 45.35856 59.89674 52.62765
# Shear Modulus (GPa) = 20.96308 26.25125 23.60716
#
# Velocity S-wave (km/s) = 3.37123 3.77256 3.57753
# Velocity P-wave (km/s) = 6.30436 7.17284 6.75257
#
# Compressibility (1/GPa) = 0.02204656
#
# Stress axis : x y z
#
# Youngs Moduli (GPa) = 66.76757 68.18000 41.60758
#
# Poissons Ratio (x) = 0.26776 0.50457
# Poissons Ratio (y) = 0.26221 -0.00991
# Poissons Ratio (z) = 0.80969 -0.01624
#
# Static dielectric constant tensor:
#      x y z
#    x 1.613630 0.009810 -0.011260 
#    y 0.009810 1.627500 -0.000560 
#    z -0.011260 -0.000560 1.639090 
# 
# From -- ./inp_files/69028.got.cif
#   From: 2010.05.17/outbox.cif.g08.bks.cpg/sg2_35_cif.got.tgz:69028.got - 2010.06.03 11:33:40.
