data_PCOD9095087
_publ_section_title
;
Structure prediction by ZEFSAII (Michael W. Deem and Ramdas Pophale) SiO2 
 PCOD9095087
Probable space group: P -1
;
_chemical_formula_sum "Si O2"
_cell_formula_units_Z 13
_cell_length_a 13.801311
_cell_length_b 13.961712
_cell_length_c 5.348123
_cell_angle_alpha 90.198160
_cell_angle_beta 97.759284
_cell_angle_gamma 29.044218
_cell_volume 481.458620
_symmetry_space_group_name_H-M "P -1"
_symmetry_group_IT_number 2
_symmetry_cell_setting 'triclinic'
loop_
_space_group_symop_operation_xyz
x,y,z
-x,-y,-z
loop_
_atom_site_type_symbol
_atom_site_label
_atom_site_fract_x
_atom_site_fract_y
_atom_site_fract_z
Si Si1 0.225307 0.153743 0.315404
Si Si2 0.570865 0.572427 0.775341
Si Si3 0.863247 0.032372 0.851689
Si Si4 0.824498 0.967683 0.340244
Si Si5 0.611267 0.480690 0.289727
Si Si6 0.372596 0.177080 0.764209
Si Si7 0.000000 0.500000 0.000000
O O1 0.282690 0.203381 0.483470
O O2 0.094014 0.308640 0.043096
O O3 0.140934 0.161144 0.506457
O O4 0.439189 0.922465 0.283331
O O5 0.423966 0.790866 0.734143
O O6 0.704637 0.441580 0.573934
O O7 0.420644 0.606097 0.727512
O O8 0.701146 0.445443 0.068721
O O9 0.915045 0.962538 0.582434
O O10 0.624182 0.274069 0.777424
O O11 0.877932 0.938735 0.070497
O O12 0.000000 0.000000 0.000000
O O13 0.179933 0.378373 0.857462
O O14 0.500000 0.000000 0.000000
#
# Coordination Sequence:
#
# PCOD9095087 Si02
#       7
#     2   2   2   2   2   2   1
#     4  10  21  38  63  95 130 173 217 265 335 396
#     4   8  14  27  45  73  93 133 181 235 282 347
#     4  10  20  35  54  81 118 163 206 258 319 377
#     4  10  21  34  59  84 117 159 215 264 310 384
#     4   8  14  26  47  66  96 134 182 225 292 346
#     4   9  20  38  64  93 125 170 210 264 334 408
#     4  10  20  38  66  92 130 174 212 264 334 402
#
# _framework density 27.001280000000001
#
# number of rings (size 3 to 8) (size 9 to 14) (size 15 to 20)
#    0.000    2.769    0.000    0.923    4.308    0.000 
#    0.000    1.538    6.769    1.846    0.000    0.000 
#    0.000    0.000    0.000    0.000    0.000    0.000 
#
# Total GULP energy -72401.284057 kJ/mol
# GULP energy per Si atom -5569.329543 kJ/mol
# Density = 2.693982 g / cm^3
# Si number density = 27.001280 Si / 1000 Ang^3
#
#
#
# Elastic Constant Matrix: (Units=GPa)
#
#
# Indices 1 2 3 4 5 6 
#
# 1 60.6133 7.1938 13.0962 -6.4312 -21.1901 3.1149
# 2 7.1938 103.6024 3.5728 16.0581 -2.5455 -19.7977
# 3 13.0962 3.5728 147.5448 21.5604 -28.2159 0.4326
# 4 -6.4312 16.0581 21.5604 60.7057 6.6193 -15.0103
# 5 -21.1901 -2.5455 -28.2159 6.6193 51.0500 -4.2256
# 6 3.1149 -19.7977 0.4326 -15.0103 -4.2256 26.6837
#
#
#
# Elastic Compliance Matrix: (Units=1/GPa)
#
#
# Indices 1 2 3 4 5 6 
#
# 1 0.019658 -0.001686 -0.000490 0.001516 0.007484 -0.001500
# 2 -0.001686 0.011549 0.000212 -0.001395 0.000846 0.008111
# 3 -0.000490 0.000212 0.008310 -0.003920 0.004795 -0.001366
# 4 0.001516 -0.001395 -0.003920 0.021323 -0.003520 0.010288
# 5 0.007484 0.000846 0.004795 -0.003520 0.025994 0.001812
# 6 -0.001500 0.008111 -0.001366 0.010288 0.001812 0.049766
#
#
# Mechanical properties :
#
#
# Convention : Reuss Voigt Hill
#
# Bulk Modulus (GPa) = 28.09807 39.94290 34.02048
# Shear Modulus (GPa) = 32.81045 46.88107 39.84576
#
# Velocity S-wave (km/s) = 3.48967 4.17136 3.84565
# Velocity P-wave (km/s) = 5.16390 6.16647 5.68732
#
# Compressibility (1/GPa) = 0.03558964
#
# Stress axis : x y z
#
# Youngs Moduli (GPa) = 50.86904 86.58727 120.33971
#
# Poissons Ratio (x) = 0.14596 0.05895
# Poissons Ratio (y) = 0.08575 -0.02549
# Poissons Ratio (z) = 0.02492 -0.01834
#
# Static dielectric constant tensor:
#      x y z
#    x 2.139030 -0.026830 0.002880 
#    y -0.026830 2.125380 0.065560 
#    z 0.002880 0.065560 2.101340 
# 
# From -- ./inp_files/97701.got.cif
#   From: 2010.05.17/outbox.cif.g08.bks.cpg/sg2_49_cif.got.tgz:97701.got - 2010.06.03 11:33:40.
