data_PCOD9095219
_publ_section_title
;
Structure prediction by ZEFSAII (Michael W. Deem and Ramdas Pophale) SiO2 
 PCOD9095219
Probable space group: P -1
;
_chemical_formula_sum "Si O2"
_cell_formula_units_Z 16
_cell_length_a 16.199067
_cell_length_b 7.964395
_cell_length_c 6.327944
_cell_angle_alpha 114.905123
_cell_angle_beta 78.124910
_cell_angle_gamma 122.055620
_cell_volume 627.418070
_symmetry_space_group_name_H-M "P -1"
_symmetry_group_IT_number 2
_symmetry_cell_setting 'triclinic'
loop_
_space_group_symop_operation_xyz
x,y,z
-x,-y,-z
loop_
_atom_site_type_symbol
_atom_site_label
_atom_site_fract_x
_atom_site_fract_y
_atom_site_fract_z
Si Si1 0.071223 0.110558 0.325072
Si Si2 0.991956 0.691641 0.914873
Si Si3 0.419082 0.884431 0.807833
Si Si4 0.276877 0.849068 0.548944
Si Si5 0.876307 0.495350 0.267744
Si Si6 0.449084 0.579223 0.336706
Si Si7 0.684934 0.427012 0.945468
Si Si8 0.665619 0.715252 0.400366
O O1 0.031070 0.207452 0.220455
O O2 0.147454 0.333708 0.515724
O O3 0.000000 0.000000 0.500000
O O4 0.073042 0.908065 0.111773
O O5 0.024093 0.517221 0.754813
O O6 0.896206 0.567149 0.049879
O O7 0.373942 0.974706 0.711482
O O8 0.460239 0.769863 0.578583
O O9 0.332743 0.713906 0.910539
O O10 0.500000 0.000000 0.000000
O O11 0.195140 0.728457 0.702227
O O12 0.274351 0.666138 0.303097
O O13 0.279395 0.030384 0.497834
O O14 0.412274 0.609952 0.147742
O O15 0.553143 0.596500 0.310143
O O16 0.359455 0.373527 0.392666
O O17 0.721856 0.653251 0.161877
#
# Coordination Sequence:
#
# PCOD9095219 Si02
#       8
#     2   2   2   2   2   2   2   2
#     4   9  18  36  63  91 115 147 187 229 281 344
#     4   9  19  38  63  89 116 153 194 229 281 352
#     4  10  20  36  58  81 111 152 196 244 296 346
#     4  11  24  37  54  86 117 150 198 245 293 347
#     4  10  21  37  58  85 120 154 191 239 287 343
#     4   9  19  36  57  80 105 143 197 244 289 356
#     4  10  21  37  54  76 109 145 186 241 294 340
#     4  10  20  35  56  80 109 145 189 241 294 345
#
# _framework density 25.501335999999998
#
# number of rings (size 3 to 8) (size 9 to 14) (size 15 to 20)
#    0.000    2.250    0.000    2.250    0.000    7.000 
#    0.000   10.000    0.000    0.000    0.000    0.000 
#    0.000    0.000    0.000    0.000    0.000    0.000 
#
# Total GULP energy -89070.323459 kJ/mol
# GULP energy per Si atom -5566.895216 kJ/mol
# Density = 2.544329 g / cm^3
# Si number density = 25.501336 Si / 1000 Ang^3
#
#
#
# Elastic Constant Matrix: (Units=GPa)
#
#
# Indices 1 2 3 4 5 6 
#
# 1 30.4136 -2.0149 27.8431 -4.7146 -1.5291 -3.3927
# 2 -2.0149 110.5998 24.2947 -18.3267 -9.3067 1.1843
# 3 27.8431 24.2947 127.3634 -13.4009 -3.2308 1.9526
# 4 -4.7146 -18.3267 -13.4009 38.3557 -7.4922 6.0555
# 5 -1.5291 -9.3067 -3.2308 -7.4922 34.4553 -7.8931
# 6 -3.3927 1.1843 1.9526 6.0555 -7.8931 22.5195
#
#
#
# Elastic Compliance Matrix: (Units=1/GPa)
#
#
# Indices 1 2 3 4 5 6 
#
# 1 0.043930 0.003861 -0.009988 0.003397 0.004625 0.007989
# 2 0.003861 0.010894 -0.002218 0.005699 0.004175 0.000132
# 3 -0.009988 -0.002218 0.010690 0.001848 -0.000307 -0.002919
# 4 0.003397 0.005699 0.001848 0.032271 0.007508 -0.005994
# 5 0.004625 0.004175 -0.000307 0.007508 0.034373 0.010533
# 6 0.007989 0.000132 -0.002919 -0.005994 0.010533 0.051159
#
#
# Mechanical properties :
#
#
# Convention : Reuss Voigt Hill
#
# Bulk Modulus (GPa) = 20.48257 40.95805 30.72031
# Shear Modulus (GPa) = 23.11815 33.61636 28.36726
#
# Velocity S-wave (km/s) = 3.01416 3.63467 3.33886
# Velocity P-wave (km/s) = 4.49032 5.80607 5.19006
#
# Compressibility (1/GPa) = 0.04882199
#
# Stress axis : x y z
#
# Youngs Moduli (GPa) = 22.76369 91.79741 93.54927
#
# Poissons Ratio (x) = -0.35440 0.93434
# Poissons Ratio (y) = -0.08788 0.20753
# Poissons Ratio (z) = 0.22736 0.20364
#
# Static dielectric constant tensor:
#      x y z
#    x 2.110740 0.366090 -0.029500 
#    y 0.366090 0.500210 0.277010 
#    z -0.029500 0.277010 1.986790 
# 
# From -- ./inp_files/116352.got.cif
#   From: 2010.05.17/outbox.cif.g08.bks.cpg/sg2_59_cif.got.tgz:116352.got - 2010.06.03 11:33:40.
