data_PCOD9095777
_publ_section_title
;
Structure prediction by ZEFSAII (Michael W. Deem and Ramdas Pophale) SiO2 
 PCOD9095777
Probable space group: P -1
;
_chemical_formula_sum "Si O2"
_cell_formula_units_Z 16
_cell_length_a 24.551861
_cell_length_b 5.313865
_cell_length_c 8.484459
_cell_angle_alpha 59.584854
_cell_angle_beta 47.186016
_cell_angle_gamma 49.617615
_cell_volume 614.209909
_symmetry_space_group_name_H-M "P -1"
_symmetry_group_IT_number 2
_symmetry_cell_setting 'triclinic'
loop_
_space_group_symop_operation_xyz
x,y,z
-x,-y,-z
loop_
_atom_site_type_symbol
_atom_site_label
_atom_site_fract_x
_atom_site_fract_y
_atom_site_fract_z
Si Si1 0.576520 0.042393 0.406426
Si Si2 0.151707 0.472877 0.947786
Si Si3 0.724079 0.297524 0.301447
Si Si4 0.708757 0.192157 0.991295
Si Si5 0.966016 0.769788 0.344538
Si Si6 0.356156 0.775838 0.221792
Si Si7 0.914963 0.519049 0.238987
Si Si8 0.507701 0.044417 0.150263
O O1 0.659247 0.684586 0.351977
O O2 0.536693 0.154602 0.619752
O O3 0.500000 0.000000 0.500000
O O4 0.612762 0.255224 0.185349
O O5 0.188246 0.724616 0.812485
O O6 0.156473 0.339638 0.802362
O O7 0.206553 0.169708 0.053804
O O8 0.053493 0.681309 0.112138
O O9 0.718792 0.294393 0.121616
O O10 0.694301 0.111850 0.548336
O O11 0.698241 0.275306 0.796412
O O12 0.000000 0.500000 0.500000
O O13 0.908253 0.688833 0.366361
O O14 0.927759 0.147105 0.357481
O O15 0.439782 0.425983 0.203329
O O16 0.396301 0.009403 0.006203
O O17 0.000000 0.500000 0.000000
O O18 0.500000 0.000000 0.000000
#
# Coordination Sequence:
#
# PCOD9095777 Si02
#       8
#     2   2   2   2   2   2   2   2
#     4  10  20  37  55  85 119 157 223 273 332 411
#     4  10  24  42  62  95 133 175 221 274 349 428
#     4  10  24  40  58  87 130 169 214 276 349 411
#     4  11  23  39  62  89 128 172 220 277 346 414
#     4  11  24  44  75 112 141 181 244 293 348 428
#     4  10  22  39  55  91 115 162 225 273 334 422
#     4  10  22  43  74 102 142 187 230 286 353 422
#     4  10  20  35  60  80 118 156 214 284 343 396
#
# _framework density 26.049724999999999
#
# number of rings (size 3 to 8) (size 9 to 14) (size 15 to 20)
#    0.000    1.750    1.250    2.625    7.000    1.500 
#    2.250    0.000    0.000    0.000    0.000    0.000 
#    0.000    0.000    0.000    0.000    0.000    0.000 
#
# Total GULP energy -89131.123523 kJ/mol
# GULP energy per Si atom -5570.695220 kJ/mol
# Density = 2.599043 g / cm^3
# Si number density = 26.049725 Si / 1000 Ang^3
#
#
#
# Elastic Constant Matrix: (Units=GPa)
#
#
# Indices 1 2 3 4 5 6 
#
# 1 198.3424 20.4818 35.5658 -7.7215 17.2495 9.8825
# 2 20.4818 72.2448 -1.4756 -13.0017 10.4062 -7.0062
# 3 35.5658 -1.4756 59.4101 1.2157 12.5028 11.0909
# 4 -7.7215 -13.0017 1.2157 32.8138 -3.8153 8.8930
# 5 17.2495 10.4062 12.5028 -3.8153 37.2600 -3.7134
# 6 9.8825 -7.0062 11.0909 8.8930 -3.7134 46.5328
#
#
#
# Elastic Compliance Matrix: (Units=1/GPa)
#
#
# Indices 1 2 3 4 5 6 
#
# 1 0.005967 -0.001481 -0.003167 0.001068 -0.001281 -0.001042
# 2 -0.001481 0.015859 0.001769 0.005168 -0.003709 0.000997
# 3 -0.003167 0.001769 0.021005 -0.000360 -0.006564 -0.004522
# 4 0.001068 0.005168 -0.000360 0.034509 0.001132 -0.005868
# 5 -0.001281 -0.003709 -0.006564 0.001132 0.031139 0.003547
# 6 -0.001042 0.000997 -0.004522 -0.005868 0.003547 0.024344
#
#
# Mechanical properties :
#
#
# Convention : Reuss Voigt Hill
#
# Bulk Modulus (GPa) = 26.97337 48.79349 37.88343
# Shear Modulus (GPa) = 33.12591 41.68299 37.40445
#
# Velocity S-wave (km/s) = 3.56988 4.00450 3.79342
# Velocity P-wave (km/s) = 5.23155 6.33664 5.81042
#
# Compressibility (1/GPa) = 0.03707360
#
# Stress axis : x y z
#
# Youngs Moduli (GPa) = 167.57470 63.05660 47.60765
#
# Poissons Ratio (x) = 0.09337 0.15077
# Poissons Ratio (y) = 0.24814 -0.08422
# Poissons Ratio (z) = 0.53071 -0.11155
#
# Static dielectric constant tensor:
#      x y z
#    x 2.112230 0.085430 0.003430 
#    y 0.085430 2.179250 0.060700 
#    z 0.003430 0.060700 2.203510 
# 
# From -- ./inp_files/137685.got.cif
#   From: 2010.05.17/outbox.cif.g08.bks.cpg/sg2_69_cif.got.tgz:137685.got - 2010.06.03 11:33:40.
