data_PCOD9095568
_publ_section_title
;
Structure prediction by ZEFSAII (Michael W. Deem and Ramdas Pophale) SiO2 
 PCOD9095568
Probable space group: P -1
;
_chemical_formula_sum "Si O2"
_cell_formula_units_Z 14
_cell_length_a 12.859019
_cell_length_b 9.419032
_cell_length_c 8.890250
_cell_angle_alpha 112.260553
_cell_angle_beta 130.871333
_cell_angle_gamma 59.517186
_cell_volume 699.881476
_symmetry_space_group_name_H-M "P -1"
_symmetry_group_IT_number 2
_symmetry_cell_setting 'triclinic'
loop_
_space_group_symop_operation_xyz
x,y,z
-x,-y,-z
loop_
_atom_site_type_symbol
_atom_site_label
_atom_site_fract_x
_atom_site_fract_y
_atom_site_fract_z
Si Si1 0.353122 0.484231 0.787794
Si Si2 0.195154 0.266434 0.157178
Si Si3 0.485106 0.108651 0.177288
Si Si4 0.909243 0.339999 0.754242
Si Si5 0.972155 0.335869 0.459471
Si Si6 0.727079 0.829083 0.462312
Si Si7 0.605314 0.383900 0.429799
O O1 0.195871 0.629480 0.740498
O O2 0.328072 0.312740 0.715346
O O3 0.370217 0.505068 0.634799
O O4 0.500000 0.500000 0.000000
O O5 0.323269 0.174889 0.123568
O O6 0.156191 0.463902 0.191602
O O7 0.245601 0.204515 0.348121
O O8 0.042959 0.249077 0.955681
O O9 0.530730 0.263288 0.246177
O O10 0.600745 0.000121 0.367519
O O11 0.500000 0.000000 0.000000
O O12 0.968370 0.323468 0.631717
O O13 0.769526 0.285316 0.608487
O O14 0.000000 0.500000 0.500000
O O15 0.114578 0.192502 0.469810
O O16 0.500000 0.500000 0.500000
#
# Coordination Sequence:
#
# PCOD9095568 Si02
#       7
#     2   2   2   2   2   2   2
#     4  10  20  35  58  88 120 156 204 248 293 355
#     4  11  21  38  62  89 117 161 204 251 297 362
#     4  12  25  40  61  92 129 163 196 247 319 365
#     4  10  20  37  63  90 116 153 212 253 292 350
#     4   9  17  35  57  85 118 151 205 243 296 356
#     4  11  21  40  60  90 122 161 201 250 306 362
#     4  11  21  41  60  90 120 159 206 250 294 356
#
# _framework density 20.003388999999999
#
# number of rings (size 3 to 8) (size 9 to 14) (size 15 to 20)
#    0.000    1.429    5.714    2.143    0.000    2.286 
#    0.000    8.571    0.000    0.000    0.000    0.000 
#    0.000    0.000    0.000    0.000    0.000    0.000 
#
# Total GULP energy -78126.828476 kJ/mol
# GULP energy per Si atom -5580.487748 kJ/mol
# Density = 1.995786 g / cm^3
# Si number density = 20.003389 Si / 1000 Ang^3
#
#
#
# Elastic Constant Matrix: (Units=GPa)
#
#
# Indices 1 2 3 4 5 6 
#
# 1 120.9559 27.2211 44.5304 2.5966 14.8367 -32.8048
# 2 27.2211 39.0300 7.1643 -4.8017 -5.0148 -11.5680
# 3 44.5304 7.1643 122.7612 -7.1482 18.3071 -14.2606
# 4 2.5966 -4.8017 -7.1482 35.1359 -4.4292 0.9272
# 5 14.8367 -5.0148 18.3071 -4.4292 30.8704 -2.5083
# 6 -32.8048 -11.5680 -14.2606 0.9272 -2.5083 28.6760
#
#
#
# Elastic Compliance Matrix: (Units=1/GPa)
#
#
# Indices 1 2 3 4 5 6 
#
# 1 0.015383 -0.007783 -0.002932 -0.003943 -0.006464 0.012562
# 2 -0.007783 0.034985 0.000275 0.006601 0.010701 0.006069
# 3 -0.002932 0.000275 0.010072 0.001743 -0.004159 0.001345
# 4 -0.003943 0.006601 0.001743 0.030834 0.006241 -0.001432
# 5 -0.006464 0.010701 -0.004159 0.006241 0.040453 -0.001809
# 6 0.012562 0.006069 0.001345 -0.001432 -0.001809 0.052248
#
#
# Mechanical properties :
#
#
# Convention : Reuss Voigt Hill
#
# Bulk Modulus (GPa) = 25.27868 48.95319 37.11593
# Shear Modulus (GPa) = 22.93145 32.52521 27.72833
#
# Velocity S-wave (km/s) = 3.38949 4.03672 3.72719
# Velocity P-wave (km/s) = 5.28988 6.80091 6.09243
#
# Compressibility (1/GPa) = 0.03955903
#
# Stress axis : x y z
#
# Youngs Moduli (GPa) = 65.00656 28.58396 99.28995
#
# Poissons Ratio (x) = 0.22247 0.29114
# Poissons Ratio (y) = 0.50594 -0.02731
# Poissons Ratio (z) = 0.19061 -0.00786
#
# Static dielectric constant tensor:
#      x y z
#    x 1.704060 0.002170 0.023280 
#    y 0.002170 1.733480 -0.011810 
#    z 0.023280 -0.011810 1.775080 
# 
# From -- ./inp_files/174914.got.cif
#   From: 2010.05.17/outbox.cif.g08.bks.cpg/sg2_88_cif.got.tgz:174914.got - 2010.06.03 11:33:40.
