data_PCOD9095707
_publ_section_title
;
Structure prediction by ZEFSAII (Michael W. Deem and Ramdas Pophale) SiO2 
 PCOD9095707
Probable space group: P -1
;
_chemical_formula_sum "Si O2"
_cell_formula_units_Z 16
_cell_length_a 9.326099
_cell_length_b 8.616754
_cell_length_c 11.435144
_cell_angle_alpha 94.474217
_cell_angle_beta 49.391578
_cell_angle_gamma 85.698319
_cell_volume 685.835896
_symmetry_space_group_name_H-M "P -1"
_symmetry_group_IT_number 2
_symmetry_cell_setting 'triclinic'
loop_
_space_group_symop_operation_xyz
x,y,z
-x,-y,-z
loop_
_atom_site_type_symbol
_atom_site_label
_atom_site_fract_x
_atom_site_fract_y
_atom_site_fract_z
Si Si1 0.474256 0.321894 0.345980
Si Si2 0.554212 0.641662 0.365364
Si Si3 0.773480 0.236129 0.747179
Si Si4 0.362534 0.026850 0.691777
Si Si5 0.409770 0.125981 0.959042
Si Si6 0.942036 0.005179 0.835309
Si Si7 0.099259 0.726523 0.561681
Si Si8 0.253450 0.407718 0.228561
O O1 0.607062 0.461824 0.278551
O O2 0.395020 0.352364 0.523075
O O3 0.338889 0.353147 0.307041
O O4 0.560220 0.135619 0.288313
O O5 0.631695 0.788060 0.272716
O O6 0.321593 0.679883 0.475681
O O7 0.854314 0.162085 0.821054
O O8 0.917998 0.225583 0.562001
O O9 0.702235 0.420694 0.809682
O O10 0.600045 0.150089 0.791832
O O11 0.140394 0.020742 0.788633
O O12 0.500000 0.000000 0.500000
O O13 0.338049 0.286479 0.076640
O O14 0.223202 0.060816 0.008002
O O15 0.500000 0.000000 0.000000
O O16 0.001452 0.874776 0.696015
O O17 0.974273 0.591419 0.645445
#
# Coordination Sequence:
#
# PCOD9095707 Si02
#       8
#     2   2   2   2   2   2   2   2
#     4  10  21  37  58  89 132 160 198 259 310 375
#     4  10  21  36  56  90 134 165 196 249 327 365
#     4  11  22  36  63  89 128 157 204 257 316 366
#     4  10  20  35  59  88 124 167 201 244 319 367
#     4   9  22  43  60  86 122 168 204 260 311 370
#     4  10  21  39  59  92 122 161 211 253 306 370
#     4  11  21  36  58 100 122 155 209 261 307 369
#     4  11  23  37  64  97 122 156 212 261 317 362
#
# _framework density 23.329197000000001
#
# number of rings (size 3 to 8) (size 9 to 14) (size 15 to 20)
#    0.000    1.750    3.750    1.125    3.500    4.000 
#    0.000    0.000    0.000    7.500    0.000    0.000 
#    0.000    0.000    0.000    0.000    0.000    0.000 
#
# Total GULP energy -89294.648501 kJ/mol
# GULP energy per Si atom -5580.915531 kJ/mol
# Density = 2.327610 g / cm^3
# Si number density = 23.329197 Si / 1000 Ang^3
#
#
#
# Elastic Constant Matrix: (Units=GPa)
#
#
# Indices 1 2 3 4 5 6 
#
# 1 103.1486 30.9133 11.0693 -15.5630 -11.5025 -11.4531
# 2 30.9133 176.5744 24.7341 -24.1053 -8.2442 -8.8333
# 3 11.0693 24.7341 48.9833 -6.3549 -15.8698 5.8826
# 4 -15.5630 -24.1053 -6.3549 33.3092 15.7566 0.6284
# 5 -11.5025 -8.2442 -15.8698 15.7566 39.4279 -5.5071
# 6 -11.4531 -8.8333 5.8826 0.6284 -5.5071 37.0042
#
#
#
# Elastic Compliance Matrix: (Units=1/GPa)
#
#
# Indices 1 2 3 4 5 6 
#
# 1 0.011266 -0.001042 -0.001493 0.003387 0.001625 0.003660
# 2 -0.001042 0.006972 -0.003477 0.004787 -0.001946 0.001524
# 3 -0.001493 -0.003477 0.025784 -0.002866 0.009819 -0.003881
# 4 0.003387 0.004787 -0.002866 0.042130 -0.016065 -0.000460
# 5 0.001625 -0.001946 0.009819 -0.016065 0.036384 0.004165
# 6 0.003660 0.001524 -0.003881 -0.000460 0.004165 0.029765
#
#
# Mechanical properties :
#
#
# Convention : Reuss Voigt Hill
#
# Bulk Modulus (GPa) = 31.25353 51.34886 41.30120
# Shear Modulus (GPa) = 28.57295 39.41425 33.99360
#
# Velocity S-wave (km/s) = 3.50347 4.11479 3.82137
# Velocity P-wave (km/s) = 5.45817 6.68084 6.10021
#
# Compressibility (1/GPa) = 0.03199639
#
# Stress axis : x y z
#
# Youngs Moduli (GPa) = 88.76345 143.43751 38.78409
#
# Poissons Ratio (x) = 0.14943 0.05792
# Poissons Ratio (y) = 0.09247 0.13487
# Poissons Ratio (z) = 0.13255 0.49878
#
# Static dielectric constant tensor:
#      x y z
#    x 1.933100 0.022150 0.064030 
#    y 0.022150 1.893250 -0.003340 
#    z 0.064030 -0.003340 1.932190 
# 
# From -- ./inp_files/224386.got.cif
#   From: 2010.05.17/outbox.cif.g08.bks.cpg/sg2_113_cif.got.tgz:224386.got - 2010.06.03 11:33:40.
