data_PCOD9095884
_publ_section_title
;
Structure prediction by ZEFSAII (Michael W. Deem and Ramdas Pophale) SiO2 
 PCOD9095884
Probable space group: P -1
;
_chemical_formula_sum "Si O2"
_cell_formula_units_Z 12
_cell_length_a 5.575099
_cell_length_b 8.317391
_cell_length_c 10.956798
_cell_angle_alpha 112.360737
_cell_angle_beta 86.312706
_cell_angle_gamma 84.940050
_cell_volume 465.386738
_symmetry_space_group_name_H-M "P -1"
_symmetry_group_IT_number 2
_symmetry_cell_setting 'triclinic'
loop_
_space_group_symop_operation_xyz
x,y,z
-x,-y,-z
loop_
_atom_site_type_symbol
_atom_site_label
_atom_site_fract_x
_atom_site_fract_y
_atom_site_fract_z
Si Si1 0.773650 0.315639 0.927762
Si Si2 0.830608 0.852977 0.444989
Si Si3 0.414453 0.360608 0.142092
Si Si4 0.429730 0.870240 0.635032
Si Si5 0.177889 0.570845 0.419751
Si Si6 0.694197 0.875732 0.106404
O O1 0.730637 0.494297 0.903583
O O2 0.552298 0.204644 0.865129
O O3 0.040376 0.211066 0.883121
O O4 0.689059 0.357510 0.083188
O O5 0.704561 0.831596 0.572820
O O6 0.997426 0.676598 0.358536
O O7 0.648813 0.940848 0.375829
O O8 0.000000 0.000000 0.500000
O O9 0.359345 0.431802 0.299560
O O10 0.316045 0.179469 0.052006
O O11 0.310944 0.714924 0.528676
O O12 0.346002 0.923483 0.788909
O O13 0.000000 0.500000 0.500000
#
# Coordination Sequence:
#
# PCOD9095884 Si02
#       6
#     2   2   2   2   2   2
#     4   9  20  33  63  92 124 153 207 268 325 364
#     4   9  21  36  62  90 123 159 213 265 316 369
#     4   9  21  33  57  87 126 162 205 256 318 376
#     4  10  22  36  64  91 121 162 214 268 314 369
#     4  11  24  41  59  90 132 172 206 252 316 387
#     4  10  20  35  60  92 119 154 204 267 321 367
#
# _framework density 25.785008000000001
#
# number of rings (size 3 to 8) (size 9 to 14) (size 15 to 20)
#    1.000    1.333    0.000    1.500   11.667    2.000 
#    0.000    0.833    0.000    2.000    0.000    0.000 
#    0.000    0.000    0.000    0.000    0.000    0.000 
#
# Total GULP energy -66936.392059 kJ/mol
# GULP energy per Si atom -5578.032672 kJ/mol
# Density = 2.572632 g / cm^3
# Si number density = 25.785008 Si / 1000 Ang^3
#
#
#
# Elastic Constant Matrix: (Units=GPa)
#
#
# Indices 1 2 3 4 5 6 
#
# 1 138.0914 29.7030 60.0059 11.0791 -24.0203 5.2694
# 2 29.7030 64.9917 52.4850 0.2704 -6.4774 10.1454
# 3 60.0059 52.4850 223.2134 30.3368 -16.1287 17.0766
# 4 11.0791 0.2704 30.3368 41.4044 -7.6301 -1.8454
# 5 -24.0203 -6.4774 -16.1287 -7.6301 41.6776 -0.2456
# 6 5.2694 10.1454 17.0766 -1.8454 -0.2456 39.9401
#
#
#
# Elastic Compliance Matrix: (Units=1/GPa)
#
#
# Indices 1 2 3 4 5 6 
#
# 1 0.009229 -0.002602 -0.001491 -0.000576 0.004232 0.000080
# 2 -0.002602 0.020622 -0.004397 0.003782 0.000679 -0.002836
# 3 -0.001491 -0.004397 0.006675 -0.004503 0.000206 -0.001747
# 4 -0.000576 0.003782 -0.004503 0.028373 0.003721 0.002375
# 5 0.004232 0.000679 0.000206 0.003721 0.027297 -0.000479
# 6 0.000080 -0.002836 -0.001747 0.002375 -0.000479 0.026601
#
#
# Mechanical properties :
#
#
# Convention : Reuss Voigt Hill
#
# Bulk Modulus (GPa) = 51.16447 78.96492 65.06469
# Shear Modulus (GPa) = 35.13917 43.54459 39.34188
#
# Velocity S-wave (km/s) = 3.69558 4.11391 3.91034
# Velocity P-wave (km/s) = 6.17216 7.29770 6.75840
#
# Compressibility (1/GPa) = 0.01954481
#
# Stress axis : x y z
#
# Youngs Moduli (GPa) = 108.35957 48.49301 149.80360
#
# Poissons Ratio (x) = 0.12617 0.22337
# Poissons Ratio (y) = 0.28194 0.65874
# Poissons Ratio (z) = 0.16157 0.21324
#
# Static dielectric constant tensor:
#      x y z
#    x 1.940950 -0.111910 -0.047490 
#    y -0.111910 2.074910 -0.069450 
#    z -0.047490 -0.069450 2.072340 
# 
# From -- ./inp_files/479343.got.cif
#   From: 2010.05.17/outbox.cif.g08.bks.cpg/sg2_240_cif.got.tgz:479343.got - 2010.06.03 11:33:40.
