data_PCOD9095222
_publ_section_title
;
Structure prediction by ZEFSAII (Michael W. Deem and Ramdas Pophale) SiO2 
 PCOD9095222
Probable space group: P -1
;
_chemical_formula_sum "Si O2"
_cell_formula_units_Z 12
_cell_length_a 7.965916
_cell_length_b 12.608191
_cell_length_c 6.020509
_cell_angle_alpha 68.161175
_cell_angle_beta 55.944377
_cell_angle_gamma 84.637562
_cell_volume 459.800858
_symmetry_space_group_name_H-M "P -1"
_symmetry_group_IT_number 2
_symmetry_cell_setting 'triclinic'
loop_
_space_group_symop_operation_xyz
x,y,z
-x,-y,-z
loop_
_atom_site_type_symbol
_atom_site_label
_atom_site_fract_x
_atom_site_fract_y
_atom_site_fract_z
Si Si1 0.242278 0.489954 0.329127
Si Si2 0.735199 0.771948 0.869938
Si Si3 0.334362 0.073323 0.820913
Si Si4 0.064579 0.234107 0.673255
Si Si5 0.635238 0.179773 0.176956
Si Si6 0.760871 0.516765 0.171029
O O1 0.223842 0.351327 0.468509
O O2 0.318554 0.534682 0.486611
O O3 0.000000 0.500000 0.500000
O O4 0.321004 0.522416 0.990261
O O5 0.712252 0.886414 0.933336
O O6 0.744314 0.653394 0.083089
O O7 0.947457 0.789432 0.561843
O O8 0.530952 0.761943 0.879034
O O9 0.157989 0.124881 0.777557
O O10 0.544663 0.145662 0.512599
O O11 0.340812 0.941427 0.866478
O O12 0.859415 0.250228 0.937521
O O13 0.000000 0.500000 0.000000
#
# Coordination Sequence:
#
# PCOD9095222 Si02
#       6
#     2   2   2   2   2   2
#     4   9  17  32  57  84 109 149 194 236 291 349
#     4  10  20  35  56  80 114 151 193 240 296 345
#     4  10  20  37  55  79 116 155 189 240 296 348
#     4  10  20  35  56  83 112 150 198 239 291 350
#     4  10  22  35  54  84 116 149 194 245 288 349
#     4   9  17  32  58  84 108 151 196 235 292 353
#
# _framework density 26.098255000000002
#
# number of rings (size 3 to 8) (size 9 to 14) (size 15 to 20)
#    0.000    2.333    1.667    1.000    0.000    2.000 
#    0.000    0.000    0.000   25.000    0.000    0.000 
#    0.000    0.000    0.000    0.000    0.000    0.000 
#
# Total GULP energy -66953.332507 kJ/mol
# GULP energy per Si atom -5579.444376 kJ/mol
# Density = 2.603885 g / cm^3
# Si number density = 26.098255 Si / 1000 Ang^3
#
#
#
# Elastic Constant Matrix: (Units=GPa)
#
#
# Indices 1 2 3 4 5 6 
#
# 1 77.4340 22.3119 34.7430 -9.5878 21.8700 -12.5989
# 2 22.3119 106.6929 0.4700 11.9377 -2.9975 -27.8367
# 3 34.7430 0.4700 130.1123 19.2025 7.1562 21.3899
# 4 -9.5878 11.9377 19.2025 42.5012 6.7153 6.7816
# 5 21.8700 -2.9975 7.1562 6.7153 45.8005 4.4659
# 6 -12.5989 -27.8367 21.3899 6.7816 4.4659 40.2446
#
#
#
# Elastic Compliance Matrix: (Units=1/GPa)
#
#
# Indices 1 2 3 4 5 6 
#
# 1 0.025054 -0.004513 -0.009163 0.011729 -0.013435 0.009106
# 2 -0.004513 0.013329 0.000637 -0.006865 0.003127 0.008278
# 3 -0.009163 0.000637 0.012305 -0.007178 0.004350 -0.008241
# 4 0.011729 -0.006865 -0.007178 0.033149 -0.009615 -0.001780
# 5 -0.013435 0.003127 0.004350 -0.009615 0.029773 -0.006039
# 6 0.009106 0.008278 -0.008241 -0.001780 -0.006039 0.038775
#
#
# Mechanical properties :
#
#
# Convention : Reuss Voigt Hill
#
# Bulk Modulus (GPa) = 40.63193 47.69878 44.16535
# Shear Modulus (GPa) = 26.78574 42.82354 34.80464
#
# Velocity S-wave (km/s) = 3.20713 4.05515 3.65581
# Velocity P-wave (km/s) = 5.41451 6.34365 5.89741
#
# Compressibility (1/GPa) = 0.02461119
#
# Stress axis : x y z
#
# Youngs Moduli (GPa) = 39.91345 75.02216 81.26806
#
# Poissons Ratio (x) = 0.33857 0.74465
# Poissons Ratio (y) = 0.18013 -0.05178
# Poissons Ratio (z) = 0.36572 -0.04780
#
# Static dielectric constant tensor:
#      x y z
#    x 2.145620 0.070580 0.076790 
#    y 0.070580 2.036350 0.080600 
#    z 0.076790 0.080600 2.166690 
# 
# From -- ./inp_files/3475.got.cif
#   From: 2010.05.17/outbox.cif.g08.bks.cpg/sg2_2_cif.got.tgz:3475.got - 2010.06.03 11:33:40.
