data_PCOD9095506
_publ_section_title
;
Structure prediction by ZEFSAII (Michael W. Deem and Ramdas Pophale) SiO2 
 PCOD9095506
Probable space group: P -1
;
_chemical_formula_sum "Si O2"
_cell_formula_units_Z 16
_cell_length_a 9.667624
_cell_length_b 16.279411
_cell_length_c 12.691183
_cell_angle_alpha 30.226533
_cell_angle_beta 130.605159
_cell_angle_gamma 122.450871
_cell_volume 761.665832
_symmetry_space_group_name_H-M "P -1"
_symmetry_group_IT_number 2
_symmetry_cell_setting 'triclinic'
loop_
_space_group_symop_operation_xyz
x,y,z
-x,-y,-z
loop_
_atom_site_type_symbol
_atom_site_label
_atom_site_fract_x
_atom_site_fract_y
_atom_site_fract_z
Si Si1 0.549814 0.178155 0.133993
Si Si2 0.936115 0.995778 0.257175
Si Si3 0.323649 0.977870 0.361142
Si Si4 0.680429 0.317633 0.827611
Si Si5 0.204526 0.128977 0.470366
Si Si6 0.653269 0.367169 0.184743
Si Si7 0.607940 0.824844 0.277714
Si Si8 0.981149 0.548241 0.060963
O O1 0.581120 0.264922 0.943595
O O2 0.596522 0.294599 0.123965
O O3 0.689211 0.018225 0.373397
O O4 0.846690 0.438989 0.178432
O O5 0.944638 0.929999 0.454866
O O6 0.809178 0.860410 0.292930
O O7 0.816387 0.166973 0.018092
O O8 0.128458 0.012602 0.280423
O O9 0.357443 0.101814 0.146129
O O10 0.500000 0.000000 0.500000
O O11 0.334443 0.784359 0.560319
O O12 0.823261 0.446800 0.791330
O O13 0.512308 0.320015 0.659964
O O14 0.352301 0.189723 0.561520
O O15 0.118673 0.270083 0.197846
O O16 0.500000 0.500000 0.000000
O O17 0.500000 0.000000 0.000000
O O18 0.000000 0.500000 0.000000
#
# Coordination Sequence:
#
# PCOD9095506 Si02
#       8
#     2   2   2   2   2   2   2   2
#     4  10  20  35  58  84 111 147 206 235 287 333
#     4   8  18  33  59  80 113 146 192 231 289 333
#     4  10  21  34  54  83 115 153 194 237 290 347
#     4  10  20  35  61  88 120 143 192 245 287 345
#     4   9  20  35  64  83 115 150 194 245 289 336
#     4  11  24  37  50  78 133 155 184 232 308 351
#     4   8  16  37  59  86 119 147 191 246 294 334
#     4  12  23  35  57  93 120 149 192 243 293 348
#
# _framework density 21.006589000000002
#
# number of rings (size 3 to 8) (size 9 to 14) (size 15 to 20)
#    0.750    1.500    2.500    1.500    8.750    1.000 
#    0.000    1.250    0.000    0.000    0.000    2.625 
#    0.000    0.000    0.000    0.000    0.000    0.000 
#
# Total GULP energy -89156.586047 kJ/mol
# GULP energy per Si atom -5572.286628 kJ/mol
# Density = 2.095878 g / cm^3
# Si number density = 21.006589 Si / 1000 Ang^3
#
#
#
# Elastic Constant Matrix: (Units=GPa)
#
#
# Indices 1 2 3 4 5 6 
#
# 1 156.3719 75.5889 25.1544 -5.7601 0.3370 35.1132
# 2 75.5889 135.0283 23.4865 7.3266 21.3133 18.6085
# 3 25.1544 23.4865 48.1488 3.3607 7.6879 7.0864
# 4 -5.7601 7.3266 3.3607 28.3260 9.5715 3.1604
# 5 0.3370 21.3133 7.6879 9.5715 19.3857 -7.8757
# 6 35.1132 18.6085 7.0864 3.1604 -7.8757 44.4417
#
#
#
# Elastic Compliance Matrix: (Units=1/GPa)
#
#
# Indices 1 2 3 4 5 6 
#
# 1 0.010895 -0.005483 -0.002918 0.003606 0.002949 -0.005580
# 2 -0.005483 0.013936 -0.000515 0.001913 -0.017886 -0.004727
# 3 -0.002918 -0.000515 0.024741 0.000670 -0.010909 -0.003405
# 4 0.003606 0.001913 0.000670 0.047313 -0.030910 -0.012599
# 5 0.002949 -0.017886 -0.010909 -0.030910 0.101811 0.027140
# 6 -0.005580 -0.004727 -0.003405 -0.012599 0.027140 0.035138
#
#
# Mechanical properties :
#
#
# Convention : Reuss Voigt Hill
#
# Bulk Modulus (GPa) = 31.50787 65.33429 48.42108
# Shear Modulus (GPa) = 19.06611 32.78530 25.92570
#
# Velocity S-wave (km/s) = 3.01595 3.95487 3.51689
# Velocity P-wave (km/s) = 5.21148 7.21277 6.29220
#
# Compressibility (1/GPa) = 0.03173810
#
# Stress axis : x y z
#
# Youngs Moduli (GPa) = 91.78909 71.75759 40.41905
#
# Poissons Ratio (x) = 0.39346 0.11795
# Poissons Ratio (y) = 0.50330 0.02082
# Poissons Ratio (z) = 0.26786 0.03696
#
# Static dielectric constant tensor:
#      x y z
#    x 1.781620 0.007690 -0.023490 
#    y 0.007690 1.896160 -0.008090 
#    z -0.023490 -0.008090 1.836340 
# 
# From -- ./inp_files/501765.got.cif
#   From: 2010.05.17/outbox.cif.g08.bks.cpg/sg2_251_cif.got.tgz:501765.got - 2010.06.03 11:33:40.
