data_PCOD9095920
_publ_section_title
;
Structure prediction by ZEFSAII (Michael W. Deem and Ramdas Pophale) SiO2 
 PCOD9095920
Probable space group: P -1
;
_chemical_formula_sum "Si O2"
_cell_formula_units_Z 16
_cell_length_a 11.439311
_cell_length_b 11.145780
_cell_length_c 6.708612
_cell_angle_alpha 108.503995
_cell_angle_beta 79.833127
_cell_angle_gamma 118.246737
_cell_volume 714.182542
_symmetry_space_group_name_H-M "P -1"
_symmetry_group_IT_number 2
_symmetry_cell_setting 'triclinic'
loop_
_space_group_symop_operation_xyz
x,y,z
-x,-y,-z
loop_
_atom_site_type_symbol
_atom_site_label
_atom_site_fract_x
_atom_site_fract_y
_atom_site_fract_z
Si Si1 0.675714 0.775493 0.511759
Si Si2 0.856809 0.994201 0.275525
Si Si3 0.167287 0.344535 0.360613
Si Si4 0.550378 0.432894 0.775241
Si Si5 0.526272 0.935880 0.760733
Si Si6 0.344821 0.783244 0.385871
Si Si7 0.028094 0.837442 0.025633
Si Si8 0.936785 0.280490 0.646557
O O1 0.793714 0.759631 0.575774
O O2 0.563334 0.627398 0.389631
O O3 0.610330 0.848112 0.712230
O O4 0.728711 0.871613 0.348741
O O5 0.902983 0.128435 0.476398
O O6 0.850380 0.055289 0.091202
O O7 0.962471 0.930756 0.191942
O O8 0.308169 0.461454 0.303938
O O9 0.078965 0.266376 0.155133
O O10 0.075706 0.384729 0.557123
O O11 0.576408 0.300408 0.763773
O O12 0.500000 0.500000 0.000000
O O13 0.395325 0.831737 0.621380
O O14 0.611021 0.071129 0.668628
O O15 0.500000 0.000000 0.000000
O O16 0.187674 0.692064 0.358656
O O17 0.056190 0.746637 0.136018
#
# Coordination Sequence:
#
# PCOD9095920 Si02
#       8
#     2   2   2   2   2   2   2   2
#     4  11  22  43  70 101 136 172 223 289 334 400
#     4  10  20  35  61 100 136 166 213 271 342 401
#     4  11  25  41  67  98 131 182 228 274 329 393
#     4  11  26  47  70  93 134 183 237 278 323 400
#     4  10  23  42  69 101 137 174 221 279 351 399
#     4  10  24  45  65 101 136 176 223 281 333 405
#     4  10  22  35  62  98 137 178 212 267 337 409
#     4  11  22  41  64  97 141 169 220 278 340 404
#
# _framework density 22.403234999999999
#
# number of rings (size 3 to 8) (size 9 to 14) (size 15 to 20)
#    0.000    1.500    2.500    1.500    5.250    3.500 
#    0.000    0.625    0.000    0.000    0.000    0.000 
#    0.000    0.000    0.000    0.000    0.000    0.000 
#
# Total GULP energy -89437.301231 kJ/mol
# GULP energy per Si atom -5589.831327 kJ/mol
# Density = 2.235224 g / cm^3
# Si number density = 22.403235 Si / 1000 Ang^3
#
#
#
# Elastic Constant Matrix: (Units=GPa)
#
#
# Indices 1 2 3 4 5 6 
#
# 1 132.4536 15.4850 61.2254 0.1514 1.4296 7.5891
# 2 15.4850 62.1408 25.3493 -5.7909 -2.4008 24.8044
# 3 61.2254 25.3493 111.0181 3.6113 -2.2922 5.8793
# 4 0.1514 -5.7909 3.6113 28.8603 0.2981 -12.1232
# 5 1.4296 -2.4008 -2.2922 0.2981 25.3311 1.6544
# 6 7.5891 24.8044 5.8793 -12.1232 1.6544 37.8282
#
#
#
# Elastic Compliance Matrix: (Units=1/GPa)
#
#
# Indices 1 2 3 4 5 6 
#
# 1 0.010214 0.000221 -0.005646 0.000200 -0.000990 -0.001209
# 2 0.000221 0.024237 -0.004726 -0.001174 0.002896 -0.015705
# 3 -0.005646 -0.004726 0.013204 -0.001946 0.000990 0.001513
# 4 0.000200 -0.001174 -0.001946 0.040605 -0.001699 0.014119
# 5 -0.000990 0.002896 0.000990 -0.001699 0.040189 -0.004157
# 6 -0.001209 -0.015705 0.001513 0.014119 -0.004157 0.041448
#
#
# Mechanical properties :
#
#
# Convention : Reuss Voigt Hill
#
# Bulk Modulus (GPa) = 36.56053 56.63687 46.59870
# Shear Modulus (GPa) = 25.08584 31.97411 28.52997
#
# Velocity S-wave (km/s) = 3.34988 3.78194 3.57245
# Velocity P-wave (km/s) = 5.59616 6.66381 6.15318
#
# Compressibility (1/GPa) = 0.02735190
#
# Stress axis : x y z
#
# Youngs Moduli (GPa) = 97.90936 41.25948 75.73420
#
# Poissons Ratio (x) = -0.00912 0.42760
# Poissons Ratio (y) = -0.02165 0.35795
# Poissons Ratio (z) = 0.55280 0.19501
#
# Static dielectric constant tensor:
#      x y z
#    x 1.834200 0.030400 0.001360 
#    y 0.030400 1.873040 -0.031130 
#    z 0.001360 -0.031130 1.814110 
# 
# From -- ./inp_files/71301.got.cif
#   From: 2010.05.17/outbox.cif.g08.bks.cpg/sg2_36_cif.got.tgz:71301.got - 2010.06.03 11:33:40.
