data_PCOD9095520
_publ_section_title
;
Structure prediction by ZEFSAII (Michael W. Deem and Ramdas Pophale) SiO2 
 PCOD9095520
Probable space group: P -1
;
_chemical_formula_sum "Si O2"
_cell_formula_units_Z 16
_cell_length_a 12.590037
_cell_length_b 7.392014
_cell_length_c 13.208962
_cell_angle_alpha 60.932336
_cell_angle_beta 98.037255
_cell_angle_gamma 136.221584
_cell_volume 696.686257
_symmetry_space_group_name_H-M "P -1"
_symmetry_group_IT_number 2
_symmetry_cell_setting 'triclinic'
loop_
_space_group_symop_operation_xyz
x,y,z
-x,-y,-z
loop_
_atom_site_type_symbol
_atom_site_label
_atom_site_fract_x
_atom_site_fract_y
_atom_site_fract_z
Si Si1 0.220416 0.382700 0.013385
Si Si2 0.981499 0.754784 0.503942
Si Si3 0.603054 0.619990 0.258974
Si Si4 0.260238 0.309733 0.261019
Si Si5 0.846855 0.384506 0.773889
Si Si6 0.379349 0.690521 0.496166
Si Si7 0.893884 0.132405 0.020104
Si Si8 0.495944 0.109518 0.223752
O O1 0.257689 0.313286 0.138888
O O2 0.070617 0.318077 0.030232
O O3 0.376105 0.726590 0.894188
O O4 0.167327 0.142831 0.985873
O O5 0.968314 0.570501 0.643302
O O6 0.808643 0.506198 0.488219
O O7 0.000000 0.000000 0.500000
O O8 0.133884 0.966793 0.390575
O O9 0.442738 0.526250 0.261377
O O10 0.629299 0.548783 0.390367
O O11 0.561344 0.370926 0.242929
O O12 0.763364 0.959878 0.140242
O O13 0.197265 0.445432 0.246705
O O14 0.672360 0.049748 0.801215
O O15 0.904806 0.339389 0.888941
O O16 0.500000 0.000000 0.500000
O O17 0.455259 0.843122 0.354174
#
# Coordination Sequence:
#
# PCOD9095520 Si02
#       8
#     2   2   2   2   2   2   2   2
#     4  10  21  36  56  82 110 145 187 235 288 338
#     4   9  20  39  57  80 118 154 186 235 292 339
#     4  10  20  35  58  85 114 148 187 237 288 335
#     4  11  22  36  57  83 112 150 192 230 282 348
#     4  10  21  38  56  78 111 149 187 231 283 342
#     4   9  18  36  60  83 110 149 194 236 278 334
#     4  10  21  37  56  80 113 147 185 236 289 336
#     4   9  19  37  56  80 114 146 183 235 288 334
#
# _framework density 22.965862999999999
#
# number of rings (size 3 to 8) (size 9 to 14) (size 15 to 20)
#    0.000    2.250    0.000    2.250    0.000    6.500 
#    0.000   18.125    0.000    0.000    0.000    0.000 
#    0.000    0.000    0.000    0.000    0.000    0.000 
#
# Total GULP energy -89408.198733 kJ/mol
# GULP energy per Si atom -5588.012421 kJ/mol
# Density = 2.291359 g / cm^3
# Si number density = 22.965863 Si / 1000 Ang^3
#
#
#
# Elastic Constant Matrix: (Units=GPa)
#
#
# Indices 1 2 3 4 5 6 
#
# 1 76.6152 27.6836 86.3504 -4.6424 2.6362 26.6598
# 2 27.6836 63.6941 41.8450 -2.5069 -8.1769 0.3448
# 3 86.3504 41.8450 201.7743 -13.8270 -12.6476 29.1930
# 4 -4.6424 -2.5069 -13.8270 32.1514 11.3581 -7.2577
# 5 2.6362 -8.1769 -12.6476 11.3581 37.4512 -0.7858
# 6 26.6598 0.3448 29.1930 -7.2577 -0.7858 21.8634
#
#
#
# Elastic Compliance Matrix: (Units=1/GPa)
#
#
# Indices 1 2 3 4 5 6 
#
# 1 0.045596 -0.013363 -0.011619 -0.005707 -0.009203 -0.042099
# 2 -0.013363 0.022992 -0.001251 0.001529 0.005458 0.018306
# 3 -0.011619 -0.001251 0.010379 0.001655 0.003569 0.001006
# 4 -0.005707 0.001529 0.001655 0.038525 -0.010029 0.017153
# 5 -0.009203 0.005458 0.003569 -0.010029 0.032877 0.004223
# 6 -0.042099 0.018306 0.001006 0.017153 0.004223 0.101288
#
#
# Mechanical properties :
#
#
# Convention : Reuss Voigt Hill
#
# Bulk Modulus (GPa) = 37.73302 72.64908 55.19105
# Shear Modulus (GPa) = 15.97672 30.70681 23.34176
#
# Velocity S-wave (km/s) = 2.64042 3.66055 3.19151
# Velocity P-wave (km/s) = 5.07558 7.04048 6.13718
#
# Compressibility (1/GPa) = 0.02650199
#
# Stress axis : x y z
#
# Youngs Moduli (GPa) = 21.93173 43.49406 96.34461
#
# Poissons Ratio (x) = 0.58119 1.11941
# Poissons Ratio (y) = 0.29306 0.12054
# Poissons Ratio (z) = 0.25482 0.05442
#
# Static dielectric constant tensor:
#      x y z
#    x 1.876700 -0.094460 -0.009520 
#    y -0.094460 2.000780 0.018080 
#    z -0.009520 0.018080 1.875250 
# 
# From -- ./inp_files/205691.got.cif
#   From: 2010.05.17/outbox.cif.g08.bks.cpg/sg2_103_cif.got.tgz:205691.got - 2010.06.03 11:33:40.
