data_PCOD9095939
_publ_section_title
;
Structure prediction by ZEFSAII (Michael W. Deem and Ramdas Pophale) SiO2 
 PCOD9095939
Probable space group: P -1
;
_chemical_formula_sum "Si O2"
_cell_formula_units_Z 16
_cell_length_a 7.801006
_cell_length_b 10.953266
_cell_length_c 16.742213
_cell_angle_alpha 141.827116
_cell_angle_beta 78.419717
_cell_angle_gamma 115.466914
_cell_volume 773.690474
_symmetry_space_group_name_H-M "P -1"
_symmetry_group_IT_number 2
_symmetry_cell_setting 'triclinic'
loop_
_space_group_symop_operation_xyz
x,y,z
-x,-y,-z
loop_
_atom_site_type_symbol
_atom_site_label
_atom_site_fract_x
_atom_site_fract_y
_atom_site_fract_z
Si Si1 0.871920 0.999089 0.227259
Si Si2 0.367630 0.071738 0.101726
Si Si3 0.037433 0.335205 0.049058
Si Si4 0.387993 0.350155 0.817864
Si Si5 0.292400 0.456380 0.239872
Si Si6 0.303920 0.674990 0.096640
Si Si7 0.816375 0.535046 0.568509
Si Si8 0.552222 0.163026 0.294396
O O1 0.727694 0.089817 0.248980
O O2 0.090606 0.199110 0.311294
O O3 0.795696 0.883102 0.260916
O O4 0.858722 0.805040 0.070880
O O5 0.292894 0.223314 0.138625
O O6 0.500306 0.206573 0.233280
O O7 0.500000 0.000000 0.000000
O O8 0.185161 0.841337 0.022231
O O9 0.124601 0.416136 0.169898
O O10 0.095541 0.538969 0.088486
O O11 0.497287 0.392797 0.744373
O O12 0.548663 0.344768 0.861630
O O13 0.339770 0.550440 0.952758
O O14 0.240138 0.529338 0.366932
O O15 0.366016 0.933246 0.216629
O O16 0.629199 0.377440 0.453146
O O17 0.000000 0.500000 0.500000
#
# Coordination Sequence:
#
# PCOD9095939 Si02
#       8
#     2   2   2   2   2   2   2   2
#     4   9  17  38  60  84 109 148 189 232 276 331
#     4  12  24  33  56  88 117 143 176 243 291 325
#     4  10  20  35  61  86 106 145 192 237 285 322
#     4   8  15  30  60  85 107 135 187 242 281 312
#     4  11  21  37  58  86 114 146 191 230 278 332
#     4   8  15  33  56  82 111 143 180 234 282 330
#     4  10  22  36  59  80 110 159 191 227 264 330
#     4  10  21  36  53  82 118 145 184 223 278 338
#
# _framework density 20.680102999999999
#
# number of rings (size 3 to 8) (size 9 to 14) (size 15 to 20)
#    0.000    2.250    1.250    4.125    3.500    1.000 
#    0.000   10.000    0.000    0.750    0.000    0.000 
#    0.000    0.000    0.000    0.000    0.000    0.000 
#
# Total GULP energy -89193.148008 kJ/mol
# GULP energy per Si atom -5574.571750 kJ/mol
# Density = 2.063303 g / cm^3
# Si number density = 20.680103 Si / 1000 Ang^3
#
#
#
# Elastic Constant Matrix: (Units=GPa)
#
#
# Indices 1 2 3 4 5 6 
#
# 1 52.3461 27.9102 20.1042 -9.2182 6.1921 4.6814
# 2 27.9102 116.8595 48.3029 -12.6852 17.1309 23.8328
# 3 20.1042 48.3029 100.8086 -24.7105 24.2118 8.5659
# 4 -9.2182 -12.6852 -24.7105 33.0036 3.4851 -6.3592
# 5 6.1921 17.1309 24.2118 3.4851 27.6159 -4.6212
# 6 4.6814 23.8328 8.5659 -6.3592 -4.6212 30.8633
#
#
#
# Elastic Compliance Matrix: (Units=1/GPa)
#
#
# Indices 1 2 3 4 5 6 
#
# 1 0.022758 -0.004474 -0.000973 0.004274 -0.001868 0.000874
# 2 -0.004474 0.014078 -0.003301 0.000425 -0.006592 -0.010176
# 3 -0.000973 -0.003301 0.019529 0.014439 -0.017063 -0.002303
# 4 0.004274 0.000425 0.014439 0.044766 -0.019305 0.001349
# 5 -0.001868 -0.006592 -0.017063 -0.019305 0.060661 0.015215
# 6 0.000874 -0.010176 -0.002303 0.001349 0.015215 0.043322
#
#
# Mechanical properties :
#
#
# Convention : Reuss Voigt Hill
#
# Bulk Modulus (GPa) = 25.72727 51.40543 38.56635
# Shear Modulus (GPa) = 21.22545 29.87636 25.55090
#
# Velocity S-wave (km/s) = 3.20718 3.80503 3.51883
# Velocity P-wave (km/s) = 5.11686 6.64949 5.93287
#
# Compressibility (1/GPa) = 0.03886925
#
# Stress axis : x y z
#
# Youngs Moduli (GPa) = 43.94038 71.03238 51.20638
#
# Poissons Ratio (x) = 0.31777 0.04982
# Poissons Ratio (y) = 0.19657 0.16905
# Poissons Ratio (z) = 0.04275 0.23450
#
# Static dielectric constant tensor:
#      x y z
#    x 1.772210 0.039380 0.000890 
#    y 0.039380 1.834670 0.026180 
#    z 0.000890 0.026180 1.767040 
# 
# From -- ./inp_files/499508.got.cif
#   From: 2010.05.17/outbox.cif.g08.bks.cpg/sg2_250_cif.got.tgz:499508.got - 2010.06.03 11:33:40.
