data_PCOD9095674
_publ_section_title
;
Structure prediction by ZEFSAII (Michael W. Deem and Ramdas Pophale) SiO2 
 PCOD9095674
Probable space group: P -1
;
_chemical_formula_sum "Si O2"
_cell_formula_units_Z 16
_cell_length_a 8.103894
_cell_length_b 10.787863
_cell_length_c 19.308141
_cell_angle_alpha 158.803982
_cell_angle_beta 87.079400
_cell_angle_gamma 94.093116
_cell_volume 608.182714
_symmetry_space_group_name_H-M "P -1"
_symmetry_group_IT_number 2
_symmetry_cell_setting 'triclinic'
loop_
_space_group_symop_operation_xyz
x,y,z
-x,-y,-z
loop_
_atom_site_type_symbol
_atom_site_label
_atom_site_fract_x
_atom_site_fract_y
_atom_site_fract_z
Si Si1 0.690576 0.460488 0.488022
Si Si2 0.267580 0.772277 0.325297
Si Si3 0.721327 0.399900 0.007328
Si Si4 0.672435 0.737743 0.046275
Si Si5 0.156114 0.374212 0.562054
Si Si6 0.650097 0.901723 0.374489
Si Si7 0.152825 0.171804 0.202607
Si Si8 0.668713 0.226867 0.118908
O O1 0.500000 0.500000 0.500000
O O2 0.793968 0.703526 0.557948
O O3 0.722262 0.558607 0.617859
O O4 0.731663 0.092140 0.265361
O O5 0.453948 0.924949 0.378098
O O6 0.142136 0.027766 0.427680
O O7 0.272747 0.797557 0.421434
O O8 0.253702 0.394863 0.095978
O O9 0.719808 0.454906 0.954340
O O10 0.738499 0.776050 0.239013
O O11 0.528407 0.268176 0.959238
O O12 0.844637 0.153201 0.913187
O O13 0.294048 0.625333 0.729029
O O14 0.003015 0.607809 0.686739
O O15 0.658287 0.566252 0.248973
O O16 0.200739 0.001311 0.040822
O O17 0.500000 0.000000 0.000000
#
# Coordination Sequence:
#
# PCOD9095674 Si02
#       8
#     2   2   2   2   2   2   2   2
#     4  12  24  38  60  93 121 154 211 257 288 344
#     4   9  18  35  55  84 115 154 197 235 293 362
#     4   9  18  35  59  83 116 155 196 243 299 350
#     4  10  20  35  59  86 114 152 206 254 285 338
#     4  11  24  39  62  89 125 166 189 243 315 364
#     4   8  17  32  58  85 112 147 199 241 287 349
#     4  11  22  42  60  89 128 159 197 240 311 371
#     4  10  21  39  66  94 115 151 205 257 292 345
#
# _framework density 26.307884999999999
#
# number of rings (size 3 to 8) (size 9 to 14) (size 15 to 20)
#    0.000    2.000    1.250    2.250    7.000    0.000 
#    2.250    2.500    0.000    0.750    0.000    0.000 
#    0.000    0.000    0.000    0.000    0.000    0.000 
#
# Total GULP energy -89532.173320 kJ/mol
# GULP energy per Si atom -5595.760832 kJ/mol
# Density = 2.624801 g / cm^3
# Si number density = 26.307885 Si / 1000 Ang^3
#
#
#
# Elastic Constant Matrix: (Units=GPa)
#
#
# Indices 1 2 3 4 5 6 
#
# 1 56.2146 12.5863 1.2315 9.3789 -28.1734 -17.7667
# 2 12.5863 101.2977 26.5146 -15.5387 -14.3018 -8.8139
# 3 1.2315 26.5146 162.9079 -10.5859 -17.6490 -6.0247
# 4 9.3789 -15.5387 -10.5859 49.8608 -8.0875 -11.4877
# 5 -28.1734 -14.3018 -17.6490 -8.0875 37.5712 4.1085
# 6 -17.7667 -8.8139 -6.0247 -11.4877 4.1085 29.2182
#
#
#
# Elastic Compliance Matrix: (Units=1/GPa)
#
#
# Indices 1 2 3 4 5 6 
#
# 1 0.038507 0.000807 0.003794 0.003580 0.029360 0.021720
# 2 0.000807 0.012073 -0.000824 0.005556 0.005421 0.005385
# 3 0.003794 -0.000824 0.007184 0.002366 0.006019 0.003624
# 4 0.003580 0.005556 0.002366 0.026314 0.010125 0.013263
# 5 0.029360 0.005421 0.006019 0.010125 0.053828 0.017141
# 6 0.021720 0.005385 0.003624 0.013263 0.017141 0.052608
#
#
# Mechanical properties :
#
#
# Convention : Reuss Voigt Hill
#
# Bulk Modulus (GPa) = 15.30961 44.56502 29.93731
# Shear Modulus (GPa) = 24.42201 42.00256 33.21228
#
# Velocity S-wave (km/s) = 3.05013 4.00005 3.55695
# Velocity P-wave (km/s) = 4.27041 6.18955 5.31728
#
# Compressibility (1/GPa) = 0.06531845
#
# Stress axis : x y z
#
# Youngs Moduli (GPa) = 25.96924 82.82665 139.20424
#
# Poissons Ratio (x) = -0.06680 -0.52818
# Poissons Ratio (y) = -0.02094 0.11466
# Poissons Ratio (z) = -0.09854 0.06822
#
# Static dielectric constant tensor:
#      x y z
#    x 2.040330 0.025010 0.045580 
#    y 0.025010 2.111240 0.016960 
#    z 0.045580 0.016960 2.131800 
# 
# From -- ./inp_files/589784.got.cif
#   From: 2010.05.17/outbox.cif.g08.bks.cpg/sg2_295_cif.got.tgz:589784.got - 2010.06.03 11:33:40.
