data_PCOD9095664
_publ_section_title
;
Structure prediction by ZEFSAII (Michael W. Deem and Ramdas Pophale) SiO2 
 PCOD9095664
Probable space group: P -1
;
_chemical_formula_sum "Si O2"
_cell_formula_units_Z 16
_cell_length_a 8.991894
_cell_length_b 12.433349
_cell_length_c 16.095781
_cell_angle_alpha 36.360129
_cell_angle_beta 80.459260
_cell_angle_gamma 54.399100
_cell_volume 674.588629
_symmetry_space_group_name_H-M "P -1"
_symmetry_group_IT_number 2
_symmetry_cell_setting 'triclinic'
loop_
_space_group_symop_operation_xyz
x,y,z
-x,-y,-z
loop_
_atom_site_type_symbol
_atom_site_label
_atom_site_fract_x
_atom_site_fract_y
_atom_site_fract_z
Si Si1 0.734422 0.441200 0.208608
Si Si2 0.173912 0.908736 0.233645
Si Si3 0.376780 0.295295 0.352217
Si Si4 0.129552 0.828874 0.463232
Si Si5 0.173101 0.259405 0.914338
Si Si6 0.614549 0.393445 0.965586
Si Si7 0.823851 0.614714 0.336002
Si Si8 0.713219 0.586768 0.530983
O O1 0.720997 0.361072 0.350834
O O2 0.826155 0.558628 0.144533
O O3 0.490248 0.675405 0.035074
O O4 0.915564 0.149710 0.319115
O O5 0.890931 0.153579 0.102316
O O6 0.235123 0.840925 0.367754
O O7 0.257946 0.650806 0.341675
O O8 0.255041 0.009310 0.113330
O O9 0.459607 0.373613 0.232906
O O10 0.430936 0.266388 0.462512
O O11 0.098088 0.533831 0.214055
O O12 0.500000 0.000000 0.500000
O O13 0.076550 0.677131 0.521591
O O14 0.287606 0.194904 0.854140
O O15 0.500000 0.500000 0.000000
O O16 0.659398 0.731049 0.358293
O O17 0.036706 0.548096 0.385802
#
# Coordination Sequence:
#
# PCOD9095664 Si02
#       8
#     2   2   2   2   2   2   2   2
#     4  10  20  35  59  85 118 165 196 231 297 346
#     4  10  20  38  59  88 123 151 199 246 288 348
#     4  10  23  37  57  88 122 146 199 254 290 344
#     4   9  18  32  58  83 114 160 196 236 275 362
#     4   9  20  35  56  90 116 156 195 242 289 356
#     4  11  23  37  56  90 125 152 192 251 296 338
#     4   8  16  31  56  86 109 147 200 235 272 353
#     4   9  18  34  60  83 112 162 195 238 297 347
#
# _framework density 23.718157999999999
#
# number of rings (size 3 to 8) (size 9 to 14) (size 15 to 20)
#    0.000    2.500    1.250    0.000    7.000    6.000 
#    0.000    0.000    0.000   18.750    0.000    0.000 
#    0.000    0.000    0.000    0.000    0.000    0.000 
#
# Total GULP energy -89426.874649 kJ/mol
# GULP energy per Si atom -5589.179666 kJ/mol
# Density = 2.366417 g / cm^3
# Si number density = 23.718158 Si / 1000 Ang^3
#
#
#
# Elastic Constant Matrix: (Units=GPa)
#
#
# Indices 1 2 3 4 5 6 
#
# 1 101.3531 46.7903 60.2013 25.9296 -9.5539 10.0228
# 2 46.7903 175.6815 84.4891 44.3815 -24.5505 14.3019
# 3 60.2013 84.4891 134.9301 42.9856 -27.9569 7.5960
# 4 25.9296 44.3815 42.9856 37.8230 -7.7928 1.4863
# 5 -9.5539 -24.5505 -27.9569 -7.7928 43.6778 10.2466
# 6 10.0228 14.3019 7.5960 1.4863 10.2466 30.5214
#
#
#
# Elastic Compliance Matrix: (Units=1/GPa)
#
#
# Indices 1 2 3 4 5 6 
#
# 1 0.014086 -0.000251 -0.004725 -0.003879 -0.000042 -0.003130
# 2 -0.000251 0.009770 -0.002679 -0.007343 0.003502 -0.004647
# 3 -0.004725 -0.002679 0.016011 -0.010354 0.006534 -0.002867
# 4 -0.003879 -0.007343 -0.010354 0.048302 -0.004499 0.006450
# 5 -0.000042 0.003502 0.006534 -0.004499 0.031420 -0.013583
# 6 -0.003130 -0.004647 -0.002867 0.006450 -0.013583 0.040929
#
#
# Mechanical properties :
#
#
# Convention : Reuss Voigt Hill
#
# Bulk Modulus (GPa) = 40.71985 88.32515 64.52250
# Shear Modulus (GPa) = 27.17190 37.10336 32.13763
#
# Velocity S-wave (km/s) = 3.38837 3.95947 3.68500
# Velocity P-wave (km/s) = 5.70206 7.63043 6.73562
#
# Compressibility (1/GPa) = 0.02455805
#
# Stress axis : x y z
#
# Youngs Moduli (GPa) = 70.99003 102.35152 62.45790
#
# Poissons Ratio (x) = 0.02566 0.29509
# Poissons Ratio (y) = 0.01780 0.16735
# Poissons Ratio (z) = 0.33540 0.27424
#
# Static dielectric constant tensor:
#      x y z
#    x 1.719320 -0.046640 0.005580 
#    y -0.046640 1.885740 0.019610 
#    z 0.005580 0.019610 1.888060 
# 
# From -- ./inp_files/434325.got.cif
#   From: 2010.05.17/outbox.cif.g08.bks.cpg/sg2_218_cif.got.tgz:434325.got - 2010.06.03 11:33:40.
