data_PCOD9095129
_publ_section_title
;
Structure prediction by ZEFSAII (Michael W. Deem and Ramdas Pophale) SiO2 
 PCOD9095129
Probable space group: P -1
;
_chemical_formula_sum "Si O2"
_cell_formula_units_Z 16
_cell_length_a 11.993007
_cell_length_b 10.740300
_cell_length_c 12.105558
_cell_angle_alpha 39.356266
_cell_angle_beta 72.435960
_cell_angle_gamma 101.305521
_cell_volume 663.663967
_symmetry_space_group_name_H-M "P -1"
_symmetry_group_IT_number 2
_symmetry_cell_setting 'triclinic'
loop_
_space_group_symop_operation_xyz
x,y,z
-x,-y,-z
loop_
_atom_site_type_symbol
_atom_site_label
_atom_site_fract_x
_atom_site_fract_y
_atom_site_fract_z
Si Si1 0.136012 0.051515 0.353609
Si Si2 0.560984 0.279207 0.893351
Si Si3 0.717370 0.985731 0.286759
Si Si4 0.809801 0.685210 0.156452
Si Si5 0.558646 0.455805 0.188814
Si Si6 0.089409 0.195176 0.623360
Si Si7 0.517272 0.235826 0.688290
Si Si8 0.040969 0.542980 0.826942
O O1 0.150072 0.855897 0.539824
O O2 0.040988 0.917626 0.357587
O O3 0.000000 0.000000 0.500000
O O4 0.305401 0.377472 0.063514
O O5 0.527870 0.434741 0.864967
O O6 0.753797 0.477575 0.666268
O O7 0.475156 0.208561 0.847825
O O8 0.489847 0.006111 0.162359
O O9 0.590292 0.868552 0.507966
O O10 0.821618 0.913780 0.334754
O O11 0.609942 0.823289 0.320030
O O12 0.850988 0.313131 0.996898
O O13 0.675800 0.587179 0.171573
O O14 0.702382 0.529032 0.405183
O O15 0.875503 0.554765 0.178570
O O16 0.961788 0.019999 0.883574
O O17 0.000000 0.500000 0.000000
#
# Coordination Sequence:
#
# PCOD9095129 Si02
#       8
#     2   2   2   2   2   2   2   2
#     4  11  21  37  58  80 109 142 177 219 268 317
#     4  10  20  35  55  80 110 143 178 219 268 317
#     4   9  19  36  56  79 109 140 179 221 263 316
#     4   9  19  35  54  79 108 139 180 222 263 314
#     4   9  19  36  56  79 109 140 179 221 263 316
#     4   9  19  35  54  79 108 139 180 222 263 314
#     4  10  20  35  55  80 110 143 178 219 268 317
#     4  11  21  37  58  80 109 142 177 219 268 317
#
# _framework density 24.108588000000001
#
# number of rings (size 3 to 8) (size 9 to 14) (size 15 to 20)
#    0.000    2.250    0.000    3.750    0.000    5.000 
#    0.000   16.250    0.000   13.500    0.000    0.000 
#    0.000    0.000    0.000    0.000    0.000    0.000 
#
# Total GULP energy -89226.366057 kJ/mol
# GULP energy per Si atom -5576.647879 kJ/mol
# Density = 2.405372 g / cm^3
# Si number density = 24.108588 Si / 1000 Ang^3
#
#
#
# Elastic Constant Matrix: (Units=GPa)
#
#
# Indices 1 2 3 4 5 6 
#
# 1 65.6179 10.8895 25.3761 10.2766 2.3654 2.5676
# 2 10.8895 28.3345 -8.5963 10.0362 -1.1404 10.0511
# 3 25.3761 -8.5963 142.1174 9.2860 -11.8614 3.5417
# 4 10.2766 10.0362 9.2860 26.2992 5.6125 -1.5760
# 5 2.3654 -1.1404 -11.8614 5.6125 33.8872 0.3331
# 6 2.5676 10.0511 3.5417 -1.5760 0.3331 33.9458
#
#
#
# Elastic Compliance Matrix: (Units=1/GPa)
#
#
# Indices 1 2 3 4 5 6 
#
# 1 0.018465 -0.008112 -0.003900 -0.002110 -0.002591 0.001339
# 2 -0.008112 0.055924 0.007612 -0.023909 0.009249 -0.017940
# 3 -0.003900 0.007612 0.009040 -0.005765 0.004679 -0.003216
# 4 -0.002110 -0.023909 -0.005765 0.053102 -0.011572 0.010419
# 5 -0.002591 0.009249 0.004679 -0.011572 0.033594 -0.003898
# 6 0.001339 -0.017940 -0.003216 0.010419 -0.003898 0.035527
#
#
# Mechanical properties :
#
#
# Convention : Reuss Voigt Hill
#
# Bulk Modulus (GPa) = 13.39901 32.37874 22.88888
# Shear Modulus (GPa) = 20.89177 32.71981 26.80579
#
# Velocity S-wave (km/s) = 2.94695 3.68800 3.33810
# Velocity P-wave (km/s) = 4.14116 5.62091 4.93679
#
# Compressibility (1/GPa) = 0.07463239
#
# Stress axis : x y z
#
# Youngs Moduli (GPa) = 54.15547 17.88130 110.61342
#
# Poissons Ratio (x) = 0.14505 0.43134
# Poissons Ratio (y) = 0.43929 -0.84202
# Poissons Ratio (z) = 0.21118 -0.13612
#
# Static dielectric constant tensor:
#      x y z
#    x 1.833510 -0.051310 -0.072440 
#    y -0.051310 1.940330 -0.056210 
#    z -0.072440 -0.056210 1.946440 
# 
# From -- ./inp_files/187853.got.cif
#   From: 2010.05.17/outbox.cif.g08.bks.cpg/sg2_94_cif.got.tgz:187853.got - 2010.06.03 11:33:40.
