data_PCOD9095104
_publ_section_title
;
Structure prediction by ZEFSAII (Michael W. Deem and Ramdas Pophale) SiO2 
 PCOD9095104
Probable space group: P -1
;
_chemical_formula_sum "Si O2"
_cell_formula_units_Z 14
_cell_length_a 24.384499
_cell_length_b 5.473268
_cell_length_c 12.391077
_cell_angle_alpha 131.240556
_cell_angle_beta 30.027454
_cell_angle_gamma 137.357017
_cell_volume 559.391992
_symmetry_space_group_name_H-M "P -1"
_symmetry_group_IT_number 2
_symmetry_cell_setting 'triclinic'
loop_
_space_group_symop_operation_xyz
x,y,z
-x,-y,-z
loop_
_atom_site_type_symbol
_atom_site_label
_atom_site_fract_x
_atom_site_fract_y
_atom_site_fract_z
Si Si1 0.787468 0.191891 0.430234
Si Si2 0.859415 0.007616 0.860900
Si Si3 0.505662 0.193873 0.206878
Si Si4 0.511733 0.141486 0.642262
Si Si5 0.267655 0.771731 0.229538
Si Si6 0.799924 0.496677 0.271994
Si Si7 0.905849 0.085417 0.560207
O O1 0.640332 0.985658 0.601141
O O2 0.843625 0.906612 0.275181
O O3 0.785626 0.363767 0.600561
O O4 0.841214 0.412796 0.293418
O O5 0.775431 0.575008 0.877341
O O6 0.999916 0.088651 0.663493
O O7 0.856647 0.095633 0.765902
O O8 0.821915 0.243396 0.072978
O O9 0.546581 0.577355 0.188122
O O10 0.536023 0.163287 0.272827
O O11 0.586573 0.023220 0.960984
O O12 0.654437 0.361827 0.488369
O O13 0.500000 0.000000 0.500000
O O14 0.204037 0.012984 0.364950
O O15 0.000000 0.500000 0.500000
#
# Coordination Sequence:
#
# PCOD9095104 Si02
#       7
#     2   2   2   2   2   2   2
#     4  10  24  42  59  97 136 168 203 255 308 380
#     4  10  22  42  68  91 120 162 216 265 317 367
#     4  10  22  36  58  89 129 170 205 247 302 366
#     4  10  20  35  54  90 127 162 210 255 297 369
#     4  11  23  38  68  91 124 170 216 253 310 370
#     4  10  23  40  64  88 132 169 202 257 324 362
#     4   9  22  41  65  93 121 152 217 272 311 369
#
# _framework density 25.027172
#
# number of rings (size 3 to 8) (size 9 to 14) (size 15 to 20)
#    0.000    2.000    0.000    1.714   10.000    1.143 
#    0.000    5.714    0.000    0.000    0.000    0.000 
#    0.000    0.000    0.000    0.000    0.000    0.000 
#
# Total GULP energy -78182.178762 kJ/mol
# GULP energy per Si atom -5584.441340 kJ/mol
# Density = 2.497021 g / cm^3
# Si number density = 25.027172 Si / 1000 Ang^3
#
#
#
# Elastic Constant Matrix: (Units=GPa)
#
#
# Indices 1 2 3 4 5 6 
#
# 1 172.7513 43.3103 62.5521 16.4606 9.7574 -36.7740
# 2 43.3103 59.0907 40.6800 15.8817 14.2935 -17.7066
# 3 62.5521 40.6800 109.1964 21.6089 9.7265 -28.2371
# 4 16.4606 15.8817 21.6089 39.0398 9.0056 2.6644
# 5 9.7574 14.2935 9.7265 9.0056 39.4102 2.8871
# 6 -36.7740 -17.7066 -28.2371 2.6644 2.8871 34.6596
#
#
#
# Elastic Compliance Matrix: (Units=1/GPa)
#
#
# Indices 1 2 3 4 5 6 
#
# 1 0.008739 -0.002319 -0.001943 -0.001918 -0.000897 0.006726
# 2 -0.002319 0.028401 -0.004833 -0.006764 -0.007667 0.009269
# 3 -0.001943 -0.004833 0.015662 -0.006289 -0.000837 0.008782
# 4 -0.001918 -0.006764 -0.006289 0.034089 -0.002354 -0.013039
# 5 -0.000897 -0.007667 -0.000837 -0.002354 0.029696 -0.007844
# 6 0.006726 0.009269 0.008782 -0.013039 -0.007844 0.049534
#
#
# Mechanical properties :
#
#
# Convention : Reuss Voigt Hill
#
# Bulk Modulus (GPa) = 28.89388 70.45813 49.67601
# Shear Modulus (GPa) = 25.52978 35.58831 30.55905
#
# Velocity S-wave (km/s) = 3.19734 3.77501 3.49812
# Velocity P-wave (km/s) = 5.02003 6.87130 6.01729
#
# Compressibility (1/GPa) = 0.03460940
#
# Stress axis : x y z
#
# Youngs Moduli (GPa) = 114.42881 35.21049 63.85010
#
# Poissons Ratio (x) = 0.08167 0.12408
# Poissons Ratio (y) = 0.26542 0.30860
# Poissons Ratio (z) = 0.22236 0.17018
#
# Static dielectric constant tensor:
#      x y z
#    x 2.020780 -0.006790 -0.048510 
#    y -0.006790 2.156540 0.020980 
#    z -0.048510 0.020980 1.947380 
# 
# From -- ./inp_files/34528.got.cif
#   From: 2010.05.17/outbox.cif.g08.bks.cpg/sg2_18_cif.got.tgz:34528.got - 2010.06.03 11:33:40.
