data_PCOD9095818
_publ_section_title
;
Structure prediction by ZEFSAII (Michael W. Deem and Ramdas Pophale) SiO2 
 PCOD9095818
Probable space group: P -1
;
_chemical_formula_sum "Si O2"
_cell_formula_units_Z 16
_cell_length_a 27.779124
_cell_length_b 11.904585
_cell_length_c 11.370790
_cell_angle_alpha 39.523323
_cell_angle_beta 153.660514
_cell_angle_gamma 154.354595
_cell_volume 708.899429
_symmetry_space_group_name_H-M "P -1"
_symmetry_group_IT_number 2
_symmetry_cell_setting 'triclinic'
loop_
_space_group_symop_operation_xyz
x,y,z
-x,-y,-z
loop_
_atom_site_type_symbol
_atom_site_label
_atom_site_fract_x
_atom_site_fract_y
_atom_site_fract_z
Si Si1 0.718316 0.333641 0.690466
Si Si2 0.891331 0.039915 0.586970
Si Si3 0.440746 0.483002 0.758165
Si Si4 0.871404 0.698175 0.314682
Si Si5 0.589953 0.418560 0.740737
Si Si6 0.356538 0.045087 0.341451
Si Si7 0.144292 0.374923 0.037943
Si Si8 0.003955 0.756339 0.801123
O O1 0.639934 0.428732 0.457251
O O2 0.769830 0.363481 0.913991
O O3 0.884985 0.564119 0.800051
O O4 0.615461 0.077312 0.592588
O O5 0.698442 0.821798 0.339139
O O6 0.915357 0.860535 0.820449
O O7 0.986148 0.189710 0.553497
O O8 0.988284 0.257695 0.723804
O O9 0.570127 0.689200 0.775146
O O10 0.500000 0.500000 0.000000
O O11 0.899288 0.629464 0.553621
O O12 0.696641 0.489124 0.032308
O O13 0.921402 0.958900 0.244799
O O14 0.500000 0.500000 0.500000
O O15 0.444883 0.132155 0.590194
O O16 0.729576 0.566256 0.824729
O O17 0.163908 0.831516 0.095362
#
# Coordination Sequence:
#
# PCOD9095818 Si02
#       8
#     2   2   2   2   2   2   2   2
#     4  11  23  41  61  88 125 165 199 242 309 371
#     4   9  16  33  56  85 111 149 197 245 289 344
#     4  11  22  36  61  92 122 153 201 255 301 352
#     4  10  20  35  60  87 119 158 203 254 297 348
#     4  11  21  35  59  93 120 153 207 255 297 354
#     4  12  24  38  63  93 123 159 205 253 302 361
#     4   9  18  33  58  84 117 152 198 246 294 352
#     4  11  22  38  61  85 122 164 202 249 303 358
#
# _framework density 22.570195999999999
#
# number of rings (size 3 to 8) (size 9 to 14) (size 15 to 20)
#    0.000    1.500    6.250    1.500    1.750    0.000 
#    0.000    0.625    2.750    2.250    0.000    0.000 
#    0.000    0.000    0.000    0.000    0.000    0.000 
#
# Total GULP energy -89098.362939 kJ/mol
# GULP energy per Si atom -5568.647684 kJ/mol
# Density = 2.251883 g / cm^3
# Si number density = 22.570196 Si / 1000 Ang^3
#
#
#
# Elastic Constant Matrix: (Units=GPa)
#
#
# Indices 1 2 3 4 5 6 
#
# 1 93.2337 22.2366 44.5285 22.3155 -17.6322 -14.5734
# 2 22.2366 35.4328 38.4825 20.6688 -3.9364 -17.6988
# 3 44.5285 38.4825 115.7933 44.1817 -27.7436 -0.6867
# 4 22.3155 20.6688 44.1817 24.7620 -7.0549 -5.6789
# 5 -17.6322 -3.9364 -27.7436 -7.0549 48.4685 20.5174
# 6 -14.5734 -17.6988 -0.6867 -5.6789 20.5174 34.2049
#
#
#
# Elastic Compliance Matrix: (Units=1/GPa)
#
#
# Indices 1 2 3 4 5 6 
#
# 1 0.014564 0.001398 -0.003311 -0.007064 0.000107 0.005625
# 2 0.001398 0.184590 -0.089078 0.010917 -0.099981 0.156105
# 3 -0.003311 -0.089078 0.088203 -0.082782 0.073954 -0.103836
# 4 -0.007064 0.010917 -0.082782 0.185622 -0.047594 0.060343
# 5 0.000107 -0.099981 0.073954 -0.047594 0.097244 -0.116435
# 6 0.005625 0.156105 -0.103836 0.060343 -0.116435 0.190182
#
#
# Mechanical properties :
#
#
# Convention : Reuss Voigt Hill
#
# Bulk Modulus (GPa) = 9.48998 50.55055 30.02026
# Shear Modulus (GPa) = 5.11503 30.76791 17.94147
#
# Velocity S-wave (km/s) = 1.50705 3.69617 2.82249
# Velocity P-wave (km/s) = 2.69110 6.37662 4.89404
#
# Compressibility (1/GPa) = 0.10537433
#
# Stress axis : x y z
#
# Youngs Moduli (GPa) = 68.66340 5.41743 11.33750
#
# Poissons Ratio (x) = -0.00757 0.03754
# Poissons Ratio (y) = -0.09600 1.00992
# Poissons Ratio (z) = 0.22733 0.48257
#
# Static dielectric constant tensor:
#      x y z
#    x 1.843420 -0.030480 0.020560 
#    y -0.030480 1.915690 0.062890 
#    z 0.020560 0.062890 1.843900 
# 
# From -- ./inp_files/476643.got.cif
#   From: 2010.05.17/outbox.cif.g08.bks.cpg/sg2_239_cif.got.tgz:476643.got - 2010.06.03 11:33:40.
