data_PCOD9095522
_publ_section_title
;
Structure prediction by ZEFSAII (Michael W. Deem and Ramdas Pophale) SiO2 
 PCOD9095522
Probable space group: P -1
;
_chemical_formula_sum "Si O2"
_cell_formula_units_Z 12
_cell_length_a 18.310305
_cell_length_b 6.043231
_cell_length_c 8.295820
_cell_angle_alpha 126.175600
_cell_angle_beta 132.844620
_cell_angle_gamma 51.916190
_cell_volume 506.024485
_symmetry_space_group_name_H-M "P -1"
_symmetry_group_IT_number 2
_symmetry_cell_setting 'triclinic'
loop_
_space_group_symop_operation_xyz
x,y,z
-x,-y,-z
loop_
_atom_site_type_symbol
_atom_site_label
_atom_site_fract_x
_atom_site_fract_y
_atom_site_fract_z
Si Si1 0.790062 0.372562 0.068818
Si Si2 0.383027 0.852155 0.412185
Si Si3 0.091449 0.217755 0.597142
Si Si4 0.666595 0.542563 0.271347
Si Si5 0.520736 0.400833 0.217351
Si Si6 0.988920 0.818161 0.180686
O O1 0.808934 0.675886 0.199075
O O2 0.760445 0.380552 0.218485
O O3 0.895374 0.086957 0.070618
O O4 0.696480 0.325035 0.806768
O O5 0.459370 0.744747 0.324472
O O6 0.449875 0.752085 0.632890
O O7 0.318941 0.196785 0.491328
O O8 0.050428 0.191189 0.700926
O O9 0.000000 0.500000 0.500000
O O10 0.090492 0.924631 0.379003
O O11 0.626420 0.353031 0.252969
O O12 0.564174 0.671309 0.051566
O O13 0.000000 0.500000 0.000000
#
# Coordination Sequence:
#
# PCOD9095522 Si02
#       6
#     2   2   2   2   2   2
#     4  10  23  37  56  91 120 148 195 243 288 343
#     4  10  20  35  58  85 116 154 196 236 281 341
#     4   9  21  41  60  83 115 148 190 240 294 351
#     4  10  20  36  57  82 119 156 192 238 284 338
#     4   9  20  37  56  82 115 158 196 231 285 339
#     4  10  22  41  64  84 113 156 193 236 296 353
#
# _framework density 23.714268000000001
#
# number of rings (size 3 to 8) (size 9 to 14) (size 15 to 20)
#    0.000    2.333    0.000    1.000    0.000   10.667 
#    0.000    3.333    0.000    0.000    0.000    0.000 
#    0.000    0.000    0.000    0.000    0.000    0.000 
#
# Total GULP energy -66954.644718 kJ/mol
# GULP energy per Si atom -5579.553726 kJ/mol
# Density = 2.366029 g / cm^3
# Si number density = 23.714268 Si / 1000 Ang^3
#
#
#
# Elastic Constant Matrix: (Units=GPa)
#
#
# Indices 1 2 3 4 5 6 
#
# 1 65.3435 6.0510 38.1443 20.3835 2.3334 -2.3904
# 2 6.0510 62.9081 48.1548 27.9067 4.1769 -10.1271
# 3 38.1443 48.1548 137.7129 55.4397 10.8937 -3.5721
# 4 20.3835 27.9067 55.4397 51.0220 4.8936 -10.4143
# 5 2.3334 4.1769 10.8937 4.8936 39.3776 3.4040
# 6 -2.3904 -10.1271 -3.5721 -10.4143 3.4040 20.2654
#
#
#
# Elastic Compliance Matrix: (Units=1/GPa)
#
#
# Indices 1 2 3 4 5 6 
#
# 1 0.019212 0.004045 -0.005036 -0.004194 0.000243 0.001204
# 2 0.004045 0.025094 -0.007456 -0.005278 -0.000974 0.009154
# 3 -0.005036 -0.007456 0.016556 -0.013452 -0.001117 -0.008127
# 4 -0.004194 -0.005278 -0.013452 0.042384 -0.002176 0.016643
# 5 0.000243 -0.000974 -0.001117 -0.002176 0.026603 -0.006242
# 6 0.001204 0.009154 -0.008127 0.016643 -0.006242 0.062231
#
#
# Mechanical properties :
#
#
# Convention : Reuss Voigt Hill
#
# Bulk Modulus (GPa) = 22.74326 50.07386 36.40856
# Shear Modulus (GPa) = 22.35838 33.70730 28.03284
#
# Velocity S-wave (km/s) = 3.07388 3.77423 3.44191
# Velocity P-wave (km/s) = 4.71271 6.33675 5.58409
#
# Compressibility (1/GPa) = 0.04396908
#
# Stress axis : x y z
#
# Youngs Moduli (GPa) = 52.05014 39.84995 60.40031
#
# Poissons Ratio (x) = -0.16118 0.30415
# Poissons Ratio (y) = -0.21052 0.45034
# Poissons Ratio (z) = 0.26210 0.29712
#
# Static dielectric constant tensor:
#      x y z
#    x 1.917610 -0.048710 0.044040 
#    y -0.048710 1.994260 0.017360 
#    z 0.044040 0.017360 1.936370 
# 
# From -- ./inp_files/4571.got.cif
#   From: 2010.05.17/outbox.cif.g08.bks.cpg/sg2_3_cif.got.tgz:4571.got - 2010.06.03 11:33:40.
