data_PCOD9096414
_publ_section_title
;
Structure prediction by ZEFSAII (Michael W. Deem and Ramdas Pophale) SiO2 
 PCOD9096414
Probable space group: P -1
;
_chemical_formula_sum "Si O2"
_cell_formula_units_Z 15
_cell_length_a 8.234770
_cell_length_b 8.369078
_cell_length_c 19.831077
_cell_angle_alpha 138.409461
_cell_angle_beta 131.860664
_cell_angle_gamma 68.417008
_cell_volume 651.427999
_symmetry_space_group_name_H-M "P -1"
_symmetry_group_IT_number 2
_symmetry_cell_setting 'triclinic'
loop_
_space_group_symop_operation_xyz
x,y,z
-x,-y,-z
loop_
_atom_site_type_symbol
_atom_site_label
_atom_site_fract_x
_atom_site_fract_y
_atom_site_fract_z
Si Si1 0.178517 0.529442 0.163778
Si Si2 0.851973 0.176202 0.630272
Si Si3 0.295643 0.624048 0.479759
Si Si4 0.882308 0.211967 0.390210
Si Si5 0.849367 0.157404 0.213209
Si Si6 0.000000 0.000000 0.000000
Si Si7 0.252810 0.394494 0.999882
Si Si8 0.724449 0.343390 0.108199
O O1 0.254572 0.755515 0.308333
O O2 0.297186 0.547658 0.130105
O O3 0.177786 0.274126 0.119864
O O4 0.916510 0.505815 0.062052
O O5 0.713347 0.216875 0.539521
O O6 0.088668 0.392106 0.757452
O O7 0.926593 0.923484 0.578155
O O8 0.500000 0.500000 0.500000
O O9 0.285057 0.791319 0.595232
O O10 0.075686 0.384096 0.343517
O O11 0.780712 0.113161 0.258349
O O12 0.000000 0.500000 0.500000
O O13 0.685880 0.244597 0.143790
O O14 0.882630 0.894387 0.113572
O O15 0.830993 0.147629 0.037819
O O16 0.488139 0.379366 0.029713
#
# Coordination Sequence:
#
# PCOD9096414 Si02
#       8
#     2   2   2   2   2   1   2   2
#     4  10  22  37  61  90 129 163 200 249 295 378
#     4  10  21  42  61  90 124 158 207 252 313 368
#     4  10  23  43  63  90 116 157 209 270 312 354
#     4  10  21  42  67  82 116 162 207 264 310 352
#     4  10  20  40  62  87 124 158 206 242 303 368
#     4  10  20  36  54  84 126 164 198 246 284 354
#     4  11  21  40  60  92 131 168 200 238 304 368
#     4  10  22  38  60  91 130 168 199 242 302 375
#
# _framework density 23.026336000000001
#
# number of rings (size 3 to 8) (size 9 to 14) (size 15 to 20)
#    0.000    1.867    2.667    0.800    0.000    3.200 
#    9.600    2.667    0.000    0.000    0.000    0.000 
#    0.000    0.000    0.000    0.000    0.000    0.000 
#
# Total GULP energy -83533.201056 kJ/mol
# GULP energy per Si atom -5568.880070 kJ/mol
# Density = 2.297393 g / cm^3
# Si number density = 23.026336 Si / 1000 Ang^3
#
#
#
# Elastic Constant Matrix: (Units=GPa)
#
#
# Indices 1 2 3 4 5 6 
#
# 1 89.6132 47.2811 45.2184 -18.9235 -36.9152 -12.2537
# 2 47.2811 146.2191 40.0594 7.6964 -28.1795 -5.8499
# 3 45.2184 40.0594 47.9642 2.7173 -21.7600 -0.0315
# 4 -18.9235 7.6964 2.7173 31.2405 6.5853 -8.5500
# 5 -36.9152 -28.1795 -21.7600 6.5853 48.5334 -0.7569
# 6 -12.2537 -5.8499 -0.0315 -8.5500 -0.7569 32.8311
#
#
#
# Elastic Compliance Matrix: (Units=1/GPa)
#
#
# Indices 1 2 3 4 5 6 
#
# 1 0.055597 -0.003912 -0.045169 0.044289 0.014253 0.031873
# 2 -0.003912 0.009553 -0.003172 -0.005120 0.001827 -0.001052
# 3 -0.045169 -0.003172 0.067997 -0.039943 -0.000725 -0.027777
# 4 0.044289 -0.005120 -0.039943 0.072264 0.003538 0.034480
# 5 0.014253 0.001827 -0.000725 0.003538 0.031815 0.007299
# 6 0.031873 -0.001052 -0.027777 0.034480 0.007299 0.051289
#
#
# Mechanical properties :
#
#
# Convention : Reuss Voigt Hill
#
# Bulk Modulus (GPa) = 34.91533 60.99049 47.95291
# Shear Modulus (GPa) = 12.42028 32.60349 22.51189
#
# Velocity S-wave (km/s) = 2.32501 3.76696 3.13014
# Velocity P-wave (km/s) = 4.73325 6.74275 5.82531
#
# Compressibility (1/GPa) = 0.02864071
#
# Stress axis : x y z
#
# Youngs Moduli (GPa) = 17.98646 104.68391 14.70650
#
# Poissons Ratio (x) = 0.40953 0.66428
# Poissons Ratio (y) = 0.07036 0.04665
# Poissons Ratio (z) = 0.81243 0.33204
#
# Static dielectric constant tensor:
#      x y z
#    x 1.717490 -0.076030 -0.130940 
#    y -0.076030 1.780970 -0.072480 
#    z -0.130940 -0.072480 1.853280 
# 
# From -- ./inp_files/197444.got.cif
#   From: 2010.05.17/outbox.cif.g08.bks.cpg/sg2_99_cif.got.tgz:197444.got - 2010.06.03 11:33:40.
