data_PCOD9096662
_publ_section_title
;
Structure prediction by ZEFSAII (Michael W. Deem and Ramdas Pophale) SiO2 
 PCOD9096662
Probable space group: P -1
;
_chemical_formula_sum "Si O2"
_cell_formula_units_Z 16
_cell_length_a 13.435695
_cell_length_b 11.550229
_cell_length_c 11.640820
_cell_angle_alpha 42.884849
_cell_angle_beta 84.214810
_cell_angle_gamma 118.233551
_cell_volume 720.977995
_symmetry_space_group_name_H-M "P -1"
_symmetry_group_IT_number 2
_symmetry_cell_setting 'triclinic'
loop_
_space_group_symop_operation_xyz
x,y,z
-x,-y,-z
loop_
_atom_site_type_symbol
_atom_site_label
_atom_site_fract_x
_atom_site_fract_y
_atom_site_fract_z
Si Si1 0.080028 0.803075 0.656696
Si Si2 0.819811 0.167015 0.726165
Si Si3 0.361788 0.325622 0.742241
Si Si4 0.650962 0.898536 0.408107
Si Si5 0.098702 0.989745 0.849806
Si Si6 0.269110 0.645490 0.849258
Si Si7 0.115086 0.087294 0.240771
Si Si8 0.198112 0.655817 0.610945
O O1 0.081896 0.647125 0.683578
O O2 0.259514 0.038668 0.529857
O O3 0.061970 0.937773 0.477728
O O4 0.929249 0.589445 0.921940
O O5 0.733661 0.177786 0.637236
O O6 0.000000 0.500000 0.500000
O O7 0.839774 0.013888 0.768828
O O8 0.707050 0.950353 0.003874
O O9 0.500000 0.500000 0.500000
O O10 0.464623 0.568120 0.650764
O O11 0.206677 0.208741 0.784169
O O12 0.779386 0.987663 0.236748
O O13 0.647245 0.099175 0.262835
O O14 0.035893 0.028887 0.728626
O O15 0.930286 0.674399 0.149055
O O16 0.312494 0.764160 0.628221
O O17 0.261229 0.429832 0.001483
#
# Coordination Sequence:
#
# PCOD9096662 Si02
#       8
#     2   2   2   2   2   2   2   2
#     4  10  16  30  55  89 118 146 190 238 280 328
#     4  11  22  39  59  85 112 151 197 245 286 335
#     4  10  23  38  61  84 112 157 196 230 287 360
#     4  10  18  33  60  82 120 155 187 225 287 344
#     4  10  17  35  55  90 115 145 194 240 278 330
#     4  10  17  32  55  89 115 152 189 237 278 335
#     4  10  22  30  57  93 116 140 199 251 280 324
#     4   9  16  30  55  84 108 140 193 236 271 327
#
# _framework density 22.192079
#
# number of rings (size 3 to 8) (size 9 to 14) (size 15 to 20)
#    0.000    2.000    5.000    1.125    0.000    0.500 
#    0.000    6.250    2.750    2.250    0.000    0.000 
#    0.000    0.000    0.000    0.000    0.000    0.000 
#
# Total GULP energy -89097.849248 kJ/mol
# GULP energy per Si atom -5568.615578 kJ/mol
# Density = 2.214157 g / cm^3
# Si number density = 22.192079 Si / 1000 Ang^3
#
#
#
# Elastic Constant Matrix: (Units=GPa)
#
#
# Indices 1 2 3 4 5 6 
#
# 1 53.2774 29.6934 22.2258 0.0518 12.6491 -15.8250
# 2 29.6934 91.1870 52.5231 -13.6036 6.3000 13.4047
# 3 22.2258 52.5231 113.9948 3.0474 20.7157 0.6247
# 4 0.0518 -13.6036 3.0474 48.8057 1.5149 2.9945
# 5 12.6491 6.3000 20.7157 1.5149 24.1580 4.1947
# 6 -15.8250 13.4047 0.6247 2.9945 4.1947 36.3370
#
#
#
# Elastic Compliance Matrix: (Units=1/GPa)
#
#
# Indices 1 2 3 4 5 6 
#
# 1 0.044107 -0.021949 0.006630 -0.007615 -0.027969 0.031048
# 2 -0.021949 0.028813 -0.012395 0.009672 0.017968 -0.022846
# 3 0.006630 -0.012395 0.016048 -0.004560 -0.015334 0.009330
# 4 -0.007615 0.009672 -0.004560 0.023885 0.005512 -0.009411
# 5 -0.027969 0.017968 -0.015334 0.005512 0.068835 -0.026946
# 6 0.031048 -0.022846 0.009330 -0.009411 -0.026946 0.053196
#
#
# Mechanical properties :
#
#
# Convention : Reuss Voigt Hill
#
# Bulk Modulus (GPa) = 29.81554 51.92709 40.87132
# Shear Modulus (GPa) = 16.58416 32.12794 24.35605
#
# Velocity S-wave (km/s) = 2.73665 3.80902 3.31646
# Velocity P-wave (km/s) = 4.84252 6.54176 5.75520
#
# Compressibility (1/GPa) = 0.03353956
#
# Stress axis : x y z
#
# Youngs Moduli (GPa) = 22.67204 34.70633 62.31304
#
# Poissons Ratio (x) = 0.76178 -0.41310
# Poissons Ratio (y) = 0.49763 0.77235
# Poissons Ratio (z) = -0.15030 0.43018
#
# Static dielectric constant tensor:
#      x y z
#    x 1.871060 -0.014360 -0.002730 
#    y -0.014360 1.935710 0.002120 
#    z -0.002730 0.002120 1.834910 
# 
# From -- ./inp_files/312428.got.cif
#   From: 2010.05.17/outbox.cif.g08.bks.cpg/sg2_157_cif.got.tgz:312428.got - 2010.06.03 11:33:40.
