data_PCOD9096187
_publ_section_title
;
Structure prediction by ZEFSAII (Michael W. Deem and Ramdas Pophale) SiO2 
 PCOD9096187
Probable space group: P -1
;
_chemical_formula_sum "Si O2"
_cell_formula_units_Z 16
_cell_length_a 21.887194
_cell_length_b 8.288380
_cell_length_c 11.405418
_cell_angle_alpha 131.925623
_cell_angle_beta 141.399921
_cell_angle_gamma 33.854318
_cell_volume 718.013251
_symmetry_space_group_name_H-M "P -1"
_symmetry_group_IT_number 2
_symmetry_cell_setting 'triclinic'
loop_
_space_group_symop_operation_xyz
x,y,z
-x,-y,-z
loop_
_atom_site_type_symbol
_atom_site_label
_atom_site_fract_x
_atom_site_fract_y
_atom_site_fract_z
Si Si1 0.523875 0.331806 0.284158
Si Si2 0.091103 0.195834 0.917633
Si Si3 0.863552 0.313546 0.925012
Si Si4 0.750220 0.411961 0.034957
Si Si5 0.196800 0.170751 0.612558
Si Si6 0.977555 0.592350 0.321926
Si Si7 0.537419 0.096349 0.435361
Si Si8 0.705695 0.743924 0.721893
O O1 0.547601 0.125819 0.326871
O O2 0.488338 0.624046 0.417243
O O3 0.661635 0.143749 0.333690
O O4 0.396244 0.436848 0.074511
O O5 0.024715 0.253868 0.720351
O O6 0.132715 0.911580 0.901451
O O7 0.229445 0.121077 0.086316
O O8 0.000000 0.500000 0.000000
O O9 0.809738 0.410150 0.759846
O O10 0.757006 0.377215 0.886382
O O11 0.894853 0.510580 0.109537
O O12 0.000000 0.000000 0.000000
O O13 0.778896 0.614180 0.212836
O O14 0.099980 0.212885 0.585376
O O15 0.116836 0.297938 0.432376
O O16 0.418498 0.121562 0.315499
O O17 0.661877 0.817315 0.557014
#
# Coordination Sequence:
#
# PCOD9096187 Si02
#       8
#     2   2   2   2   2   2   2   2
#     4  11  22  39  64  89 122 161 210 253 315 358
#     4  11  23  39  65  92 125 157 198 263 314 358
#     4  10  20  35  63  87 119 158 196 254 317 361
#     4  11  21  40  58  89 120 159 212 247 301 369
#     4  10  23  41  64  84 120 172 204 247 301 375
#     4   9  22  42  59  87 125 153 210 253 295 376
#     4  10  22  36  63  89 124 156 199 270 300 366
#     4  10  20  38  54  91 126 150 191 248 318 352
#
# _framework density 22.283709999999999
#
# number of rings (size 3 to 8) (size 9 to 14) (size 15 to 20)
#    0.000    1.750    2.500    1.875    3.500    0.500 
#    2.250    3.125    0.000    0.000    0.000    0.000 
#    0.000    0.000    0.000    0.000    0.000    0.000 
#
# Total GULP energy -89269.451904 kJ/mol
# GULP energy per Si atom -5579.340744 kJ/mol
# Density = 2.223299 g / cm^3
# Si number density = 22.283710 Si / 1000 Ang^3
#
#
#
# Elastic Constant Matrix: (Units=GPa)
#
#
# Indices 1 2 3 4 5 6 
#
# 1 47.9686 17.1136 15.0137 -12.4825 -7.7640 5.1404
# 2 17.1136 89.6256 23.4884 -36.6216 -21.2694 7.0110
# 3 15.0137 23.4884 59.9767 -21.0877 -4.2359 -0.6318
# 4 -12.4825 -36.6216 -21.0877 37.9573 11.6807 1.2976
# 5 -7.7640 -21.2694 -4.2359 11.6807 36.8584 -15.6526
# 6 5.1404 7.0110 -0.6318 1.2976 -15.6526 25.0555
#
#
#
# Elastic Compliance Matrix: (Units=1/GPa)
#
#
# Indices 1 2 3 4 5 6 
#
# 1 0.024316 -0.001234 -0.004006 0.004579 0.000521 -0.004656
# 2 -0.001234 0.019930 -0.001280 0.016947 0.004186 -0.003618
# 3 -0.004006 -0.001280 0.021592 0.010224 -0.002496 -0.000364
# 4 0.004579 0.016947 0.010224 0.054062 -0.011850 -0.015626
# 5 0.000521 0.004186 -0.002496 -0.011850 0.044666 0.027176
# 6 -0.004656 -0.003618 -0.000364 -0.015626 0.027176 0.059656
#
#
# Mechanical properties :
#
#
# Convention : Reuss Voigt Hill
#
# Bulk Modulus (GPa) = 18.94048 34.31137 26.62592
# Shear Modulus (GPa) = 19.61851 29.43792 24.52822
#
# Velocity S-wave (km/s) = 2.97037 3.63857 3.32132
# Velocity P-wave (km/s) = 4.50358 5.75180 5.16553
#
# Compressibility (1/GPa) = 0.05279698
#
# Stress axis : x y z
#
# Youngs Moduli (GPa) = 41.12534 50.17617 46.31405
#
# Poissons Ratio (x) = 0.06194 0.18552
# Poissons Ratio (y) = 0.05077 0.05928
# Poissons Ratio (z) = 0.16474 0.06422
#
# Static dielectric constant tensor:
#      x y z
#    x 1.943610 0.034110 -0.008130 
#    y 0.034110 1.834390 -0.028550 
#    z -0.008130 -0.028550 1.842240 
# 
# From -- ./inp_files/272414.got.cif
#   From: 2010.05.17/outbox.cif.g08.bks.cpg/sg2_137_cif.got.tgz:272414.got - 2010.06.03 11:33:40.
