data_PCOD9096991
_publ_section_title
;
Structure prediction by ZEFSAII (Michael W. Deem and Ramdas Pophale) SiO2 
 PCOD9096991
Probable space group: P -1
;
_chemical_formula_sum "Si O2"
_cell_formula_units_Z 16
_cell_length_a 12.240513
_cell_length_b 18.223973
_cell_length_c 21.667063
_cell_angle_alpha 153.434166
_cell_angle_beta 159.045726
_cell_angle_gamma 38.479526
_cell_volume 730.296297
_symmetry_space_group_name_H-M "P -1"
_symmetry_group_IT_number 2
_symmetry_cell_setting 'triclinic'
loop_
_space_group_symop_operation_xyz
x,y,z
-x,-y,-z
loop_
_atom_site_type_symbol
_atom_site_label
_atom_site_fract_x
_atom_site_fract_y
_atom_site_fract_z
Si Si1 0.253591 0.348499 0.688230
Si Si2 0.154830 0.131266 0.790393
Si Si3 0.552073 0.161388 0.558823
Si Si4 0.339265 0.468157 0.065907
Si Si5 0.790790 0.183824 0.841669
Si Si6 0.299183 0.517262 0.318875
Si Si7 0.418676 0.749865 0.776078
Si Si8 0.728757 0.213508 0.402985
O O1 0.480823 0.505060 0.885276
O O2 0.474919 0.231880 0.731816
O O3 0.949914 0.260397 0.416197
O O4 0.053504 0.353105 0.648097
O O5 0.795872 0.137929 0.618158
O O6 0.173850 0.946488 0.640331
O O7 0.337500 0.294758 0.967502
O O8 0.337839 0.165051 0.978092
O O9 0.515580 0.351677 0.683566
O O10 0.729881 0.155366 0.714265
O O11 0.234352 0.992543 0.269296
O O12 0.969438 0.459632 0.852200
O O13 0.094070 0.358219 0.135496
O O14 0.555168 0.442667 0.365746
O O15 0.412213 0.690448 0.548597
O O16 0.491963 0.840547 0.815616
#
# Coordination Sequence:
#
# PCOD9096991 Si02
#       8
#     2   2   2   2   2   2   2   2
#     4   8  19  35  51  83 105 144 181 228 267 320
#     4  12  20  36  57  85 112 147 183 224 272 332
#     4   9  16  31  52  82 108 136 180 228 269 313
#     4  10  22  34  59  83 113 143 183 227 278 320
#     4   9  16  31  56  81 109 135 182 236 266 308
#     4  10  20  37  59  83 110 145 181 230 275 328
#     4  10  20  36  59  79 109 146 188 224 275 316
#     4  10  22  35  58  82 113 143 187 223 275 322
#
# _framework density 21.908916000000001
#
# number of rings (size 3 to 8) (size 9 to 14) (size 15 to 20)
#    0.750    1.750    3.750    1.125    0.000    3.000 
#    0.000    0.000    0.000    0.750    0.000    0.000 
#    0.000    0.000    0.000    0.000    0.000    0.000 
#
# Total GULP energy -89082.935068 kJ/mol
# GULP energy per Si atom -5567.683442 kJ/mol
# Density = 2.185905 g / cm^3
# Si number density = 21.908916 Si / 1000 Ang^3
#
#
#
# Elastic Constant Matrix: (Units=GPa)
#
#
# Indices 1 2 3 4 5 6 
#
# 1 18.0129 13.7908 18.2151 22.2589 2.6647 -8.7945
# 2 13.7908 78.6692 23.8110 24.9032 2.7441 -3.9707
# 3 18.2151 23.8110 49.1857 26.2426 5.0549 6.6808
# 4 22.2589 24.9032 26.2426 43.5675 2.0880 7.0011
# 5 2.6647 2.7441 5.0549 2.0880 21.0994 4.2733
# 6 -8.7945 -3.9707 6.6808 7.0011 4.2733 16.6097
#
#
#
# Elastic Compliance Matrix: (Units=1/GPa)
#
#
# Indices 1 2 3 4 5 6 
#
# 1 -0.151822 -0.021117 0.034338 0.090829 0.034350 -0.146368
# 2 -0.021117 0.014636 -0.000370 0.004119 0.002449 -0.009899
# 3 0.034338 -0.000370 0.024525 -0.035771 -0.011968 0.026385
# 4 0.090829 0.004119 -0.035771 -0.015389 -0.016965 0.074316
# 5 0.034350 0.002449 -0.011968 -0.016965 0.043316 0.019594
# 6 -0.146368 -0.009899 0.026385 0.074316 0.019594 -0.066637
#
#
# Mechanical properties :
#
#
# Convention : Reuss Voigt Hill
#
# Bulk Modulus (GPa) = -11.49963 28.61130 8.55584
# Shear Modulus (GPa) = -24.26477 22.25872 -1.00302
#
# Velocity S-wave (km/s) = -3.33157 3.19088 -0.67735
# Velocity P-wave (km/s) = 4.47877 5.16364 1.81712
#
# Compressibility (1/GPa) = -0.08695936
#
# Stress axis : x y z
#
# Youngs Moduli (GPa) = -6.58664 68.32350 40.77433
#
# Poissons Ratio (x) = 1.44278 -1.40009
# Poissons Ratio (y) = -0.13909 0.01508
# Poissons Ratio (z) = 0.22617 0.02527
#
# Static dielectric constant tensor:
#      x y z
#    x 1.842770 -0.025220 -0.009000 
#    y -0.025220 1.843670 -0.009000 
#    z -0.009000 -0.009000 1.908090 
# 
# From -- ./inp_files/619839.got.cif
#   From: 2010.05.17/outbox.cif.g08.bks.cpg/sg2_310_cif.got.tgz:619839.got - 2010.06.03 11:33:40.
