data_PCOD9096076
_publ_section_title
;
Structure prediction by ZEFSAII (Michael W. Deem and Ramdas Pophale) SiO2 
 PCOD9096076
Probable space group: P -1
;
_chemical_formula_sum "Si O2"
_cell_formula_units_Z 12
_cell_length_a 11.005858
_cell_length_b 10.375542
_cell_length_c 12.009876
_cell_angle_alpha 89.773801
_cell_angle_beta 63.973225
_cell_angle_gamma 35.798556
_cell_volume 535.399165
_symmetry_space_group_name_H-M "P -1"
_symmetry_group_IT_number 2
_symmetry_cell_setting 'triclinic'
loop_
_space_group_symop_operation_xyz
x,y,z
-x,-y,-z
loop_
_atom_site_type_symbol
_atom_site_label
_atom_site_fract_x
_atom_site_fract_y
_atom_site_fract_z
Si Si1 0.464350 0.835387 0.901251
Si Si2 0.541192 0.652330 0.500040
Si Si3 0.068088 0.361698 0.362501
Si Si4 0.174203 0.006416 0.251360
Si Si5 0.109212 0.017419 0.873115
Si Si6 0.141075 0.753222 0.263658
O O1 0.681449 0.772647 0.806759
O O2 0.670070 0.535165 0.783318
O O3 0.187188 0.072043 0.920470
O O4 0.341645 0.909740 0.072650
O O5 0.745964 0.607522 0.426361
O O6 0.804094 0.322171 0.365946
O O7 0.413539 0.732657 0.675070
O O8 0.224506 0.940555 0.558577
O O9 0.193211 0.108193 0.329388
O O10 0.000000 0.500000 0.500000
O O11 0.262224 0.788158 0.254166
O O12 0.863791 0.240839 0.870615
O O13 0.000000 0.000000 0.000000
#
# Coordination Sequence:
#
# PCOD9096076 Si02
#       6
#     2   2   2   2   2   2
#     4  12  20  37  65  87 114 158 191 237 290 345
#     4   8  20  37  57  81 122 152 186 239 288 337
#     4  10  20  38  60  83 121 157 192 231 297 346
#     4  10  20  35  62  85 117 154 194 236 291 343
#     4  10  20  36  60  83 121 150 187 239 299 326
#     4  10  21  36  62  90 116 145 204 236 284 341
#
# _framework density 22.413181999999999
#
# number of rings (size 3 to 8) (size 9 to 14) (size 15 to 20)
#    2.000    0.000    3.333    1.500    0.000    0.667 
#    0.000    3.333    7.333    3.000    0.000    0.000 
#    0.000    0.000    0.000    0.000    0.000    0.000 
#
# Total GULP energy -66820.613909 kJ/mol
# GULP energy per Si atom -5568.384492 kJ/mol
# Density = 2.236217 g / cm^3
# Si number density = 22.413182 Si / 1000 Ang^3
#
#
#
# Elastic Constant Matrix: (Units=GPa)
#
#
# Indices 1 2 3 4 5 6 
#
# 1 144.8491 16.2478 20.3413 -0.3530 -10.2755 13.0852
# 2 16.2478 40.5786 9.0798 -4.1924 5.9192 10.9971
# 3 20.3413 9.0798 88.9813 9.8543 -25.5662 -3.6038
# 4 -0.3530 -4.1924 9.8543 27.6655 1.3235 7.2703
# 5 -10.2755 5.9192 -25.5662 1.3235 38.4294 6.2124
# 6 13.0852 10.9971 -3.6038 7.2703 6.2124 18.4985
#
#
#
# Elastic Compliance Matrix: (Units=1/GPa)
#
#
# Indices 1 2 3 4 5 6 
#
# 1 0.008053 -0.001063 -0.001603 0.002252 0.002311 -0.007038
# 2 -0.001063 0.037057 -0.008705 0.016076 -0.008038 -0.026593
# 3 -0.001603 -0.008705 0.017290 -0.010696 0.011144 0.010138
# 4 0.002252 0.016076 -0.010696 0.050929 -0.005677 -0.031343
# 5 0.002311 -0.008038 0.011144 -0.005677 0.036235 -0.004623
# 6 -0.007038 -0.026593 0.010138 -0.031343 -0.004623 0.090692
#
#
# Mechanical properties :
#
#
# Convention : Reuss Voigt Hill
#
# Bulk Modulus (GPa) = 25.21543 40.63853 32.92698
# Shear Modulus (GPa) = 18.10165 32.16801 25.13483
#
# Velocity S-wave (km/s) = 2.84497 3.79255 3.35241
# Velocity P-wave (km/s) = 4.69750 6.11137 5.45047
#
# Compressibility (1/GPa) = 0.03965825
#
# Stress axis : x y z
#
# Youngs Moduli (GPa) = 124.17291 26.98531 57.83619
#
# Poissons Ratio (x) = 0.02869 0.09271
# Poissons Ratio (y) = 0.13200 0.50348
# Poissons Ratio (z) = 0.19905 0.23491
#
# Static dielectric constant tensor:
#      x y z
#    x 1.867580 -0.047480 -0.006660 
#    y -0.047480 1.890140 0.049030 
#    z -0.006660 0.049030 1.843630 
# 
# From -- ./inp_files/391070.got.cif
#   From: 2010.05.17/outbox.cif.g08.bks.cpg/sg2_196_cif.got.tgz:391070.got - 2010.06.03 11:33:40.
