data_PCOD9096465
_publ_section_title
;
Structure prediction by ZEFSAII (Michael W. Deem and Ramdas Pophale) SiO2 
 PCOD9096465
Probable space group: P -1
;
_chemical_formula_sum "Si O2"
_cell_formula_units_Z 16
_cell_length_a 18.374903
_cell_length_b 8.597659
_cell_length_c 20.887573
_cell_angle_alpha 124.999306
_cell_angle_beta 161.498532
_cell_angle_gamma 64.638329
_cell_volume 768.296287
_symmetry_space_group_name_H-M "P -1"
_symmetry_group_IT_number 2
_symmetry_cell_setting 'triclinic'
loop_
_space_group_symop_operation_xyz
x,y,z
-x,-y,-z
loop_
_atom_site_type_symbol
_atom_site_label
_atom_site_fract_x
_atom_site_fract_y
_atom_site_fract_z
Si Si1 0.335177 0.935083 0.028152
Si Si2 0.150085 0.664065 0.469498
Si Si3 0.609521 0.406185 0.914737
Si Si4 0.239334 0.636430 0.109189
Si Si5 0.078155 0.417788 0.482454
Si Si6 0.789226 0.990896 0.770436
Si Si7 0.183227 0.239377 0.052519
Si Si8 0.701407 0.534167 0.573108
O O1 0.350444 0.775953 0.056743
O O2 0.624341 0.099445 0.290265
O O3 0.203292 0.071003 0.981310
O O4 0.157417 0.798534 0.789847
O O5 0.128497 0.577014 0.502304
O O6 0.236764 0.527565 0.460489
O O7 0.866958 0.618904 0.198122
O O8 0.613124 0.371141 0.833554
O O9 0.341873 0.401087 0.709068
O O10 0.348755 0.876571 0.283524
O O11 0.203494 0.444330 0.080305
O O12 0.948999 0.577506 0.831104
O O13 0.000000 0.500000 0.500000
O O14 0.658682 0.743511 0.586509
O O15 0.941784 0.127431 0.869192
O O16 0.000000 0.000000 0.000000
O O17 0.445378 0.334551 0.335439
#
# Coordination Sequence:
#
# PCOD9096465 Si02
#       8
#     2   2   2   2   2   2   2   2
#     4  10  22  39  63  89 118 159 197 238 294 354
#     4   9  20  40  61  88 122 157 199 241 289 352
#     4  10  21  41  62  85 119 157 195 241 297 354
#     4  10  21  36  58  85 115 154 198 243 288 340
#     4  11  24  41  63  91 120 150 191 245 299 357
#     4  10  20  36  55  83 119 154 198 244 287 334
#     4  11  21  37  58  83 117 155 197 241 286 340
#     4   9  20  38  57  80 116 157 195 240 288 339
#
# _framework density 20.825299000000001
#
# number of rings (size 3 to 8) (size 9 to 14) (size 15 to 20)
#    0.000    2.000    0.000    4.875    0.000    9.000 
#    0.000    6.250    0.000    0.000    0.000    0.000 
#    0.000    0.000    0.000    0.000    0.000    0.000 
#
# Total GULP energy -89379.000661 kJ/mol
# GULP energy per Si atom -5586.187541 kJ/mol
# Density = 2.077790 g / cm^3
# Si number density = 20.825299 Si / 1000 Ang^3
#
#
#
# Elastic Constant Matrix: (Units=GPa)
#
#
# Indices 1 2 3 4 5 6 
#
# 1 72.8386 38.1955 49.1629 4.7678 -4.2550 -5.2153
# 2 38.1955 83.3560 43.5789 -9.5002 -3.5221 -6.4537
# 3 49.1629 43.5789 131.0940 11.6125 6.4861 -12.9715
# 4 4.7678 -9.5002 11.6125 23.6039 -1.4284 3.0011
# 5 -4.2550 -3.5221 6.4861 -1.4284 16.7149 0.6548
# 6 -5.2153 -6.4537 -12.9715 3.0011 0.6548 26.4275
#
#
#
# Elastic Compliance Matrix: (Units=1/GPa)
#
#
# Indices 1 2 3 4 5 6 
#
# 1 0.022094 -0.007339 -0.005758 -0.004234 0.005947 0.000075
# 2 -0.007339 0.019675 -0.005227 0.012395 0.005395 -0.000751
# 3 -0.005758 -0.005227 0.013242 -0.008651 -0.008652 0.005284
# 4 -0.004234 0.012395 -0.008651 0.054136 0.009848 -0.008446
# 5 0.005947 0.005395 -0.008652 0.009848 0.066854 -0.004531
# 6 0.000075 -0.000751 0.005284 -0.008446 -0.004531 0.041336
#
#
# Mechanical properties :
#
#
# Convention : Reuss Voigt Hill
#
# Bulk Modulus (GPa) = 54.45778 61.01815 57.73796
# Shear Modulus (GPa) = 19.22299 23.77268 21.49784
#
# Velocity S-wave (km/s) = 3.04149 3.38232 3.21642
# Velocity P-wave (km/s) = 6.20812 6.67960 6.44817
#
# Compressibility (1/GPa) = 0.01836285
#
# Stress axis : x y z
#
# Youngs Moduli (GPa) = 45.26204 50.82602 75.51585
#
# Poissons Ratio (x) = 0.37301 0.43479
# Poissons Ratio (y) = 0.33218 0.39474
# Poissons Ratio (z) = 0.26060 0.26568
#
# Static dielectric constant tensor:
#      x y z
#    x 1.724060 -0.004750 -0.027010 
#    y -0.004750 1.732430 -0.016660 
#    z -0.027010 -0.016660 1.812790 
# 
# From -- ./inp_files/590857.got.cif
#   From: 2010.05.17/outbox.cif.g08.bks.cpg/sg2_296_cif.got.tgz:590857.got - 2010.06.03 11:33:40.
