data_PCOD9096787
_publ_section_title
;
Structure prediction by ZEFSAII (Michael W. Deem and Ramdas Pophale) SiO2 
 PCOD9096787
Probable space group: P -1
;
_chemical_formula_sum "Si O2"
_cell_formula_units_Z 14
_cell_length_a 4.906519
_cell_length_b 6.210961
_cell_length_c 24.374729
_cell_angle_alpha 109.710911
_cell_angle_beta 57.144971
_cell_angle_gamma 104.750093
_cell_volume 585.010350
_symmetry_space_group_name_H-M "P -1"
_symmetry_group_IT_number 2
_symmetry_cell_setting 'triclinic'
loop_
_space_group_symop_operation_xyz
x,y,z
-x,-y,-z
loop_
_atom_site_type_symbol
_atom_site_label
_atom_site_fract_x
_atom_site_fract_y
_atom_site_fract_z
Si Si1 0.847915 0.762111 0.252078
Si Si2 0.175197 0.126907 0.037918
Si Si3 0.243284 0.286796 0.519764
Si Si4 0.898146 0.954988 0.844204
Si Si5 0.462720 0.833224 0.410317
Si Si6 0.490004 0.524011 0.176749
Si Si7 0.420661 0.358113 0.942500
O O1 0.632929 0.797032 0.331303
O O2 0.696974 0.559216 0.211851
O O3 0.203157 0.695522 0.225269
O O4 0.866891 0.976104 0.226087
O O5 0.975852 0.102391 0.113865
O O6 0.371966 0.397986 0.041684
O O7 0.897340 0.819005 0.014471
O O8 0.500000 0.000000 0.000000
O O9 0.500000 0.500000 0.500000
O O10 0.296004 0.199565 0.568517
O O11 0.867847 0.332886 0.559199
O O12 0.335619 0.084701 0.451945
O O13 0.672282 0.731020 0.833372
O O14 0.689380 0.174606 0.892198
O O15 0.681010 0.581589 0.103749
#
# Coordination Sequence:
#
# PCOD9096787 Si02
#       7
#     2   2   2   2   2   2   2
#     4  11  25  42  62  92 130 170 207 252 312 374
#     4  10  20  36  58  82 111 148 198 258 316 362
#     4  10  21  41  69 100 129 163 207 252 302 359
#     4  10  23  42  60  90 123 163 213 262 316 387
#     4  10  22  40  64  98 133 163 207 255 298 367
#     4  11  24  42  62  89 126 168 217 263 314 382
#     4  10  20  40  62  89 115 158 211 273 324 367
#
# _framework density 23.931201000000001
#
# number of rings (size 3 to 8) (size 9 to 14) (size 15 to 20)
#    0.000    1.714    1.429    2.143    0.000    6.857 
#    0.000    2.857    0.000    0.000    0.000    0.000 
#    0.000    0.000    0.000    0.000    0.000    0.000 
#
# Total GULP energy -78160.885366 kJ/mol
# GULP energy per Si atom -5582.920383 kJ/mol
# Density = 2.387673 g / cm^3
# Si number density = 23.931201 Si / 1000 Ang^3
#
#
#
# Elastic Constant Matrix: (Units=GPa)
#
#
# Indices 1 2 3 4 5 6 
#
# 1 103.3008 -6.8228 48.0190 1.4945 3.9477 16.8638
# 2 -6.8228 111.8492 73.8583 -8.9314 6.2569 0.2048
# 3 48.0190 73.8583 182.2062 -13.1671 18.4162 1.0700
# 4 1.4945 -8.9314 -13.1671 19.3846 3.7729 1.2100
# 5 3.9477 6.2569 18.4162 3.7729 31.5282 2.4903
# 6 16.8638 0.2048 1.0700 1.2100 2.4903 25.6512
#
#
#
# Elastic Compliance Matrix: (Units=1/GPa)
#
#
# Indices 1 2 3 4 5 6 
#
# 1 0.014160 0.004422 -0.005860 -0.002820 0.001832 -0.009145
# 2 0.004422 0.013695 -0.006659 0.001495 0.000666 -0.002874
# 3 -0.005860 -0.006659 0.010609 0.005346 -0.005074 0.003703
# 4 -0.002820 0.001495 0.005346 0.058082 -0.010005 -0.000149
# 5 0.001832 0.000666 -0.005074 -0.010005 0.035834 -0.004005
# 6 -0.009145 -0.002874 0.003703 -0.000149 -0.004005 0.045261
#
#
# Mechanical properties :
#
#
# Convention : Reuss Voigt Hill
#
# Bulk Modulus (GPa) = 44.90100 69.71837 57.30969
# Shear Modulus (GPa) = 24.84374 34.13291 29.48832
#
# Velocity S-wave (km/s) = 3.22550 3.78073 3.51410
# Velocity P-wave (km/s) = 5.71621 6.94655 6.36120
#
# Compressibility (1/GPa) = 0.02227122
#
# Stress axis : x y z
#
# Youngs Moduli (GPa) = 70.62152 73.01889 94.25666
#
# Poissons Ratio (x) = -0.32290 0.55230
# Poissons Ratio (y) = -0.31230 0.62767
# Poissons Ratio (z) = 0.41381 0.48625
#
# Static dielectric constant tensor:
#      x y z
#    x 2.403340 0.469890 0.471850 
#    y 0.469890 2.476910 0.319900 
#    z 0.471850 0.319900 2.314770 
# 
# From -- ./inp_files/8862.got.cif
#   From: 2010.05.17/outbox.cif.g08.bks.cpg/sg2_5_cif.got.tgz:8862.got - 2010.06.03 11:33:40.
