data_PCOD9096857
_publ_section_title
;
Structure prediction by ZEFSAII (Michael W. Deem and Ramdas Pophale) SiO2 
 PCOD9096857
Probable space group: P -1
;
_chemical_formula_sum "Si O2"
_cell_formula_units_Z 16
_cell_length_a 6.683755
_cell_length_b 11.080276
_cell_length_c 12.858546
_cell_angle_alpha 109.516074
_cell_angle_beta 77.120429
_cell_angle_gamma 119.333730
_cell_volume 780.444573
_symmetry_space_group_name_H-M "P -1"
_symmetry_group_IT_number 2
_symmetry_cell_setting 'triclinic'
loop_
_space_group_symop_operation_xyz
x,y,z
-x,-y,-z
loop_
_atom_site_type_symbol
_atom_site_label
_atom_site_fract_x
_atom_site_fract_y
_atom_site_fract_z
Si Si1 0.649034 0.993496 0.077449
Si Si2 0.129159 0.220605 0.024556
Si Si3 0.390486 0.013563 0.685699
Si Si4 0.673124 0.485215 0.803543
Si Si5 0.982955 0.633685 0.310283
Si Si6 0.507750 0.462151 0.606521
Si Si7 0.837637 0.788925 0.213555
Si Si8 0.330398 0.775796 0.471528
O O1 0.895663 0.136006 0.092288
O O2 0.535752 0.976178 0.199689
O O3 0.500000 0.000000 0.000000
O O4 0.717395 0.864518 0.013385
O O5 0.276284 0.383219 0.089860
O O6 0.054437 0.210249 0.910042
O O7 0.194869 0.068763 0.726594
O O8 0.568653 0.119575 0.610241
O O9 0.322049 0.859755 0.598418
O O10 0.696199 0.540184 0.696585
O O11 0.421154 0.347632 0.801861
O O12 0.861533 0.427881 0.780805
O O13 0.714934 0.529467 0.318689
O O14 0.977074 0.762983 0.282522
O O15 0.079110 0.671157 0.426967
O O16 0.500000 0.500000 0.500000
O O17 0.516015 0.308277 0.557968
#
# Coordination Sequence:
#
# PCOD9096857 Si02
#       8
#     2   2   2   2   2   2   2   2
#     4  10  24  41  59  88 120 159 197 248 302 351
#     4  10  23  39  59  86 118 158 198 243 304 350
#     4  10  20  40  60  84 127 150 202 249 288 355
#     4  10  21  38  58  86 119 151 201 245 292 356
#     4  10  20  36  58  85 116 154 197 236 306 341
#     4  10  22  39  57  87 122 154 197 248 295 356
#     4  10  20  38  59  88 119 153 197 252 289 356
#     4  10  21  38  59  90 115 159 199 247 295 347
#
# _framework density 20.501135999999999
#
# number of rings (size 3 to 8) (size 9 to 14) (size 15 to 20)
#    0.000    2.000    3.750    0.375    1.750    8.000 
#    0.000    0.000    0.000    0.000    0.000    0.000 
#    0.000    0.000    0.000    0.000    0.000    0.000 
#
# Total GULP energy -89121.216056 kJ/mol
# GULP energy per Si atom -5570.076004 kJ/mol
# Density = 2.045447 g / cm^3
# Si number density = 20.501136 Si / 1000 Ang^3
#
#
#
# Elastic Constant Matrix: (Units=GPa)
#
#
# Indices 1 2 3 4 5 6 
#
# 1 92.8909 23.9761 28.4914 2.8273 6.9198 -16.4125
# 2 23.9761 39.4855 19.8990 10.2627 -2.9061 -8.2677
# 3 28.4914 19.8990 103.6077 -1.5040 2.2239 -13.8280
# 4 2.8273 10.2627 -1.5040 41.7106 -8.8735 4.8000
# 5 6.9198 -2.9061 2.2239 -8.8735 21.8290 -11.1911
# 6 -16.4125 -8.2677 -13.8280 4.8000 -11.1911 16.7579
#
#
#
# Elastic Compliance Matrix: (Units=1/GPa)
#
#
# Indices 1 2 3 4 5 6 
#
# 1 0.014573 -0.005736 -0.001554 -0.000881 -0.000372 0.010164
# 2 -0.005736 0.038931 -0.003122 -0.008639 0.016305 0.024377
# 3 -0.001554 -0.003122 0.011811 0.001101 0.003932 0.008994
# 4 -0.000881 -0.008639 0.001101 0.028504 0.006472 -0.008059
# 5 -0.000372 0.016305 0.003932 0.006472 0.083603 0.064901
# 6 0.010164 0.024377 0.008994 -0.008059 0.064901 0.134727
#
#
# Mechanical properties :
#
#
# Convention : Reuss Voigt Hill
#
# Bulk Modulus (GPa) = 22.47606 42.30189 32.38897
# Shear Modulus (GPa) = 14.37598 26.96733 20.67166
#
# Velocity S-wave (km/s) = 2.65094 3.63079 3.17885
# Velocity P-wave (km/s) = 4.51189 6.18511 5.41353
#
# Compressibility (1/GPa) = 0.04449179
#
# Stress axis : x y z
#
# Youngs Moduli (GPa) = 68.62079 25.68619 84.66869
#
# Poissons Ratio (x) = 0.14733 0.13158
# Poissons Ratio (y) = 0.39359 0.26432
# Poissons Ratio (z) = 0.10664 0.08019
#
# Static dielectric constant tensor:
#      x y z
#    x 1.711770 0.032860 -0.006030 
#    y 0.032860 1.810480 -0.056920 
#    z -0.006030 -0.056920 1.744260 
# 
# From -- ./inp_files/100964.got.cif
#   From: 2010.05.17/outbox.cif.g08.bks.cpg/sg2_51_cif.got.tgz:100964.got - 2010.06.03 11:33:40.
