data_PCOD9096648
_publ_section_title
;
Structure prediction by ZEFSAII (Michael W. Deem and Ramdas Pophale) SiO2 
 PCOD9096648
Probable space group: P -1
;
_chemical_formula_sum "Si O2"
_cell_formula_units_Z 16
_cell_length_a 5.152988
_cell_length_b 17.918113
_cell_length_c 19.810150
_cell_angle_alpha 156.223633
_cell_angle_beta 94.269087
_cell_angle_gamma 76.042440
_cell_volume 663.758657
_symmetry_space_group_name_H-M "P -1"
_symmetry_group_IT_number 2
_symmetry_cell_setting 'triclinic'
loop_
_space_group_symop_operation_xyz
x,y,z
-x,-y,-z
loop_
_atom_site_type_symbol
_atom_site_label
_atom_site_fract_x
_atom_site_fract_y
_atom_site_fract_z
Si Si1 0.507669 0.566706 0.436777
Si Si2 0.069670 0.922490 0.797078
Si Si3 0.102226 0.701758 0.117884
Si Si4 0.368051 0.874134 0.936882
Si Si5 0.924563 0.657622 0.425261
Si Si6 0.769259 0.724137 0.953120
Si Si7 0.703133 0.069934 0.789813
Si Si8 0.587296 0.786374 0.277958
O O1 0.367206 0.727498 0.627476
O O2 0.594881 0.336228 0.270502
O O3 0.778598 0.573975 0.410512
O O4 0.237862 0.640451 0.440054
O O5 0.103900 0.118162 0.932912
O O6 0.831489 0.929362 0.743813
O O7 0.936487 0.972273 0.909559
O O8 0.112238 0.827655 0.156071
O O9 0.311146 0.759618 0.219913
O O10 0.799337 0.784176 0.219186
O O11 0.225447 0.458887 0.898961
O O12 0.549073 0.775392 0.927549
O O13 0.500000 0.000000 0.000000
O O14 0.713699 0.887736 0.592059
O O15 0.991281 0.503650 0.237446
O O16 0.595500 0.763362 0.051085
O O17 0.500000 0.000000 0.500000
#
# Coordination Sequence:
#
# PCOD9096648 Si02
#       8
#     2   2   2   2   2   2   2   2
#     4  10  20  37  57  79 112 149 189 241 303 354
#     4  10  20  37  59  79 119 152 192 250 308 351
#     4  10  23  40  65  97 127 169 214 258 303 372
#     4  10  22  38  56  82 114 155 205 248 298 369
#     4  10  20  36  57  82 116 152 186 240 302 355
#     4  10  20  37  58  82 116 158 190 251 307 357
#     4  10  22  37  59  91 120 153 201 250 301 361
#     4  10  22  44  65  90 135 172 207 256 310 357
#
# _framework density 24.105145
#
# number of rings (size 3 to 8) (size 9 to 14) (size 15 to 20)
#    0.000    2.000    2.500    0.375    1.750    2.000 
#    2.250    0.625    0.000    0.000    0.000    0.000 
#    0.000    0.000    0.000    0.000    0.000    0.000 
#
# Total GULP energy -89146.575406 kJ/mol
# GULP energy per Si atom -5571.660963 kJ/mol
# Density = 2.405028 g / cm^3
# Si number density = 24.105145 Si / 1000 Ang^3
#
#
#
# Elastic Constant Matrix: (Units=GPa)
#
#
# Indices 1 2 3 4 5 6 
#
# 1 63.7252 28.1117 31.6043 -8.6453 -2.6694 23.9594
# 2 28.1117 106.0754 74.1097 -5.2297 -8.7087 31.6219
# 3 31.6043 74.1097 233.5329 -0.4025 -9.8082 31.9241
# 4 -8.6453 -5.2297 -0.4025 30.4259 9.8722 -2.1058
# 5 -2.6694 -8.7087 -9.8082 9.8722 33.8957 -2.9161
# 6 23.9594 31.6219 31.9241 -2.1058 -2.9161 55.5141
#
#
#
# Elastic Compliance Matrix: (Units=1/GPa)
#
#
# Indices 1 2 3 4 5 6 
#
# 1 0.020537 -0.002535 -0.001120 0.005414 -0.001507 -0.006650
# 2 -0.002535 0.014103 -0.003390 0.000735 0.001810 -0.004867
# 3 -0.001120 -0.003390 0.005662 -0.001194 0.000955 -0.000837
# 4 0.005414 0.000735 -0.001194 0.037966 -0.010891 -0.001201
# 5 -0.001507 0.001810 0.000955 -0.010891 0.033332 0.000408
# 6 -0.006650 -0.004867 -0.000837 -0.001201 0.000408 0.024113
#
#
# Mechanical properties :
#
#
# Convention : Reuss Voigt Hill
#
# Bulk Modulus (GPa) = 38.14865 74.55388 56.35127
# Shear Modulus (GPa) = 31.53767 41.93432 36.73600
#
# Velocity S-wave (km/s) = 3.62102 4.17543 3.90807
# Velocity P-wave (km/s) = 5.77431 7.36487 6.61755
#
# Compressibility (1/GPa) = 0.02621325
#
# Stress axis : x y z
#
# Youngs Moduli (GPa) = 48.69144 70.90641 176.62304
#
# Poissons Ratio (x) = 0.17974 0.19780
# Poissons Ratio (y) = 0.12342 0.59872
# Poissons Ratio (z) = 0.05453 0.24036
#
# Static dielectric constant tensor:
#      x y z
#    x 2.177410 -0.265280 0.134690 
#    y -0.265280 2.063630 -0.172050 
#    z 0.134690 -0.172050 2.217210 
# 
# From -- ./inp_files/52559.got.cif
#   From: 2010.05.17/outbox.cif.g08.bks.cpg/sg2_27_cif.got.tgz:52559.got - 2010.06.03 11:33:40.
