data_PCOD9096017
_publ_section_title
;
Structure prediction by ZEFSAII (Michael W. Deem and Ramdas Pophale) SiO2 
 PCOD9096017
Probable space group: P -1
;
_chemical_formula_sum "Si O2"
_cell_formula_units_Z 16
_cell_length_a 13.214136
_cell_length_b 13.841844
_cell_length_c 7.673728
_cell_angle_alpha 137.844444
_cell_angle_beta 119.038827
_cell_angle_gamma 52.710883
_cell_volume 747.721241
_symmetry_space_group_name_H-M "P -1"
_symmetry_group_IT_number 2
_symmetry_cell_setting 'triclinic'
loop_
_space_group_symop_operation_xyz
x,y,z
-x,-y,-z
loop_
_atom_site_type_symbol
_atom_site_label
_atom_site_fract_x
_atom_site_fract_y
_atom_site_fract_z
Si Si1 0.651663 0.932673 0.417120
Si Si2 0.004826 0.587745 0.299051
Si Si3 0.997223 0.883960 0.103791
Si Si4 0.790515 0.394459 0.297907
Si Si5 0.591718 0.971689 0.876076
Si Si6 0.264192 0.878003 0.969565
Si Si7 0.757045 0.665795 0.410829
Si Si8 0.887609 0.885527 0.371564
O O1 0.688251 0.762056 0.308763
O O2 0.742834 0.910524 0.297213
O O3 0.507624 0.009304 0.338386
O O4 0.698831 0.036466 0.723785
O O5 0.147712 0.527599 0.408345
O O6 0.904605 0.592917 0.372450
O O7 0.276338 0.473479 0.728191
O O8 0.000000 0.500000 0.000000
O O9 0.944042 0.827303 0.151004
O O10 0.084708 0.741158 0.866761
O O11 0.088299 0.960083 0.361325
O O12 0.879559 0.014391 0.072936
O O13 0.040691 0.233903 0.572718
O O14 0.720781 0.295615 0.195869
O O15 0.710057 0.803941 0.704576
O O16 0.644741 0.106167 0.083573
O O17 0.500000 0.000000 0.000000
#
# Coordination Sequence:
#
# PCOD9096017 Si02
#       8
#     2   2   2   2   2   2   2   2
#     4  10  21  41  62  87 120 164 219 257 304 370
#     4  11  23  38  58  93 136 171 201 253 316 385
#     4  11  20  35  61  95 131 161 204 256 316 381
#     4  12  22  38  60  94 132 164 202 260 321 376
#     4  11  24  45  68  88 118 167 222 265 309 373
#     4  11  21  38  64  91 121 168 209 259 310 372
#     4  10  23  39  62  91 124 166 209 251 320 368
#     4  10  20  35  61  93 122 166 212 252 308 378
#
# _framework density 21.398347999999999
#
# number of rings (size 3 to 8) (size 9 to 14) (size 15 to 20)
#    0.000    1.250    2.500    6.000    0.000    4.000 
#    0.000    3.125    0.000    0.000    0.000    0.000 
#    0.000    0.000    0.000    0.000    0.000    0.000 
#
# Total GULP energy -89276.187300 kJ/mol
# GULP energy per Si atom -5579.761706 kJ/mol
# Density = 2.134964 g / cm^3
# Si number density = 21.398348 Si / 1000 Ang^3
#
#
#
# Elastic Constant Matrix: (Units=GPa)
#
#
# Indices 1 2 3 4 5 6 
#
# 1 172.0835 44.6337 35.0837 16.9889 -5.7872 21.7315
# 2 44.6337 60.6722 13.1814 -3.5999 15.8388 11.2857
# 3 35.0837 13.1814 69.5587 -3.0028 -8.4094 -0.0800
# 4 16.9889 -3.5999 -3.0028 20.8283 -1.4053 5.9370
# 5 -5.7872 15.8388 -8.4094 -1.4053 30.6604 -2.1723
# 6 21.7315 11.2857 -0.0800 5.9370 -2.1723 36.0307
#
#
#
# Elastic Compliance Matrix: (Units=1/GPa)
#
#
# Indices 1 2 3 4 5 6 
#
# 1 0.009777 -0.007868 -0.003291 -0.009028 0.004475 -0.001682
# 2 -0.007868 0.029761 -0.003305 0.012066 -0.017754 -0.007642
# 3 -0.003291 -0.003305 0.017614 0.004300 0.006308 0.002731
# 4 -0.009028 0.012066 0.004300 0.060199 -0.004602 -0.008522
# 5 0.004475 -0.017754 0.006308 -0.004602 0.044599 0.006324
# 6 -0.001682 -0.007642 0.002731 -0.008522 0.006324 0.032954
#
#
# Mechanical properties :
#
#
# Convention : Reuss Voigt Hill
#
# Bulk Modulus (GPa) = 35.43301 54.23470 44.83385
# Shear Modulus (GPa) = 21.43708 31.46491 26.45099
#
# Velocity S-wave (km/s) = 3.16857 3.83879 3.51967
# Velocity P-wave (km/s) = 5.47551 6.71183 6.12494
#
# Compressibility (1/GPa) = 0.02822227
#
# Stress axis : x y z
#
# Youngs Moduli (GPa) = 102.27933 33.60127 56.77303
#
# Poissons Ratio (x) = 0.26439 0.18684
# Poissons Ratio (y) = 0.80478 0.18766
# Poissons Ratio (z) = 0.33660 0.11107
#
# Static dielectric constant tensor:
#      x y z
#    x 1.841750 0.024180 -0.038150 
#    y 0.024180 1.797600 -0.018070 
#    z -0.038150 -0.018070 1.833320 
# 
# From -- ./inp_files/281283.got.cif
#   From: 2010.05.17/outbox.cif.g08.bks.cpg/sg2_141_cif.got.tgz:281283.got - 2010.06.03 11:33:40.
