data_PCOD9096714
_publ_section_title
;
Structure prediction by ZEFSAII (Michael W. Deem and Ramdas Pophale) SiO2 
 PCOD9096714
Probable space group: P -1
;
_chemical_formula_sum "Si O2"
_cell_formula_units_Z 16
_cell_length_a 12.202353
_cell_length_b 7.678539
_cell_length_c 8.862382
_cell_angle_alpha 79.218482
_cell_angle_beta 88.782406
_cell_angle_gamma 54.777523
_cell_volume 662.476885
_symmetry_space_group_name_H-M "P -1"
_symmetry_group_IT_number 2
_symmetry_cell_setting 'triclinic'
loop_
_space_group_symop_operation_xyz
x,y,z
-x,-y,-z
loop_
_atom_site_type_symbol
_atom_site_label
_atom_site_fract_x
_atom_site_fract_y
_atom_site_fract_z
Si Si1 0.066384 0.581023 0.769616
Si Si2 0.149063 0.054103 0.484318
Si Si3 0.012976 0.738606 0.086052
Si Si4 0.696046 0.841707 0.307395
Si Si5 0.350652 0.655197 0.683285
Si Si6 0.299709 0.847224 0.949403
Si Si7 0.447139 0.302817 0.497969
Si Si8 0.242597 0.732619 0.258959
O O1 0.993658 0.746702 0.605643
O O2 0.993215 0.458289 0.820935
O O3 0.217234 0.389702 0.745468
O O4 0.054575 0.688193 0.915769
O O5 0.200750 0.162224 0.576034
O O6 0.193213 0.840847 0.616522
O O7 0.210827 0.921500 0.345675
O O8 0.113778 0.762931 0.177938
O O9 0.861367 0.957969 0.070765
O O10 0.646510 0.023680 0.149945
O O11 0.579999 0.862376 0.405923
O O12 0.434075 0.432782 0.628267
O O13 0.423113 0.763065 0.591101
O O14 0.347224 0.654943 0.860909
O O15 0.332152 0.742749 0.127694
O O16 0.322210 0.497071 0.373319
#
# Coordination Sequence:
#
# PCOD9096714 Si02
#       8
#     2   2   2   2   2   2   2   2
#     4  10  20  36  58  88 125 154 194 237 291 357
#     4  10  20  36  57  87 119 153 193 238 287 349
#     4  10  21  36  57  89 126 157 184 243 299 346
#     4  10  22  38  60  87 121 158 192 240 296 347
#     4   9  22  40  62  84 117 152 202 249 289 345
#     4  10  21  38  59  88 119 154 196 236 292 350
#     4  10  22  42  61  86 115 158 198 248 296 338
#     4  11  22  37  62  87 122 158 195 238 294 350
#
# _framework density 24.151788
#
# number of rings (size 3 to 8) (size 9 to 14) (size 15 to 20)
#    0.000    2.000    1.250    1.500    1.750    4.500 
#    0.000    7.500    0.000    7.500    0.000    0.000 
#    0.000    0.000    0.000    0.000    0.000    0.000 
#
# Total GULP energy -89226.890859 kJ/mol
# GULP energy per Si atom -5576.680679 kJ/mol
# Density = 2.409682 g / cm^3
# Si number density = 24.151788 Si / 1000 Ang^3
#
#
#
# Elastic Constant Matrix: (Units=GPa)
#
#
# Indices 1 2 3 4 5 6 
#
# 1 75.2076 4.8157 22.2540 -5.9444 -12.2459 17.5953
# 2 4.8157 39.6137 1.2595 23.7546 -1.7055 -0.5223
# 3 22.2540 1.2595 98.0918 27.7157 -7.0722 14.6372
# 4 -5.9444 23.7546 27.7157 51.7416 3.2318 -2.7959
# 5 -12.2459 -1.7055 -7.0722 3.2318 36.6927 0.3805
# 6 17.5953 -0.5223 14.6372 -2.7959 0.3805 24.4187
#
#
#
# Elastic Compliance Matrix: (Units=1/GPa)
#
#
# Indices 1 2 3 4 5 6 
#
# 1 0.018510 -0.005609 -0.003886 0.005917 0.004756 -0.010525
# 2 -0.005609 0.040048 0.008156 -0.023779 0.003685 -0.002771
# 3 -0.003886 0.008156 0.016328 -0.013612 0.003516 -0.008427
# 4 0.005917 -0.023779 -0.013612 0.038973 -0.005269 0.007931
# 5 0.004756 0.003685 0.003516 -0.005269 0.030221 -0.006530
# 6 -0.010525 -0.002771 -0.008427 0.007931 -0.006530 0.054538
#
#
# Mechanical properties :
#
#
# Convention : Reuss Voigt Hill
#
# Bulk Modulus (GPa) = 13.84876 29.95238 21.90057
# Shear Modulus (GPa) = 22.18624 34.87618 28.53121
#
# Velocity S-wave (km/s) = 3.03416 3.80418 3.44078
# Velocity P-wave (km/s) = 4.24515 5.63244 4.98727
#
# Compressibility (1/GPa) = 0.07220863
#
# Stress axis : x y z
#
# Youngs Moduli (GPa) = 54.02492 24.97023 61.24309
#
# Poissons Ratio (x) = 0.14006 0.23798
# Poissons Ratio (y) = 0.30303 -0.49951
# Poissons Ratio (z) = 0.20993 -0.20366
#
# Static dielectric constant tensor:
#      x y z
#    x 2.046840 0.050390 -0.007210 
#    y 0.050390 1.971520 -0.017760 
#    z -0.007210 -0.017760 1.899660 
# 
# From -- ./inp_files/218615.got.cif
#   From: 2010.05.17/outbox.cif.g08.bks.cpg/sg2_110_cif.got.tgz:218615.got - 2010.06.03 11:33:40.
