data_PCOD9096276
_publ_section_title
;
Structure prediction by ZEFSAII (Michael W. Deem and Ramdas Pophale) SiO2 
 PCOD9096276
Probable space group: P -1
;
_chemical_formula_sum "Si O2"
_cell_formula_units_Z 16
_cell_length_a 10.131610
_cell_length_b 11.126741
_cell_length_c 8.958623
_cell_angle_alpha 59.969151
_cell_angle_beta 104.638015
_cell_angle_gamma 128.072439
_cell_volume 685.993328
_symmetry_space_group_name_H-M "P -1"
_symmetry_group_IT_number 2
_symmetry_cell_setting 'triclinic'
loop_
_space_group_symop_operation_xyz
x,y,z
-x,-y,-z
loop_
_atom_site_type_symbol
_atom_site_label
_atom_site_fract_x
_atom_site_fract_y
_atom_site_fract_z
Si Si1 0.022240 0.564388 0.137394
Si Si2 0.154356 0.965108 0.341391
Si Si3 0.308036 0.874438 0.201074
Si Si4 0.045493 0.181435 0.090938
Si Si5 0.425792 0.155506 0.546318
Si Si6 0.467818 0.484772 0.323937
Si Si7 0.924996 0.702170 0.648837
Si Si8 0.314973 0.134579 0.866700
O O1 0.207623 0.725039 0.142467
O O2 0.002384 0.404572 0.312711
O O3 0.000000 0.500000 0.000000
O O4 0.916610 0.644711 0.078418
O O5 0.175877 0.868328 0.277802
O O6 0.974756 0.839555 0.449178
O O7 0.175408 0.133787 0.180414
O O8 0.290501 0.017653 0.476994
O O9 0.426775 0.858175 0.353157
O O10 0.397625 0.054407 0.028104
O O11 0.997875 0.199623 0.234764
O O12 0.883013 0.010570 0.079186
O O13 0.486803 0.336110 0.377464
O O14 0.346521 0.141599 0.694370
O O15 0.500000 0.500000 0.500000
O O16 0.274086 0.419634 0.297303
O O17 0.599756 0.671962 0.178374
#
# Coordination Sequence:
#
# PCOD9096276 Si02
#       8
#     2   2   2   2   2   2   2   2
#     4   9  21  39  62  88 124 160 207 262 306 370
#     4  12  23  39  64  95 133 168 203 264 321 379
#     4  11  25  41  61  96 132 167 210 259 323 376
#     4  10  20  39  65  92 123 164 217 254 317 376
#     4  11  21  40  62  90 129 170 212 254 310 385
#     4  10  20  35  64  95 120 159 217 264 302 367
#     4  11  20  39  64  94 123 162 215 259 313 374
#     4  10  21  40  65  93 119 166 219 264 308 376
#
# _framework density 23.323843
#
# number of rings (size 3 to 8) (size 9 to 14) (size 15 to 20)
#    0.000    1.500    2.500    4.125    0.000    3.500 
#    2.250    1.875    0.000    0.000    0.000    0.000 
#    0.000    0.000    0.000    0.000    0.000    0.000 
#
# Total GULP energy -89227.529790 kJ/mol
# GULP energy per Si atom -5576.720612 kJ/mol
# Density = 2.327076 g / cm^3
# Si number density = 23.323843 Si / 1000 Ang^3
#
#
#
# Elastic Constant Matrix: (Units=GPa)
#
#
# Indices 1 2 3 4 5 6 
#
# 1 68.7604 33.7569 38.7438 1.9366 30.5121 -5.5963
# 2 33.7569 119.7155 52.2483 -13.1800 10.9193 -4.8348
# 3 38.7438 52.2483 95.9943 -9.4119 24.7220 -6.9678
# 4 1.9366 -13.1800 -9.4119 33.6166 -5.9507 11.0157
# 5 30.5121 10.9193 24.7220 -5.9507 39.5957 -2.2367
# 6 -5.5963 -4.8348 -6.9678 11.0157 -2.2367 19.3993
#
#
#
# Elastic Compliance Matrix: (Units=1/GPa)
#
#
# Indices 1 2 3 4 5 6 
#
# 1 0.029671 -0.005609 -0.004234 -0.011933 -0.019895 0.010123
# 2 -0.005609 0.012324 -0.005400 0.005519 0.004952 -0.003049
# 3 -0.004234 -0.005400 0.016724 0.001144 -0.005396 0.002168
# 4 -0.011933 0.005519 0.001144 0.043172 0.012048 -0.024782
# 5 -0.019895 0.004952 -0.005396 0.012048 0.043936 -0.008219
# 6 0.010123 -0.003049 0.002168 -0.024782 -0.008219 0.067612
#
#
# Mechanical properties :
#
#
# Convention : Reuss Voigt Hill
#
# Bulk Modulus (GPa) = 35.41770 59.32981 47.37376
# Shear Modulus (GPa) = 19.73669 29.17042 24.45356
#
# Velocity S-wave (km/s) = 2.91211 3.54032 3.24147
# Velocity P-wave (km/s) = 5.15028 6.49649 5.86216
#
# Compressibility (1/GPa) = 0.02823447
#
# Stress axis : x y z
#
# Youngs Moduli (GPa) = 33.70304 81.14203 59.79371
#
# Poissons Ratio (x) = 0.45512 0.25316
# Poissons Ratio (y) = 0.18904 0.32286
# Poissons Ratio (z) = 0.14270 0.43813
#
# Static dielectric constant tensor:
#      x y z
#    x 1.947890 -0.005840 0.067690 
#    y -0.005840 1.883990 -0.035880 
#    z 0.067690 -0.035880 1.903300 
# 
# From -- ./inp_files/262125.got.cif
#   From: 2010.05.17/outbox.cif.g08.bks.cpg/sg2_132_cif.got.tgz:262125.got - 2010.06.03 11:33:40.
