data_PCOD9096760
_publ_section_title
;
Structure prediction by ZEFSAII (Michael W. Deem and Ramdas Pophale) SiO2 
 PCOD9096760
Probable space group: P -1
;
_chemical_formula_sum "Si O2"
_cell_formula_units_Z 15
_cell_length_a 7.980300
_cell_length_b 17.800996
_cell_length_c 7.518261
_cell_angle_alpha 53.510384
_cell_angle_beta 53.645740
_cell_angle_gamma 40.102411
_cell_volume 533.133992
_symmetry_space_group_name_H-M "P -1"
_symmetry_group_IT_number 2
_symmetry_cell_setting 'triclinic'
loop_
_space_group_symop_operation_xyz
x,y,z
-x,-y,-z
loop_
_atom_site_type_symbol
_atom_site_label
_atom_site_fract_x
_atom_site_fract_y
_atom_site_fract_z
Si Si1 0.289907 0.519574 0.902404
Si Si2 0.334973 0.068842 0.332454
Si Si3 0.061133 0.896027 0.853410
Si Si4 0.846681 0.653251 0.708301
Si Si5 0.102375 0.579042 0.305718
Si Si6 0.500000 0.000000 0.000000
Si Si7 0.456437 0.812045 0.032371
Si Si8 0.217148 0.829316 0.471819
O O1 0.578639 0.488689 0.759365
O O2 0.136500 0.561108 0.753882
O O3 0.299351 0.406846 0.108923
O O4 0.098685 0.610726 0.056533
O O5 0.495811 0.094991 0.059200
O O6 0.021272 0.176403 0.403997
O O7 0.500000 0.000000 0.500000
O O8 0.382052 0.973792 0.292759
O O9 0.198513 0.859262 0.011090
O O10 0.255754 0.819392 0.671216
O O11 0.826618 0.887981 0.004016
O O12 0.941322 0.034630 0.701407
O O13 0.668794 0.759733 0.812342
O O14 0.916192 0.674485 0.443565
O O15 0.000000 0.500000 0.500000
O O16 0.461861 0.747877 0.294515
#
# Coordination Sequence:
#
# PCOD9096760 Si02
#       8
#     2   2   2   2   2   1   2   2
#     4   9  19  40  63  86 118 157 190 228 287 353
#     4  11  21  35  57  78 105 146 192 234 291 337
#     4  10  20  37  58  78 108 150 200 236 284 340
#     4  10  22  36  59  90 121 151 189 240 291 342
#     4   9  18  37  65  90 110 156 196 223 281 356
#     4  10  20  36  58  78 102 152 198 234 286 340
#     4  12  23  37  56  89 116 146 194 247 285 336
#     4  10  21  37  55  79 109 152 189 237 289 340
#
# _framework density 28.135515999999999
#
# number of rings (size 3 to 8) (size 9 to 14) (size 15 to 20)
#    0.000    1.867    2.667    1.600    0.000    2.133 
#    0.000    8.000    0.000    0.000    0.000    0.000 
#    0.000    0.000    0.000    0.000    0.000    0.000 
#
# Total GULP energy -83567.147350 kJ/mol
# GULP energy per Si atom -5571.143157 kJ/mol
# Density = 2.807148 g / cm^3
# Si number density = 28.135516 Si / 1000 Ang^3
#
#
#
# Elastic Constant Matrix: (Units=GPa)
#
#
# Indices 1 2 3 4 5 6 
#
# 1 178.0713 20.1095 78.9493 -10.1084 -8.8616 -6.2084
# 2 20.1095 31.5983 26.0228 -11.8057 -3.6001 -7.5227
# 3 78.9493 26.0228 222.8941 22.7589 -2.7856 5.7040
# 4 -10.1084 -11.8057 22.7589 38.1751 3.2267 2.3304
# 5 -8.8616 -3.6001 -2.7856 3.2267 66.8062 2.1286
# 6 -6.2084 -7.5227 5.7040 2.3304 2.1286 19.3828
#
#
#
# Elastic Compliance Matrix: (Units=1/GPa)
#
#
# Indices 1 2 3 4 5 6 
#
# 1 0.007265 -0.000223 -0.002955 0.003407 0.000580 0.002637
# 2 -0.000223 0.050552 -0.008279 0.019247 0.000796 0.019583
# 3 -0.002955 -0.008279 0.007397 -0.007421 0.000002 -0.005445
# 4 0.003407 0.019247 -0.007421 0.037154 -0.000818 0.006368
# 5 0.000580 0.000796 0.000002 -0.000818 0.015162 -0.001073
# 6 0.002637 0.019583 -0.005445 0.006368 -0.001073 0.060992
#
#
# Mechanical properties :
#
#
# Convention : Reuss Voigt Hill
#
# Bulk Modulus (GPa) = 23.64165 75.85855 49.75010
# Shear Modulus (GPa) = 23.19786 45.37161 34.28473
#
# Velocity S-wave (km/s) = 2.87453 4.02009 3.49457
# Velocity P-wave (km/s) = 4.40889 6.96911 5.83124
#
# Compressibility (1/GPa) = 0.04229822
#
# Stress axis : x y z
#
# Youngs Moduli (GPa) = 137.63783 19.78174 135.19125
#
# Poissons Ratio (x) = 0.00441 0.39955
# Poissons Ratio (y) = 0.03071 1.11929
# Poissons Ratio (z) = 0.40678 0.16378
#
# Static dielectric constant tensor:
#      x y z
#    x 5.378530 2.269290 -0.505750 
#    y 2.269290 3.898240 -0.239620 
#    z -0.505750 -0.239620 2.293050 
# 
# From -- ./inp_files/220710.got.cif
#   From: 2010.05.17/outbox.cif.g08.bks.cpg/sg2_111_cif.got.tgz:220710.got - 2010.06.03 11:33:40.
