data_PCOD9096491
_publ_section_title
;
Structure prediction by ZEFSAII (Michael W. Deem and Ramdas Pophale) SiO2 
 PCOD9096491
Probable space group: P -1
;
_chemical_formula_sum "Si O2"
_cell_formula_units_Z 16
_cell_length_a 6.890123
_cell_length_b 14.168683
_cell_length_c 11.508436
_cell_angle_alpha 50.318830
_cell_angle_beta 129.931792
_cell_angle_gamma 119.466483
_cell_volume 656.583468
_symmetry_space_group_name_H-M "P -1"
_symmetry_group_IT_number 2
_symmetry_cell_setting 'triclinic'
loop_
_space_group_symop_operation_xyz
x,y,z
-x,-y,-z
loop_
_atom_site_type_symbol
_atom_site_label
_atom_site_fract_x
_atom_site_fract_y
_atom_site_fract_z
Si Si1 0.777521 0.137737 0.525597
Si Si2 0.260803 0.895184 0.724123
Si Si3 0.299249 0.076659 0.799601
Si Si4 0.046099 0.581938 0.634946
Si Si5 0.384125 0.539402 0.578880
Si Si6 0.894167 0.577255 0.005588
Si Si7 0.576630 0.285614 0.888120
Si Si8 0.319988 0.243304 0.375126
O O1 0.676222 0.089240 0.399131
O O2 0.931811 0.272977 0.447966
O O3 0.546727 0.165205 0.495798
O O4 0.994453 0.062805 0.720958
O O5 0.701986 0.977132 0.288912
O O6 0.962077 0.833629 0.666307
O O7 0.420542 0.800087 0.928321
O O8 0.416654 0.211397 0.783516
O O9 0.500000 0.000000 0.000000
O O10 0.189393 0.576734 0.571543
O O11 0.170609 0.516372 0.840547
O O12 0.770076 0.502404 0.564458
O O13 0.476639 0.415974 0.762852
O O14 0.598891 0.659377 0.566046
O O15 0.127408 0.678641 0.057708
O O16 0.692037 0.658822 0.813169
O O17 0.000000 0.500000 0.000000
#
# Coordination Sequence:
#
# PCOD9096491 Si02
#       8
#     2   2   2   2   2   2   2   2
#     4  11  22  38  64  92 116 162 206 252 309 361
#     4  10  23  40  64  85 119 161 210 256 305 350
#     4  10  22  43  64  83 116 162 207 259 303 359
#     4  10  22  34  57  90 129 160 195 244 305 375
#     4  10  20  36  55  89 128 156 200 242 305 373
#     4  11  21  37  57  92 132 163 196 243 305 369
#     4  10  20  37  62  85 121 161 200 244 305 363
#     4  10  23  38  60  96 127 155 203 250 304 373
#
# _framework density 24.368569000000001
#
# number of rings (size 3 to 8) (size 9 to 14) (size 15 to 20)
#    0.000    1.750    2.500    1.875    1.750    3.000 
#    0.000    0.000    2.750    3.750    0.000    0.000 
#    0.000    0.000    0.000    0.000    0.000    0.000 
#
# Total GULP energy -89393.569409 kJ/mol
# GULP energy per Si atom -5587.098088 kJ/mol
# Density = 2.431311 g / cm^3
# Si number density = 24.368569 Si / 1000 Ang^3
#
#
#
# Elastic Constant Matrix: (Units=GPa)
#
#
# Indices 1 2 3 4 5 6 
#
# 1 63.0045 34.6381 21.9497 4.9969 6.0781 -11.0142
# 2 34.6381 166.2683 24.7955 39.3576 1.4599 -15.1266
# 3 21.9497 24.7955 139.6336 3.8140 12.5114 -7.6758
# 4 4.9969 39.3576 3.8140 41.4636 -3.0594 0.1019
# 5 6.0781 1.4599 12.5114 -3.0594 35.9760 -5.9518
# 6 -11.0142 -15.1266 -7.6758 0.1019 -5.9518 34.2679
#
#
#
# Elastic Compliance Matrix: (Units=1/GPa)
#
#
# Indices 1 2 3 4 5 6 
#
# 1 0.019329 -0.003632 -0.002065 0.001176 -0.001662 0.003855
# 2 -0.003632 0.009026 -0.000684 -0.008055 0.000252 0.002731
# 3 -0.002065 -0.000684 0.007833 0.000009 -0.002282 0.000393
# 4 0.001176 -0.008055 0.000009 0.031802 0.002356 -0.002861
# 5 -0.001662 0.000252 -0.002282 0.002356 0.029760 0.004228
# 6 0.003855 0.002731 0.000393 -0.002861 0.004228 0.032457
#
#
# Mechanical properties :
#
#
# Convention : Reuss Voigt Hill
#
# Bulk Modulus (GPa) = 42.68651 59.07479 50.88065
# Shear Modulus (GPa) = 33.16122 41.50971 37.33547
#
# Velocity S-wave (km/s) = 3.69293 4.13172 3.91847
# Velocity P-wave (km/s) = 5.97819 6.85976 6.43409
#
# Compressibility (1/GPa) = 0.02342661
#
# Stress axis : x y z
#
# Youngs Moduli (GPa) = 51.73611 110.79049 127.65687
#
# Poissons Ratio (x) = 0.40237 0.26358
# Poissons Ratio (y) = 0.18790 0.08736
# Poissons Ratio (z) = 0.10682 0.07582
#
# Static dielectric constant tensor:
#      x y z
#    x 1.950150 0.036160 0.030400 
#    y 0.036160 1.994110 -0.004380 
#    z 0.030400 -0.004380 1.980130 
# 
# From -- ./inp_files/401132.got.cif
#   From: 2010.05.17/outbox.cif.g08.bks.cpg/sg2_201_cif.got.tgz:401132.got - 2010.06.03 11:33:40.
