data_PCOD9096400
_publ_section_title
;
Structure prediction by ZEFSAII (Michael W. Deem and Ramdas Pophale) SiO2 
 PCOD9096400
Probable space group: P -1
;
_chemical_formula_sum "Si O2"
_cell_formula_units_Z 16
_cell_length_a 21.021878
_cell_length_b 11.552916
_cell_length_c 20.990424
_cell_angle_alpha 139.760798
_cell_angle_beta 19.314478
_cell_angle_gamma 150.124241
_cell_volume 791.798845
_symmetry_space_group_name_H-M "P -1"
_symmetry_group_IT_number 2
_symmetry_cell_setting 'triclinic'
loop_
_space_group_symop_operation_xyz
x,y,z
-x,-y,-z
loop_
_atom_site_type_symbol
_atom_site_label
_atom_site_fract_x
_atom_site_fract_y
_atom_site_fract_z
Si Si1 0.776583 0.005883 0.214166
Si Si2 0.310152 0.539484 0.214191
Si Si3 0.924096 0.688668 0.290986
Si Si4 0.944890 0.320748 0.074060
Si Si5 0.081182 0.683249 0.398394
Si Si6 0.467544 0.232125 0.290986
Si Si7 0.825651 0.427780 0.398457
Si Si8 0.708696 0.084628 0.074129
O O1 0.853246 0.230694 0.277838
O O2 0.487036 0.744459 0.392763
O O3 0.767682 0.079448 0.182427
O O4 0.000000 0.000000 0.000000
O O5 0.190723 0.568099 0.277759
O O6 0.091970 0.349469 0.392832
O O7 0.500000 0.500000 0.000000
O O8 0.496652 0.808546 0.182543
O O9 0.719372 0.719363 0.499993
O O10 0.975125 0.645165 0.295640
O O11 0.173426 0.898546 0.098792
O O12 0.829711 0.446682 0.243099
O O13 0.244661 0.519502 0.901181
O O14 0.935616 0.252301 0.981798
O O15 0.918974 0.541268 0.428123
O O16 0.308074 0.978052 0.295578
O O17 0.557952 0.174993 0.243143
#
# Coordination Sequence:
#
# PCOD9096400 Si02
#       8
#     2   2   2   2   2   2   2   2
#     4  10  21  40  60  83 115 147 188 236 279 333
#     4  10  21  40  60  83 115 147 188 236 279 333
#     4  10  20  36  54  79 113 145 182 228 277 330
#     4  10  21  36  56  83 111 143 187 233 276 329
#     4  10  22  38  58  85 114 147 188 232 281 336
#     4  10  20  36  54  79 113 145 182 228 277 330
#     4  10  22  38  58  85 114 147 188 232 281 336
#     4  10  21  36  56  83 111 143 187 233 276 329
#
# _framework density 20.207152000000001
#
# number of rings (size 3 to 8) (size 9 to 14) (size 15 to 20)
#    0.000    2.000    0.000    3.750    0.000    4.500 
#    0.000   11.250    0.000    0.000    0.000    0.000 
#    0.000    0.000    0.000    0.000    0.000    0.000 
#
# Total GULP energy -89136.113286 kJ/mol
# GULP energy per Si atom -5571.007080 kJ/mol
# Density = 2.016116 g / cm^3
# Si number density = 20.207152 Si / 1000 Ang^3
#
#
#
# Elastic Constant Matrix: (Units=GPa)
#
#
# Indices 1 2 3 4 5 6 
#
# 1 65.4785 20.5566 25.8933 -0.5467 11.4455 15.3157
# 2 20.5566 42.5510 21.4375 -7.8570 -6.5554 4.2780
# 3 25.8933 21.4375 102.3126 22.2894 -13.0744 2.8953
# 4 -0.5467 -7.8570 22.2894 34.7972 -10.8056 -4.9933
# 5 11.4455 -6.5554 -13.0744 -10.8056 22.7119 -3.6536
# 6 15.3157 4.2780 2.8953 -4.9933 -3.6536 22.8550
#
#
#
# Elastic Compliance Matrix: (Units=1/GPa)
#
#
# Indices 1 2 3 4 5 6 
#
# 1 0.041167 -0.024457 -0.005795 -0.020466 -0.046373 -0.034160
# 2 -0.024457 0.047743 -0.005708 0.029588 0.040288 0.021081
# 3 -0.005795 -0.005708 0.015084 -0.008857 0.006076 0.002077
# 4 -0.020466 0.029588 -0.008857 0.059620 0.046918 0.029824
# 5 -0.046373 0.040288 0.006076 0.046918 0.113067 0.051091
# 6 -0.034160 0.021081 0.002077 0.029824 0.051091 0.077120
#
#
# Mechanical properties :
#
#
# Convention : Reuss Voigt Hill
#
# Bulk Modulus (GPa) = 31.17835 38.45743 34.81789
# Shear Modulus (GPa) = 11.45708 25.56979 18.51343
#
# Velocity S-wave (km/s) = 2.38372 3.56108 3.03013
# Velocity P-wave (km/s) = 4.79990 5.99844 5.43233
#
# Compressibility (1/GPa) = 0.03207353
#
# Stress axis : x y z
#
# Youngs Moduli (GPa) = 24.29118 20.94547 66.29675
#
# Poissons Ratio (x) = 0.51227 0.38417
# Poissons Ratio (y) = 0.59410 0.37842
# Poissons Ratio (z) = 0.14076 0.11956
#
# Static dielectric constant tensor:
#      x y z
#    x 1.714610 -0.018300 0.010240 
#    y -0.018300 1.736950 -0.018590 
#    z 0.010240 -0.018590 1.735970 
# 
# From -- ./inp_files/595136.got.cif
#   From: 2010.05.17/outbox.cif.g08.bks.cpg/sg2_298_cif.got.tgz:595136.got - 2010.06.03 11:33:40.
