data_PCOD9096660
_publ_section_title
;
Structure prediction by ZEFSAII (Michael W. Deem and Ramdas Pophale) SiO2 
 PCOD9096660
Probable space group: P -1
;
_chemical_formula_sum "Si O2"
_cell_formula_units_Z 16
_cell_length_a 8.794771
_cell_length_b 6.832019
_cell_length_c 22.750394
_cell_angle_alpha 130.594977
_cell_angle_beta 136.573042
_cell_angle_gamma 52.913147
_cell_volume 690.902183
_symmetry_space_group_name_H-M "P -1"
_symmetry_group_IT_number 2
_symmetry_cell_setting 'triclinic'
loop_
_space_group_symop_operation_xyz
x,y,z
-x,-y,-z
loop_
_atom_site_type_symbol
_atom_site_label
_atom_site_fract_x
_atom_site_fract_y
_atom_site_fract_z
Si Si1 0.895122 0.197681 0.171689
Si Si2 0.994727 0.806125 0.015206
Si Si3 0.517685 0.340539 0.898676
Si Si4 0.498623 0.955838 0.920813
Si Si5 0.945947 0.808875 0.566686
Si Si6 0.339715 0.790760 0.522312
Si Si7 0.995656 0.544700 0.647394
Si Si8 0.351267 0.078787 0.696309
O O1 0.708830 0.427674 0.130686
O O2 0.747016 0.107025 0.164751
O O3 0.067296 0.332441 0.281383
O O4 0.992007 0.965511 0.107033
O O5 0.236791 0.595466 0.031307
O O6 0.741397 0.752823 0.931617
O O7 0.000000 0.000000 0.000000
O O8 0.500717 0.209058 0.931032
O O9 0.506288 0.118915 0.802170
O O10 0.500000 0.000000 0.000000
O O11 0.000000 0.500000 0.500000
O O12 0.924548 0.770564 0.622899
O O13 0.153844 0.948366 0.641714
O O14 0.729006 0.995268 0.507919
O O15 0.500000 0.500000 0.500000
O O16 0.430924 0.907617 0.627673
O O17 0.107122 0.698783 0.450353
O O18 0.253479 0.373906 0.698744
#
# Coordination Sequence:
#
# PCOD9096660 Si02
#       8
#     2   2   2   2   2   2   2   2
#     4  10  21  37  61  87 115 154 195 242 299 351
#     4   9  20  37  59  86 115 150 193 239 293 362
#     4  10  21  37  60  86 117 156 190 248 297 346
#     4   9  19  37  58  86 115 147 195 239 290 363
#     4  11  18  37  61  78 110 160 204 235 287 351
#     4  11  23  35  55  88 118 155 195 244 292 346
#     4  10  20  37  59  82 112 155 199 238 288 354
#     4  10  20  36  57  83 114 152 201 237 291 351
#
# _framework density 23.158124999999998
#
# number of rings (size 3 to 8) (size 9 to 14) (size 15 to 20)
#    0.000    2.000    2.500    1.500    1.750    5.500 
#    0.000    3.750    2.750    0.000    0.000    0.000 
#    0.000    0.000    0.000    0.000    0.000    0.000 
#
# Total GULP energy -89073.913984 kJ/mol
# GULP energy per Si atom -5567.119624 kJ/mol
# Density = 2.310542 g / cm^3
# Si number density = 23.158125 Si / 1000 Ang^3
#
#
#
# Elastic Constant Matrix: (Units=GPa)
#
#
# Indices 1 2 3 4 5 6 
#
# 1 91.4096 47.8948 16.9303 -17.2432 -0.9505 0.7305
# 2 47.8948 138.8619 11.5967 -17.5151 -12.7859 22.1478
# 3 16.9303 11.5967 79.0736 -6.9804 -24.9339 -6.9550
# 4 -17.2432 -17.5151 -6.9804 33.6976 1.6542 -7.6898
# 5 -0.9505 -12.7859 -24.9339 1.6542 41.0119 -2.1972
# 6 0.7305 22.1478 -6.9550 -7.6898 -2.1972 38.8286
#
#
#
# Elastic Compliance Matrix: (Units=1/GPa)
#
#
# Indices 1 2 3 4 5 6 
#
# 1 0.015022 -0.005030 -0.002652 0.005351 -0.002887 0.003008
# 2 -0.005030 0.010202 0.000126 0.001416 0.002802 -0.005263
# 3 -0.002652 0.000126 0.017109 0.002689 0.010494 0.004169
# 4 0.005351 0.001416 0.002689 0.035157 0.001136 0.006600
# 5 -0.002887 0.002802 0.010494 0.001136 0.031650 0.002352
# 6 0.003008 -0.005263 0.004169 0.006600 0.002352 0.030886
#
#
# Mechanical properties :
#
#
# Convention : Reuss Voigt Hill
#
# Bulk Modulus (GPa) = 36.73658 51.35429 44.04543
# Shear Modulus (GPa) = 30.44838 38.23587 34.34212
#
# Velocity S-wave (km/s) = 3.62996 4.06775 3.85507
# Velocity P-wave (km/s) = 5.78503 6.65476 6.23508
#
# Compressibility (1/GPa) = 0.02722083
#
# Stress axis : x y z
#
# Youngs Moduli (GPa) = 66.56892 98.02095 58.44908
#
# Poissons Ratio (x) = 0.49309 0.15501
# Poissons Ratio (y) = 0.33487 -0.00739
# Poissons Ratio (z) = 0.17654 -0.01240
#
# Static dielectric constant tensor:
#      x y z
#    x 2.102390 -0.092060 0.143200 
#    y -0.092060 1.942460 0.007930 
#    z 0.143200 0.007930 2.145840 
# 
# From -- ./inp_files/105784.got.cif
#   From: 2010.05.17/outbox.cif.g08.bks.cpg/sg2_53_cif.got.tgz:105784.got - 2010.06.03 11:33:40.
