data_PCOD9096749
_publ_section_title
;
Structure prediction by ZEFSAII (Michael W. Deem and Ramdas Pophale) SiO2 
 PCOD9096749
Probable space group: P -1
;
_chemical_formula_sum "Si O2"
_cell_formula_units_Z 14
_cell_length_a 13.704466
_cell_length_b 11.495675
_cell_length_c 22.816210
_cell_angle_alpha 149.513130
_cell_angle_beta 157.745091
_cell_angle_gamma 41.736557
_cell_volume 665.555078
_symmetry_space_group_name_H-M "P -1"
_symmetry_group_IT_number 2
_symmetry_cell_setting 'triclinic'
loop_
_space_group_symop_operation_xyz
x,y,z
-x,-y,-z
loop_
_atom_site_type_symbol
_atom_site_label
_atom_site_fract_x
_atom_site_fract_y
_atom_site_fract_z
Si Si1 0.784081 0.358672 0.958522
Si Si2 0.756861 0.773781 0.047838
Si Si3 0.775639 0.101400 0.953656
Si Si4 0.173490 0.703891 0.642657
Si Si5 0.102890 0.369681 0.358106
Si Si6 0.396825 0.417260 0.342490
Si Si7 0.206094 0.926183 0.277648
O O1 0.690270 0.578441 0.977239
O O2 0.101435 0.446543 0.184971
O O3 0.656268 0.227047 0.889658
O O4 0.764307 0.180377 0.815760
O O5 0.998570 0.754409 0.131495
O O6 0.851292 0.034957 0.242554
O O7 0.488595 0.732505 0.842145
O O8 0.603237 0.859783 0.782446
O O9 0.908992 0.284093 0.158000
O O10 0.000000 0.000000 0.000000
O O11 0.083813 0.599560 0.483300
O O12 0.000000 0.500000 0.500000
O O13 0.402836 0.429173 0.525766
O O14 0.080583 0.147960 0.292819
O O15 0.500000 0.500000 0.500000
O O16 0.500000 0.000000 0.500000
#
# Coordination Sequence:
#
# PCOD9096749 Si02
#       7
#     2   2   2   2   2   2   2
#     4  11  21  39  60  97 133 155 212 264 328 391
#     4  11  25  43  64  94 130 173 218 267 323 379
#     4  10  20  36  57  92 127 165 202 259 321 387
#     4  11  25  45  66  88 127 181 227 262 309 380
#     4  12  21  38  64  92 125 167 218 253 321 385
#     4  11  19  36  63  95 128 168 200 261 334 384
#     4  12  22  37  65 100 133 162 205 275 335 384
#
# _framework density 21.035073000000001
#
# number of rings (size 3 to 8) (size 9 to 14) (size 15 to 20)
#    0.000    0.857    7.143    3.000    0.000    0.000 
#    0.000    0.714    0.000    1.714    0.000    0.000 
#    0.000    0.000    0.000    0.000    0.000    0.000 
#
# Total GULP energy -78196.747965 kJ/mol
# GULP energy per Si atom -5585.481997 kJ/mol
# Density = 2.098720 g / cm^3
# Si number density = 21.035073 Si / 1000 Ang^3
#
#
#
# Elastic Constant Matrix: (Units=GPa)
#
#
# Indices 1 2 3 4 5 6 
#
# 1 55.2229 14.7803 25.8644 2.1567 -30.5372 -2.0119
# 2 14.7803 75.5555 10.2131 21.4163 -19.9362 13.1036
# 3 25.8644 10.2131 94.6900 8.7009 -37.9093 -15.0879
# 4 2.1567 21.4163 8.7009 34.4027 -0.1134 -4.4065
# 5 -30.5372 -19.9362 -37.9093 -0.1134 51.6911 6.0336
# 6 -2.0119 13.1036 -15.0879 -4.4065 6.0336 25.5750
#
#
#
# Elastic Compliance Matrix: (Units=1/GPa)
#
#
# Indices 1 2 3 4 5 6 
#
# 1 0.027253 -0.000335 -0.001651 -0.001345 0.015042 -0.002439
# 2 -0.000335 0.024448 0.001070 -0.017711 0.012057 -0.017817
# 3 -0.001651 0.001070 0.016547 -0.003965 0.010883 0.005833
# 4 -0.001345 -0.017711 -0.003965 0.043320 -0.012425 0.017025
# 5 0.015042 0.012057 0.010883 -0.012425 0.042078 -0.010641
# 6 -0.002439 -0.017817 0.005833 0.017025 -0.010641 0.056923
#
#
# Mechanical properties :
#
#
# Convention : Reuss Voigt Hill
#
# Bulk Modulus (GPa) = 15.05662 36.35377 25.70520
# Shear Modulus (GPa) = 21.31849 33.97447 27.64648
#
# Velocity S-wave (km/s) = 3.18696 4.02323 3.62927
# Velocity P-wave (km/s) = 4.55145 6.23713 5.45974
#
# Compressibility (1/GPa) = 0.06641596
#
# Stress axis : x y z
#
# Youngs Moduli (GPa) = 36.69359 40.90366 60.43326
#
# Poissons Ratio (x) = 0.01370 0.09977
# Poissons Ratio (y) = 0.01229 -0.06466
# Poissons Ratio (z) = 0.06058 -0.04377
#
# Static dielectric constant tensor:
#      x y z
#    x 1.769730 0.001940 0.006520 
#    y 0.001940 1.754000 0.043630 
#    z 0.006520 0.043630 1.739210 
# 
# From -- ./inp_files/101267.got.cif
#   From: 2010.05.17/outbox.cif.g08.bks.cpg/sg2_51_cif.got.tgz:101267.got - 2010.06.03 11:33:40.
