data_PCOD9096127
_publ_section_title
;
Structure prediction by ZEFSAII (Michael W. Deem and Ramdas Pophale) SiO2 
 PCOD9096127
Probable space group: P -1
;
_chemical_formula_sum "Si O2"
_cell_formula_units_Z 14
_cell_length_a 7.630593
_cell_length_b 9.270389
_cell_length_c 11.240008
_cell_angle_alpha 121.833750
_cell_angle_beta 60.732127
_cell_angle_gamma 89.325052
_cell_volume 548.884804
_symmetry_space_group_name_H-M "P -1"
_symmetry_group_IT_number 2
_symmetry_cell_setting 'triclinic'
loop_
_space_group_symop_operation_xyz
x,y,z
-x,-y,-z
loop_
_atom_site_type_symbol
_atom_site_label
_atom_site_fract_x
_atom_site_fract_y
_atom_site_fract_z
Si Si1 0.079152 0.977003 0.642839
Si Si2 0.239796 0.941474 0.842831
Si Si3 0.332843 0.374721 0.786162
Si Si4 0.564032 0.013980 0.641129
Si Si5 0.102519 0.596501 0.160360
Si Si6 0.897018 0.685834 0.501709
Si Si7 0.446197 0.437592 0.363579
O O1 0.207177 0.920185 0.701365
O O2 0.229250 0.941507 0.458245
O O3 0.939855 0.848325 0.625610
O O4 0.943041 0.195602 0.778627
O O5 0.377999 0.764711 0.794900
O O6 0.399033 0.057139 0.829736
O O7 0.000000 0.000000 0.000000
O O8 0.397414 0.157295 0.668202
O O9 0.100889 0.457908 0.837358
O O10 0.507810 0.433017 0.689471
O O11 0.303247 0.455898 0.963929
O O12 0.690615 0.800363 0.533438
O O13 0.086972 0.592114 0.305070
O O14 0.793209 0.563901 0.555525
O O15 0.500000 0.500000 0.500000
#
# Coordination Sequence:
#
# PCOD9096127 Si02
#       7
#     2   2   2   2   2   2   2
#     4  11  21  42  64  89 122 165 208 248 300 366
#     4  11  23  38  63  93 120 159 209 251 297 361
#     4  11  21  36  63  94 121 153 207 257 299 346
#     4  10  21  39  64  93 115 164 214 243 288 374
#     4  10  20  35  62  91 120 155 202 254 305 348
#     4  10  23  41  64  87 124 165 204 249 305 365
#     4  11  22  39  61  91 123 161 203 253 302 363
#
# _framework density 25.506260999999999
#
# number of rings (size 3 to 8) (size 9 to 14) (size 15 to 20)
#    0.000    1.429    2.857    3.857    4.000    0.000 
#    0.000   13.571    0.000    0.000    0.000    0.000 
#    0.000    0.000    0.000    0.000    0.000    0.000 
#
# Total GULP energy -78012.322784 kJ/mol
# GULP energy per Si atom -5572.308770 kJ/mol
# Density = 2.544821 g / cm^3
# Si number density = 25.506261 Si / 1000 Ang^3
#
#
#
# Elastic Constant Matrix: (Units=GPa)
#
#
# Indices 1 2 3 4 5 6 
#
# 1 79.9392 20.2587 26.5449 -5.1884 -2.4423 21.4064
# 2 20.2587 145.9806 58.2925 -24.9957 -2.9478 31.9267
# 3 26.5449 58.2925 131.7319 -24.2687 -19.7484 19.0655
# 4 -5.1884 -24.9957 -24.2687 35.2934 8.8024 -7.4412
# 5 -2.4423 -2.9478 -19.7484 8.8024 32.7002 -8.1317
# 6 21.4064 31.9267 19.0655 -7.4412 -8.1317 44.7628
#
#
#
# Elastic Compliance Matrix: (Units=1/GPa)
#
#
# Indices 1 2 3 4 5 6 
#
# 1 0.014992 0.000320 -0.002531 -0.000230 -0.001989 -0.006720
# 2 0.000320 0.010178 -0.003445 0.004605 -0.003840 -0.005877
# 3 -0.002531 -0.003445 0.010997 0.003536 0.005324 0.000538
# 4 -0.000230 0.004605 0.003536 0.035758 -0.007099 -0.000026
# 5 -0.001989 -0.003840 0.005324 -0.007099 0.036941 0.006953
# 6 -0.006720 -0.005877 0.000538 -0.000026 0.006953 0.030775
#
#
# Mechanical properties :
#
#
# Convention : Reuss Voigt Hill
#
# Bulk Modulus (GPa) = 40.23191 63.09378 51.66285
# Shear Modulus (GPa) = 31.39958 39.38832 35.39395
#
# Velocity S-wave (km/s) = 3.51244 3.93397 3.72917
# Velocity P-wave (km/s) = 5.67955 6.73982 6.23227
#
# Compressibility (1/GPa) = 0.02485589
#
# Stress axis : x y z
#
# Youngs Moduli (GPa) = 66.70025 98.25381 90.93247
#
# Poissons Ratio (x) = -0.03144 0.23013
# Poissons Ratio (y) = -0.02134 0.31326
# Poissons Ratio (z) = 0.16880 0.33848
#
# Static dielectric constant tensor:
#      x y z
#    x 2.162220 0.005230 0.006210 
#    y 0.005230 2.018640 0.020070 
#    z 0.006210 0.020070 2.061110 
# 
# From -- ./inp_files/157523.got.cif
#   From: 2010.05.17/outbox.cif.g08.bks.cpg/sg2_79_cif.got.tgz:157523.got - 2010.06.03 11:33:40.
