data_PCOD9096514
_publ_section_title
;
Structure prediction by ZEFSAII (Michael W. Deem and Ramdas Pophale) SiO2 
 PCOD9096514
Probable space group: P -1
;
_chemical_formula_sum "Si O2"
_cell_formula_units_Z 15
_cell_length_a 6.043562
_cell_length_b 24.131380
_cell_length_c 9.184434
_cell_angle_alpha 145.138898
_cell_angle_beta 50.576375
_cell_angle_gamma 121.956644
_cell_volume 591.315390
_symmetry_space_group_name_H-M "P -1"
_symmetry_group_IT_number 2
_symmetry_cell_setting 'triclinic'
loop_
_space_group_symop_operation_xyz
x,y,z
-x,-y,-z
loop_
_atom_site_type_symbol
_atom_site_label
_atom_site_fract_x
_atom_site_fract_y
_atom_site_fract_z
Si Si1 0.565078 0.642566 0.052671
Si Si2 0.606177 0.609344 0.658321
Si Si3 0.412499 0.204001 0.366535
Si Si4 0.821084 0.925579 0.597660
Si Si5 0.500000 0.500000 0.000000
Si Si6 0.085739 0.359134 0.687334
Si Si7 0.676378 0.221934 0.995919
Si Si8 0.289369 0.078972 0.693932
O O1 0.538700 0.729342 0.367090
O O2 0.670006 0.551078 0.900073
O O3 0.236754 0.618244 0.094609
O O4 0.709813 0.658086 0.871915
O O5 0.500000 0.500000 0.500000
O O6 0.866396 0.620814 0.460237
O O7 0.348134 0.669920 0.822051
O O8 0.344660 0.099284 0.238064
O O9 0.149867 0.252587 0.493584
O O10 0.653711 0.212049 0.158537
O O11 0.663134 0.913075 0.481928
O O12 0.979971 0.030035 0.748805
O O13 0.064133 0.841645 0.306882
O O14 0.677436 0.572775 0.190773
O O15 0.386126 0.173666 0.944160
O O16 0.500000 0.000000 0.500000
#
# Coordination Sequence:
#
# PCOD9096514 Si02
#       8
#     2   2   2   2   1   2   2   2
#     4  11  22  39  58  80 121 163 202 262 305 354
#     4  11  22  38  63  90 119 167 214 247 306 366
#     4  10  23  37  61  92 120 161 208 248 305 373
#     4  10  20  41  66  92 124 163 200 252 317 366
#     4  10  20  36  56  80 110 148 208 250 296 358
#     4  10  22  41  59  84 121 161 203 260 308 353
#     4  10  22  40  61  92 128 161 209 258 304 370
#     4   9  20  40  67  93 125 159 201 255 310 377
#
# _framework density 25.367173000000001
#
# number of rings (size 3 to 8) (size 9 to 14) (size 15 to 20)
#    0.000    1.867    1.333    2.000    0.000    4.800 
#    0.000   11.333    0.000    0.000    0.000    0.000 
#    0.000    0.000    0.000    0.000    0.000    0.000 
#
# Total GULP energy -83603.431942 kJ/mol
# GULP energy per Si atom -5573.562129 kJ/mol
# Density = 2.530944 g / cm^3
# Si number density = 25.367173 Si / 1000 Ang^3
#
#
#
# Elastic Constant Matrix: (Units=GPa)
#
#
# Indices 1 2 3 4 5 6 
#
# 1 47.3593 47.5359 33.0029 -3.9005 15.9275 -20.2011
# 2 47.5359 170.5139 38.5943 -14.2386 15.9256 -43.5312
# 3 33.0029 38.5943 61.7290 -11.8388 16.7252 -5.7163
# 4 -3.9005 -14.2386 -11.8388 48.4882 -14.2241 1.2671
# 5 15.9275 15.9256 16.7252 -14.2241 45.8035 3.7676
# 6 -20.2011 -43.5312 -5.7163 1.2671 3.7676 39.1555
#
#
#
# Elastic Compliance Matrix: (Units=1/GPa)
#
#
# Indices 1 2 3 4 5 6 
#
# 1 0.052996 -0.003680 -0.021766 -0.006506 -0.012993 0.021533
# 2 -0.003680 0.010082 -0.002841 0.001287 -0.001529 0.009000
# 3 -0.021766 -0.002841 0.029576 0.004943 0.000135 -0.010244
# 4 -0.006506 0.001287 0.004943 0.024012 0.007691 -0.002721
# 5 -0.012993 -0.001529 0.000135 0.007691 0.030170 -0.011535
# 6 0.021533 0.009000 -0.010244 -0.002721 -0.011535 0.046357
#
#
# Mechanical properties :
#
#
# Convention : Reuss Voigt Hill
#
# Bulk Modulus (GPa) = 27.71723 57.54094 42.62908
# Shear Modulus (GPa) = 19.09889 37.38736 28.24313
#
# Velocity S-wave (km/s) = 2.74688 3.84324 3.34034
# Velocity P-wave (km/s) = 4.58373 6.51356 5.63192
#
# Compressibility (1/GPa) = 0.03607864
#
# Stress axis : x y z
#
# Youngs Moduli (GPa) = 18.86936 99.19042 33.81066
#
# Poissons Ratio (x) = 0.36502 0.73594
# Poissons Ratio (y) = 0.06944 0.09606
# Poissons Ratio (z) = 0.41072 0.28182
#
# Static dielectric constant tensor:
#      x y z
#    x 2.083040 0.023980 -0.030520 
#    y 0.023980 2.066580 0.104520 
#    z -0.030520 0.104520 2.137610 
# 
# From -- ./inp_files/52034.got.cif
#   From: 2010.05.17/outbox.cif.g08.bks.cpg/sg2_27_cif.got.tgz:52034.got - 2010.06.03 11:33:40.
