data_PCOD9096966
_publ_section_title
;
Structure prediction by ZEFSAII (Michael W. Deem and Ramdas Pophale) SiO2 
 PCOD9096966
Probable space group: P -1
;
_chemical_formula_sum "Si O2"
_cell_formula_units_Z 16
_cell_length_a 26.532437
_cell_length_b 5.160988
_cell_length_c 15.153194
_cell_angle_alpha 59.493169
_cell_angle_beta 153.115018
_cell_angle_gamma 134.507789
_cell_volume 623.082801
_symmetry_space_group_name_H-M "P -1"
_symmetry_group_IT_number 2
_symmetry_cell_setting 'triclinic'
loop_
_space_group_symop_operation_xyz
x,y,z
-x,-y,-z
loop_
_atom_site_type_symbol
_atom_site_label
_atom_site_fract_x
_atom_site_fract_y
_atom_site_fract_z
Si Si1 0.614969 0.639934 0.365518
Si Si2 0.102476 0.943889 0.618458
Si Si3 0.397654 0.067178 0.873901
Si Si4 0.410882 0.773967 0.114547
Si Si5 0.797127 0.382205 0.051771
Si Si6 0.141441 0.357517 0.244044
Si Si7 0.109460 0.531820 0.990978
Si Si8 0.911656 0.754972 0.624846
O O1 0.683470 0.927203 0.336891
O O2 0.514619 0.687767 0.257586
O O3 0.744805 0.691567 0.606007
O O4 0.513303 0.206525 0.241495
O O5 0.208893 0.946956 0.849414
O O6 0.000000 0.500000 0.500000
O O7 0.167631 0.234635 0.585494
O O8 0.000000 0.000000 0.500000
O O9 0.500000 0.500000 0.000000
O O10 0.500000 0.000000 0.000000
O O11 0.329716 0.785644 0.900930
O O12 0.294955 0.534496 0.052183
O O13 0.763489 0.285399 0.913100
O O14 0.962015 0.782040 0.241258
O O15 0.174660 0.458690 0.382602
O O16 0.146839 0.638173 0.134303
O O17 0.984201 0.935196 0.073044
O O18 0.004468 0.614475 0.778351
#
# Coordination Sequence:
#
# PCOD9096966 Si02
#       8
#     2   2   2   2   2   2   2   2
#     4  10  22  40  59  90 121 160 211 251 299 365
#     4  10  20  36  58  91 126 157 199 248 307 373
#     4   8  16  34  54  80 115 155 199 239 289 354
#     4  10  22  38  62  88 125 164 200 247 310 370
#     4  10  22  38  61  92 127 163 201 252 314 380
#     4  10  23  39  64  90 119 164 213 267 306 363
#     4  10  21  42  63  89 121 162 213 258 322 361
#     4  10  21  38  63  90 123 159 207 257 317 369
#
# _framework density 25.678768999999999
#
# number of rings (size 3 to 8) (size 9 to 14) (size 15 to 20)
#    0.000    2.250    1.250    0.375    5.250    0.000 
#    0.000    2.500    0.000    0.000    0.000    0.000 
#    0.000    0.000    0.000    0.000    0.000    0.000 
#
# Total GULP energy -89462.298708 kJ/mol
# GULP energy per Si atom -5591.393669 kJ/mol
# Density = 2.562032 g / cm^3
# Si number density = 25.678769 Si / 1000 Ang^3
#
#
#
# Elastic Constant Matrix: (Units=GPa)
#
#
# Indices 1 2 3 4 5 6 
#
# 1 204.9391 48.5914 49.7927 -21.3317 10.8930 13.2983
# 2 48.5914 80.1839 25.4383 -10.8351 -2.0370 -7.0555
# 3 49.7927 25.4383 91.5234 -12.4074 5.7946 10.4629
# 4 -21.3317 -10.8351 -12.4074 29.2721 4.2890 2.7448
# 5 10.8930 -2.0370 5.7946 4.2890 39.7028 -18.7688
# 6 13.2983 -7.0555 10.4629 2.7448 -18.7688 51.8881
#
#
#
# Elastic Compliance Matrix: (Units=1/GPa)
#
#
# Indices 1 2 3 4 5 6 
#
# 1 0.006987 -0.003611 -0.001584 0.004013 -0.004020 -0.003629
# 2 -0.003611 0.016478 -0.003464 0.000756 0.004907 0.005599
# 3 -0.001584 -0.003464 0.014242 0.004734 -0.004632 -0.004863
# 4 0.004013 0.000756 0.004734 0.041533 -0.009852 -0.007641
# 5 -0.004020 0.004907 -0.004632 -0.009852 0.035914 0.016143
# 6 -0.003629 0.005599 -0.004863 -0.007641 0.016143 0.028188
#
#
# Mechanical properties :
#
#
# Convention : Reuss Voigt Hill
#
# Bulk Modulus (GPa) = 49.04614 69.36567 59.20591
# Shear Modulus (GPa) = 29.85855 41.02753 35.44304
#
# Velocity S-wave (km/s) = 3.41364 4.00149 3.71920
# Velocity P-wave (km/s) = 5.88886 6.95850 6.44590
#
# Compressibility (1/GPa) = 0.02038897
#
# Stress axis : x y z
#
# Youngs Moduli (GPa) = 143.11360 60.68743 70.21543
#
# Poissons Ratio (x) = 0.21913 0.11125
# Poissons Ratio (y) = 0.51676 0.24321
# Poissons Ratio (z) = 0.22676 0.21021
#
# Static dielectric constant tensor:
#      x y z
#    x 2.179650 -0.052700 -0.148130 
#    y -0.052700 2.115940 0.048930 
#    z -0.148130 0.048930 2.064740 
# 
# From -- ./inp_files/78140.got.cif
#   From: 2010.05.17/outbox.cif.g08.bks.cpg/sg2_40_cif.got.tgz:78140.got - 2010.06.03 11:33:40.
