data_PCOD9096542
_publ_section_title
;
Structure prediction by ZEFSAII (Michael W. Deem and Ramdas Pophale) SiO2 
 PCOD9096542
Probable space group: P -1
;
_chemical_formula_sum "Si O2"
_cell_formula_units_Z 16
_cell_length_a 18.297292
_cell_length_b 5.011927
_cell_length_c 10.188150
_cell_angle_alpha 91.178890
_cell_angle_beta 102.684116
_cell_angle_gamma 57.017644
_cell_volume 758.990373
_symmetry_space_group_name_H-M "P -1"
_symmetry_group_IT_number 2
_symmetry_cell_setting 'triclinic'
loop_
_space_group_symop_operation_xyz
x,y,z
-x,-y,-z
loop_
_atom_site_type_symbol
_atom_site_label
_atom_site_fract_x
_atom_site_fract_y
_atom_site_fract_z
Si Si1 0.271844 0.819000 0.205881
Si Si2 0.483425 0.524252 0.335536
Si Si3 0.467030 0.825406 0.073081
Si Si4 0.258724 0.331512 0.043224
Si Si5 0.818145 0.759047 0.570650
Si Si6 0.329793 0.994455 0.705555
Si Si7 0.096282 0.932227 0.507172
Si Si8 0.760637 0.316866 0.214231
O O1 0.380623 0.632667 0.268229
O O2 0.254681 0.543783 0.166302
O O3 0.235108 0.079808 0.075611
O O4 0.221002 0.047803 0.309795
O O5 0.500000 0.500000 0.500000
O O6 0.491058 0.758698 0.237452
O O7 0.568506 0.200524 0.306266
O O8 0.361387 0.087534 0.039233
O O9 0.500000 0.500000 0.000000
O O10 0.500000 0.000000 0.000000
O O11 0.214688 0.586561 0.911172
O O12 0.735162 0.957586 0.439376
O O13 0.850043 0.392125 0.562937
O O14 0.899533 0.791824 0.559661
O O15 0.303657 0.340658 0.739613
O O16 0.296570 0.845295 0.801584
O O17 0.151046 0.870402 0.663040
O O18 0.000000 0.000000 0.500000
#
# Coordination Sequence:
#
# PCOD9096542 Si02
#       8
#     2   2   2   2   2   2   2   2
#     4  11  23  38  56  84 119 162 193 235 290 341
#     4  11  22  38  58  86 120 160 212 254 288 343
#     4  11  22  38  54  77 112 159 205 253 294 333
#     4  11  22  37  56  80 113 158 200 232 286 357
#     4  10  20  38  58  86 118 149 181 233 296 349
#     4  10  20  36  56  83 113 153 196 245 290 327
#     4  10  21  38  66  91 111 140 184 242 298 350
#     4  10  21  38  60  84 114 149 194 242 290 346
#
# _framework density 21.080635000000001
#
# number of rings (size 3 to 8) (size 9 to 14) (size 15 to 20)
#    0.000    1.500    1.250    4.875    0.000    2.000 
#    0.000    6.250    0.000    4.500    0.000    0.000 
#    0.000    0.000    0.000    0.000    0.000    0.000 
#
# Total GULP energy -89174.373372 kJ/mol
# GULP energy per Si atom -5573.398336 kJ/mol
# Density = 2.103265 g / cm^3
# Si number density = 21.080635 Si / 1000 Ang^3
#
#
#
# Elastic Constant Matrix: (Units=GPa)
#
#
# Indices 1 2 3 4 5 6 
#
# 1 54.6510 21.1064 10.0232 -0.0211 -3.1808 7.8746
# 2 21.1064 59.4619 16.4628 3.1107 1.6211 18.8198
# 3 10.0232 16.4628 98.9517 -0.2246 -12.7209 0.1597
# 4 -0.0211 3.1107 -0.2246 22.2379 4.6605 -5.8255
# 5 -3.1808 1.6211 -12.7209 4.6605 19.8398 -1.6111
# 6 7.8746 18.8198 0.1597 -5.8255 -1.6111 39.7377
#
#
#
# Elastic Compliance Matrix: (Units=1/GPa)
#
#
# Indices 1 2 3 4 5 6 
#
# 1 0.021558 -0.007448 -0.000469 0.000135 0.003686 -0.000573
# 2 -0.007448 0.024511 -0.004017 -0.005245 -0.005443 -0.011106
# 3 -0.000469 -0.004017 0.011864 -0.000446 0.008145 0.002213
# 4 0.000135 -0.005245 -0.000446 0.050452 -0.010923 0.009413
# 5 0.003686 -0.005443 0.008145 -0.010923 0.059440 0.002623
# 6 -0.000573 -0.011106 0.002213 0.009413 0.002623 0.032016
#
#
# Mechanical properties :
#
#
# Convention : Reuss Voigt Hill
#
# Bulk Modulus (GPa) = 29.35673 34.24994 31.80334
# Shear Modulus (GPa) = 21.27062 27.39457 24.33259
#
# Velocity S-wave (km/s) = 3.17994 3.60879 3.40113
# Velocity P-wave (km/s) = 5.23821 5.80059 5.52656
#
# Compressibility (1/GPa) = 0.03406374
#
# Stress axis : x y z
#
# Youngs Moduli (GPa) = 46.38713 40.79745 84.28643
#
# Poissons Ratio (x) = 0.30386 0.03957
# Poissons Ratio (y) = 0.34550 0.33860
# Poissons Ratio (z) = 0.02178 0.16389
#
# Static dielectric constant tensor:
#      x y z
#    x 1.752810 0.055560 0.022500 
#    y 0.055560 1.752050 -0.040530 
#    z 0.022500 -0.040530 1.907070 
# 
# From -- ./inp_files/339800.got.cif
#   From: 2010.05.17/outbox.cif.g08.bks.cpg/sg2_170_cif.got.tgz:339800.got - 2010.06.03 11:33:40.
