data_PCOD9096598
_publ_section_title
;
Structure prediction by ZEFSAII (Michael W. Deem and Ramdas Pophale) SiO2 
 PCOD9096598
Probable space group: P -1
;
_chemical_formula_sum "Si O2"
_cell_formula_units_Z 14
_cell_length_a 9.014614
_cell_length_b 6.422676
_cell_length_c 14.811224
_cell_angle_alpha 68.203360
_cell_angle_beta 60.877250
_cell_angle_gamma 95.939965
_cell_volume 651.478824
_symmetry_space_group_name_H-M "P -1"
_symmetry_group_IT_number 2
_symmetry_cell_setting 'triclinic'
loop_
_space_group_symop_operation_xyz
x,y,z
-x,-y,-z
loop_
_atom_site_type_symbol
_atom_site_label
_atom_site_fract_x
_atom_site_fract_y
_atom_site_fract_z
Si Si1 0.972505 0.609590 0.584440
Si Si2 0.585878 0.678209 0.072250
Si Si3 0.696296 0.303685 0.209125
Si Si4 0.013736 0.500231 0.207699
Si Si5 0.742535 0.773519 0.821887
Si Si6 0.278294 0.082391 0.382321
Si Si7 0.823339 0.080069 0.047195
O O1 0.960402 0.446144 0.702291
O O2 0.000000 0.500000 0.500000
O O3 0.804810 0.707231 0.610520
O O4 0.149917 0.848420 0.507675
O O5 0.685692 0.502250 0.108204
O O6 0.391452 0.488818 0.132730
O O7 0.670059 0.811087 0.933726
O O8 0.635613 0.878236 0.102340
O O9 0.813100 0.431958 0.239173
O O10 0.491088 0.160130 0.323041
O O11 0.792349 0.155583 0.145161
O O12 0.068559 0.264813 0.218284
O O13 0.134674 0.703330 0.071508
O O14 0.743825 0.955250 0.713717
O O15 0.000000 0.000000 0.000000
#
# Coordination Sequence:
#
# PCOD9096598 Si02
#       7
#     2   2   2   2   2   2   2
#     4  10  23  45  65  89 117 154 208 261 299 357
#     4  10  20  36  56  89 124 158 200 242 297 362
#     4  11  22  41  61  90 128 158 201 251 298 368
#     4  11  22  39  61  88 124 165 198 248 303 360
#     4   9  19  37  59  85 123 158 196 249 297 356
#     4   9  22  42  65  87 118 160 201 253 309 348
#     4  12  23  36  61  93 129 167 195 241 308 365
#
# _framework density 21.489571999999999
#
# number of rings (size 3 to 8) (size 9 to 14) (size 15 to 20)
#    0.000    1.714    2.857    1.286    2.000    4.571 
#    2.571    0.714    0.000    0.000    0.000    0.000 
#    0.000    0.000    0.000    0.000    0.000    0.000 
#
# Total GULP energy -78110.852718 kJ/mol
# GULP energy per Si atom -5579.346623 kJ/mol
# Density = 2.144066 g / cm^3
# Si number density = 21.489572 Si / 1000 Ang^3
#
#
#
# Elastic Constant Matrix: (Units=GPa)
#
#
# Indices 1 2 3 4 5 6 
#
# 1 93.0987 18.0654 11.2204 8.2055 -3.5144 1.6156
# 2 18.0654 41.7670 11.4257 19.3144 -4.2062 10.2584
# 3 11.2204 11.4257 74.3675 16.1488 -2.9319 1.3134
# 4 8.2055 19.3144 16.1488 33.8905 2.1724 2.4550
# 5 -3.5144 -4.2062 -2.9319 2.1724 31.4822 3.9061
# 6 1.6156 10.2584 1.3134 2.4550 3.9061 22.8023
#
#
#
# Elastic Compliance Matrix: (Units=1/GPa)
#
#
# Indices 1 2 3 4 5 6 
#
# 1 0.011865 -0.005497 -0.001107 0.000657 0.000245 0.001584
# 2 -0.005497 0.041441 -0.000233 -0.021463 0.008540 -0.017393
# 3 -0.001107 -0.000233 0.015234 -0.006954 0.001775 -0.000250
# 4 0.000657 -0.021463 -0.006954 0.044897 -0.007338 0.006433
# 5 0.000245 0.008540 0.001775 -0.007338 0.034736 -0.009122
# 6 0.001584 -0.017393 -0.000250 0.006433 -0.009122 0.052452
#
#
# Mechanical properties :
#
#
# Convention : Reuss Voigt Hill
#
# Bulk Modulus (GPa) = 18.22616 32.29511 25.26064
# Shear Modulus (GPa) = 21.49720 28.86979 25.18349
#
# Velocity S-wave (km/s) = 3.16627 3.66926 3.42701
# Velocity P-wave (km/s) = 4.67620 5.74563 5.23827
#
# Compressibility (1/GPa) = 0.05486618
#
# Stress axis : x y z
#
# Youngs Moduli (GPa) = 84.27959 24.13072 65.64304
#
# Poissons Ratio (x) = 0.13266 0.07264
# Poissons Ratio (y) = 0.46332 0.01529
# Poissons Ratio (z) = 0.09326 0.00562
#
# Static dielectric constant tensor:
#      x y z
#    x 1.789370 -0.008950 -0.019640 
#    y -0.008950 1.820680 -0.011610 
#    z -0.019640 -0.011610 1.775140 
# 
# From -- ./inp_files/55460.got.cif
#   From: 2010.05.17/outbox.cif.g08.bks.cpg/sg2_28_cif.got.tgz:55460.got - 2010.06.03 11:33:40.
