data_PCOD9096580
_publ_section_title
;
Structure prediction by ZEFSAII (Michael W. Deem and Ramdas Pophale) SiO2 
 PCOD9096580
Probable space group: P -1
;
_chemical_formula_sum "Si O2"
_cell_formula_units_Z 16
_cell_length_a 9.895845
_cell_length_b 11.762731
_cell_length_c 10.318455
_cell_angle_alpha 45.215472
_cell_angle_beta 100.357569
_cell_angle_gamma 114.648927
_cell_volume 762.613741
_symmetry_space_group_name_H-M "P -1"
_symmetry_group_IT_number 2
_symmetry_cell_setting 'triclinic'
loop_
_space_group_symop_operation_xyz
x,y,z
-x,-y,-z
loop_
_atom_site_type_symbol
_atom_site_label
_atom_site_fract_x
_atom_site_fract_y
_atom_site_fract_z
Si Si1 0.893078 0.185280 0.571014
Si Si2 0.930617 0.789412 0.162732
Si Si3 0.313428 0.109032 0.633282
Si Si4 0.679372 0.592662 0.432190
Si Si5 0.916869 0.570555 0.825178
Si Si6 0.176277 0.775080 0.047244
Si Si7 0.342107 0.780355 0.318779
Si Si8 0.845359 0.877730 0.645533
O O1 0.006679 0.251377 0.658221
O O2 0.743337 0.196970 0.588201
O O3 0.966869 0.303165 0.363494
O O4 0.856608 0.981781 0.696111
O O5 0.008353 0.722786 0.117798
O O6 0.750905 0.701465 0.225102
O O7 0.000000 0.000000 0.000000
O O8 0.268030 0.259595 0.565131
O O9 0.481250 0.146701 0.678665
O O10 0.288209 0.114235 0.472272
O O11 0.206594 0.922196 0.825666
O O12 0.500000 0.500000 0.500000
O O13 0.718737 0.425689 0.561205
O O14 0.807832 0.393666 0.874022
O O15 0.840761 0.684043 0.793591
O O16 0.000000 0.500000 0.000000
O O17 0.291062 0.856309 0.122523
O O18 0.000000 0.000000 0.500000
#
# Coordination Sequence:
#
# PCOD9096580 Si02
#       8
#     2   2   2   2   2   2   2   2
#     4  10  22  40  59  87 120 158 208 250 302 369
#     4  11  21  34  63  91 120 159 200 250 305 358
#     4  11  21  37  61  87 121 167 196 249 308 369
#     4  10  20  36  56  86 121 159 199 245 304 361
#     4  11  23  37  62  89 118 153 203 262 305 354
#     4  11  21  35  59  90 125 152 207 251 302 363
#     4  10  22  38  58  88 123 162 200 252 309 360
#     4  10  21  38  61  82 116 156 209 245 309 358
#
# _framework density 20.980478000000002
#
# number of rings (size 3 to 8) (size 9 to 14) (size 15 to 20)
#    0.000    1.500    1.250    5.625    1.750    2.500 
#    0.000    0.000    0.000    1.500    0.000    0.000 
#    0.000    0.000    0.000    0.000    0.000    0.000 
#
# Total GULP energy -89283.926326 kJ/mol
# GULP energy per Si atom -5580.245395 kJ/mol
# Density = 2.093273 g / cm^3
# Si number density = 20.980478 Si / 1000 Ang^3
#
#
#
# Elastic Constant Matrix: (Units=GPa)
#
#
# Indices 1 2 3 4 5 6 
#
# 1 87.1666 26.5887 23.0828 -3.0387 -8.5114 -9.7206
# 2 26.5887 102.0908 22.1319 -11.2745 0.5877 -21.9655
# 3 23.0828 22.1319 91.8547 -5.1241 3.8082 -0.7181
# 4 -3.0387 -11.2745 -5.1241 29.0920 3.8879 8.4607
# 5 -8.5114 0.5877 3.8082 3.8879 24.8864 -1.8053
# 6 -9.7206 -21.9655 -0.7181 8.4607 -1.8053 41.5580
#
#
#
# Elastic Compliance Matrix: (Units=1/GPa)
#
#
# Indices 1 2 3 4 5 6 
#
# 1 0.013877 -0.002626 -0.003161 -0.001578 0.005711 0.002373
# 2 -0.002626 0.012379 -0.002091 0.002737 -0.000914 0.005296
# 3 -0.003161 -0.002091 0.012430 0.002152 -0.003431 -0.002217
# 4 -0.001578 0.002737 0.002152 0.038713 -0.007496 -0.007092
# 5 0.005711 -0.000914 -0.003431 -0.007496 0.044161 0.004238
# 6 0.002373 0.005296 -0.002217 -0.007092 0.004238 0.029007
#
#
# Mechanical properties :
#
#
# Convention : Reuss Voigt Hill
#
# Bulk Modulus (GPa) = 43.60803 47.19098 45.39951
# Shear Modulus (GPa) = 28.74125 33.06121 30.90123
#
# Velocity S-wave (km/s) = 3.70524 3.97395 3.84194
# Velocity P-wave (km/s) = 6.25581 6.60288 6.43169
#
# Compressibility (1/GPa) = 0.02293155
#
# Stress axis : x y z
#
# Youngs Moduli (GPa) = 72.05925 80.78032 80.45145
#
# Poissons Ratio (x) = 0.21210 0.25431
# Poissons Ratio (y) = 0.18920 0.16822
# Poissons Ratio (z) = 0.22778 0.16891
#
# Static dielectric constant tensor:
#      x y z
#    x 1.834690 0.034760 0.013710 
#    y 0.034760 1.814050 0.006840 
#    z 0.013710 0.006840 1.784840 
# 
# From -- ./inp_files/261643.got.cif
#   From: 2010.05.17/outbox.cif.g08.bks.cpg/sg2_131_cif.got.tgz:261643.got - 2010.06.03 11:33:40.
