data_PCOD9096520
_publ_section_title
;
Structure prediction by ZEFSAII (Michael W. Deem and Ramdas Pophale) SiO2 
 PCOD9096520
Probable space group: P -1
;
_chemical_formula_sum "Si O2"
_cell_formula_units_Z 12
_cell_length_a 8.467037
_cell_length_b 8.467084
_cell_length_c 8.359157
_cell_angle_alpha 98.979250
_cell_angle_beta 98.979295
_cell_angle_gamma 116.251761
_cell_volume 513.453852
_symmetry_space_group_name_H-M "P -1"
_symmetry_group_IT_number 2
_symmetry_cell_setting 'triclinic'
loop_
_space_group_symop_operation_xyz
x,y,z
-x,-y,-z
loop_
_atom_site_type_symbol
_atom_site_label
_atom_site_fract_x
_atom_site_fract_y
_atom_site_fract_z
Si Si1 0.336314 0.297521 0.482870
Si Si2 0.168105 0.452490 0.682961
Si Si3 0.297522 0.336314 0.982871
Si Si4 0.452496 0.168110 0.182962
Si Si5 0.513792 0.118641 0.676926
Si Si6 0.118645 0.513795 0.176925
O O1 0.500000 0.500000 0.500000
O O2 0.173987 0.337368 0.514028
O O3 0.332602 0.174122 0.315568
O O4 0.387198 0.210043 0.630054
O O5 0.357061 0.642934 0.750000
O O6 0.009235 0.502750 0.696926
O O7 0.174119 0.332598 0.815568
O O8 0.337371 0.173988 0.014029
O O9 0.210043 0.387196 0.130056
O O10 0.500000 0.500000 0.000000
O O11 0.502760 0.009243 0.196931
O O12 0.712468 0.287529 0.750004
O O13 0.500000 0.000000 0.500000
O O14 0.000000 0.500000 0.000000
#
# Coordination Sequence:
#
# PCOD9096520 Si02
#       6
#     2   2   2   2   2   2
#     4   9  17  34  57  78 106 149 187 215 266 341
#     4   9  18  34  55  81 108 145 186 225 267 324
#     4   9  17  34  57  78 106 149 187 215 266 341
#     4   9  18  34  55  81 108 145 186 225 267 324
#     4  10  20  36  56  81 111 144 184 228 272 325
#     4  10  20  36  56  81 111 144 184 228 272 325
#
# _framework density 23.37114
#
# number of rings (size 3 to 8) (size 9 to 14) (size 15 to 20)
#    0.000    2.667    0.000    3.000    0.000    0.000 
#    0.000   35.000    0.000    0.000    0.000    0.000 
#    0.000    0.000    0.000    0.000    0.000    0.000 
#
# Total GULP energy -66885.527171 kJ/mol
# GULP energy per Si atom -5573.793931 kJ/mol
# Density = 2.331795 g / cm^3
# Si number density = 23.371140 Si / 1000 Ang^3
#
#
#
# Elastic Constant Matrix: (Units=GPa)
#
#
# Indices 1 2 3 4 5 6 
#
# 1 131.3282 62.2728 46.6675 -11.6529 -24.1121 -55.2126
# 2 62.2728 57.3531 31.4450 -19.6080 6.0949 -34.1763
# 3 46.6675 31.4450 66.1176 -16.7370 -3.6590 -23.2130
# 4 -11.6529 -19.6080 -16.7370 45.1924 -11.7907 11.9741
# 5 -24.1121 6.0949 -3.6590 -11.7907 50.3203 1.4387
# 6 -55.2126 -34.1763 -23.2130 11.9741 1.4387 35.9128
#
#
#
# Elastic Compliance Matrix: (Units=1/GPa)
#
#
# Indices 1 2 3 4 5 6 
#
# 1 0.035090 -0.018983 -0.004153 -0.005521 0.016535 0.034377
# 2 -0.018983 0.057250 -0.005638 0.008851 -0.014918 0.019300
# 3 -0.004153 -0.005638 0.022424 0.004882 0.001437 0.001059
# 4 -0.005521 0.008851 0.004882 0.029094 0.003648 -0.006756
# 5 0.016535 -0.014918 0.001437 0.003648 0.030284 0.009724
# 6 0.034377 0.019300 0.001059 -0.006756 0.009724 0.101610
#
#
# Mechanical properties :
#
#
# Convention : Reuss Voigt Hill
#
# Bulk Modulus (GPa) = 17.47733 59.50773 38.49253
# Shear Modulus (GPa) = 14.18952 33.91269 24.05110
#
# Velocity S-wave (km/s) = 2.46669 3.81340 3.21143
# Velocity P-wave (km/s) = 3.95059 6.70124 5.50063
#
# Compressibility (1/GPa) = 0.05721697
#
# Stress axis : x y z
#
# Youngs Moduli (GPa) = 28.49823 17.46712 44.59444
#
# Poissons Ratio (x) = 0.33158 0.18518
# Poissons Ratio (y) = 0.54098 0.25144
# Poissons Ratio (z) = 0.11834 0.09849
#
# Static dielectric constant tensor:
#      x y z
#    x 1.923880 -0.074890 -0.038930 
#    y -0.074890 1.860600 -0.055010 
#    z -0.038930 -0.055010 1.981940 
# 
# From -- ./inp_files/150949.got.cif
#   From: 2010.05.17/outbox.cif.g08.bks.cpg/sg2_76_cif.got.tgz:150949.got - 2010.06.03 11:33:40.
