data_PCOD9096842
_publ_section_title
;
Structure prediction by ZEFSAII (Michael W. Deem and Ramdas Pophale) SiO2 
 PCOD9096842
Probable space group: P -1
;
_chemical_formula_sum "Si O2"
_cell_formula_units_Z 16
_cell_length_a 7.507146
_cell_length_b 15.496816
_cell_length_c 7.696979
_cell_angle_alpha 82.686929
_cell_angle_beta 57.568151
_cell_angle_gamma 103.131782
_cell_volume 701.394270
_symmetry_space_group_name_H-M "P -1"
_symmetry_group_IT_number 2
_symmetry_cell_setting 'triclinic'
loop_
_space_group_symop_operation_xyz
x,y,z
-x,-y,-z
loop_
_atom_site_type_symbol
_atom_site_label
_atom_site_fract_x
_atom_site_fract_y
_atom_site_fract_z
Si Si1 0.159370 0.905398 0.302213
Si Si2 0.030087 0.298467 0.879443
Si Si3 0.705256 0.503481 0.267215
Si Si4 0.107888 0.479572 0.278391
Si Si5 0.412533 0.648462 0.925925
Si Si6 0.882082 0.714574 0.566551
Si Si7 0.250473 0.896457 0.856967
Si Si8 0.718640 0.952151 0.480146
O O1 0.258763 0.982031 0.378574
O O2 0.107568 0.804522 0.441213
O O3 0.273786 0.913862 0.050015
O O4 0.911073 0.908503 0.393786
O O5 0.189906 0.388509 0.875093
O O6 0.131753 0.300410 0.632115
O O7 0.786771 0.310082 0.976659
O O8 0.968878 0.197078 0.021145
O O9 0.500000 0.500000 0.500000
O O10 0.606832 0.417936 0.212231
O O11 0.927998 0.488321 0.230808
O O12 0.111343 0.377702 0.322366
O O13 0.000000 0.500000 0.500000
O O14 0.345330 0.565271 0.123332
O O15 0.659892 0.724339 0.766768
O O16 0.241349 0.984643 0.730294
O O17 0.464664 0.881917 0.655437
#
# Coordination Sequence:
#
# PCOD9096842 Si02
#       8
#     2   2   2   2   2   2   2   2
#     4  10  22  38  63  87 124 150 194 251 296 352
#     4  10  20  36  58  84 117 147 200 237 288 345
#     4  11  21  37  57  82 117 158 194 236 288 342
#     4  11  20  36  56  81 115 151 197 236 281 345
#     4  11  21  36  59  78 118 160 188 238 294 336
#     4  11  21  37  58  86 114 154 195 239 290 344
#     4  10  21  38  65  86 119 155 196 245 297 355
#     4  10  21  40  61  90 116 157 197 236 310 364
#
# _framework density 22.811707999999999
#
# number of rings (size 3 to 8) (size 9 to 14) (size 15 to 20)
#    0.000    1.500    3.750    3.375    0.000    2.000 
#    0.000    0.000    8.250    0.000    0.000    0.000 
#    0.000    0.000    0.000    0.000    0.000    0.000 
#
# Total GULP energy -89242.355780 kJ/mol
# GULP energy per Si atom -5577.647236 kJ/mol
# Density = 2.275979 g / cm^3
# Si number density = 22.811708 Si / 1000 Ang^3
#
#
#
# Elastic Constant Matrix: (Units=GPa)
#
#
# Indices 1 2 3 4 5 6 
#
# 1 33.4099 -3.8916 23.5049 -8.8632 -4.2808 -4.5461
# 2 -3.8916 47.9288 27.0103 -17.1488 3.8170 -2.4627
# 3 23.5049 27.0103 168.5372 -18.8496 -5.8301 -6.0594
# 4 -8.8632 -17.1488 -18.8496 44.2474 -2.0570 0.5405
# 5 -4.2808 3.8170 -5.8301 -2.0570 30.9284 3.4209
# 6 -4.5461 -2.4627 -6.0594 0.5405 3.4209 24.4564
#
#
#
# Elastic Compliance Matrix: (Units=1/GPa)
#
#
# Indices 1 2 3 4 5 6 
#
# 1 0.038636 0.009634 -0.005582 0.009161 0.003036 0.006142
# 2 0.009634 0.028565 -0.004673 0.010837 -0.002756 0.003655
# 3 -0.005582 -0.004673 0.007548 0.000341 0.001230 0.000182
# 4 0.009161 0.010837 0.000341 0.028835 0.001691 0.002005
# 5 0.003036 -0.002756 0.001230 0.001691 0.033901 -0.004188
# 6 0.006142 0.003655 0.000182 0.002005 -0.004188 0.042986
#
#
# Mechanical properties :
#
#
# Convention : Reuss Voigt Hill
#
# Bulk Modulus (GPa) = 13.60417 38.12478 25.86447
# Shear Modulus (GPa) = 24.24666 33.47661 28.86164
#
# Velocity S-wave (km/s) = 3.26376 3.83498 3.56084
# Velocity P-wave (km/s) = 4.49215 6.02980 5.31686
#
# Compressibility (1/GPa) = 0.07350688
#
# Stress axis : x y z
#
# Youngs Moduli (GPa) = 25.88284 35.00777 132.48379
#
# Poissons Ratio (x) = -0.33728 0.73950
# Poissons Ratio (y) = -0.24936 0.61916
# Poissons Ratio (z) = 0.14447 0.16361
#
# Static dielectric constant tensor:
#      x y z
#    x 1.872060 0.014950 -0.005190 
#    y 0.014950 1.867410 -0.032760 
#    z -0.005190 -0.032760 1.881160 
# 
# From -- ./inp_files/201269.got.cif
#   From: 2010.05.17/outbox.cif.g08.bks.cpg/sg2_101_cif.got.tgz:201269.got - 2010.06.03 11:33:40.
