data_PCOD9096168
_publ_section_title
;
Structure prediction by ZEFSAII (Michael W. Deem and Ramdas Pophale) SiO2 
 PCOD9096168
Probable space group: P -1
;
_chemical_formula_sum "Si O2"
_cell_formula_units_Z 16
_cell_length_a 4.998984
_cell_length_b 20.444668
_cell_length_c 8.801792
_cell_angle_alpha 61.230490
_cell_angle_beta 102.286723
_cell_angle_gamma 110.985309
_cell_volume 735.325479
_symmetry_space_group_name_H-M "P -1"
_symmetry_group_IT_number 2
_symmetry_cell_setting 'triclinic'
loop_
_space_group_symop_operation_xyz
x,y,z
-x,-y,-z
loop_
_atom_site_type_symbol
_atom_site_label
_atom_site_fract_x
_atom_site_fract_y
_atom_site_fract_z
Si Si1 0.546139 0.683161 0.129413
Si Si2 0.294046 0.843227 0.400683
Si Si3 0.053157 0.733165 0.904281
Si Si4 0.236975 0.986321 0.365926
Si Si5 0.336624 0.378160 0.233264
Si Si6 0.630562 0.746977 0.403158
Si Si7 0.213232 0.128436 0.342303
Si Si8 0.284189 0.533023 0.098230
O O1 0.594113 0.704136 0.286457
O O2 0.329720 0.596662 0.165087
O O3 0.846679 0.695425 0.064882
O O4 0.378660 0.740946 0.974690
O O5 0.299115 0.934137 0.295474
O O6 0.452887 0.808790 0.329052
O O7 0.473488 0.836486 0.583128
O O8 0.964803 0.791901 0.419924
O O9 0.962265 0.675004 0.814153
O O10 0.956270 0.809450 0.774490
O O11 0.960674 0.929990 0.481108
O O12 0.500000 0.000000 0.500000
O O13 0.205967 0.072931 0.257611
O O14 0.465890 0.319068 0.404266
O O15 0.334902 0.452674 0.250025
O O16 0.501344 0.418365 0.058445
O O17 0.000000 0.500000 0.000000
#
# Coordination Sequence:
#
# PCOD9096168 Si02
#       8
#     2   2   2   2   2   2   2   2
#     4  11  26  42  59  91 128 163 204 253 311 369
#     4  11  21  38  62  91 125 159 202 256 305 360
#     4  11  22  40  65  88 124 159 208 257 302 363
#     4   9  19  33  59 101 127 151 200 270 302 351
#     4  10  22  37  65  90 117 160 209 252 308 365
#     4  12  25  40  63  91 125 167 205 251 308 370
#     4  10  20  35  63 101 121 156 208 263 305 351
#     4  10  21  40  63  89 122 160 202 261 308 362
#
# _framework density 21.759073000000001
#
# number of rings (size 3 to 8) (size 9 to 14) (size 15 to 20)
#    0.000    1.500    3.750    0.750    7.000    0.500 
#    0.000    0.625    0.000    4.500    0.000    0.000 
#    0.000    0.000    0.000    0.000    0.000    0.000 
#
# Total GULP energy -89250.638104 kJ/mol
# GULP energy per Si atom -5578.164881 kJ/mol
# Density = 2.170955 g / cm^3
# Si number density = 21.759073 Si / 1000 Ang^3
#
#
#
# Elastic Constant Matrix: (Units=GPa)
#
#
# Indices 1 2 3 4 5 6 
#
# 1 92.9357 39.5876 -3.5221 -0.9880 3.2138 -6.0185
# 2 39.5876 178.8767 36.6472 5.1122 4.6338 -27.9282
# 3 -3.5221 36.6472 26.8411 7.3677 0.1670 -6.4438
# 4 -0.9880 5.1122 7.3677 23.0403 -8.0019 -2.9257
# 5 3.2138 4.6338 0.1670 -8.0019 19.7336 1.2310
# 6 -6.0185 -27.9282 -6.4438 -2.9257 1.2310 41.8769
#
#
#
# Elastic Compliance Matrix: (Units=1/GPa)
#
#
# Indices 1 2 3 4 5 6 
#
# 1 0.013037 -0.004481 0.008344 -0.001747 -0.001856 0.000102
# 2 -0.004481 0.010028 -0.013913 0.002256 -0.000847 0.004085
# 3 0.008344 -0.013913 0.062619 -0.018686 -0.006226 0.000434
# 4 -0.001747 0.002256 -0.018686 0.056973 0.022910 0.001685
# 5 -0.001856 -0.000847 -0.006226 0.022910 0.060642 -0.001972
# 6 0.000102 0.004085 0.000434 0.001685 -0.001972 0.026861
#
#
# Mechanical properties :
#
#
# Convention : Reuss Voigt Hill
#
# Bulk Modulus (GPa) = 15.24734 49.34210 32.29472
# Shear Modulus (GPa) = 18.37427 31.99286 25.18356
#
# Velocity S-wave (km/s) = 2.90908 3.83864 3.40572
# Velocity P-wave (km/s) = 4.27858 6.50943 5.50812
#
# Compressibility (1/GPa) = 0.06558522
#
# Stress axis : x y z
#
# Youngs Moduli (GPa) = 76.70292 99.72308 15.96967
#
# Poissons Ratio (x) = 0.44685 -0.13325
# Poissons Ratio (y) = 0.34370 0.22218
# Poissons Ratio (z) = -0.64003 1.38740
#
# Static dielectric constant tensor:
#      x y z
#    x 1.884790 -0.032080 -0.005510 
#    y -0.032080 1.887440 -0.038510 
#    z -0.005510 -0.038510 1.795370 
# 
# From -- ./inp_files/105792.got.cif
#   From: 2010.05.17/outbox.cif.g08.bks.cpg/sg2_53_cif.got.tgz:105792.got - 2010.06.03 11:33:40.
