data_PCOD9096884
_publ_section_title
;
Structure prediction by ZEFSAII (Michael W. Deem and Ramdas Pophale) SiO2 
 PCOD9096884
Probable space group: P -1
;
_chemical_formula_sum "Si O2"
_cell_formula_units_Z 16
_cell_length_a 7.385492
_cell_length_b 19.690813
_cell_length_c 18.689100
_cell_angle_alpha 157.725007
_cell_angle_beta 48.956564
_cell_angle_gamma 118.998635
_cell_volume 701.618911
_symmetry_space_group_name_H-M "P -1"
_symmetry_group_IT_number 2
_symmetry_cell_setting 'triclinic'
loop_
_space_group_symop_operation_xyz
x,y,z
-x,-y,-z
loop_
_atom_site_type_symbol
_atom_site_label
_atom_site_fract_x
_atom_site_fract_y
_atom_site_fract_z
Si Si1 0.212375 0.634189 0.630350
Si Si2 0.616742 0.118432 0.685598
Si Si3 0.126583 0.232222 0.822494
Si Si4 0.644726 0.824294 0.516746
Si Si5 0.760358 0.435252 0.918905
Si Si6 0.470853 0.803077 0.838509
Si Si7 0.393716 0.176208 0.025790
Si Si8 0.520643 0.496323 0.268015
O O1 0.266657 0.771532 0.807918
O O2 0.285044 0.420521 0.441510
O O3 0.401970 0.586382 0.464822
O O4 0.091566 0.255373 0.207350
O O5 0.327936 0.202168 0.806138
O O6 0.713744 0.288602 0.843738
O O7 0.808865 0.976054 0.434856
O O8 0.621707 0.977699 0.610654
O O9 0.203292 0.368107 0.878921
O O10 0.831839 0.349802 0.041462
O O11 0.502575 0.677877 0.400296
O O12 0.959855 0.692879 0.317881
O O13 0.503641 0.963062 0.755186
O O14 0.500000 0.500000 0.000000
O O15 0.415929 0.833932 0.967433
O O16 0.500000 0.000000 0.000000
O O17 0.385547 0.349216 0.143072
#
# Coordination Sequence:
#
# PCOD9096884 Si02
#       8
#     2   2   2   2   2   2   2   2
#     4  10  23  42  63  90 125 165 208 254 308 366
#     4  10  20  36  58  86 119 156 200 247 302 363
#     4   9  20  37  58  83 118 160 197 246 304 362
#     4  11  23  35  60  93 118 159 208 249 301 369
#     4   9  19  37  57  80 116 156 194 245 305 360
#     4  10  21  39  65  89 117 162 208 253 305 359
#     4  11  24  42  62  89 128 165 203 257 310 361
#     4  10  21  39  59  85 122 159 202 253 306 362
#
# _framework density 22.804403000000001
#
# number of rings (size 3 to 8) (size 9 to 14) (size 15 to 20)
#    0.000    2.000    0.000    3.375    0.000    9.000 
#    0.000    1.250    0.000    6.000    0.000    0.000 
#    0.000    0.000    0.000    0.000    0.000    0.000 
#
# Total GULP energy -89258.379387 kJ/mol
# GULP energy per Si atom -5578.648712 kJ/mol
# Density = 2.275250 g / cm^3
# Si number density = 22.804403 Si / 1000 Ang^3
#
#
#
# Elastic Constant Matrix: (Units=GPa)
#
#
# Indices 1 2 3 4 5 6 
#
# 1 55.4513 13.8878 17.9043 -1.7091 0.4177 5.0388
# 2 13.8878 98.4426 36.1638 17.7303 -6.5148 16.1249
# 3 17.9043 36.1638 95.3715 11.2143 11.8485 14.1621
# 4 -1.7091 17.7303 11.2143 48.8748 12.1746 3.3651
# 5 0.4177 -6.5148 11.8485 12.1746 32.4341 8.5924
# 6 5.0388 16.1249 14.1621 3.3651 8.5924 15.7382
#
#
#
# Elastic Compliance Matrix: (Units=1/GPa)
#
#
# Indices 1 2 3 4 5 6 
#
# 1 0.019698 -0.001563 -0.003001 0.002008 0.000491 -0.002702
# 2 -0.001563 0.017062 -0.004137 -0.007145 0.012566 -0.018591
# 3 -0.003001 -0.004137 0.013930 -0.000355 -0.004471 -0.004819
# 4 0.002008 -0.007145 -0.000355 0.025936 -0.013388 0.008761
# 5 0.000491 0.012566 -0.004471 -0.013388 0.048676 -0.032721
# 6 -0.002702 -0.018591 -0.004819 0.008761 -0.032721 0.103780
#
#
# Mechanical properties :
#
#
# Convention : Reuss Voigt Hill
#
# Bulk Modulus (GPa) = 30.04032 42.79746 36.41889
# Shear Modulus (GPa) = 19.41143 31.49671 25.45407
#
# Velocity S-wave (km/s) = 2.92072 3.72044 3.34457
# Velocity P-wave (km/s) = 4.95740 6.10438 5.56054
#
# Compressibility (1/GPa) = 0.03328859
#
# Stress axis : x y z
#
# Youngs Moduli (GPa) = 50.76643 58.60993 71.78713
#
# Poissons Ratio (x) = 0.09161 0.21544
# Poissons Ratio (y) = 0.07935 0.29695
# Poissons Ratio (z) = 0.15236 0.24244
#
# Static dielectric constant tensor:
#      x y z
#    x 1.851670 -0.026770 -0.000390 
#    y -0.026770 1.915860 0.059480 
#    z -0.000390 0.059480 1.869640 
# 
# From -- ./inp_files/327075.got.cif
#   From: 2010.05.17/outbox.cif.g08.bks.cpg/sg2_164_cif.got.tgz:327075.got - 2010.06.03 11:33:40.
