data_PCOD9096578
_publ_section_title
;
Structure prediction by ZEFSAII (Michael W. Deem and Ramdas Pophale) SiO2 
 PCOD9096578
Probable space group: P -1
;
_chemical_formula_sum "Si O2"
_cell_formula_units_Z 16
_cell_length_a 6.944231
_cell_length_b 33.150860
_cell_length_c 19.104728
_cell_angle_alpha 15.770583
_cell_angle_beta 34.763615
_cell_angle_gamma 37.608702
_cell_volume 681.529873
_symmetry_space_group_name_H-M "P -1"
_symmetry_group_IT_number 2
_symmetry_cell_setting 'triclinic'
loop_
_space_group_symop_operation_xyz
x,y,z
-x,-y,-z
loop_
_atom_site_type_symbol
_atom_site_label
_atom_site_fract_x
_atom_site_fract_y
_atom_site_fract_z
Si Si1 0.267611 0.038981 0.439338
Si Si2 0.328856 0.998062 0.239192
Si Si3 0.194468 0.170377 0.860902
Si Si4 0.757533 0.803887 0.346687
Si Si5 0.602299 0.477291 0.088616
Si Si6 0.843084 0.499904 0.680072
Si Si7 0.770614 0.365754 0.413498
Si Si8 0.784262 0.793729 0.955886
O O1 0.388382 0.146334 0.163168
O O2 0.500000 0.000000 0.500000
O O3 0.920209 0.101628 0.473561
O O4 0.141334 0.884754 0.700024
O O5 0.390303 0.139465 0.034491
O O6 0.652448 0.910967 0.261848
O O7 0.129705 0.057232 0.131299
O O8 0.165569 0.112993 0.886914
O O9 0.013675 0.332737 0.641770
O O10 0.575154 0.225661 0.673667
O O11 0.430528 0.701356 0.598191
O O12 0.040940 0.689850 0.480630
O O13 0.954357 0.564036 0.837933
O O14 0.500000 0.500000 0.000000
O O15 0.346644 0.528878 0.140678
O O16 0.536631 0.514096 0.691134
O O17 0.119411 0.376760 0.787325
#
# Coordination Sequence:
#
# PCOD9096578 Si02
#       8
#     2   2   2   2   2   2   2   2
#     4   9  21  41  55  86 106 149 194 224 287 330
#     4  10  21  40  59  80 118 155 181 235 287 329
#     4   9  21  39  53  87 115 152 189 227 281 337
#     4  10  20  36  56  86 118 146 189 236 276 336
#     4   9  18  31  54  83 110 146 181 237 281 312
#     4   9  19  36  57  81 115 144 186 236 274 333
#     4   9  20  35  55  88 111 150 190 224 287 333
#     4   9  21  40  57  83 114 140 191 242 273 331
#
# _framework density 23.476593999999999
#
# number of rings (size 3 to 8) (size 9 to 14) (size 15 to 20)
#    1.500    1.250    0.000    0.750    3.500    2.000 
#    9.000    0.000    0.000    1.500    0.000    0.000 
#    0.000    0.000    0.000    0.000    0.000    0.000 
#
# Total GULP energy -89070.060223 kJ/mol
# GULP energy per Si atom -5566.878764 kJ/mol
# Density = 2.342316 g / cm^3
# Si number density = 23.476594 Si / 1000 Ang^3
#
#
#
# Elastic Constant Matrix: (Units=GPa)
#
#
# Indices 1 2 3 4 5 6 
#
# 1 109.9834 29.0933 13.4692 0.4666 23.6750 12.2034
# 2 29.0933 66.5654 28.9205 -5.0952 -2.3412 17.8617
# 3 13.4692 28.9205 60.1728 2.8679 8.8208 2.7682
# 4 0.4666 -5.0952 2.8679 36.9403 1.8235 5.4177
# 5 23.6750 -2.3412 8.8208 1.8235 35.0292 11.9372
# 6 12.2034 17.8617 2.7682 5.4177 11.9372 28.3010
#
#
#
# Elastic Compliance Matrix: (Units=1/GPa)
#
#
# Indices 1 2 3 4 5 6 
#
# 1 0.013065 -0.008856 0.002910 -0.001761 -0.011756 0.004966
# 2 -0.008856 0.035350 -0.017355 0.009331 0.021681 -0.027726
# 3 0.002910 -0.017355 0.026018 -0.005842 -0.014240 0.014278
# 4 -0.001761 0.009331 -0.005842 0.030433 0.006119 -0.012965
# 5 -0.011756 0.021681 -0.014240 0.006119 0.051467 -0.030101
# 6 0.004966 -0.027726 0.014278 -0.012965 -0.030101 0.064473
#
#
# Mechanical properties :
#
#
# Convention : Reuss Voigt Hill
#
# Bulk Modulus (GPa) = 35.92971 42.18750 39.05861
# Shear Modulus (GPa) = 18.07102 31.06999 24.57051
#
# Velocity S-wave (km/s) = 2.77744 3.64187 3.23862
# Velocity P-wave (km/s) = 5.06194 5.97439 5.53699
#
# Compressibility (1/GPa) = 0.02783212
#
# Stress axis : x y z
#
# Youngs Moduli (GPa) = 76.53778 28.28836 38.43528
#
# Poissons Ratio (x) = 0.25052 -0.11187
# Poissons Ratio (y) = 0.67780 0.66706
# Poissons Ratio (z) = -0.22276 0.49095
#
# Static dielectric constant tensor:
#      x y z
#    x 1.967950 -0.022170 -0.011050 
#    y -0.022170 1.914830 0.038770 
#    z -0.011050 0.038770 1.902240 
# 
# From -- ./inp_files/551497.got.cif
#   From: 2010.05.17/outbox.cif.g08.bks.cpg/sg2_276_cif.got.tgz:551497.got - 2010.06.03 11:33:40.
