data_PCOD9096519
_publ_section_title
;
Structure prediction by ZEFSAII (Michael W. Deem and Ramdas Pophale) SiO2 
 PCOD9096519
Probable space group: P -1
;
_chemical_formula_sum "Si O2"
_cell_formula_units_Z 16
_cell_length_a 13.901623
_cell_length_b 14.073347
_cell_length_c 4.955370
_cell_angle_alpha 92.252144
_cell_angle_beta 54.725374
_cell_angle_gamma 99.912281
_cell_volume 777.481363
_symmetry_space_group_name_H-M "P -1"
_symmetry_group_IT_number 2
_symmetry_cell_setting 'triclinic'
loop_
_space_group_symop_operation_xyz
x,y,z
-x,-y,-z
loop_
_atom_site_type_symbol
_atom_site_label
_atom_site_fract_x
_atom_site_fract_y
_atom_site_fract_z
Si Si1 0.871317 0.444459 0.121634
Si Si2 0.709775 0.773649 0.412814
Si Si3 0.356012 0.487145 0.572344
Si Si4 0.531388 0.347102 0.247197
Si Si5 0.057759 0.107666 0.838603
Si Si6 0.223856 0.338888 0.199434
Si Si7 0.795827 0.328261 0.712749
Si Si8 0.013405 0.780432 0.530994
O O1 0.765747 0.502879 0.382789
O O2 0.847654 0.350140 0.334247
O O3 0.848859 0.414636 0.844758
O O4 0.000000 0.500000 0.000000
O O5 0.566310 0.750721 0.632009
O O6 0.748447 0.695166 0.550728
O O7 0.743091 0.746141 0.055176
O O8 0.797100 0.871401 0.367031
O O9 0.453448 0.428336 0.288470
O O10 0.422453 0.597034 0.541097
O O11 0.303566 0.431298 0.930562
O O12 0.654660 0.326178 0.928046
O O13 0.013202 0.181781 0.127836
O O14 0.018467 0.140702 0.616158
O O15 0.000000 0.000000 0.000000
O O16 0.079964 0.320883 0.390713
O O17 0.852062 0.238258 0.713537
#
# Coordination Sequence:
#
# PCOD9096519 Si02
#       8
#     2   2   2   2   2   2   2   2
#     4  11  23  36  52  76 107 148 196 237 268 297
#     4   9  19  33  52  77 105 134 169 217 266 320
#     4   9  19  34  52  74 106 145 192 234 254 294
#     4   9  20  34  51  75 107 147 189 220 261 306
#     4  10  20  37  63  88 105 128 169 223 279 333
#     4   9  18  31  50  74 101 138 175 217 267 300
#     4  11  23  36  52  75 109 149 182 219 271 327
#     4  10  20  36  56  81 111 137 169 217 276 331
#
# _framework density 20.579274000000002
#
# number of rings (size 3 to 8) (size 9 to 14) (size 15 to 20)
#    0.000    2.250    0.000    2.250    0.000   15.000 
#    0.000    0.000    0.000    1.500    0.000    0.000 
#    0.000    0.000    0.000    0.000    0.000    0.000 
#
# Total GULP energy -89101.674684 kJ/mol
# GULP energy per Si atom -5568.854668 kJ/mol
# Density = 2.053243 g / cm^3
# Si number density = 20.579274 Si / 1000 Ang^3
#
#
#
# Elastic Constant Matrix: (Units=GPa)
#
#
# Indices 1 2 3 4 5 6 
#
# 1 107.6233 25.9632 45.6729 -11.3153 -38.7416 0.8299
# 2 25.9632 38.3224 21.2429 -17.4457 -20.7757 5.3282
# 3 45.6729 21.2429 77.1244 -11.7751 -15.1804 -4.0814
# 4 -11.3153 -17.4457 -11.7751 31.4592 5.4122 -7.8739
# 5 -38.7416 -20.7757 -15.1804 5.4122 49.5650 -0.9870
# 6 0.8299 5.3282 -4.0814 -7.8739 -0.9870 19.9500
#
#
#
# Elastic Compliance Matrix: (Units=1/GPa)
#
#
# Indices 1 2 3 4 5 6 
#
# 1 0.016355 -0.001244 -0.007388 0.000418 0.009929 -0.001203
# 2 -0.001244 0.048921 -0.007022 0.020004 0.015082 -0.005809
# 3 -0.007388 -0.007022 0.019556 0.003087 -0.002921 0.007258
# 4 0.000418 0.020004 0.003087 0.046863 0.004819 0.014006
# 5 0.009929 0.015082 -0.002921 0.004819 0.032808 -0.001514
# 6 -0.001203 -0.005809 0.007258 0.014006 -0.001514 0.058664
#
#
# Mechanical properties :
#
#
# Convention : Reuss Voigt Hill
#
# Bulk Modulus (GPa) = 18.68388 45.42537 32.05463
# Shear Modulus (GPa) = 18.36100 28.87425 23.61763
#
# Velocity S-wave (km/s) = 2.99023 3.74983 3.39136
# Velocity P-wave (km/s) = 4.58483 6.39293 5.56283
#
# Compressibility (1/GPa) = 0.05352207
#
# Stress axis : x y z
#
# Youngs Moduli (GPa) = 61.14457 20.44117 51.13572
#
# Poissons Ratio (x) = 0.02544 0.37779
# Poissons Ratio (y) = 0.07609 0.35909
# Poissons Ratio (z) = 0.45173 0.14354
#
# Static dielectric constant tensor:
#      x y z
#    x 1.805970 0.054210 -0.021630 
#    y 0.054210 1.748500 -0.000310 
#    z -0.021630 -0.000310 1.797200 
# 
# From -- ./inp_files/96958.got.cif
#   From: 2010.05.17/outbox.cif.g08.bks.cpg/sg2_49_cif.got.tgz:96958.got - 2010.06.03 11:33:40.
