data_PCOD9096079
_publ_section_title
;
Structure prediction by ZEFSAII (Michael W. Deem and Ramdas Pophale) SiO2 
 PCOD9096079
Probable space group: P -1
;
_chemical_formula_sum "Si O2"
_cell_formula_units_Z 11
_cell_length_a 6.726871
_cell_length_b 13.880427
_cell_length_c 8.421195
_cell_angle_alpha 112.578464
_cell_angle_beta 121.480557
_cell_angle_gamma 111.203502
_cell_volume 433.560419
_symmetry_space_group_name_H-M "P -1"
_symmetry_group_IT_number 2
_symmetry_cell_setting 'triclinic'
loop_
_space_group_symop_operation_xyz
x,y,z
-x,-y,-z
loop_
_atom_site_type_symbol
_atom_site_label
_atom_site_fract_x
_atom_site_fract_y
_atom_site_fract_z
Si Si1 0.500000 0.500000 0.500000
Si Si2 0.103221 0.188615 0.238400
Si Si3 0.176119 0.608087 0.874976
Si Si4 0.731240 0.290036 0.380088
Si Si5 0.609237 0.059008 0.362273
Si Si6 0.310395 0.110422 0.532236
O O1 0.281119 0.356208 0.443585
O O2 0.848885 0.568062 0.761424
O O3 0.384674 0.224639 0.265030
O O4 0.062196 0.091083 0.299550
O O5 0.758750 0.092725 0.941915
O O6 0.275174 0.675121 0.781293
O O7 0.035826 0.446498 0.693428
O O8 0.473681 0.732208 0.192188
O O9 0.748308 0.173665 0.350560
O O10 0.557857 0.123761 0.526559
O O11 0.800621 0.018405 0.478112
#
# Coordination Sequence:
#
# PCOD9096079 Si02
#       6
#     1   2   2   2   2   2
#     4  10  20  36  62  80 112 152 194 226 288 338
#     4  10  20  39  60  86 114 154 186 238 279 345
#     4  10  20  38  58  89 110 158 189 234 286 339
#     4   9  20  35  62  80 122 150 184 239 293 320
#     4  10  20  38  59  89 113 154 186 238 280 342
#     4  10  20  35  62  86 113 148 202 222 284 343
#
# _framework density 25.371317999999999
#
# number of rings (size 3 to 8) (size 9 to 14) (size 15 to 20)
#    0.000    2.182    1.818    2.182    0.000    7.273 
#    0.000    3.636    8.000    7.636    0.000    0.000 
#    0.000    0.000    0.000    0.000    0.000    0.000 
#
# Total GULP energy -61270.217426 kJ/mol
# GULP energy per Si atom -5570.019766 kJ/mol
# Density = 2.531357 g / cm^3
# Si number density = 25.371318 Si / 1000 Ang^3
#
#
#
# Elastic Constant Matrix: (Units=GPa)
#
#
# Indices 1 2 3 4 5 6 
#
# 1 55.9190 6.4348 8.7653 -1.5698 8.6239 -14.6564
# 2 6.4348 157.3213 26.8874 15.4474 13.7369 0.5737
# 3 8.7653 26.8874 111.7976 10.4959 -12.8258 -1.1211
# 4 -1.5698 15.4474 10.4959 34.8494 -5.6673 6.8268
# 5 8.6239 13.7369 -12.8258 -5.6673 29.5708 -2.0199
# 6 -14.6564 0.5737 -1.1211 6.8268 -2.0199 41.3336
#
#
#
# Elastic Compliance Matrix: (Units=1/GPa)
#
#
# Indices 1 2 3 4 5 6 
#
# 1 0.021181 0.000217 -0.002348 -0.000995 -0.006991 0.007267
# 2 0.000217 0.007497 -0.002068 -0.003572 -0.005110 0.000257
# 3 -0.002348 -0.002068 0.010433 -0.001369 0.005908 -0.000006
# 4 -0.000995 -0.003572 -0.001369 0.032892 0.007289 -0.005417
# 5 -0.006991 -0.005110 0.005908 0.007289 0.042094 -0.001395
# 6 0.007267 0.000257 -0.000006 -0.005417 -0.001395 0.027593
#
#
# Mechanical properties :
#
#
# Convention : Reuss Voigt Hill
#
# Bulk Modulus (GPa) = 32.56259 45.46810 39.01534
# Shear Modulus (GPa) = 31.18639 40.01412 35.60025
#
# Velocity S-wave (km/s) = 3.50980 3.97563 3.74995
# Velocity P-wave (km/s) = 5.41176 6.24773 5.84471
#
# Compressibility (1/GPa) = 0.03071009
#
# Stress axis : x y z
#
# Youngs Moduli (GPa) = 47.21224 133.38642 95.85393
#
# Poissons Ratio (x) = -0.02889 0.22511
# Poissons Ratio (y) = -0.01023 0.19826
# Poissons Ratio (z) = 0.11088 0.27589
#
# Static dielectric constant tensor:
#      x y z
#    x 2.276230 0.020140 0.032840 
#    y 0.020140 2.062590 0.010590 
#    z 0.032840 0.010590 1.989100 
# 
# From -- ./inp_files/148597.got.cif
#   From: 2010.05.17/outbox.cif.g08.bks.cpg/sg2_75_cif.got.tgz:148597.got - 2010.06.03 11:33:40.
