data_PCOD9096072
_publ_section_title
;
Structure prediction by ZEFSAII (Michael W. Deem and Ramdas Pophale) SiO2 
 PCOD9096072
Probable space group: P -1
;
_chemical_formula_sum "Si O2"
_cell_formula_units_Z 14
_cell_length_a 9.137592
_cell_length_b 14.847313
_cell_length_c 11.689356
_cell_angle_alpha 116.549331
_cell_angle_beta 117.080642
_cell_angle_gamma 31.564065
_cell_volume 733.159661
_symmetry_space_group_name_H-M "P -1"
_symmetry_group_IT_number 2
_symmetry_cell_setting 'triclinic'
loop_
_space_group_symop_operation_xyz
x,y,z
-x,-y,-z
loop_
_atom_site_type_symbol
_atom_site_label
_atom_site_fract_x
_atom_site_fract_y
_atom_site_fract_z
Si Si1 0.372166 0.668046 0.499342
Si Si2 0.914145 0.426755 0.435881
Si Si3 0.896181 0.581899 0.134634
Si Si4 0.534096 0.773166 0.775905
Si Si5 0.673163 0.891390 0.752235
Si Si6 0.297177 0.903535 0.023168
Si Si7 0.862814 0.792246 0.378879
O O1 0.500000 0.500000 0.500000
O O2 0.575274 0.589276 0.419952
O O3 0.413272 0.740188 0.641295
O O4 0.048595 0.800276 0.439037
O O5 0.000000 0.500000 0.500000
O O6 0.044893 0.298052 0.306315
O O7 0.048606 0.311586 0.534158
O O8 0.558639 0.732042 0.097694
O O9 0.932819 0.680993 0.236218
O O10 0.124680 0.412680 0.198934
O O11 0.000000 0.500000 0.000000
O O12 0.506579 0.892810 0.770048
O O13 0.394872 0.841927 0.891131
O O14 0.726611 0.966320 0.883103
O O15 0.466623 0.020771 0.646237
O O16 0.000000 0.000000 0.000000
#
# Coordination Sequence:
#
# PCOD9096072 Si02
#       7
#     2   2   2   2   2   2   2
#     4  10  20  35  62  84 119 151 201 236 285 351
#     4  11  20  37  58  87 117 155 195 239 290 349
#     4   9  18  36  62  80 112 154 196 233 289 352
#     4  11  20  41  60  85 118 160 197 234 298 354
#     4  11  23  39  59  85 123 156 192 248 295 351
#     4  10  24  39  61  88 115 152 200 249 297 342
#     4  10  21  37  55  90 118 158 194 238 301 337
#
# _framework density 19.095431000000001
#
# number of rings (size 3 to 8) (size 9 to 14) (size 15 to 20)
#    0.000    1.714    4.286    0.857    4.000    0.571 
#    0.000    2.143    0.000    0.000    0.000    0.000 
#    0.000    0.000    0.000    0.000    0.000    0.000 
#
# Total GULP energy -78021.440712 kJ/mol
# GULP energy per Si atom -5572.960051 kJ/mol
# Density = 1.905197 g / cm^3
# Si number density = 19.095431 Si / 1000 Ang^3
#
#
#
# Elastic Constant Matrix: (Units=GPa)
#
#
# Indices 1 2 3 4 5 6 
#
# 1 115.5279 38.7180 48.2268 3.6918 15.6928 -9.8677
# 2 38.7180 71.5082 44.3550 9.9389 10.6389 -12.1064
# 3 48.2268 44.3550 113.2847 17.5977 14.6965 -13.9199
# 4 3.6918 9.9389 17.5977 35.1755 -3.1562 -2.1267
# 5 15.6928 10.6389 14.6965 -3.1562 28.5327 1.5623
# 6 -9.8677 -12.1064 -13.9199 -2.1267 1.5623 28.2389
#
#
#
# Elastic Compliance Matrix: (Units=1/GPa)
#
#
# Indices 1 2 3 4 5 6 
#
# 1 0.011778 -0.003932 -0.003076 0.001184 -0.003361 0.001189
# 2 -0.003932 0.021059 -0.004970 -0.003075 -0.003753 0.005180
# 3 -0.003076 -0.004970 0.013929 -0.005427 -0.004421 0.003496
# 4 0.001184 -0.003075 -0.005427 0.032421 0.006960 -0.001523
# 5 -0.003361 -0.003753 -0.004421 0.006960 0.041712 -0.006746
# 6 0.001189 0.005180 0.003496 -0.001523 -0.006746 0.040030
#
#
# Mechanical properties :
#
#
# Convention : Reuss Voigt Hill
#
# Bulk Modulus (GPa) = 43.84323 62.54670 53.19497
# Shear Modulus (GPa) = 25.97526 29.65749 27.81637
#
# Velocity S-wave (km/s) = 3.69221 3.94524 3.82082
# Velocity P-wave (km/s) = 6.41767 7.31978 6.88352
#
# Compressibility (1/GPa) = 0.02280854
#
# Stress axis : x y z
#
# Youngs Moduli (GPa) = 84.90187 47.48478 71.79200
#
# Poissons Ratio (x) = 0.18673 0.22086
# Poissons Ratio (y) = 0.33387 0.35683
# Poissons Ratio (z) = 0.26119 0.23602
#
# Static dielectric constant tensor:
#      x y z
#    x 1.650940 -0.010620 -0.011680 
#    y -0.010620 1.724220 -0.013180 
#    z -0.011680 -0.013180 1.664720 
# 
# From -- ./inp_files/171168.got.cif
#   From: 2010.05.17/outbox.cif.g08.bks.cpg/sg2_86_cif.got.tgz:171168.got - 2010.06.03 11:33:40.
