data_PCOD9096927
_publ_section_title
;
Structure prediction by ZEFSAII (Michael W. Deem and Ramdas Pophale) SiO2 
 PCOD9096927
Probable space group: P -1
;
_chemical_formula_sum "Si O2"
_cell_formula_units_Z 16
_cell_length_a 13.713059
_cell_length_b 9.368811
_cell_length_c 11.781610
_cell_angle_alpha 141.324727
_cell_angle_beta 44.329909
_cell_angle_gamma 129.533797
_cell_volume 650.322415
_symmetry_space_group_name_H-M "P -1"
_symmetry_group_IT_number 2
_symmetry_cell_setting 'triclinic'
loop_
_space_group_symop_operation_xyz
x,y,z
-x,-y,-z
loop_
_atom_site_type_symbol
_atom_site_label
_atom_site_fract_x
_atom_site_fract_y
_atom_site_fract_z
Si Si1 0.070564 0.361696 0.599217
Si Si2 0.848729 0.835234 0.255892
Si Si3 0.699051 0.167702 0.480400
Si Si4 0.283435 0.559580 0.737790
Si Si5 0.431288 0.929378 0.702871
Si Si6 0.084321 0.264546 0.105232
Si Si7 0.357587 0.372763 0.104993
Si Si8 0.871928 0.109757 0.790689
O O1 0.158458 0.507871 0.716266
O O2 0.160019 0.169851 0.362104
O O3 0.018677 0.547841 0.676572
O O4 0.932266 0.206218 0.677903
O O5 0.729407 0.686608 0.342213
O O6 0.827317 0.091583 0.395985
O O7 0.849526 0.696950 0.052162
O O8 0.995808 0.843591 0.203063
O O9 0.685691 0.087303 0.311498
O O10 0.673647 0.429931 0.661614
O O11 0.571097 0.020598 0.570470
O O12 0.414415 0.690587 0.637111
O O13 0.240469 0.742348 0.977691
O O14 0.400004 0.124432 0.938431
O O15 0.212851 0.315176 0.117177
O O16 0.000000 0.000000 0.000000
O O17 0.500000 0.500000 0.000000
#
# Coordination Sequence:
#
# PCOD9096927 Si02
#       8
#     2   2   2   2   2   2   2   2
#     4  10  20  36  58  88 122 163 201 245 310 376
#     4  11  21  38  61  87 127 164 197 261 317 371
#     4  10  22  41  63  87 117 167 216 254 311 370
#     4  11  21  39  59  90 129 159 203 259 320 366
#     4  10  22  40  63  87 119 164 215 262 302 373
#     4  12  22  38  63  96 129 161 209 262 313 374
#     4  10  22  41  65  87 122 168 211 259 312 368
#     4  10  20  36  59  86 121 164 199 243 320 372
#
# _framework density 24.603179999999998
#
# number of rings (size 3 to 8) (size 9 to 14) (size 15 to 20)
#    0.000    1.500    3.750    2.250    0.000    1.500 
#    0.000    1.250    0.000    1.500    0.000    0.000 
#    0.000    0.000    0.000    0.000    0.000    0.000 
#
# Total GULP energy -89341.390152 kJ/mol
# GULP energy per Si atom -5583.836885 kJ/mol
# Density = 2.454718 g / cm^3
# Si number density = 24.603180 Si / 1000 Ang^3
#
#
#
# Elastic Constant Matrix: (Units=GPa)
#
#
# Indices 1 2 3 4 5 6 
#
# 1 31.3062 13.6612 -3.2620 3.4191 -10.0437 -0.0586
# 2 13.6612 156.4272 15.4465 16.9192 -2.9098 -17.0007
# 3 -3.2620 15.4465 87.5358 17.5919 4.3759 0.8950
# 4 3.4191 16.9192 17.5919 39.7771 -2.7662 -5.3976
# 5 -10.0437 -2.9098 4.3759 -2.7662 21.9335 5.0857
# 6 -0.0586 -17.0007 0.8950 -5.3976 5.0857 29.7359
#
#
#
# Elastic Compliance Matrix: (Units=1/GPa)
#
#
# Indices 1 2 3 4 5 6 
#
# 1 0.039872 -0.003691 0.001690 -0.002083 0.018472 -0.005620
# 2 -0.003691 0.007454 -0.001018 -0.001949 -0.001724 0.004226
# 3 0.001690 -0.001018 0.012970 -0.005830 -0.002306 -0.001633
# 4 -0.002083 -0.001949 -0.005830 0.029452 0.002754 0.003932
# 5 0.018472 -0.001724 -0.002306 0.002754 0.056977 -0.010125
# 6 -0.005620 0.004226 -0.001633 0.003932 -0.010125 0.038529
#
#
# Mechanical properties :
#
#
# Convention : Reuss Voigt Hill
#
# Bulk Modulus (GPa) = 18.43056 36.32895 27.37976
# Shear Modulus (GPa) = 23.88021 34.91753 29.39887
#
# Velocity S-wave (km/s) = 3.11885 3.77135 3.46051
# Velocity P-wave (km/s) = 4.52515 5.81052 5.20765
#
# Compressibility (1/GPa) = 0.05425770
#
# Stress axis : x y z
#
# Youngs Moduli (GPa) = 25.08003 134.16240 77.09990
#
# Poissons Ratio (x) = 0.49518 -0.13028
# Poissons Ratio (y) = 0.09257 0.07849
# Poissons Ratio (z) = -0.04238 0.13659
#
# Static dielectric constant tensor:
#      x y z
#    x 1.983100 0.018340 -0.115340 
#    y 0.018340 2.025490 -0.017540 
#    z -0.115340 -0.017540 2.046190 
# 
# From -- ./inp_files/448305.got.cif
#   From: 2010.05.17/outbox.cif.g08.bks.cpg/sg2_225_cif.got.tgz:448305.got - 2010.06.03 11:33:40.
