data_PCOD9096162
_publ_section_title
;
Structure prediction by ZEFSAII (Michael W. Deem and Ramdas Pophale) SiO2 
 PCOD9096162
Probable space group: P -1
;
_chemical_formula_sum "Si O2"
_cell_formula_units_Z 15
_cell_length_a 12.909148
_cell_length_b 11.359019
_cell_length_c 11.438743
_cell_angle_alpha 38.668892
_cell_angle_beta 32.530570
_cell_angle_gamma 37.930379
_cell_volume 519.337524
_symmetry_space_group_name_H-M "P -1"
_symmetry_group_IT_number 2
_symmetry_cell_setting 'triclinic'
loop_
_space_group_symop_operation_xyz
x,y,z
-x,-y,-z
loop_
_atom_site_type_symbol
_atom_site_label
_atom_site_fract_x
_atom_site_fract_y
_atom_site_fract_z
Si Si1 0.107233 0.710525 0.323199
Si Si2 0.649071 0.336867 0.640538
Si Si3 0.765481 0.741717 0.944331
Si Si4 0.347100 0.713098 0.737976
Si Si5 0.283116 0.962109 0.822697
Si Si6 0.000000 0.000000 0.500000
Si Si7 0.057378 0.287423 0.952107
Si Si8 0.306283 0.370844 0.220425
O O1 0.207893 0.759094 0.306297
O O2 0.115207 0.863190 0.095311
O O3 0.257831 0.491853 0.295929
O O4 0.888298 0.692368 0.566651
O O5 0.540529 0.580403 0.574568
O O6 0.831066 0.241623 0.448151
O O7 0.458267 0.266095 0.860923
O O8 0.931959 0.527323 0.903226
O O9 0.817330 0.920543 0.699830
O O10 0.795493 0.777978 0.024862
O O11 0.353281 0.891560 0.678328
O O12 0.328682 0.534454 0.980404
O O13 0.131416 0.793118 0.810215
O O14 0.482264 0.825552 0.816940
O O15 0.183178 0.192127 0.787211
#
# Coordination Sequence:
#
# PCOD9096162 Si02
#       8
#     2   2   2   2   2   1   2   2
#     4  10  20  35  62  98 133 163 216 277 312 375
#     4  11  22  39  65  98 130 164 223 277 323 377
#     4  10  25  47  64  94 131 177 222 277 325 388
#     4  10  20  40  66  95 134 176 209 269 334 394
#     4  11  19  39  66  99 130 179 212 263 329 401
#     4  12  26  42  74  96 118 176 238 274 320 382
#     4  10  23  43  66  92 144 171 212 268 340 393
#     4  10  20  35  65  99 132 168 222 262 321 385
#
# _framework density 28.882949
#
# number of rings (size 3 to 8) (size 9 to 14) (size 15 to 20)
#    0.000    1.600    2.667    2.400    3.733    1.067 
#    0.000    8.667    0.000    4.000    0.000    0.000 
#    0.000    0.000    0.000    0.000    0.000    0.000 
#
# Total GULP energy -83829.768138 kJ/mol
# GULP energy per Si atom -5588.651209 kJ/mol
# Density = 2.881721 g / cm^3
# Si number density = 28.882949 Si / 1000 Ang^3
#
#
#
# Elastic Constant Matrix: (Units=GPa)
#
#
# Indices 1 2 3 4 5 6 
#
# 1 160.6414 33.9623 48.1516 -1.5447 -26.6495 20.3965
# 2 33.9623 203.2433 47.7429 33.3791 -17.1771 12.6358
# 3 48.1516 47.7429 125.2783 -0.8346 -24.8421 8.8584
# 4 -1.5447 33.3791 -0.8346 42.0770 4.1770 -13.7546
# 5 -26.6495 -17.1771 -24.8421 4.1770 56.6356 1.4399
# 6 20.3965 12.6358 8.8584 -13.7546 1.4399 30.9747
#
#
#
# Elastic Compliance Matrix: (Units=1/GPa)
#
#
# Indices 1 2 3 4 5 6 
#
# 1 0.008089 0.000120 -0.002119 -0.002068 0.003214 -0.005837
# 2 0.000120 0.007242 -0.002008 -0.007985 0.002116 -0.006103
# 3 -0.002119 -0.002008 0.010128 0.001379 0.002740 -0.000197
# 4 -0.002068 -0.007985 0.001379 0.037587 -0.006101 0.021199
# 5 0.003214 0.002116 0.002740 -0.006101 0.021653 -0.007479
# 6 -0.005837 -0.006103 -0.000197 0.021199 -0.007479 0.048436
#
#
# Mechanical properties :
#
#
# Convention : Reuss Voigt Hill
#
# Bulk Modulus (GPa) = 57.31911 83.20851 70.26381
# Shear Modulus (GPa) = 34.02222 49.89121 41.95672
#
# Velocity S-wave (km/s) = 3.43583 4.16066 3.81549
# Velocity P-wave (km/s) = 5.96894 7.20783 6.61744
#
# Compressibility (1/GPa) = 0.01744619
#
# Stress axis : x y z
#
# Youngs Moduli (GPa) = 123.62164 138.09270 98.73482
#
# Poissons Ratio (x) = -0.01658 0.20917
# Poissons Ratio (y) = -0.01484 0.19825
# Poissons Ratio (z) = 0.26189 0.27727
#
# Static dielectric constant tensor:
#      x y z
#    x 2.330720 0.082670 0.073590 
#    y 0.082670 2.331190 0.141210 
#    z 0.073590 0.141210 2.337460 
# 
# From -- ./inp_files/531612.got.cif
#   From: 2010.05.17/outbox.cif.g08.bks.cpg/sg2_266_cif.got.tgz:531612.got - 2010.06.03 11:33:40.
