data_PCOD9096916
_publ_section_title
;
Structure prediction by ZEFSAII (Michael W. Deem and Ramdas Pophale) SiO2 
 PCOD9096916
Probable space group: P -1
;
_chemical_formula_sum "Si O2"
_cell_formula_units_Z 16
_cell_length_a 13.248189
_cell_length_b 9.439602
_cell_length_c 8.952176
_cell_angle_alpha 78.711736
_cell_angle_beta 88.991524
_cell_angle_gamma 133.144756
_cell_volume 782.892138
_symmetry_space_group_name_H-M "P -1"
_symmetry_group_IT_number 2
_symmetry_cell_setting 'triclinic'
loop_
_space_group_symop_operation_xyz
x,y,z
-x,-y,-z
loop_
_atom_site_type_symbol
_atom_site_label
_atom_site_fract_x
_atom_site_fract_y
_atom_site_fract_z
Si Si1 0.236463 0.565148 0.585708
Si Si2 0.779828 0.053604 0.296579
Si Si3 0.666002 0.644340 0.501681
Si Si4 0.665430 0.319958 0.116577
Si Si5 0.055510 0.457305 0.342964
Si Si6 0.519515 0.091669 0.688206
Si Si7 0.137289 0.710547 0.028672
Si Si8 0.301015 0.508266 0.201684
O O1 0.275127 0.440573 0.562413
O O2 0.237144 0.569545 0.762563
O O3 0.104387 0.488172 0.506673
O O4 0.369626 0.790099 0.473387
O O5 0.895805 0.256129 0.348545
O O6 0.754559 0.869053 0.396760
O O7 0.629561 0.983156 0.329160
O O8 0.830376 0.115722 0.107959
O O9 0.500000 0.500000 0.500000
O O10 0.681048 0.621430 0.681379
O O11 0.515160 0.104431 0.215144
O O12 0.732048 0.261188 0.024274
O O13 0.669684 0.462401 0.980980
O O14 0.108527 0.656844 0.215960
O O15 0.148327 0.423904 0.263371
O O16 0.589341 0.266536 0.774369
O O17 0.000000 0.500000 0.000000
#
# Coordination Sequence:
#
# PCOD9096916 Si02
#       8
#     2   2   2   2   2   2   2   2
#     4  10  20  32  49  75 106 131 161 217 250 286
#     4  10  16  30  57  73  96 134 171 203 242 291
#     4  10  18  34  52  71 102 130 177 204 237 303
#     4  10  18  31  52  76 101 131 167 208 259 287
#     4   8  17  32  51  78  98 126 171 204 246 300
#     4   9  17  31  52  74  98 132 169 205 248 300
#     4   8  16  31  52  76  97 127 164 205 244 296
#     4   9  18  31  51  74  97 131 167 214 236 294
#
# _framework density 20.437042999999999
#
# number of rings (size 3 to 8) (size 9 to 14) (size 15 to 20)
#    0.000    3.000    2.500    0.750    0.000    3.000 
#    0.000    6.250    0.000   16.500    0.000    0.000 
#    0.000    0.000    0.000    0.000    0.000    0.000 
#
# Total GULP energy -89149.228443 kJ/mol
# GULP energy per Si atom -5571.826778 kJ/mol
# Density = 2.039053 g / cm^3
# Si number density = 20.437043 Si / 1000 Ang^3
#
#
#
# Elastic Constant Matrix: (Units=GPa)
#
#
# Indices 1 2 3 4 5 6 
#
# 1 50.9043 29.0998 32.7154 -2.6916 18.3864 13.6465
# 2 29.0998 75.7103 48.8714 -6.1398 10.9305 15.1262
# 3 32.7154 48.8714 194.6171 -10.2889 35.4885 -8.5702
# 4 -2.6916 -6.1398 -10.2889 35.2924 -6.2953 9.6636
# 5 18.3864 10.9305 35.4885 -6.2953 34.1586 -3.4098
# 6 13.6465 15.1262 -8.5702 9.6636 -3.4098 36.5442
#
#
#
# Elastic Compliance Matrix: (Units=1/GPa)
#
#
# Indices 1 2 3 4 5 6 
#
# 1 0.033329 -0.007281 -0.001480 0.001328 -0.014978 -0.011528
# 2 -0.007281 0.020426 -0.004375 0.004171 0.001930 -0.007684
# 3 -0.001480 -0.004375 0.007613 -0.000673 -0.005456 0.003818
# 4 0.001328 0.004171 -0.000673 0.032519 0.003580 -0.010645
# 5 -0.014978 0.001930 -0.005456 0.003580 0.043711 0.006647
# 6 -0.011528 -0.007684 0.003818 -0.010645 0.006647 0.039180
#
#
# Mechanical properties :
#
#
# Convention : Reuss Voigt Hill
#
# Bulk Modulus (GPa) = 28.49449 60.28944 44.39197
# Shear Modulus (GPa) = 23.28285 35.23540 29.25913
#
# Velocity S-wave (km/s) = 3.37894 4.15673 3.78785
# Velocity P-wave (km/s) = 5.40331 7.25272 6.39522
#
# Compressibility (1/GPa) = 0.03509450
#
# Stress axis : x y z
#
# Youngs Moduli (GPa) = 30.00371 48.95746 131.35062
#
# Poissons Ratio (x) = 0.35648 0.19446
# Poissons Ratio (y) = 0.21847 0.57467
# Poissons Ratio (z) = 0.04442 0.21419
#
# Static dielectric constant tensor:
#      x y z
#    x 1.773510 0.008700 0.013600 
#    y 0.008700 1.740660 0.003700 
#    z 0.013600 0.003700 1.855320 
# 
# From -- ./inp_files/302888.got.cif
#   From: 2010.05.17/outbox.cif.g08.bks.cpg/sg2_152_cif.got.tgz:302888.got - 2010.06.03 11:33:40.
