data_PCOD9096701
_publ_section_title
;
Structure prediction by ZEFSAII (Michael W. Deem and Ramdas Pophale) SiO2 
 PCOD9096701
Probable space group: P -1
;
_chemical_formula_sum "Si O2"
_cell_formula_units_Z 14
_cell_length_a 16.504247
_cell_length_b 10.371807
_cell_length_c 8.647193
_cell_angle_alpha 48.832821
_cell_angle_beta 102.752929
_cell_angle_gamma 142.614841
_cell_volume 507.475950
_symmetry_space_group_name_H-M "P -1"
_symmetry_group_IT_number 2
_symmetry_cell_setting 'triclinic'
loop_
_space_group_symop_operation_xyz
x,y,z
-x,-y,-z
loop_
_atom_site_type_symbol
_atom_site_label
_atom_site_fract_x
_atom_site_fract_y
_atom_site_fract_z
Si Si1 0.500693 0.264632 0.690266
Si Si2 0.860184 0.431085 0.100478
Si Si3 0.761208 0.000338 0.638058
Si Si4 0.627622 0.636417 0.159341
Si Si5 0.022906 0.853041 0.558343
Si Si6 0.797209 0.583154 0.197270
Si Si7 0.659577 0.176711 0.753412
O O1 0.617248 0.609357 0.363471
O O2 0.583883 0.228264 0.720730
O O3 0.310883 0.926467 0.791729
O O4 0.463908 0.186279 0.921308
O O5 0.811594 0.525497 0.081388
O O6 0.889691 0.362908 0.313005
O O7 0.020285 0.737458 0.806193
O O8 0.567132 0.690736 0.735721
O O9 0.817097 0.916434 0.662426
O O10 0.756264 0.989340 0.830239
O O11 0.686200 0.552028 0.200332
O O12 0.849386 0.507970 0.654358
O O13 0.000000 0.000000 0.500000
O O14 0.702435 0.269359 0.516937
O O15 0.000000 0.000000 0.000000
#
# Coordination Sequence:
#
# PCOD9096701 Si02
#       7
#     2   2   2   2   2   2   2
#     4   8  17  34  55  82 112 149 190 236 286 335
#     4  10  21  36  61  87 114 151 194 238 289 345
#     4  10  20  36  57  86 118 151 193 241 286 338
#     4   9  19  35  57  81 116 151 186 233 285 339
#     4  11  21  37  60  85 114 156 199 237 286 345
#     4  11  21  37  61  89 117 150 192 239 289 349
#     4   9  18  33  56  83 115 145 188 242 284 332
#
# _framework density 27.587513999999999
#
# number of rings (size 3 to 8) (size 9 to 14) (size 15 to 20)
#    0.000    2.286    0.000    3.000    0.000    5.143 
#    0.000   10.000    0.000   24.857    0.000    0.000 
#    0.000    0.000    0.000    0.000    0.000    0.000 
#
# Total GULP energy -78347.088782 kJ/mol
# GULP energy per Si atom -5596.220627 kJ/mol
# Density = 2.752472 g / cm^3
# Si number density = 27.587514 Si / 1000 Ang^3
#
#
#
# Elastic Constant Matrix: (Units=GPa)
#
#
# Indices 1 2 3 4 5 6 
#
# 1 124.7504 33.9279 47.3089 6.1006 -10.0925 1.1890
# 2 33.9279 97.0379 29.5468 -2.4515 -10.5837 4.5036
# 3 47.3089 29.5468 217.1448 66.3886 -5.6380 9.8470
# 4 6.1006 -2.4515 66.3886 38.9274 -4.2146 -1.9528
# 5 -10.0925 -10.5837 -5.6380 -4.2146 59.5463 13.5135
# 6 1.1890 4.5036 9.8470 -1.9528 13.5135 40.2911
#
#
#
# Elastic Compliance Matrix: (Units=1/GPa)
#
#
# Indices 1 2 3 4 5 6 
#
# 1 0.009620 -0.002359 -0.002722 0.003124 0.001076 0.000436
# 2 -0.002359 0.012545 -0.003142 0.006710 0.002232 -0.000988
# 3 -0.002722 -0.003142 0.012037 -0.020529 -0.000582 -0.003310
# 4 0.003124 0.006710 -0.020529 0.061238 0.002697 0.006239
# 5 0.001076 0.002232 -0.000582 0.002697 0.018953 -0.006365
# 6 0.000436 -0.000988 -0.003310 0.006239 -0.006365 0.028163
#
#
# Mechanical properties :
#
#
# Convention : Reuss Voigt Hill
#
# Bulk Modulus (GPa) = 56.31446 73.38893 64.85170
# Shear Modulus (GPa) = 30.31758 49.62960 39.97359
#
# Velocity S-wave (km/s) = 3.31865 4.24605 3.81067
# Velocity P-wave (km/s) = 5.92806 7.12029 6.55135
#
# Compressibility (1/GPa) = 0.01775743
#
# Stress axis : x y z
#
# Youngs Moduli (GPa) = 103.95232 79.71062 83.07539
#
# Poissons Ratio (x) = 0.18800 0.22613
# Poissons Ratio (y) = 0.24518 0.26102
# Poissons Ratio (z) = 0.28295 0.25045
#
# Static dielectric constant tensor:
#      x y z
#    x 2.203670 -0.029500 0.075260 
#    y -0.029500 2.003180 0.024380 
#    z 0.075260 0.024380 2.285450 
# 
# From -- ./inp_files/332906.got.cif
#   From: 2010.05.17/outbox.cif.g08.bks.cpg/sg2_167_cif.got.tgz:332906.got - 2010.06.03 11:33:40.
