data_PCOD9096587
_publ_section_title
;
Structure prediction by ZEFSAII (Michael W. Deem and Ramdas Pophale) SiO2 
 PCOD9096587
Probable space group: P -1
;
_chemical_formula_sum "Si O2"
_cell_formula_units_Z 14
_cell_length_a 9.619767
_cell_length_b 13.094074
_cell_length_c 11.109537
_cell_angle_alpha 32.650987
_cell_angle_beta 136.939341
_cell_angle_gamma 125.655705
_cell_volume 513.508104
_symmetry_space_group_name_H-M "P -1"
_symmetry_group_IT_number 2
_symmetry_cell_setting 'triclinic'
loop_
_space_group_symop_operation_xyz
x,y,z
-x,-y,-z
loop_
_atom_site_type_symbol
_atom_site_label
_atom_site_fract_x
_atom_site_fract_y
_atom_site_fract_z
Si Si1 0.742509 0.614037 0.658664
Si Si2 0.054615 0.756792 0.315181
Si Si3 0.696108 0.301570 0.118699
Si Si4 0.253644 0.021832 0.347451
Si Si5 0.752760 0.340452 0.725376
Si Si6 0.697956 0.034041 0.168590
Si Si7 0.721114 0.612916 0.107720
O O1 0.799760 0.471121 0.948228
O O2 0.802553 0.517143 0.664497
O O3 0.492634 0.632925 0.478244
O O4 0.796341 0.832380 0.480608
O O5 0.125890 0.946936 0.228686
O O6 0.158218 0.701506 0.307693
O O7 0.161012 0.590482 0.631798
O O8 0.822977 0.712169 0.189949
O O9 0.511992 0.392464 0.995354
O O10 0.794796 0.122570 0.435556
O O11 0.623780 0.181852 0.078179
O O12 0.500000 0.000000 0.500000
O O13 0.232531 0.249745 0.109395
O O14 0.821331 0.155070 0.033930
O O15 0.500000 0.000000 0.000000
#
# Coordination Sequence:
#
# PCOD9096587 Si02
#       7
#     2   2   2   2   2   2   2
#     4   9  17  32  53  82 113 140 185 243 284 320
#     4  11  22  39  59  87 120 153 189 233 290 346
#     4  10  20  36  56  88 117 141 192 236 283 343
#     4  10  24  37  56  85 120 155 191 233 285 341
#     4   9  18  31  53  84 113 138 189 240 281 330
#     4   9  19  30  56  84 111 145 184 242 291 316
#     4  10  23  38  58  86 118 157 192 227 285 348
#
# _framework density 27.263448
#
# number of rings (size 3 to 8) (size 9 to 14) (size 15 to 20)
#    0.000    2.286    1.429    1.286    8.000    3.429 
#    0.000    0.000    0.000    3.429    0.000   10.000 
#    0.000    0.000    0.000    0.000    0.000    0.000 
#
# Total GULP energy -78296.364837 kJ/mol
# GULP energy per Si atom -5592.597488 kJ/mol
# Density = 2.720140 g / cm^3
# Si number density = 27.263448 Si / 1000 Ang^3
#
#
#
# Elastic Constant Matrix: (Units=GPa)
#
#
# Indices 1 2 3 4 5 6 
#
# 1 137.7071 27.8148 31.6462 -5.5825 -18.8050 -7.5654
# 2 27.8148 102.0306 0.1409 -8.1531 -5.8317 -8.1563
# 3 31.6462 0.1409 153.2746 -32.5392 -30.7250 -5.1767
# 4 -5.5825 -8.1531 -32.5392 63.9657 6.4984 4.1434
# 5 -18.8050 -5.8317 -30.7250 6.4984 35.8446 5.9718
# 6 -7.5654 -8.1563 -5.1767 4.1434 5.9718 29.7225
#
#
#
# Elastic Compliance Matrix: (Units=1/GPa)
#
#
# Indices 1 2 3 4 5 6 
#
# 1 0.008395 -0.002091 -0.001214 -0.000508 0.002978 0.000824
# 2 -0.002091 0.010710 0.000975 0.001449 0.000851 0.002204
# 3 -0.001214 0.000975 0.008893 0.003905 0.006493 -0.000342
# 4 -0.000508 0.001449 0.003905 0.017828 0.000352 -0.001607
# 5 0.002978 0.000851 0.006493 0.000352 0.035959 -0.005152
# 6 0.000824 0.002204 -0.000342 -0.001607 -0.005152 0.035659
#
#
# Mechanical properties :
#
#
# Convention : Reuss Voigt Hill
#
# Bulk Modulus (GPa) = 42.85228 56.91289 49.88258
# Shear Modulus (GPa) = 38.49562 48.13392 43.31477
#
# Velocity S-wave (km/s) = 3.76172 4.20636 3.99024
# Velocity P-wave (km/s) = 5.88382 6.67171 6.29011
#
# Compressibility (1/GPa) = 0.02333598
#
# Stress axis : x y z
#
# Youngs Moduli (GPa) = 119.12464 93.36777 112.44677
#
# Poissons Ratio (x) = 0.19526 0.13655
# Poissons Ratio (y) = 0.24912 -0.10959
# Poissons Ratio (z) = 0.14465 -0.09100
#
# Static dielectric constant tensor:
#      x y z
#    x 2.172050 0.044210 -0.004460 
#    y 0.044210 2.087210 0.038640 
#    z -0.004460 0.038640 2.308750 
# 
# From -- ./inp_files/430829.got.cif
#   From: 2010.05.17/outbox.cif.g08.bks.cpg/sg2_216_cif.got.tgz:430829.got - 2010.06.03 11:33:40.
