data_PCOD9096976
_publ_section_title
;
Structure prediction by ZEFSAII (Michael W. Deem and Ramdas Pophale) SiO2 
 PCOD9096976
Probable space group: P -1
;
_chemical_formula_sum "Si O2"
_cell_formula_units_Z 16
_cell_length_a 22.633555
_cell_length_b 9.277371
_cell_length_c 23.527188
_cell_angle_alpha 31.337475
_cell_angle_beta 162.691606
_cell_angle_gamma 138.881625
_cell_volume 700.164686
_symmetry_space_group_name_H-M "P -1"
_symmetry_group_IT_number 2
_symmetry_cell_setting 'triclinic'
loop_
_space_group_symop_operation_xyz
x,y,z
-x,-y,-z
loop_
_atom_site_type_symbol
_atom_site_label
_atom_site_fract_x
_atom_site_fract_y
_atom_site_fract_z
Si Si1 0.988717 0.696845 0.257949
Si Si2 0.724470 0.714905 0.519217
Si Si3 0.268573 0.106164 0.784653
Si Si4 0.504048 0.666448 0.507529
Si Si5 0.066896 0.210300 0.949833
Si Si6 0.483114 0.769992 0.934919
Si Si7 0.766487 0.966798 0.595660
Si Si8 0.351766 0.533206 0.004018
O O1 0.108739 0.393070 0.506582
O O2 0.060563 0.700128 0.257344
O O3 0.011893 0.987645 0.207926
O O4 0.754032 0.694972 0.035489
O O5 0.567922 0.534314 0.446900
O O6 0.973668 0.512808 0.798958
O O7 0.627235 0.938313 0.302735
O O8 0.737586 0.868331 0.539044
O O9 0.224062 0.801405 0.840943
O O10 0.308302 0.210332 0.848601
O O11 0.500000 0.000000 0.000000
O O12 0.500000 0.500000 0.500000
O O13 0.714488 0.748844 0.665747
O O14 0.313455 0.001088 0.230840
O O15 0.000000 0.000000 0.000000
O O16 0.354141 0.714390 0.888231
O O17 0.500000 0.500000 0.000000
O O18 0.585944 0.314706 0.316789
#
# Coordination Sequence:
#
# PCOD9096976 Si02
#       8
#     2   2   2   2   2   2   2   2
#     4  12  22  40  67  93 134 174 223 273 319 397
#     4  10  21  39  68  95 137 173 210 287 331 375
#     4  10  20  36  58  93 125 172 220 254 322 393
#     4   9  20  41  68  92 128 174 216 267 329 397
#     4  10  21  39  64  96 130 163 219 276 324 380
#     4  11  20  39  65  96 136 173 215 274 331 384
#     4  11  21  42  67  94 128 178 223 261 328 402
#     4  11  22  38  64  92 131 173 223 266 322 391
#
# _framework density 22.851766000000001
#
# number of rings (size 3 to 8) (size 9 to 14) (size 15 to 20)
#    0.000    1.500    5.000    1.875    0.000    0.000 
#    0.000   13.125    2.750    0.000    0.000    0.000 
#    0.000    0.000    0.000    0.000    0.000    0.000 
#
# Total GULP energy -89071.024596 kJ/mol
# GULP energy per Si atom -5566.939037 kJ/mol
# Density = 2.279975 g / cm^3
# Si number density = 22.851766 Si / 1000 Ang^3
#
#
#
# Elastic Constant Matrix: (Units=GPa)
#
#
# Indices 1 2 3 4 5 6 
#
# 1 93.6839 37.4443 19.7618 -13.1229 -14.6112 4.8881
# 2 37.4443 132.7992 19.2122 -0.8108 -7.2446 4.3381
# 3 19.7618 19.2122 38.1348 -18.3539 0.3197 -2.5282
# 4 -13.1229 -0.8108 -18.3539 31.4492 2.0029 -1.7702
# 5 -14.6112 -7.2446 0.3197 2.0029 22.1009 -8.2100
# 6 4.8881 4.3381 -2.5282 -1.7702 -8.2100 44.1230
#
#
#
# Elastic Compliance Matrix: (Units=1/GPa)
#
#
# Indices 1 2 3 4 5 6 
#
# 1 0.014565 -0.002921 -0.004884 0.002613 0.008538 0.000087
# 2 -0.002921 0.009166 -0.005146 -0.004109 0.001219 -0.000810
# 3 -0.004884 -0.005146 0.042909 0.023465 -0.006457 0.003246
# 4 0.002613 -0.004109 0.023465 0.046833 -0.003183 0.002746
# 5 0.008538 0.001219 -0.006457 -0.003183 0.054886 0.008649
# 6 0.000087 -0.000810 0.003246 0.002746 0.008649 0.024639
#
#
# Mechanical properties :
#
#
# Convention : Reuss Voigt Hill
#
# Bulk Modulus (GPa) = 24.54708 46.38385 35.46546
# Shear Modulus (GPa) = 21.50719 32.08126 26.79423
#
# Velocity S-wave (km/s) = 3.07116 3.75091 3.42793
# Velocity P-wave (km/s) = 4.83128 6.25307 5.58758
#
# Compressibility (1/GPa) = 0.04073804
#
# Stress axis : x y z
#
# Youngs Moduli (GPa) = 68.65696 109.09682 23.30523
#
# Poissons Ratio (x) = 0.31871 0.11383
# Poissons Ratio (y) = 0.20057 0.11992
# Poissons Ratio (z) = 0.33533 0.56136
#
# Static dielectric constant tensor:
#      x y z
#    x 1.871120 0.013610 0.046240 
#    y 0.013610 1.981780 -0.001350 
#    z 0.046240 -0.001350 1.908030 
# 
# From -- ./inp_files/613963.got.cif
#   From: 2010.05.17/outbox.cif.g08.bks.cpg/sg2_307_cif.got.tgz:613963.got - 2010.06.03 11:33:40.
