data_PCOD9096364
_publ_section_title
;
Structure prediction by ZEFSAII (Michael W. Deem and Ramdas Pophale) SiO2 
 PCOD9096364
Probable space group: P -1
;
_chemical_formula_sum "Si O2"
_cell_formula_units_Z 10
_cell_length_a 5.134186
_cell_length_b 7.293858
_cell_length_c 11.697585
_cell_angle_alpha 77.916129
_cell_angle_beta 95.122687
_cell_angle_gamma 117.688244
_cell_volume 379.278815
_symmetry_space_group_name_H-M "P -1"
_symmetry_group_IT_number 2
_symmetry_cell_setting 'triclinic'
loop_
_space_group_symop_operation_xyz
x,y,z
-x,-y,-z
loop_
_atom_site_type_symbol
_atom_site_label
_atom_site_fract_x
_atom_site_fract_y
_atom_site_fract_z
Si Si1 0.238862 0.796461 0.069934
Si Si2 0.666722 0.285311 0.354359
Si Si3 0.055327 0.362901 0.157666
Si Si4 0.174686 0.251789 0.500895
Si Si5 0.126337 0.956838 0.278943
O O1 0.303924 0.604213 0.137140
O O2 0.136884 0.875815 0.165211
O O3 0.014473 0.701639 0.968537
O O4 0.500000 0.000000 0.000000
O O5 0.478728 0.340630 0.432972
O O6 0.786221 0.368315 0.219528
O O7 0.966053 0.336422 0.424786
O O8 0.439959 0.038213 0.347136
O O9 0.104218 0.175585 0.239358
O O10 0.134482 0.227998 0.638384
O O11 0.000000 0.000000 0.500000
#
# Coordination Sequence:
#
# PCOD9096364 Si02
#       5
#     2   2   2   2   2
#     4  11  25  45  68 100 135 184 235 288 347 407
#     4  11  20  40  70 103 137 183 223 283 347 410
#     4  11  24  44  68 101 139 178 234 289 340 411
#     4  10  20  35  71 100 138 183 220 277 355 403
#     4  11  22  42  70  98 139 183 224 281 347 412
#
# _framework density 26.365828
#
# number of rings (size 3 to 8) (size 9 to 14) (size 15 to 20)
#    0.000    1.200    6.000    3.000    0.000    0.800 
#    3.600    2.000    0.000    1.200    0.000    0.000 
#    0.000    0.000    0.000    0.000    0.000    0.000 
#
# Total GULP energy -55881.670736 kJ/mol
# GULP energy per Si atom -5588.167074 kJ/mol
# Density = 2.630582 g / cm^3
# Si number density = 26.365828 Si / 1000 Ang^3
#
#
#
# Elastic Constant Matrix: (Units=GPa)
#
#
# Indices 1 2 3 4 5 6 
#
# 1 140.9026 41.7442 77.9254 6.8136 -28.1878 -7.5099
# 2 41.7442 138.3120 67.9114 -32.9440 -27.8427 -8.9528
# 3 77.9254 67.9114 223.6962 17.6027 -58.1364 -15.7337
# 4 6.8136 -32.9440 17.6027 48.5933 -11.6868 -10.2610
# 5 -28.1878 -27.8427 -58.1364 -11.6868 54.7533 -0.7597
# 6 -7.5099 -8.9528 -15.7337 -10.2610 -0.7597 24.7462
#
#
#
# Elastic Compliance Matrix: (Units=1/GPa)
#
#
# Indices 1 2 3 4 5 6 
#
# 1 0.009159 -0.001723 -0.002241 -0.001308 0.001183 0.000225
# 2 -0.001723 0.014492 -0.002423 0.014672 0.007173 0.009484
# 3 -0.002241 -0.002423 0.007749 -0.002294 0.005389 0.002585
# 4 -0.001308 0.014672 -0.002294 0.038864 0.012924 0.019965
# 5 0.001183 0.007173 0.005389 0.012924 0.031177 0.012697
# 6 0.000225 0.009484 0.002585 0.019965 0.012697 0.054221
#
#
# Mechanical properties :
#
#
# Convention : Reuss Voigt Hill
#
# Bulk Modulus (GPa) = 53.68504 97.56364 75.62434
# Shear Modulus (GPa) = 28.62953 46.64057 37.63505
#
# Velocity S-wave (km/s) = 3.29881 4.21048 3.78222
# Velocity P-wave (km/s) = 5.90892 7.79241 6.91509
#
# Compressibility (1/GPa) = 0.01862716
#
# Stress axis : x y z
#
# Youngs Moduli (GPa) = 109.18275 69.00356 129.04279
#
# Poissons Ratio (x) = 0.11886 0.28922
# Poissons Ratio (y) = 0.18807 0.31264
# Poissons Ratio (z) = 0.24471 0.16718
#
# Static dielectric constant tensor:
#      x y z
#    x 2.233730 -0.009190 0.028880 
#    y -0.009190 2.145670 0.002430 
#    z 0.028880 0.002430 2.151480 
# 
# From -- ./inp_files/359789.got.cif
#   From: 2010.05.17/outbox.cif.g08.bks.cpg/sg2_180_cif.got.tgz:359789.got - 2010.06.03 11:33:40.
