data_PCOD9096705
_publ_section_title
;
Structure prediction by ZEFSAII (Michael W. Deem and Ramdas Pophale) SiO2 
 PCOD9096705
Probable space group: P -1
;
_chemical_formula_sum "Si O2"
_cell_formula_units_Z 16
_cell_length_a 5.429372
_cell_length_b 7.680558
_cell_length_c 21.026946
_cell_angle_alpha 99.828951
_cell_angle_beta 75.038003
_cell_angle_gamma 89.996698
_cell_volume 833.777765
_symmetry_space_group_name_H-M "P -1"
_symmetry_group_IT_number 2
_symmetry_cell_setting 'triclinic'
loop_
_space_group_symop_operation_xyz
x,y,z
-x,-y,-z
loop_
_atom_site_type_symbol
_atom_site_label
_atom_site_fract_x
_atom_site_fract_y
_atom_site_fract_z
Si Si1 0.809018 0.869701 0.190935
Si Si2 0.150089 0.845868 0.349872
Si Si3 0.075821 0.900182 0.924277
Si Si4 0.683173 0.199435 0.316764
Si Si5 0.364941 0.259565 0.134953
Si Si6 0.291655 0.661722 0.208319
Si Si7 0.579403 0.955421 0.420559
Si Si8 0.779301 0.801783 0.720769
O O1 0.560331 0.756330 0.191602
O O2 0.056396 0.756339 0.191604
O O3 0.873599 0.960988 0.126332
O O4 0.742497 0.023638 0.257445
O O5 0.211400 0.684927 0.288583
O O6 0.356334 0.856493 0.392781
O O7 0.858025 0.856478 0.392773
O O8 0.186099 0.022228 0.313846
O O9 0.344470 0.789301 0.906854
O O10 0.842134 0.789222 0.906828
O O11 0.000000 0.000000 0.000000
O O12 0.446811 0.296046 0.303950
O O13 0.945142 0.296050 0.303951
O O14 0.613222 0.132024 0.386726
O O15 0.330466 0.463043 0.169501
O O16 0.301011 0.157699 0.198907
O O17 0.500000 0.000000 0.500000
#
# Coordination Sequence:
#
# PCOD9096705 Si02
#       8
#     2   2   2   2   2   2   2   2
#     4  12  19  40  61  81 114 153 189 227 288 339
#     4  10  17  32  50  77 109 147 186 219 290 324
#     4  12  25  43  63  83 113 155 190 228 279 348
#     4  10  16  30  56  75 106 136 196 214 272 315
#     4  12  23  39  59  93 115 137 197 241 279 329
#     4  12  22  35  61  91 115 145 183 248 286 328
#     4  10  18  27  47  81 113 138 182 235 269 321
#     4  10  16  32  55  79 101 141 187 236 251 327
#
# _framework density 19.189765999999999
#
# number of rings (size 3 to 8) (size 9 to 14) (size 15 to 20)
#    0.000    1.000    7.500    2.250    0.000    0.000 
#    0.000    3.750    0.000    0.000    0.000   21.000 
#    0.000    0.000    0.000    0.000    0.000    0.000 
#
# Total GULP energy -89324.156619 kJ/mol
# GULP energy per Si atom -5582.759789 kJ/mol
# Density = 1.914609 g / cm^3
# Si number density = 19.189766 Si / 1000 Ang^3
#
#
#
# Elastic Constant Matrix: (Units=GPa)
#
#
# Indices 1 2 3 4 5 6 
#
# 1 225.5604 47.2657 58.4570 18.2579 8.2022 -15.3283
# 2 47.2657 66.6979 42.8596 15.8378 0.5114 -1.4661
# 3 58.4570 42.8596 131.6816 6.9575 -0.3998 -1.1443
# 4 18.2579 15.8378 6.9575 18.0489 0.1209 -0.9812
# 5 8.2022 0.5114 -0.3998 0.1209 25.9243 5.4787
# 6 -15.3283 -1.4661 -1.1443 -0.9812 5.4787 15.1207
#
#
#
# Elastic Compliance Matrix: (Units=1/GPa)
#
#
# Indices 1 2 3 4 5 6 
#
# 1 0.006245 -0.002341 -0.001793 -0.003169 -0.003423 0.007003
# 2 -0.002341 0.024519 -0.006061 -0.016911 0.000618 -0.001776
# 3 -0.001793 -0.006061 0.010186 0.003095 0.001226 -0.001877
# 4 -0.003169 -0.016911 0.003095 0.072231 0.001118 -0.000336
# 5 -0.003423 0.000618 0.001226 0.001118 0.043689 -0.019074
# 6 0.007003 -0.001776 -0.001877 -0.000336 -0.019074 0.079809
#
#
# Mechanical properties :
#
#
# Convention : Reuss Voigt Hill
#
# Bulk Modulus (GPa) = 48.63634 80.12271 64.37953
# Shear Modulus (GPa) = 18.94495 30.17596 24.56045
#
# Velocity S-wave (km/s) = 3.14545 3.96978 3.58141
# Velocity P-wave (km/s) = 6.21223 7.92816 7.12206
#
# Compressibility (1/GPa) = 0.02056076
#
# Stress axis : x y z
#
# Youngs Moduli (GPa) = 160.11661 40.78514 98.16956
#
# Poissons Ratio (x) = 0.09549 0.17598
# Poissons Ratio (y) = 0.37489 0.59500
# Poissons Ratio (z) = 0.28702 0.24720
#
# Static dielectric constant tensor:
#      x y z
#    x 1.751390 -0.006810 0.004450 
#    y -0.006810 1.670770 -0.014150 
#    z 0.004450 -0.014150 1.627040 
# 
# From -- ./inp_files/548226.got.cif
#   From: 2010.05.17/outbox.cif.g08.bks.cpg/sg2_275_cif.got.tgz:548226.got - 2010.06.03 11:33:40.
