data_PCOD9096468
_publ_section_title
;
Structure prediction by ZEFSAII (Michael W. Deem and Ramdas Pophale) SiO2 
 PCOD9096468
Probable space group: P -1
;
_chemical_formula_sum "Si O2"
_cell_formula_units_Z 16
_cell_length_a 23.046584
_cell_length_b 20.863328
_cell_length_c 14.439774
_cell_angle_alpha 147.415940
_cell_angle_beta 147.831405
_cell_angle_gamma 12.032464
_cell_volume 763.805880
_symmetry_space_group_name_H-M "P -1"
_symmetry_group_IT_number 2
_symmetry_cell_setting 'triclinic'
loop_
_space_group_symop_operation_xyz
x,y,z
-x,-y,-z
loop_
_atom_site_type_symbol
_atom_site_label
_atom_site_fract_x
_atom_site_fract_y
_atom_site_fract_z
Si Si1 0.781004 0.300828 0.625618
Si Si2 0.267512 0.800014 0.323783
Si Si3 0.520976 0.340135 0.870453
Si Si4 0.628460 0.111960 0.290975
Si Si5 0.201128 0.877196 0.840351
Si Si6 0.875099 0.693399 0.976541
Si Si7 0.100992 0.139417 0.356140
Si Si8 0.697786 0.855687 0.240061
O O1 0.500000 0.500000 0.500000
O O2 0.670431 0.528393 0.700078
O O3 0.000000 0.000000 0.500000
O O4 0.954168 0.166438 0.787940
O O5 0.208167 0.945782 0.508211
O O6 0.569392 0.430105 0.282783
O O7 0.994385 0.992705 0.189385
O O8 0.274777 0.874380 0.334583
O O9 0.221396 0.579140 0.736547
O O10 0.500000 0.500000 0.000000
O O11 0.593651 0.257814 0.977778
O O12 0.759913 0.025246 0.755119
O O13 0.616924 0.021448 0.243786
O O14 0.771523 0.921128 0.158346
O O15 0.101230 0.448275 0.902465
O O16 0.591032 0.909298 0.827105
O O17 0.000000 0.500000 0.000000
O O18 0.149228 0.217943 0.565877
#
# Coordination Sequence:
#
# PCOD9096468 Si02
#       8
#     2   2   2   2   2   2   2   2
#     4  12  24  38  53  78 113 156 193 217 260 330
#     4  11  20  33  52  76 109 145 181 213 265 327
#     4  12  21  33  55  78 111 142 191 223 275 328
#     4  10  21  35  57  77 112 151 180 222 274 322
#     4  12  22  35  50  76 111 146 185 222 253 316
#     4  10  20  36  55  84 111 140 182 235 279 331
#     4  11  21  35  54  82 106 148 174 227 290 330
#     4  10  22  36  57  84 112 138 184 231 287 338
#
# _framework density 20.94773
#
# number of rings (size 3 to 8) (size 9 to 14) (size 15 to 20)
#    0.000    1.000    5.000    3.375    0.000    9.000 
#    0.000    0.000    0.000    0.000    0.000    5.250 
#    0.000    0.000    0.000    0.000    0.000    0.000 
#
# Total GULP energy -89266.796133 kJ/mol
# GULP energy per Si atom -5579.174758 kJ/mol
# Density = 2.090005 g / cm^3
# Si number density = 20.947730 Si / 1000 Ang^3
#
#
#
# Elastic Constant Matrix: (Units=GPa)
#
#
# Indices 1 2 3 4 5 6 
#
# 1 19.0818 13.9300 16.5479 1.6136 -9.3102 -6.7214
# 2 13.9300 95.8714 35.2182 -2.2320 6.2640 -15.6787
# 3 16.5479 35.2182 117.3179 -5.3973 -15.6169 1.9641
# 4 1.6136 -2.2320 -5.3973 47.7944 -4.5093 -6.5580
# 5 -9.3102 6.2640 -15.6169 -4.5093 20.7235 -10.7777
# 6 -6.7214 -15.6787 1.9641 -6.5580 -10.7777 35.3221
#
#
#
# Elastic Compliance Matrix: (Units=1/GPa)
#
#
# Indices 1 2 3 4 5 6 
#
# 1 0.117173 -0.014451 -0.001993 0.008306 0.078965 0.041629
# 2 -0.014451 0.015048 -0.004483 -0.000785 -0.014849 -0.000498
# 3 -0.001993 -0.004483 0.011552 0.002143 0.009833 0.000387
# 4 0.008306 -0.000785 0.002143 0.023817 0.016219 0.010484
# 5 0.078965 -0.014849 0.009833 0.016219 0.124597 0.048917
# 6 0.041629 -0.000498 0.000387 0.010484 0.048917 0.052862
#
#
# Mechanical properties :
#
#
# Convention : Reuss Voigt Hill
#
# Bulk Modulus (GPa) = 9.81178 40.40703 25.10941
# Shear Modulus (GPa) = 11.88000 31.87299 21.87650
#
# Velocity S-wave (km/s) = 2.38402 3.90494 3.23513
# Velocity P-wave (km/s) = 3.50317 6.29783 5.09583
#
# Compressibility (1/GPa) = 0.10191830
#
# Stress axis : x y z
#
# Youngs Moduli (GPa) = 8.53442 66.45470 86.56678
#
# Poissons Ratio (x) = 0.96034 0.17249
# Poissons Ratio (y) = 0.12333 0.38811
# Poissons Ratio (z) = 0.01700 0.29794
#
# Static dielectric constant tensor:
#      x y z
#    x 1.827130 0.008850 0.002680 
#    y 0.008850 1.753210 -0.005370 
#    z 0.002680 -0.005370 1.813280 
# 
# From -- ./inp_files/544513.got.cif
#   From: 2010.05.17/outbox.cif.g08.bks.cpg/sg2_273_cif.got.tgz:544513.got - 2010.06.03 11:33:40.
