data_PCOD9096647
_publ_section_title
;
Structure prediction by ZEFSAII (Michael W. Deem and Ramdas Pophale) SiO2 
 PCOD9096647
Probable space group: P -1
;
_chemical_formula_sum "Si O2"
_cell_formula_units_Z 16
_cell_length_a 9.639727
_cell_length_b 17.363550
_cell_length_c 10.074853
_cell_angle_alpha 51.236057
_cell_angle_beta 52.236105
_cell_angle_gamma 34.283677
_cell_volume 723.100074
_symmetry_space_group_name_H-M "P -1"
_symmetry_group_IT_number 2
_symmetry_cell_setting 'triclinic'
loop_
_space_group_symop_operation_xyz
x,y,z
-x,-y,-z
loop_
_atom_site_type_symbol
_atom_site_label
_atom_site_fract_x
_atom_site_fract_y
_atom_site_fract_z
Si Si1 0.551423 0.165782 0.519202
Si Si2 0.938925 0.364042 0.031311
Si Si3 0.849341 0.710654 0.608813
Si Si4 0.155579 0.431641 0.620857
Si Si5 0.435988 0.334648 0.991119
Si Si6 0.234049 0.950227 0.999791
Si Si7 0.320717 0.100882 0.276598
Si Si8 0.167147 0.794095 0.871557
O O1 0.328895 0.220203 0.490100
O O2 0.426028 0.279826 0.586470
O O3 0.727473 0.165988 0.331678
O O4 0.680473 0.011261 0.647298
O O5 0.174544 0.224452 0.120910
O O6 0.816167 0.319036 0.083045
O O7 0.025017 0.405149 0.822851
O O8 0.755176 0.497687 0.094883
O O9 0.722208 0.684156 0.814846
O O10 0.822809 0.823505 0.581208
O O11 0.114800 0.555399 0.578022
O O12 0.000000 0.500000 0.500000
O O13 0.652175 0.281669 0.023684
O O14 0.575779 0.220422 0.913584
O O15 0.398632 0.966043 0.808683
O O16 0.108120 0.058465 0.078724
O O17 0.000000 0.000000 0.000000
#
# Coordination Sequence:
#
# PCOD9096647 Si02
#       8
#     2   2   2   2   2   2   2   2
#     4  10  20  36  57  82 115 153 194 235 278 333
#     4  11  22  36  58  87 117 151 190 234 286 341
#     4   8  17  34  56  81 108 144 191 238 280 331
#     4   9  19  36  57  83 111 146 192 236 283 339
#     4   8  17  34  56  81 108 144 191 238 280 331
#     4   9  19  36  57  83 111 146 192 236 283 339
#     4  11  22  36  58  87 117 151 190 234 286 341
#     4  10  20  36  57  82 115 153 194 235 278 333
#
# _framework density 22.126950000000001
#
# number of rings (size 3 to 8) (size 9 to 14) (size 15 to 20)
#    0.000    2.500    0.000    3.000    0.000    7.000 
#    0.000    3.750    0.000    1.500    0.000    0.000 
#    0.000    0.000    0.000    0.000    0.000    0.000 
#
# Total GULP energy -89256.202123 kJ/mol
# GULP energy per Si atom -5578.512633 kJ/mol
# Density = 2.207659 g / cm^3
# Si number density = 22.126950 Si / 1000 Ang^3
#
#
#
# Elastic Constant Matrix: (Units=GPa)
#
#
# Indices 1 2 3 4 5 6 
#
# 1 30.6967 -0.5339 1.2049 -6.0300 6.1527 -0.3880
# 2 -0.5339 183.3910 40.2419 0.7335 0.0641 12.9169
# 3 1.2049 40.2419 56.7212 -12.1654 6.7388 -6.4108
# 4 -6.0300 0.7335 -12.1654 23.3722 4.4825 8.2773
# 5 6.1527 0.0641 6.7388 4.4825 15.0498 1.0012
# 6 -0.3880 12.9169 -6.4108 8.2773 1.0012 12.3993
#
#
#
# Elastic Compliance Matrix: (Units=1/GPa)
#
#
# Indices 1 2 3 4 5 6 
#
# 1 0.041698 -0.001003 0.006843 0.021647 -0.026125 -0.006453
# 2 -0.001003 0.008045 -0.007953 -0.001382 0.005148 -0.012017
# 3 0.006843 -0.007953 0.031272 0.017419 -0.022945 0.014892
# 4 0.021647 -0.001382 0.017419 0.078108 -0.037380 -0.038000
# 5 -0.026125 0.005148 -0.022945 -0.037380 0.098582 -0.001050
# 6 -0.006453 -0.012017 0.014892 -0.038000 -0.001050 0.126118
#
#
# Mechanical properties :
#
#
# Convention : Reuss Voigt Hill
#
# Bulk Modulus (GPa) = 13.02249 39.18163 26.10206
# Shear Modulus (GPa) = 12.08767 25.49067 18.78917
#
# Velocity S-wave (km/s) = 2.33981 3.39782 2.91718
# Velocity P-wave (km/s) = 3.63287 5.75671 4.81339
#
# Compressibility (1/GPa) = 0.07679021
#
# Stress axis : x y z
#
# Youngs Moduli (GPa) = 23.98195 124.29881 31.97735
#
# Poissons Ratio (x) = 0.12469 -0.21883
# Poissons Ratio (y) = 0.02406 0.25431
# Poissons Ratio (z) = -0.16412 0.98851
#
# Static dielectric constant tensor:
#      x y z
#    x 1.852730 0.003980 0.044150 
#    y 0.003980 1.908430 -0.009780 
#    z 0.044150 -0.009780 1.780510 
# 
# From -- ./inp_files/436606.got.cif
#   From: 2010.05.17/outbox.cif.g08.bks.cpg/sg2_219_cif.got.tgz:436606.got - 2010.06.03 11:33:40.
