data_PCOD9096191
_publ_section_title
;
Structure prediction by ZEFSAII (Michael W. Deem and Ramdas Pophale) SiO2 
 PCOD9096191
Probable space group: P -1
;
_chemical_formula_sum "Si O2"
_cell_formula_units_Z 16
_cell_length_a 12.060500
_cell_length_b 21.060003
_cell_length_c 7.856063
_cell_angle_alpha 140.517294
_cell_angle_beta 34.643106
_cell_angle_gamma 146.387804
_cell_volume 603.636713
_symmetry_space_group_name_H-M "P -1"
_symmetry_group_IT_number 2
_symmetry_cell_setting 'triclinic'
loop_
_space_group_symop_operation_xyz
x,y,z
-x,-y,-z
loop_
_atom_site_type_symbol
_atom_site_label
_atom_site_fract_x
_atom_site_fract_y
_atom_site_fract_z
Si Si1 0.245382 0.817743 0.601987
Si Si2 0.538053 0.354649 0.595765
Si Si3 0.907947 0.282831 0.031159
Si Si4 0.466188 0.278611 0.029466
Si Si5 0.563516 0.502242 0.200321
Si Si6 0.216233 0.127645 0.358815
Si Si7 0.425733 0.948082 0.175337
Si Si8 0.931459 0.911907 0.067032
O O1 0.139352 0.765563 0.814689
O O2 0.303657 0.726614 0.257744
O O3 0.497672 0.942002 0.569976
O O4 0.089392 0.856545 0.782355
O O5 0.734592 0.325973 0.303478
O O6 0.579754 0.440878 0.561876
O O7 0.288937 0.229106 0.618962
O O8 0.548420 0.426237 0.895495
O O9 0.826682 0.170900 0.776434
O O10 0.168986 0.390428 0.899190
O O11 0.326029 0.199203 0.876631
O O12 0.497541 0.405241 0.229042
O O13 0.302653 0.207838 0.246607
O O14 0.977850 0.001732 0.352858
O O15 0.401102 0.091042 0.071380
O O16 0.500000 0.000000 0.000000
O O17 0.000000 0.000000 0.000000
#
# Coordination Sequence:
#
# PCOD9096191 Si02
#       8
#     2   2   2   2   2   2   2   2
#     4  10  20  35  63  88 119 153 192 242 295 344
#     4  10  22  40  59  83 120 154 194 252 282 339
#     4  10  20  38  62  86 120 154 193 248 291 341
#     4  11  23  38  60  91 117 158 199 235 291 359
#     4  11  24  37  61  87 116 157 207 234 293 347
#     4   9  20  41  60  83 123 152 191 245 297 343
#     4   8  17  35  58  88 113 148 190 237 294 343
#     4   9  21  38  58  87 121 152 190 238 298 352
#
# _framework density 26.506008000000001
#
# number of rings (size 3 to 8) (size 9 to 14) (size 15 to 20)
#    0.000    2.250    1.250    0.375    3.500    6.000 
#    0.000    6.875    0.000    0.000    0.000    0.000 
#    0.000    0.000    0.000    0.000    0.000    0.000 
#
# Total GULP energy -89563.589667 kJ/mol
# GULP energy per Si atom -5597.724354 kJ/mol
# Density = 2.644568 g / cm^3
# Si number density = 26.506008 Si / 1000 Ang^3
#
#
#
# Elastic Constant Matrix: (Units=GPa)
#
#
# Indices 1 2 3 4 5 6 
#
# 1 140.7985 59.7246 51.1073 10.6837 -28.1983 -28.0260
# 2 59.7246 161.3126 31.5025 23.5836 -27.1892 -5.6272
# 3 51.1073 31.5025 111.7147 25.1218 -51.3949 -4.5520
# 4 10.6837 23.5836 25.1218 44.2182 -10.3869 -2.5139
# 5 -28.1983 -27.1892 -51.3949 -10.3869 58.3663 21.5875
# 6 -28.0260 -5.6272 -4.5520 -2.5139 21.5875 53.8573
#
#
#
# Elastic Compliance Matrix: (Units=1/GPa)
#
#
# Indices 1 2 3 4 5 6 
#
# 1 0.011247 -0.003689 -0.005960 0.002172 -0.003545 0.006486
# 2 -0.003689 0.008352 0.002041 -0.003885 0.004232 -0.002752
# 3 -0.005960 0.002041 0.020958 -0.007730 0.018429 -0.008865
# 4 0.002172 -0.003885 -0.007730 0.027856 -0.003660 0.002838
# 5 -0.003545 0.004232 0.018429 -0.003660 0.038713 -0.015533
# 6 0.006486 -0.002752 -0.008865 0.002838 -0.015533 0.027265
#
#
# Mechanical properties :
#
#
# Convention : Reuss Voigt Hill
#
# Bulk Modulus (GPa) = 39.46328 77.61052 58.53690
# Shear Modulus (GPa) = 31.63492 49.38779 40.51136
#
# Velocity S-wave (km/s) = 3.45846 4.32124 3.91370
# Velocity P-wave (km/s) = 5.55595 7.36488 6.52342
#
# Compressibility (1/GPa) = 0.02534001
#
# Stress axis : x y z
#
# Youngs Moduli (GPa) = 88.91491 119.73705 47.71442
#
# Poissons Ratio (x) = 0.44170 0.28439
# Poissons Ratio (y) = 0.32800 -0.09738
# Poissons Ratio (z) = 0.52995 -0.24438
#
# Static dielectric constant tensor:
#      x y z
#    x 2.154080 -0.031360 0.060150 
#    y -0.031360 2.049570 0.026530 
#    z 0.060150 0.026530 2.089880 
# 
# From -- ./inp_files/283321.got.cif
#   From: 2010.05.17/outbox.cif.g08.bks.cpg/sg2_142_cif.got.tgz:283321.got - 2010.06.03 11:33:40.
