data_PCOD9096867
_publ_section_title
;
Structure prediction by ZEFSAII (Michael W. Deem and Ramdas Pophale) SiO2 
 PCOD9096867
Probable space group: P -1
;
_chemical_formula_sum "Si O2"
_cell_formula_units_Z 16
_cell_length_a 9.881299
_cell_length_b 15.012418
_cell_length_c 9.073043
_cell_angle_alpha 107.936732
_cell_angle_beta 133.844872
_cell_angle_gamma 50.860944
_cell_volume 732.508784
_symmetry_space_group_name_H-M "P -1"
_symmetry_group_IT_number 2
_symmetry_cell_setting 'triclinic'
loop_
_space_group_symop_operation_xyz
x,y,z
-x,-y,-z
loop_
_atom_site_type_symbol
_atom_site_label
_atom_site_fract_x
_atom_site_fract_y
_atom_site_fract_z
Si Si1 0.518593 0.587899 0.961981
Si Si2 0.121039 0.045859 0.019435
Si Si3 0.500621 0.207425 0.416847
Si Si4 0.959280 0.533230 0.815318
Si Si5 0.393127 0.507772 0.579954
Si Si6 0.579003 0.977260 0.221323
Si Si7 0.039727 0.885484 0.406910
Si Si8 0.680482 0.263461 0.846324
O O1 0.373499 0.604888 0.715946
O O2 0.500000 0.500000 0.000000
O O3 0.422907 0.699873 0.049162
O O4 0.789982 0.520224 0.092275
O O5 0.049147 0.074408 0.807771
O O6 0.964995 0.180227 0.030531
O O7 0.404351 0.965194 0.180081
O O8 0.000000 0.000000 0.000000
O O9 0.235616 0.325586 0.267602
O O10 0.533661 0.092452 0.322611
O O11 0.680259 0.214150 0.452605
O O12 0.589502 0.203416 0.648127
O O13 0.842715 0.479892 0.618088
O O14 0.000000 0.500000 0.000000
O O15 0.500000 0.500000 0.500000
O O16 0.577441 0.381795 0.736057
O O17 0.861396 0.875461 0.362383
O O18 0.500000 0.000000 0.000000
O O19 0.000000 0.000000 0.500000
#
# Coordination Sequence:
#
# PCOD9096867 Si02
#       8
#     2   2   2   2   2   2   2   2
#     4  10  22  39  61  89 129 163 208 251 309 377
#     4  10  20  36  58  85 122 156 199 255 307 366
#     4   9  19  35  63  84 119 162 203 251 316 363
#     4  11  22  38  62  93 125 165 209 254 308 367
#     4  10  20  38  64  90 124 164 208 260 305 360
#     4   9  18  34  61  89 111 155 205 252 309 364
#     4   8  16  37  57  81 110 148 199 250 298 356
#     4   9  21  39  57  86 127 169 201 247 318 366
#
# _framework density 21.842741
#
# number of rings (size 3 to 8) (size 9 to 14) (size 15 to 20)
#    0.000    2.500    1.250    0.000    3.500    4.500 
#    6.750    5.625    0.000    1.500    0.000    0.000 
#    0.000    0.000    0.000    0.000    0.000    0.000 
#
# Total GULP energy -89071.249140 kJ/mol
# GULP energy per Si atom -5566.953071 kJ/mol
# Density = 2.179303 g / cm^3
# Si number density = 21.842741 Si / 1000 Ang^3
#
#
#
# Elastic Constant Matrix: (Units=GPa)
#
#
# Indices 1 2 3 4 5 6 
#
# 1 173.5436 44.3436 45.4584 -1.3991 28.0943 -37.2100
# 2 44.3436 72.4872 45.8607 19.9233 -1.7621 -33.6248
# 3 45.4584 45.8607 62.6979 23.6787 6.4408 -13.1553
# 4 -1.3991 19.9233 23.6787 38.7651 -11.1417 -3.7762
# 5 28.0943 -1.7621 6.4408 -11.1417 36.9824 -6.3664
# 6 -37.2100 -33.6248 -13.1553 -3.7762 -6.3664 43.4209
#
#
#
# Elastic Compliance Matrix: (Units=1/GPa)
#
#
# Indices 1 2 3 4 5 6 
#
# 1 0.009407 0.000023 -0.006692 0.003890 -0.003804 0.005832
# 2 0.000023 0.044886 -0.028381 0.000446 0.012015 0.027981
# 3 -0.006692 -0.028381 0.046768 -0.019727 -0.013320 -0.017212
# 4 0.003890 0.000446 -0.019727 0.042037 0.013747 0.003374
# 5 -0.003804 0.012015 -0.013320 0.013747 0.038486 0.008848
# 6 0.005832 0.027981 -0.017212 0.003374 0.008848 0.046073
#
#
# Mechanical properties :
#
#
# Convention : Reuss Voigt Hill
#
# Bulk Modulus (GPa) = 32.29818 64.45045 48.37431
# Shear Modulus (GPa) = 16.22970 35.37144 25.80057
#
# Velocity S-wave (km/s) = 2.72881 4.02850 3.44058
# Velocity P-wave (km/s) = 4.97466 7.15605 6.16264
#
# Compressibility (1/GPa) = 0.03096150
#
# Stress axis : x y z
#
# Youngs Moduli (GPa) = 106.30522 22.27842 21.38228
#
# Poissons Ratio (x) = -0.00051 0.14309
# Poissons Ratio (y) = -0.00243 0.60685
# Poissons Ratio (z) = 0.71137 0.63228
#
# Static dielectric constant tensor:
#      x y z
#    x 1.811120 0.042550 0.038280 
#    y 0.042550 1.911170 -0.036580 
#    z 0.038280 -0.036580 1.859700 
# 
# From -- ./inp_files/218093.got.cif
#   From: 2010.05.17/outbox.cif.g08.bks.cpg/sg2_110_cif.got.tgz:218093.got - 2010.06.03 11:33:40.
