data_PCOD9096229
_publ_section_title
;
Structure prediction by ZEFSAII (Michael W. Deem and Ramdas Pophale) SiO2 
 PCOD9096229
Probable space group: P -1
;
_chemical_formula_sum "Si O2"
_cell_formula_units_Z 16
_cell_length_a 10.596880
_cell_length_b 21.900163
_cell_length_c 5.442520
_cell_angle_alpha 68.950886
_cell_angle_beta 94.710525
_cell_angle_gamma 145.212205
_cell_volume 616.468683
_symmetry_space_group_name_H-M "P -1"
_symmetry_group_IT_number 2
_symmetry_cell_setting 'triclinic'
loop_
_space_group_symop_operation_xyz
x,y,z
-x,-y,-z
loop_
_atom_site_type_symbol
_atom_site_label
_atom_site_fract_x
_atom_site_fract_y
_atom_site_fract_z
Si Si1 0.699938 0.617188 0.041144
Si Si2 0.024124 0.586639 0.941014
Si Si3 0.953778 0.164113 0.531498
Si Si4 0.710925 0.746743 0.161439
Si Si5 0.955611 0.631593 0.362790
Si Si6 0.493302 0.088027 0.927239
Si Si7 0.537840 0.798201 0.919681
Si Si8 0.160815 0.994633 0.639569
O O1 0.646357 0.667040 0.052795
O O2 0.753970 0.595428 0.314756
O O3 0.500000 0.500000 0.000000
O O4 0.960146 0.737930 0.764867
O O5 0.939191 0.589768 0.684702
O O6 0.307327 0.716791 0.844949
O O7 0.929138 0.569792 0.215986
O O8 0.000000 0.500000 0.000000
O O9 0.941287 0.094366 0.464759
O O10 0.189132 0.255118 0.605950
O O11 0.688160 0.046270 0.787878
O O12 0.516375 0.718970 0.163778
O O13 0.954113 0.897863 0.947472
O O14 0.217650 0.783900 0.186657
O O15 0.387881 0.051962 0.691665
O O16 0.427600 0.129391 0.982698
O O17 0.746380 0.896123 0.605611
#
# Coordination Sequence:
#
# PCOD9096229 Si02
#       8
#     2   2   2   2   2   2   2   2
#     4  11  27  45  66  93 134 187 233 280 336 417
#     4  11  25  45  71 103 134 179 234 287 347 407
#     4   9  21  40  62  98 132 179 231 275 347 405
#     4  10  22  38  61  96 131 177 223 278 336 409
#     4  11  25  47  73 101 138 183 228 290 347 406
#     4   9  19  38  66  98 136 171 223 289 349 407
#     4  10  20  35  63  95 135 174 218 282 346 403
#     4   9  17  36  60  95 133 165 219 275 348 405
#
# _framework density 25.954276
#
# number of rings (size 3 to 8) (size 9 to 14) (size 15 to 20)
#    0.000    2.000    1.250    0.750    3.500    8.500 
#    0.000    5.625    0.000    0.000    0.000    0.000 
#    0.000    0.000    0.000    0.000    0.000    0.000 
#
# Total GULP energy -89321.169275 kJ/mol
# GULP energy per Si atom -5582.573080 kJ/mol
# Density = 2.589520 g / cm^3
# Si number density = 25.954276 Si / 1000 Ang^3
#
#
#
# Elastic Constant Matrix: (Units=GPa)
#
#
# Indices 1 2 3 4 5 6 
#
# 1 79.3580 47.8220 20.9203 4.3190 18.4715 -6.5205
# 2 47.8220 142.1820 48.9335 19.4887 10.5063 -14.9357
# 3 20.9203 48.9335 93.0174 11.5789 18.6221 3.1212
# 4 4.3190 19.4887 11.5789 44.3770 7.7427 0.3567
# 5 18.4715 10.5063 18.6221 7.7427 32.1762 3.9451
# 6 -6.5205 -14.9357 3.1212 0.3567 3.9451 49.6766
#
#
#
# Elastic Compliance Matrix: (Units=1/GPa)
#
#
# Indices 1 2 3 4 5 6 
#
# 1 0.018136 -0.005744 0.000527 0.002276 -0.009555 0.001363
# 2 -0.005744 0.011189 -0.004830 -0.003637 0.002983 0.002703
# 3 0.000527 -0.004830 0.014676 -0.000546 -0.006872 -0.001755
# 4 0.002276 -0.003637 -0.000546 0.025064 -0.005775 -0.000482
# 5 -0.009555 0.002983 -0.006872 -0.005775 0.041346 -0.003168
# 6 0.001363 0.002703 -0.001755 -0.000482 -0.003168 0.021487
#
#
# Mechanical properties :
#
#
# Convention : Reuss Voigt Hill
#
# Bulk Modulus (GPa) = 41.82833 61.10102 51.46467
# Shear Modulus (GPa) = 31.25771 38.37140 34.81456
#
# Velocity S-wave (km/s) = 3.47412 3.84920 3.66646
# Velocity P-wave (km/s) = 5.67837 6.58392 6.14784
#
# Compressibility (1/GPa) = 0.02390724
#
# Stress axis : x y z
#
# Youngs Moduli (GPa) = 55.13943 89.37042 68.13992
#
# Poissons Ratio (x) = 0.51334 -0.03589
# Poissons Ratio (y) = 0.31672 0.32909
# Poissons Ratio (z) = -0.02904 0.43163
#
# Static dielectric constant tensor:
#      x y z
#    x 2.221280 -0.084630 -0.106630 
#    y -0.084630 2.602220 0.060210 
#    z -0.106630 0.060210 2.170700 
# 
# From -- ./inp_files/84224.got.cif
#   From: 2010.05.17/outbox.cif.g08.bks.cpg/sg2_43_cif.got.tgz:84224.got - 2010.06.03 11:33:40.
