data_PCOD9096369
_publ_section_title
;
Structure prediction by ZEFSAII (Michael W. Deem and Ramdas Pophale) SiO2 
 PCOD9096369
Probable space group: P -1
;
_chemical_formula_sum "Si O2"
_cell_formula_units_Z 16
_cell_length_a 15.228205
_cell_length_b 14.706725
_cell_length_c 13.051843
_cell_angle_alpha 114.831898
_cell_angle_beta 45.903579
_cell_angle_gamma 151.474467
_cell_volume 831.790050
_symmetry_space_group_name_H-M "P -1"
_symmetry_group_IT_number 2
_symmetry_cell_setting 'triclinic'
loop_
_space_group_symop_operation_xyz
x,y,z
-x,-y,-z
loop_
_atom_site_type_symbol
_atom_site_label
_atom_site_fract_x
_atom_site_fract_y
_atom_site_fract_z
Si Si1 0.517707 0.647756 0.710955
Si Si2 0.872615 0.661442 0.286006
Si Si3 0.523333 0.953867 0.064612
Si Si4 0.038770 0.163721 0.492019
Si Si5 0.869075 0.510432 0.906002
Si Si6 0.693651 0.334857 0.400668
Si Si7 0.226743 0.856484 0.610918
Si Si8 0.947766 0.310473 0.543964
O O1 0.343308 0.458379 0.678906
O O2 0.683194 0.698070 0.678620
O O3 0.298186 0.559886 0.901298
O O4 0.762893 0.893662 0.575770
O O5 0.958477 0.798142 0.372923
O O6 0.737637 0.465330 0.358668
O O7 0.153721 0.832009 0.082067
O O8 0.356600 0.727388 0.078856
O O9 0.358444 0.894073 0.255850
O O10 0.500000 0.000000 0.000000
O O11 0.029453 0.256174 0.476036
O O12 0.121317 0.618460 0.777513
O O13 0.006140 0.692472 0.804391
O O14 0.838921 0.465829 0.455267
O O15 0.374525 0.066371 0.549570
O O16 0.080236 0.695113 0.556698
O O17 0.500000 0.000000 0.500000
#
# Coordination Sequence:
#
# PCOD9096369 Si02
#       8
#     2   2   2   2   2   2   2   2
#     4  11  22  34  56  83 111 149 175 230 274 315
#     4  11  20  34  59  84 110 141 180 224 277 337
#     4  11  18  34  58  86 114 138 174 228 283 333
#     4  10  21  39  55  79 115 142 187 219 274 336
#     4  10  20  36  50  80 116 138 182 224 266 321
#     4   9  20  34  55  81 111 142 175 224 270 333
#     4  10  22  36  52  82 111 143 187 220 266 328
#     4  10  20  37  57  76 110 152 174 223 279 317
#
# _framework density 19.235623
#
# number of rings (size 3 to 8) (size 9 to 14) (size 15 to 20)
#    0.000    1.750    5.000    1.125    3.500    5.000 
#    0.000    0.625    0.000    3.000    0.000    0.000 
#    0.000    0.000    0.000    0.000    0.000    0.000 
#
# Total GULP energy -89244.083088 kJ/mol
# GULP energy per Si atom -5577.755193 kJ/mol
# Density = 1.919184 g / cm^3
# Si number density = 19.235623 Si / 1000 Ang^3
#
#
#
# Elastic Constant Matrix: (Units=GPa)
#
#
# Indices 1 2 3 4 5 6 
#
# 1 34.3650 16.0269 7.4080 0.7793 -7.9129 9.3066
# 2 16.0269 62.1320 13.0475 -17.7392 -8.9544 8.8838
# 3 7.4080 13.0475 30.8709 -14.8682 -5.2863 1.2571
# 4 0.7793 -17.7392 -14.8682 31.8449 -4.8418 3.5106
# 5 -7.9129 -8.9544 -5.2863 -4.8418 18.2854 -0.0546
# 6 9.3066 8.8838 1.2571 3.5106 -0.0546 35.7957
#
#
#
# Elastic Compliance Matrix: (Units=1/GPa)
#
#
# Indices 1 2 3 4 5 6 
#
# 1 0.038520 -0.008027 -0.007262 -0.006676 0.008850 -0.007100
# 2 -0.008027 0.026108 0.002978 0.019145 0.015223 -0.006352
# 3 -0.007262 0.002978 0.050448 0.028891 0.020540 -0.003425
# 4 -0.006676 0.019145 0.028891 0.061553 0.031107 -0.010019
# 5 0.008850 0.015223 0.020540 0.031107 0.080119 -0.009729
# 6 -0.007100 -0.006352 -0.003425 -0.010019 -0.009729 0.032447
#
#
# Mechanical properties :
#
#
# Convention : Reuss Voigt Hill
#
# Bulk Modulus (GPa) = 11.05529 22.25920 16.65725
# Shear Modulus (GPa) = 14.53620 23.24424 18.89022
#
# Velocity S-wave (km/s) = 2.75197 3.47997 3.13716
# Velocity P-wave (km/s) = 3.98215 5.26725 4.66912
#
# Compressibility (1/GPa) = 0.09045446
#
# Stress axis : x y z
#
# Youngs Moduli (GPa) = 25.96041 38.30240 19.82223
#
# Poissons Ratio (x) = 0.30745 0.14395
# Poissons Ratio (y) = 0.20838 -0.05902
# Poissons Ratio (z) = 0.18852 -0.11405
#
# Static dielectric constant tensor:
#      x y z
#    x 1.700210 -0.005400 -0.004920 
#    y -0.005400 1.705990 0.010620 
#    z -0.004920 0.010620 1.664190 
# 
# From -- ./inp_files/342760.got.cif
#   From: 2010.05.17/outbox.cif.g08.bks.cpg/sg2_172_cif.got.tgz:342760.got - 2010.06.03 11:33:40.
