data_PCOD9096548
_publ_section_title
;
Structure prediction by ZEFSAII (Michael W. Deem and Ramdas Pophale) SiO2 
 PCOD9096548
Probable space group: P -1
;
_chemical_formula_sum "Si O2"
_cell_formula_units_Z 16
_cell_length_a 14.713694
_cell_length_b 15.072980
_cell_length_c 14.176971
_cell_angle_alpha 98.440217
_cell_angle_beta 90.037293
_cell_angle_gamma 19.213206
_cell_volume 927.035445
_symmetry_space_group_name_H-M "P -1"
_symmetry_group_IT_number 2
_symmetry_cell_setting 'triclinic'
loop_
_space_group_symop_operation_xyz
x,y,z
-x,-y,-z
loop_
_atom_site_type_symbol
_atom_site_label
_atom_site_fract_x
_atom_site_fract_y
_atom_site_fract_z
Si Si1 0.737933 0.869537 0.870566
Si Si2 0.334966 0.992960 0.725684
Si Si3 0.327154 0.869429 0.420161
Si Si4 0.350173 0.151856 0.422804
Si Si5 0.451817 0.207519 0.745137
Si Si6 0.698370 0.401457 0.495153
Si Si7 0.242375 0.191628 0.931364
Si Si8 0.110993 0.655421 0.361598
O O1 0.092125 0.528349 0.794046
O O2 0.576268 0.091244 0.834226
O O3 0.556943 0.946612 0.869675
O O4 0.718160 0.902777 0.988144
O O5 0.465005 0.944123 0.645604
O O6 0.638363 0.655424 0.704547
O O7 0.169840 0.199070 0.843293
O O8 0.107486 0.138574 0.696173
O O9 0.059122 0.052635 0.419028
O O10 0.127577 0.132543 0.518018
O O11 0.480796 0.769571 0.315071
O O12 0.553330 0.611399 0.455935
O O13 0.000000 0.500000 0.500000
O O14 0.500000 0.000000 0.500000
O O15 0.383560 0.031733 0.340883
O O16 0.500000 0.500000 0.500000
O O17 0.712181 0.425531 0.606809
O O18 0.000000 0.500000 0.000000
#
# Coordination Sequence:
#
# PCOD9096548 Si02
#       8
#     2   2   2   2   2   2   2   2
#     4  11  23  37  54  71  99 146 200 243 270 314
#     4  12  22  36  52  74 112 146 192 228 271 304
#     4  10  20  36  56  83 118 142 177 222 268 331
#     4  12  24  32  48  71 107 154 188 213 254 322
#     4  12  22  37  52  77 109 147 190 233 273 310
#     4  10  20  38  59  82 114 148 174 211 273 342
#     4  11  24  40  54  75 102 153 210 245 281 301
#     4  10  22  35  53  83 109 147 172 228 262 325
#
# _framework density 17.259319000000001
#
# number of rings (size 3 to 8) (size 9 to 14) (size 15 to 20)
#    0.750    0.250    3.750    4.125    5.250    0.000 
#    0.000    0.000    0.000    0.000    0.000    0.000 
#    0.000   20.000    0.000    0.000    0.000    0.000 
#
# Total GULP energy -89161.892363 kJ/mol
# GULP energy per Si atom -5572.618273 kJ/mol
# Density = 1.722004 g / cm^3
# Si number density = 17.259319 Si / 1000 Ang^3
#
#
#
# Elastic Constant Matrix: (Units=GPa)
#
#
# Indices 1 2 3 4 5 6 
#
# 1 53.2444 11.7545 31.8285 -6.0829 0.6469 -15.9383
# 2 11.7545 112.4622 34.1840 -5.3607 -3.5444 -14.5804
# 3 31.8285 34.1840 80.8666 -9.8765 -0.9341 -10.5473
# 4 -6.0829 -5.3607 -9.8765 23.0861 -3.7676 2.2319
# 5 0.6469 -3.5444 -0.9341 -3.7676 14.9165 -0.9830
# 6 -15.9383 -14.5804 -10.5473 2.2319 -0.9830 24.0151
#
#
#
# Elastic Compliance Matrix: (Units=1/GPa)
#
#
# Indices 1 2 3 4 5 6 
#
# 1 0.029484 0.002230 -0.010126 0.002432 0.000303 0.016261
# 2 0.002230 0.010985 -0.004553 0.001068 0.002905 0.006169
# 3 -0.010126 -0.004553 0.018648 0.004674 0.001596 -0.001663
# 4 0.002432 0.001068 0.004674 0.048235 0.012647 0.000350
# 5 0.000303 0.002905 0.001596 0.012647 0.071302 0.004409
# 6 0.016261 0.006169 -0.001663 0.000350 0.004409 0.055595
#
#
# Mechanical properties :
#
#
# Convention : Reuss Voigt Hill
#
# Bulk Modulus (GPa) = 29.22271 44.67858 36.95065
# Shear Modulus (GPa) = 18.48068 23.65728 21.06898
#
# Velocity S-wave (km/s) = 3.27581 3.70631 3.49769
# Velocity P-wave (km/s) = 5.59251 6.65270 6.14551
#
# Compressibility (1/GPa) = 0.03421996
#
# Stress axis : x y z
#
# Youngs Moduli (GPa) = 33.91700 91.03399 53.62414
#
# Poissons Ratio (x) = -0.20299 0.54299
# Poissons Ratio (y) = -0.07563 0.24412
# Poissons Ratio (z) = 0.34344 0.41443
#
# Static dielectric constant tensor:
#      x y z
#    x 1.564060 0.007610 -0.006070 
#    y 0.007610 1.612610 -0.004670 
#    z -0.006070 -0.004670 1.588560 
# 
# From -- ./inp_files/533763.got.cif
#   From: 2010.05.17/outbox.cif.g08.bks.cpg/sg2_267_cif.got.tgz:533763.got - 2010.06.03 11:33:40.
