data_PCOD9096054
_publ_section_title
;
Structure prediction by ZEFSAII (Michael W. Deem and Ramdas Pophale) SiO2 
 PCOD9096054
Probable space group: P -1
;
_chemical_formula_sum "Si O2"
_cell_formula_units_Z 14
_cell_length_a 14.457441
_cell_length_b 16.262319
_cell_length_c 14.298347
_cell_angle_alpha 32.791623
_cell_angle_beta 159.819668
_cell_angle_gamma 148.281293
_cell_volume 592.961509
_symmetry_space_group_name_H-M "P -1"
_symmetry_group_IT_number 2
_symmetry_cell_setting 'triclinic'
loop_
_space_group_symop_operation_xyz
x,y,z
-x,-y,-z
loop_
_atom_site_type_symbol
_atom_site_label
_atom_site_fract_x
_atom_site_fract_y
_atom_site_fract_z
Si Si1 0.360791 0.748041 0.287803
Si Si2 0.230012 0.366325 0.084428
Si Si3 0.221598 0.115393 0.169276
Si Si4 0.573823 0.877195 0.983348
Si Si5 0.096009 0.818980 0.447331
Si Si6 0.682146 0.881482 0.287623
Si Si7 0.375815 0.616017 0.830928
O O1 0.537583 0.690844 0.587761
O O2 0.533984 0.755105 0.348766
O O3 0.031458 0.641729 0.088239
O O4 0.362537 0.931065 0.129214
O O5 0.113762 0.235977 0.014804
O O6 0.371946 0.534935 0.006642
O O7 0.457960 0.222818 0.221984
O O8 0.288676 0.989563 0.422886
O O9 0.000000 0.000000 0.000000
O O10 0.639602 0.813600 0.207025
O O11 0.796025 0.841842 0.157532
O O12 0.257862 0.810697 0.705497
O O13 0.084748 0.663437 0.523093
O O14 0.000000 0.000000 0.500000
O O15 0.500000 0.000000 0.000000
O O16 0.500000 0.500000 0.000000
#
# Coordination Sequence:
#
# PCOD9096054 Si02
#       7
#     2   2   2   2   2   2   2
#     4  11  20  40  66  97 133 173 212 263 334 397
#     4  11  24  42  66  93 137 174 218 267 329 406
#     4  11  23  43  68  95 127 170 230 282 326 374
#     4  11  21  38  65 101 130 160 216 275 325 379
#     4  12  23  41  68  93 130 170 220 277 323 377
#     4  10  20  35  62 102 137 162 206 271 331 387
#     4  10  26  45  63  94 133 181 223 272 332 393
#
# _framework density 23.610299999999999
#
# number of rings (size 3 to 8) (size 9 to 14) (size 15 to 20)
#    0.000    1.143    2.857    4.714    0.000    4.571 
#    0.000    7.143    0.000    5.143    0.000    0.000 
#    0.000    0.000    0.000    0.000    0.000    0.000 
#
# Total GULP energy -78005.300376 kJ/mol
# GULP energy per Si atom -5571.807170 kJ/mol
# Density = 2.355656 g / cm^3
# Si number density = 23.610300 Si / 1000 Ang^3
#
#
#
# Elastic Constant Matrix: (Units=GPa)
#
#
# Indices 1 2 3 4 5 6 
#
# 1 113.2692 27.3653 39.8697 -14.9756 2.7590 27.3639
# 2 27.3653 45.5451 13.2102 -12.2887 4.2780 17.4745
# 3 39.8697 13.2102 103.5384 3.7553 9.5699 12.8216
# 4 -14.9756 -12.2887 3.7553 35.8601 2.8201 -2.7292
# 5 2.7590 4.2780 9.5699 2.8201 40.3135 2.4775
# 6 27.3639 17.4745 12.8216 -2.7292 2.4775 34.2879
#
#
#
# Elastic Compliance Matrix: (Units=1/GPa)
#
#
# Indices 1 2 3 4 5 6 
#
# 1 0.013280 -0.002860 -0.004049 0.004394 0.000498 -0.007313
# 2 -0.002860 0.031516 -0.001475 0.009033 -0.002674 -0.012315
# 3 -0.004049 -0.001475 0.011786 -0.003306 -0.002100 -0.000536
# 4 0.004394 0.009033 -0.003306 0.033053 -0.002537 -0.004060
# 5 0.000498 -0.002674 -0.002100 -0.002537 0.025750 -0.000312
# 6 -0.007313 -0.012315 -0.000536 -0.004060 -0.000312 0.041177
#
#
# Mechanical properties :
#
#
# Convention : Reuss Voigt Hill
#
# Bulk Modulus (GPa) = 25.11681 47.02702 36.07192
# Shear Modulus (GPa) = 26.79492 34.21947 30.50720
#
# Velocity S-wave (km/s) = 3.37246 3.81116 3.59850
# Velocity P-wave (km/s) = 5.08191 6.27119 5.70761
#
# Compressibility (1/GPa) = 0.03981397
#
# Stress axis : x y z
#
# Youngs Moduli (GPa) = 75.30034 31.72974 84.84764
#
# Poissons Ratio (x) = 0.09076 0.34352
# Poissons Ratio (y) = 0.21539 0.12516
# Poissons Ratio (z) = 0.30487 0.04680
#
# Static dielectric constant tensor:
#      x y z
#    x 2.083830 -0.023990 -0.109400 
#    y -0.023990 1.914990 0.036780 
#    z -0.109400 0.036780 1.953940 
# 
# From -- ./inp_files/89941.got.cif
#   From: 2010.05.17/outbox.cif.g08.bks.cpg/sg2_45_cif.got.tgz:89941.got - 2010.06.03 11:33:40.
