data_PCOD9096748
_publ_section_title
;
Structure prediction by ZEFSAII (Michael W. Deem and Ramdas Pophale) SiO2 
 PCOD9096748
Probable space group: P -1
;
_chemical_formula_sum "Si O2"
_cell_formula_units_Z 14
_cell_length_a 9.186261
_cell_length_b 12.227487
_cell_length_c 15.846646
_cell_angle_alpha 59.207161
_cell_angle_beta 135.533004
_cell_angle_gamma 146.594224
_cell_volume 670.073576
_symmetry_space_group_name_H-M "P -1"
_symmetry_group_IT_number 2
_symmetry_cell_setting 'triclinic'
loop_
_space_group_symop_operation_xyz
x,y,z
-x,-y,-z
loop_
_atom_site_type_symbol
_atom_site_label
_atom_site_fract_x
_atom_site_fract_y
_atom_site_fract_z
Si Si1 0.914864 0.942542 0.249856
Si Si2 0.863383 0.226661 0.586306
Si Si3 0.791559 0.259518 0.224197
Si Si4 0.907770 0.508956 0.585956
Si Si5 0.247500 0.933999 0.995049
Si Si6 0.152138 0.615868 0.105757
Si Si7 0.832469 0.829205 0.567672
O O1 0.547749 0.790668 0.195197
O O2 0.947388 0.810484 0.293609
O O3 0.157417 0.098533 0.364658
O O4 0.953924 0.054027 0.142022
O O5 0.873343 0.344451 0.612014
O O6 0.029722 0.372528 0.516030
O O7 0.500000 0.000000 0.500000
O O8 0.793140 0.319558 0.293995
O O9 0.018054 0.461471 0.183178
O O10 0.958852 0.200511 0.325176
O O11 0.458725 0.087567 0.099840
O O12 0.552947 0.377804 0.530785
O O13 0.059901 0.719915 0.034874
O O14 0.500000 0.000000 0.000000
O O15 0.000000 0.500000 0.000000
O O16 0.000000 0.000000 0.500000
#
# Coordination Sequence:
#
# PCOD9096748 Si02
#       7
#     2   2   2   2   2   2   2
#     4  11  20  39  64  91 125 165 217 254 318 380
#     4  11  24  46  66  87 129 178 222 264 301 377
#     4  12  22  38  62  95 133 154 208 264 326 385
#     4  11  26  41  64  97 124 177 218 254 327 377
#     4  10  20  36  57  92 124 163 202 259 323 372
#     4  11  19  36  63  95 125 165 201 261 328 382
#     4  12  22  38  65  99 134 162 201 273 332 382
#
# _framework density 20.893228000000001
#
# number of rings (size 3 to 8) (size 9 to 14) (size 15 to 20)
#    0.000    0.857    7.143    3.000    0.000    0.000 
#    0.000    0.714    0.000    1.714    0.000    0.000 
#    0.000    0.000    0.000    0.000    0.000    0.000 
#
# Total GULP energy -78224.186880 kJ/mol
# GULP energy per Si atom -5587.441920 kJ/mol
# Density = 2.084567 g / cm^3
# Si number density = 20.893228 Si / 1000 Ang^3
#
#
#
# Elastic Constant Matrix: (Units=GPa)
#
#
# Indices 1 2 3 4 5 6 
#
# 1 57.9163 24.5993 38.1009 -11.2461 1.7260 -33.6434
# 2 24.5993 108.4069 40.6124 -25.9689 10.1499 -25.8243
# 3 38.1009 40.6124 123.8192 -21.8353 -7.0887 -29.4535
# 4 -11.2461 -25.9689 -21.8353 54.1575 -22.5272 1.5264
# 5 1.7260 10.1499 -7.0887 -22.5272 22.5349 -2.8694
# 6 -33.6434 -25.8243 -29.4535 1.5264 -2.8694 37.6189
#
#
#
# Elastic Compliance Matrix: (Units=1/GPa)
#
#
# Indices 1 2 3 4 5 6 
#
# 1 0.041792 0.002146 -0.000995 0.014378 0.014810 0.038616
# 2 0.002146 0.012943 -0.001543 0.006108 0.000825 0.009412
# 3 -0.000995 -0.001543 0.014831 0.012938 0.019725 0.010643
# 4 0.014378 0.006108 0.012938 0.052061 0.055997 0.029341
# 5 0.014810 0.000825 0.019725 0.055997 0.109552 0.035339
# 6 0.038616 0.009412 0.010643 0.029341 0.035339 0.077416
#
#
# Mechanical properties :
#
#
# Convention : Reuss Voigt Hill
#
# Bulk Modulus (GPa) = 14.53829 55.19640 34.86734
# Shear Modulus (GPa) = 15.04639 35.31757 25.18198
#
# Velocity S-wave (km/s) = 2.68648 4.11589 3.47547
# Velocity P-wave (km/s) = 4.07387 7.00450 5.72972
#
# Compressibility (1/GPa) = 0.06878390
#
# Stress axis : x y z
#
# Youngs Moduli (GPa) = 23.92827 77.25911 67.42690
#
# Poissons Ratio (x) = -0.16580 0.06706
# Poissons Ratio (y) = -0.05135 0.10401
# Poissons Ratio (z) = 0.02380 0.11917
#
# Static dielectric constant tensor:
#      x y z
#    x 1.608620 -0.131850 0.102980 
#    y -0.131850 1.731210 0.148040 
#    z 0.102980 0.148040 1.765010 
# 
# From -- ./inp_files/72071.got.cif
#   From: 2010.05.17/outbox.cif.g08.bks.cpg/sg2_37_cif.got.tgz:72071.got - 2010.06.03 11:33:40.
