data_PCOD9096840
_publ_section_title
;
Structure prediction by ZEFSAII (Michael W. Deem and Ramdas Pophale) SiO2 
 PCOD9096840
Probable space group: P -1
;
_chemical_formula_sum "Si O2"
_cell_formula_units_Z 16
_cell_length_a 8.360454
_cell_length_b 19.422370
_cell_length_c 13.756123
_cell_angle_alpha 157.983938
_cell_angle_beta 91.804695
_cell_angle_gamma 98.430907
_cell_volume 739.071320
_symmetry_space_group_name_H-M "P -1"
_symmetry_group_IT_number 2
_symmetry_cell_setting 'triclinic'
loop_
_space_group_symop_operation_xyz
x,y,z
-x,-y,-z
loop_
_atom_site_type_symbol
_atom_site_label
_atom_site_fract_x
_atom_site_fract_y
_atom_site_fract_z
Si Si1 0.417765 0.384320 0.446917
Si Si2 0.964206 0.793152 0.167333
Si Si3 0.591226 0.410466 0.685596
Si Si4 0.293193 0.920855 0.793381
Si Si5 0.939711 0.759479 0.659875
Si Si6 0.740983 0.612646 0.255480
Si Si7 0.304319 0.834930 0.318261
Si Si8 0.104423 0.951983 0.634727
O O1 0.500000 0.500000 0.500000
O O2 0.525609 0.473615 0.666632
O O3 0.218015 0.366948 0.432288
O O4 0.399186 0.151936 0.139579
O O5 0.149119 0.779751 0.161025
O O6 0.913152 0.844796 0.128538
O O7 0.795392 0.590272 0.941044
O O8 0.000000 0.000000 0.500000
O O9 0.595266 0.194186 0.388672
O O10 0.449244 0.385384 0.734169
O O11 0.191074 0.954418 0.742838
O O12 0.132594 0.764054 0.657124
O O13 0.836236 0.689556 0.463645
O O14 0.000000 0.000000 0.000000
O O15 0.897933 0.765752 0.387159
O O16 0.698843 0.377934 0.930741
O O17 0.232645 0.918085 0.515378
O O18 0.500000 0.000000 0.500000
#
# Coordination Sequence:
#
# PCOD9096840 Si02
#       8
#     2   2   2   2   2   2   2   2
#     4  10  20  36  61  89 117 153 196 243 290 346
#     4  10  21  38  57  82 116 152 193 242 294 347
#     4  11  22  38  59  87 121 160 195 238 296 351
#     4  10  20  38  60  86 121 158 194 237 289 351
#     4   8  17  34  56  79 110 150 187 230 285 336
#     4  10  20  36  58  84 116 153 194 240 289 345
#     4  11  23  40  60  84 116 156 196 244 300 351
#     4  10  21  38  60  87 116 152 198 246 290 347
#
# _framework density 21.648790999999999
#
# number of rings (size 3 to 8) (size 9 to 14) (size 15 to 20)
#    0.000    2.000    0.000    4.500    0.000    3.000 
#    0.000    5.625    0.000    0.000    0.000    0.000 
#    0.000    0.000    0.000    0.000    0.000    0.000 
#
# Total GULP energy -89276.516851 kJ/mol
# GULP energy per Si atom -5579.782303 kJ/mol
# Density = 2.159952 g / cm^3
# Si number density = 21.648791 Si / 1000 Ang^3
#
#
#
# Elastic Constant Matrix: (Units=GPa)
#
#
# Indices 1 2 3 4 5 6 
#
# 1 133.8573 27.1954 26.3884 12.9900 8.1570 28.7201
# 2 27.1954 77.6983 2.8164 2.7736 16.8565 18.7861
# 3 26.3884 2.8164 61.2503 6.0621 17.0476 10.1981
# 4 12.9900 2.7736 6.0621 26.3269 5.7477 8.6202
# 5 8.1570 16.8565 17.0476 5.7477 38.2483 7.8486
# 6 28.7201 18.7861 10.1981 8.6202 7.8486 44.3465
#
#
#
# Elastic Compliance Matrix: (Units=1/GPa)
#
#
# Indices 1 2 3 4 5 6 
#
# 1 0.009770 -0.002602 -0.003667 -0.002759 0.001973 -0.004194
# 2 -0.002602 0.016409 0.003037 0.002115 -0.007305 -0.005083
# 3 -0.003667 0.003037 0.020739 -0.000627 -0.009314 -0.001910
# 4 -0.002759 0.002115 -0.000627 0.042456 -0.005150 -0.006306
# 5 0.001973 -0.007305 -0.009314 -0.005150 0.034089 -0.001073
# 6 -0.004194 -0.005083 -0.001910 -0.006306 -0.001073 0.029274
#
#
# Mechanical properties :
#
#
# Convention : Reuss Voigt Hill
#
# Bulk Modulus (GPa) = 24.72002 42.84514 33.78258
# Shear Modulus (GPa) = 28.95414 36.21139 32.58277
#
# Velocity S-wave (km/s) = 3.66108 4.09427 3.88372
# Velocity P-wave (km/s) = 5.41432 6.49498 5.97911
#
# Compressibility (1/GPa) = 0.04045305
#
# Stress axis : x y z
#
# Youngs Moduli (GPa) = 102.35739 60.94144 48.21809
#
# Poissons Ratio (x) = 0.15857 0.17682
# Poissons Ratio (y) = 0.26633 -0.14642
# Poissons Ratio (z) = 0.37536 -0.18506
#
# Static dielectric constant tensor:
#      x y z
#    x 1.833810 -0.012050 0.033730 
#    y -0.012050 1.857860 -0.036870 
#    z 0.033730 -0.036870 1.788100 
# 
# From -- ./inp_files/225576.got.cif
#   From: 2010.05.17/outbox.cif.g08.bks.cpg/sg2_113_cif.got.tgz:225576.got - 2010.06.03 11:33:40.
