data_PCOD9096631
_publ_section_title
;
Structure prediction by ZEFSAII (Michael W. Deem and Ramdas Pophale) SiO2 
 PCOD9096631
Probable space group: P -1
;
_chemical_formula_sum "Si O2"
_cell_formula_units_Z 13
_cell_length_a 6.360940
_cell_length_b 17.699529
_cell_length_c 8.563816
_cell_angle_alpha 43.499296
_cell_angle_beta 52.227291
_cell_angle_gamma 53.701741
_cell_volume 504.911368
_symmetry_space_group_name_H-M "P -1"
_symmetry_group_IT_number 2
_symmetry_cell_setting 'triclinic'
loop_
_space_group_symop_operation_xyz
x,y,z
-x,-y,-z
loop_
_atom_site_type_symbol
_atom_site_label
_atom_site_fract_x
_atom_site_fract_y
_atom_site_fract_z
Si Si1 0.500000 0.500000 0.000000
Si Si2 0.859612 0.754973 0.762614
Si Si3 0.325621 0.231979 0.821147
Si Si4 0.346962 0.909771 0.636197
Si Si5 0.207754 0.937113 0.295087
Si Si6 0.334658 0.578487 0.649358
Si Si7 0.958873 0.590478 0.522100
O O1 0.509953 0.521306 0.157047
O O2 0.309973 0.414930 0.250328
O O3 0.558415 0.791253 0.766900
O O4 0.026612 0.845773 0.502831
O O5 0.071880 0.636698 0.795467
O O6 0.816168 0.762692 0.955938
O O7 0.536689 0.110198 0.866999
O O8 0.505030 0.325181 0.599451
O O9 0.103828 0.283638 0.709846
O O10 0.319223 0.925304 0.439390
O O11 0.500000 0.000000 0.500000
O O12 0.031236 0.944335 0.791978
O O13 0.211115 0.553734 0.580556
O O14 0.000000 0.500000 0.500000
#
# Coordination Sequence:
#
# PCOD9096631 Si02
#       7
#     1   2   2   2   2   2   2
#     4  10  22  38  58  80 106 146 184 228 280 324
#     4  10  20  36  57  81 109 146 184 225 277 325
#     4  10  22  36  56  84 111 144 186 229 277 330
#     4   9  18  35  58  79 110 148 180 224 275 326
#     4   9  19  37  55  80 112 142 183 228 273 327
#     4  10  22  39  58  82 113 145 186 232 277 332
#     4  11  23  38  57  83 113 147 186 229 278 334
#
# _framework density 25.747091999999999
#
# number of rings (size 3 to 8) (size 9 to 14) (size 15 to 20)
#    0.000    2.154    0.000    2.308    0.000    5.538 
#    0.000    6.923    0.000    0.000    0.000    0.000 
#    0.000    0.000    0.000    0.000    0.000    0.000 
#
# Total GULP energy -72470.190652 kJ/mol
# GULP energy per Si atom -5574.630050 kJ/mol
# Density = 2.568849 g / cm^3
# Si number density = 25.747092 Si / 1000 Ang^3
#
#
#
# Elastic Constant Matrix: (Units=GPa)
#
#
# Indices 1 2 3 4 5 6 
#
# 1 91.8239 2.2433 -0.6394 7.3918 15.2966 0.4045
# 2 2.2433 104.8348 34.5346 27.2652 -13.1410 -2.6420
# 3 -0.6394 34.5346 83.4122 11.9962 9.1117 -11.1414
# 4 7.3918 27.2652 11.9962 40.7988 2.7988 -5.7328
# 5 15.2966 -13.1410 9.1117 2.7988 23.5040 9.1570
# 6 0.4045 -2.6420 -11.1414 -5.7328 9.1570 40.2300
#
#
#
# Elastic Compliance Matrix: (Units=1/GPa)
#
#
# Indices 1 2 3 4 5 6 
#
# 1 0.013060 -0.002754 0.003075 -0.000095 -0.012537 0.003379
# 2 -0.002754 0.017543 -0.008746 -0.010966 0.019082 -0.007149
# 3 0.003075 -0.008746 0.018424 0.002337 -0.017769 0.008875
# 4 -0.000095 -0.010966 0.002337 0.033232 -0.013990 0.007848
# 5 -0.012537 0.019082 -0.017769 -0.013990 0.079099 -0.023539
# 6 0.003379 -0.007149 0.008875 0.007848 -0.023539 0.033288
#
#
# Mechanical properties :
#
#
# Convention : Reuss Voigt Hill
#
# Bulk Modulus (GPa) = 31.07913 39.14978 35.11446
# Shear Modulus (GPa) = 22.50011 37.16874 29.83443
#
# Velocity S-wave (km/s) = 2.95937 3.80361 3.40773
# Velocity P-wave (km/s) = 4.87589 5.87609 5.39920
#
# Compressibility (1/GPa) = 0.03217593
#
# Stress axis : x y z
#
# Youngs Moduli (GPa) = 76.56781 57.00331 54.27776
#
# Poissons Ratio (x) = 0.15699 -0.16690
# Poissons Ratio (y) = 0.21087 0.47473
# Poissons Ratio (z) = -0.23543 0.49857
#
# Static dielectric constant tensor:
#      x y z
#    x 2.110130 -0.080390 0.000110 
#    y -0.080390 2.170960 -0.038120 
#    z 0.000110 -0.038120 1.959070 
# 
# From -- ./inp_files/6127.got.cif
#   From: 2010.05.17/outbox.cif.g08.bks.cpg/sg2_4_cif.got.tgz:6127.got - 2010.06.03 11:33:40.
