data_PCOD9096914
_publ_section_title
;
Structure prediction by ZEFSAII (Michael W. Deem and Ramdas Pophale) SiO2 
 PCOD9096914
Probable space group: P -1
;
_chemical_formula_sum "Si O2"
_cell_formula_units_Z 16
_cell_length_a 11.496458
_cell_length_b 11.867684
_cell_length_c 16.826113
_cell_angle_alpha 39.633502
_cell_angle_beta 142.810507
_cell_angle_gamma 113.242494
_cell_volume 728.652012
_symmetry_space_group_name_H-M "P -1"
_symmetry_group_IT_number 2
_symmetry_cell_setting 'triclinic'
loop_
_space_group_symop_operation_xyz
x,y,z
-x,-y,-z
loop_
_atom_site_type_symbol
_atom_site_label
_atom_site_fract_x
_atom_site_fract_y
_atom_site_fract_z
Si Si1 0.787586 0.911331 0.382162
Si Si2 0.798825 0.971374 0.105750
Si Si3 0.440764 0.250113 0.878416
Si Si4 0.202182 0.040560 0.075055
Si Si5 0.822135 0.479903 0.663684
Si Si6 0.673859 0.256293 0.260434
Si Si7 0.675633 0.295768 0.417884
Si Si8 0.494117 0.378590 0.444768
O O1 0.781207 0.705050 0.501150
O O2 0.057565 0.815637 0.561770
O O3 0.626209 0.072345 0.137321
O O4 0.687612 0.070880 0.316696
O O5 0.062090 0.891880 0.310469
O O6 0.599639 0.192272 0.918245
O O7 0.754224 0.798327 0.210744
O O8 0.753742 0.984156 0.980978
O O9 0.332891 0.488569 0.717354
O O10 0.408360 0.857537 0.339314
O O11 0.090369 0.284707 0.904697
O O12 0.000000 0.000000 0.000000
O O13 0.671333 0.437423 0.543410
O O14 0.740224 0.471670 0.712863
O O15 0.616861 0.247533 0.326411
O O16 0.500000 0.500000 0.000000
O O17 0.507371 0.356045 0.369502
#
# Coordination Sequence:
#
# PCOD9096914 Si02
#       8
#     2   2   2   2   2   2   2   2
#     4  11  24  44  66  93 125 169 218 266 313 378
#     4  11  23  36  58  98 135 161 204 253 333 384
#     4  11  25  35  61  96 131 163 202 267 322 389
#     4  10  20  36  58  87 130 169 196 242 308 390
#     4  10  22  38  64  93 131 163 202 260 313 384
#     4  11  25  46  65  90 123 173 222 264 316 364
#     4  12  23  39  64  89 132 169 207 263 312 385
#     4  10  23  38  62  99 128 168 206 251 326 382
#
# _framework density 21.958356999999999
#
# number of rings (size 3 to 8) (size 9 to 14) (size 15 to 20)
#    0.000    1.250    5.000    1.125   10.500    1.000 
#    0.000    0.625    0.000    1.500    0.000    0.000 
#    0.000    0.000    0.000    0.000    0.000    0.000 
#
# Total GULP energy -89419.474787 kJ/mol
# GULP energy per Si atom -5588.717174 kJ/mol
# Density = 2.190838 g / cm^3
# Si number density = 21.958357 Si / 1000 Ang^3
#
#
#
# Elastic Constant Matrix: (Units=GPa)
#
#
# Indices 1 2 3 4 5 6 
#
# 1 122.4240 43.5853 28.6038 0.0803 -4.6579 -46.5934
# 2 43.5853 75.0220 35.5343 -20.9457 -9.1287 -31.3905
# 3 28.6038 35.5343 96.5708 -13.1161 -8.8679 -9.7589
# 4 0.0803 -20.9457 -13.1161 30.4866 -1.2649 -2.1700
# 5 -4.6579 -9.1287 -8.8679 -1.2649 29.4816 1.1688
# 6 -46.5934 -31.3905 -9.7589 -2.1700 1.1688 47.0596
#
#
#
# Elastic Compliance Matrix: (Units=1/GPa)
#
#
# Indices 1 2 3 4 5 6 
#
# 1 0.014090 -0.002970 -0.002221 -0.002218 0.000091 0.011404
# 2 -0.002970 0.032240 -0.005493 0.021426 0.008059 0.018213
# 3 -0.002221 -0.005493 0.013152 0.001756 0.002103 -0.003107
# 4 -0.002218 0.021426 0.001756 0.049666 0.008367 0.014542
# 5 0.000091 0.008059 0.002103 0.008367 0.037208 0.005363
# 6 0.011404 0.018213 -0.003107 0.014542 0.005363 0.044582
#
#
# Mechanical properties :
#
#
# Convention : Reuss Voigt Hill
#
# Bulk Modulus (GPa) = 26.23735 56.60707 41.42221
# Shear Modulus (GPa) = 22.22124 33.82512 28.02318
#
# Velocity S-wave (km/s) = 3.18460 3.92908 3.57626
# Velocity P-wave (km/s) = 5.04944 6.81313 5.99649
#
# Compressibility (1/GPa) = 0.03811360
#
# Stress axis : x y z
#
# Youngs Moduli (GPa) = 70.97316 31.01734 76.03576
#
# Poissons Ratio (x) = 0.09214 0.16886
# Poissons Ratio (y) = 0.21082 0.41764
# Poissons Ratio (z) = 0.15762 0.17037
#
# Static dielectric constant tensor:
#      x y z
#    x 1.863460 0.003190 0.028230 
#    y 0.003190 1.809530 0.003810 
#    z 0.028230 0.003810 1.824100 
# 
# From -- ./inp_files/569141.got.cif
#   From: 2010.05.17/outbox.cif.g08.bks.cpg/sg2_285_cif.got.tgz:569141.got - 2010.06.03 11:33:40.
