data_PCOD9096157
_publ_section_title
;
Structure prediction by ZEFSAII (Michael W. Deem and Ramdas Pophale) SiO2 
 PCOD9096157
Probable space group: P -1
;
_chemical_formula_sum "Si O2"
_cell_formula_units_Z 16
_cell_length_a 10.776474
_cell_length_b 28.864946
_cell_length_c 26.280697
_cell_angle_alpha 9.825649
_cell_angle_beta 33.956080
_cell_angle_gamma 32.765252
_cell_volume 754.966585
_symmetry_space_group_name_H-M "P -1"
_symmetry_group_IT_number 2
_symmetry_cell_setting 'triclinic'
loop_
_space_group_symop_operation_xyz
x,y,z
-x,-y,-z
loop_
_atom_site_type_symbol
_atom_site_label
_atom_site_fract_x
_atom_site_fract_y
_atom_site_fract_z
Si Si1 0.082074 0.936902 0.913979
Si Si2 0.399587 0.399096 0.429115
Si Si3 0.732396 0.936865 0.955725
Si Si4 0.785636 0.077664 0.951444
Si Si5 0.114902 0.664482 0.824631
Si Si6 0.822757 0.617748 0.062230
Si Si7 0.478022 0.174070 0.533471
Si Si8 0.299798 0.422658 0.744586
O O1 0.268364 0.097982 0.657569
O O2 0.225702 0.702605 0.157129
O O3 0.953412 0.804596 0.058273
O O4 0.880954 0.127203 0.810406
O O5 0.663899 0.399060 0.347755
O O6 0.386455 0.297795 0.485193
O O7 0.318277 0.193944 0.717223
O O8 0.766568 0.244498 0.598245
O O9 0.500000 0.000000 0.000000
O O10 0.721600 0.744031 0.119400
O O11 0.571131 0.326657 0.770314
O O12 0.000000 0.000000 0.000000
O O13 0.378298 0.640571 0.745519
O O14 0.000000 0.000000 0.500000
O O15 0.000000 0.500000 0.000000
O O16 0.053503 0.554434 0.019414
O O17 0.835639 0.664867 0.066892
O O18 0.660383 0.888035 0.797400
#
# Coordination Sequence:
#
# PCOD9096157 Si02
#       8
#     2   2   2   2   2   2   2   2
#     4  11  25  38  59  86 127 173 209 260 301 369
#     4  11  20  36  61  90 130 159 200 252 325 379
#     4  12  28  44  63  84 123 177 226 254 293 357
#     4  12  22  36  61  93 126 160 200 254 326 376
#     4  10  20  35  62  95 130 158 192 249 327 388
#     4  10  21  38  61  94 126 157 199 261 320 377
#     4  10  20  37  60  95 125 157 202 254 324 379
#     4  12  26  43  63  89 125 167 216 257 305 367
#
# _framework density 21.192990999999999
#
# number of rings (size 3 to 8) (size 9 to 14) (size 15 to 20)
#    0.000    1.000    5.000    2.250    3.500    0.000 
#    0.000    0.000    0.000    1.500    0.000    0.000 
#    0.000    0.000    0.000    0.000    0.000    0.000 
#
# Total GULP energy -89363.483213 kJ/mol
# GULP energy per Si atom -5585.217701 kJ/mol
# Density = 2.114475 g / cm^3
# Si number density = 21.192991 Si / 1000 Ang^3
#
#
#
# Elastic Constant Matrix: (Units=GPa)
#
#
# Indices 1 2 3 4 5 6 
#
# 1 99.2575 29.8000 19.5713 14.4908 -15.7437 12.3607
# 2 29.8000 93.9335 38.3541 36.3005 -7.7915 14.9971
# 3 19.5713 38.3541 86.3204 19.0671 -16.0153 0.2295
# 4 14.4908 36.3005 19.0671 45.1169 -0.7144 -1.5395
# 5 -15.7437 -7.7915 -16.0153 -0.7144 28.9139 -2.9643
# 6 12.3607 14.9971 0.2295 -1.5395 -2.9643 30.1037
#
#
#
# Elastic Compliance Matrix: (Units=1/GPa)
#
#
# Indices 1 2 3 4 5 6 
#
# 1 0.012400 -0.001739 -0.000456 -0.002432 0.005581 -0.003797
# 2 -0.001739 0.020481 -0.005591 -0.013902 0.000091 -0.010148
# 3 -0.000456 -0.005591 0.015944 -0.001857 0.007388 0.003484
# 4 -0.002432 -0.013902 -0.001857 0.035166 -0.004275 0.009316
# 5 0.005581 0.000091 0.007388 -0.004275 0.041790 0.001503
# 6 -0.003797 -0.010148 0.003484 0.009316 0.001503 0.040431
#
#
# Mechanical properties :
#
#
# Convention : Reuss Voigt Hill
#
# Bulk Modulus (GPa) = 30.07236 50.55138 40.31187
# Shear Modulus (GPa) = 25.92459 33.61264 29.76861
#
# Velocity S-wave (km/s) = 3.50131 3.98681 3.75192
# Velocity P-wave (km/s) = 5.52867 6.71547 6.15076
#
# Compressibility (1/GPa) = 0.03325312
#
# Stress axis : x y z
#
# Youngs Moduli (GPa) = 80.64612 48.82683 62.71938
#
# Poissons Ratio (x) = 0.08489 0.02860
# Poissons Ratio (y) = 0.14021 0.35067
# Poissons Ratio (z) = 0.03678 0.27299
#
# Static dielectric constant tensor:
#      x y z
#    x 1.792830 0.020810 -0.013910 
#    y 0.020810 1.730770 0.070790 
#    z -0.013910 0.070790 1.731680 
# 
# From -- ./inp_files/77503.got.cif
#   From: 2010.05.17/outbox.cif.g08.bks.cpg/sg2_39_cif.got.tgz:77503.got - 2010.06.03 11:33:40.
