data_PCOD9096244
_publ_section_title
;
Structure prediction by ZEFSAII (Michael W. Deem and Ramdas Pophale) SiO2 
 PCOD9096244
Probable space group: P -1
;
_chemical_formula_sum "Si O2"
_cell_formula_units_Z 14
_cell_length_a 10.577084
_cell_length_b 15.464849
_cell_length_c 11.723599
_cell_angle_alpha 27.438766
_cell_angle_beta 117.833613
_cell_angle_gamma 132.618965
_cell_volume 597.300854
_symmetry_space_group_name_H-M "P -1"
_symmetry_group_IT_number 2
_symmetry_cell_setting 'triclinic'
loop_
_space_group_symop_operation_xyz
x,y,z
-x,-y,-z
loop_
_atom_site_type_symbol
_atom_site_label
_atom_site_fract_x
_atom_site_fract_y
_atom_site_fract_z
Si Si1 0.417688 0.728692 0.876681
Si Si2 0.897654 0.702621 0.171920
Si Si3 0.139870 0.595442 0.305964
Si Si4 0.139719 0.921718 0.326682
Si Si5 0.411909 0.605073 0.776829
Si Si6 0.975875 0.706731 0.753400
Si Si7 0.298410 0.939072 0.762539
O O1 0.244348 0.438057 0.166293
O O2 0.634874 0.872103 0.825660
O O3 0.396605 0.738561 0.719577
O O4 0.359601 0.845175 0.799789
O O5 0.790743 0.508326 0.458081
O O6 0.783186 0.594733 0.131913
O O7 0.075793 0.719845 0.207813
O O8 0.936171 0.953373 0.909311
O O9 0.276129 0.798104 0.031543
O O10 0.962190 0.344179 0.462102
O O11 0.075856 0.866903 0.495517
O O12 0.544416 0.774867 0.528848
O O13 0.500000 0.500000 0.000000
O O14 0.098005 0.858923 0.737628
O O15 0.000000 0.500000 0.000000
#
# Coordination Sequence:
#
# PCOD9096244 Si02
#       7
#     2   2   2   2   2   2   2
#     4  11  22  37  69 101 132 178 219 281 352 390
#     4  11  26  45  69 100 135 190 230 276 349 406
#     4  11  25  47  70  95 140 189 230 279 339 415
#     4  12  22  45  71 100 137 177 233 287 340 404
#     4  12  23  40  65 101 142 169 222 294 339 405
#     4  10  20  35  64 103 133 171 228 275 340 405
#     4  11  22  40  67 101 135 183 227 280 345 409
#
# _framework density 23.438773999999999
#
# number of rings (size 3 to 8) (size 9 to 14) (size 15 to 20)
#    0.000    0.857    5.714    2.571    4.000    1.714 
#    0.000    3.571    0.000    0.000    0.000    0.000 
#    0.000    0.000    0.000    0.000    0.000    0.000 
#
# Total GULP energy -78135.542172 kJ/mol
# GULP energy per Si atom -5581.110155 kJ/mol
# Density = 2.338543 g / cm^3
# Si number density = 23.438774 Si / 1000 Ang^3
#
#
#
# Elastic Constant Matrix: (Units=GPa)
#
#
# Indices 1 2 3 4 5 6 
#
# 1 73.4302 6.0385 54.7961 -1.7627 -6.9935 3.8117
# 2 6.0385 55.5215 20.6380 16.5407 -6.7893 0.2928
# 3 54.7961 20.6380 176.7468 24.5660 -14.1345 9.4962
# 4 -1.7627 16.5407 24.5660 43.7362 2.6829 -4.8617
# 5 -6.9935 -6.7893 -14.1345 2.6829 42.7370 1.4463
# 6 3.8117 0.2928 9.4962 -4.8617 1.4463 16.3995
#
#
#
# Elastic Compliance Matrix: (Units=1/GPa)
#
#
# Indices 1 2 3 4 5 6 
#
# 1 0.018504 -0.001030 -0.006271 0.004707 0.000471 0.000702
# 2 -0.001030 0.021258 -0.000588 -0.008258 0.003620 -0.002567
# 3 -0.006271 -0.000588 0.008982 -0.005855 0.002411 -0.005682
# 4 0.004707 -0.008258 -0.005855 0.031107 -0.004840 0.012093
# 5 0.000471 0.003620 0.002411 -0.004840 0.025330 -0.005239
# 6 0.000702 -0.002567 -0.005682 0.012093 -0.005239 0.068197
#
#
# Mechanical properties :
#
#
# Convention : Reuss Voigt Hill
#
# Bulk Modulus (GPa) = 30.33253 52.07150 41.20201
# Shear Modulus (GPa) = 24.98198 35.52292 30.25245
#
# Velocity S-wave (km/s) = 3.26826 3.89725 3.59653
# Velocity P-wave (km/s) = 5.21645 6.52040 5.90453
#
# Compressibility (1/GPa) = 0.03296791
#
# Stress axis : x y z
#
# Youngs Moduli (GPa) = 54.04288 47.04114 111.32884
#
# Poissons Ratio (x) = 0.04844 0.69810
# Poissons Ratio (y) = 0.05566 0.06543
# Poissons Ratio (z) = 0.33888 0.02765
#
# Static dielectric constant tensor:
#      x y z
#    x 1.965070 -0.009620 0.050710 
#    y -0.009620 1.950500 -0.053950 
#    z 0.050710 -0.053950 2.010680 
# 
# From -- ./inp_files/434470.got.cif
#   From: 2010.05.17/outbox.cif.g08.bks.cpg/sg2_218_cif.got.tgz:434470.got - 2010.06.03 11:33:40.
