data_PCOD9096311
_publ_section_title
;
Structure prediction by ZEFSAII (Michael W. Deem and Ramdas Pophale) SiO2 
 PCOD9096311
Probable space group: P -1
;
_chemical_formula_sum "Si O2"
_cell_formula_units_Z 16
_cell_length_a 8.603988
_cell_length_b 11.937086
_cell_length_c 13.560733
_cell_angle_alpha 121.826612
_cell_angle_beta 60.178211
_cell_angle_gamma 140.225190
_cell_volume 746.163964
_symmetry_space_group_name_H-M "P -1"
_symmetry_group_IT_number 2
_symmetry_cell_setting 'triclinic'
loop_
_space_group_symop_operation_xyz
x,y,z
-x,-y,-z
loop_
_atom_site_type_symbol
_atom_site_label
_atom_site_fract_x
_atom_site_fract_y
_atom_site_fract_z
Si Si1 0.555288 0.908582 0.367235
Si Si2 0.662893 0.599844 0.878830
Si Si3 0.606704 0.262294 0.985107
Si Si4 0.918063 0.083640 0.996622
Si Si5 0.892999 0.551984 0.192122
Si Si6 0.992202 0.574876 0.390220
Si Si7 0.784631 0.768730 0.217987
Si Si8 0.012406 0.715805 0.655263
O O1 0.282728 0.725254 0.340690
O O2 0.703923 0.859704 0.341918
O O3 0.500000 0.000000 0.500000
O O4 0.751374 0.070384 0.304805
O O5 0.516627 0.660987 0.970550
O O6 0.454001 0.384124 0.845790
O O7 0.901809 0.710142 0.924536
O O8 0.780744 0.657227 0.758997
O O9 0.734035 0.361575 0.095734
O O10 0.824640 0.330488 0.875772
O O11 0.373815 0.047127 0.963596
O O12 0.993003 0.097278 0.866054
O O13 0.000000 0.000000 0.000000
O O14 0.826986 0.662682 0.221456
O O15 0.855895 0.530954 0.310751
O O16 0.958107 0.660447 0.531112
O O17 0.933942 0.400991 0.370616
#
# Coordination Sequence:
#
# PCOD9096311 Si02
#       8
#     2   2   2   2   2   2   2   2
#     4  10  21  39  66  91 125 165 223 274 309 369
#     4  10  20  35  65  95 126 165 217 271 319 368
#     4   9  21  40  58  90 133 170 213 256 319 402
#     4  10  21  35  61  96 125 167 217 265 316 380
#     4  10  23  41  62  90 138 177 203 259 342 390
#     4  10  22  41  66  92 127 170 217 271 322 382
#     4  11  22  40  60  95 136 171 211 271 323 392
#     4  10  21  39  65  96 123 162 228 272 312 374
#
# _framework density 21.443007000000001
#
# number of rings (size 3 to 8) (size 9 to 14) (size 15 to 20)
#    0.000    2.000    1.250    1.875    5.250    3.500 
#    2.250    5.000    0.000    0.000    0.000    0.000 
#    0.000    0.000    0.000    0.000    0.000    0.000 
#
# Total GULP energy -89271.862042 kJ/mol
# GULP energy per Si atom -5579.491378 kJ/mol
# Density = 2.139420 g / cm^3
# Si number density = 21.443007 Si / 1000 Ang^3
#
#
#
# Elastic Constant Matrix: (Units=GPa)
#
#
# Indices 1 2 3 4 5 6 
#
# 1 71.3549 14.0285 53.3613 -7.2045 6.0179 1.4637
# 2 14.0285 81.5389 6.8124 -17.0803 -4.8051 16.7310
# 3 53.3613 6.8124 108.0477 -15.2127 3.6257 -3.9939
# 4 -7.2045 -17.0803 -15.2127 21.9598 -9.7316 -5.9914
# 5 6.0179 -4.8051 3.6257 -9.7316 39.0790 -6.7817
# 6 1.4637 16.7310 -3.9939 -5.9914 -6.7817 33.6212
#
#
#
# Elastic Compliance Matrix: (Units=1/GPa)
#
#
# Indices 1 2 3 4 5 6 
#
# 1 0.024025 -0.004377 -0.012545 -0.007349 -0.005382 -0.002753
# 2 -0.004377 0.017153 0.002886 0.015248 0.005591 -0.004157
# 3 -0.012545 0.002886 0.017157 0.013372 0.004806 0.004500
# 4 -0.007349 0.015248 0.013372 0.078208 0.023497 0.012997
# 5 -0.005382 0.005591 0.004806 0.023497 0.034088 0.009086
# 6 -0.002753 -0.004157 0.004500 0.012997 0.009086 0.036615
#
#
# Mechanical properties :
#
#
# Convention : Reuss Voigt Hill
#
# Bulk Modulus (GPa) = 33.04549 45.48290 39.26419
# Shear Modulus (GPa) = 20.37448 31.38129 25.87788
#
# Velocity S-wave (km/s) = 3.08583 3.82969 3.47770
# Velocity P-wave (km/s) = 5.30478 6.38846 5.87168
#
# Compressibility (1/GPa) = 0.03026131
#
# Stress axis : x y z
#
# Youngs Moduli (GPa) = 41.62345 58.30039 58.28662
#
# Poissons Ratio (x) = 0.25518 0.73121
# Poissons Ratio (y) = 0.18218 -0.16820
# Poissons Ratio (z) = 0.52217 -0.16824
#
# Static dielectric constant tensor:
#      x y z
#    x 1.772250 0.020430 0.005700 
#    y 0.020430 1.865590 0.010700 
#    z 0.005700 0.010700 1.831990 
# 
# From -- ./inp_files/500680.got.cif
#   From: 2010.05.17/outbox.cif.g08.bks.cpg/sg2_251_cif.got.tgz:500680.got - 2010.06.03 11:33:40.
