data_PCOD9096490
_publ_section_title
;
Structure prediction by ZEFSAII (Michael W. Deem and Ramdas Pophale) SiO2 
 PCOD9096490
Probable space group: P -1
;
_chemical_formula_sum "Si O2"
_cell_formula_units_Z 16
_cell_length_a 35.332176
_cell_length_b 13.534432
_cell_length_c 20.698875
_cell_angle_alpha 154.874656
_cell_angle_beta 163.493368
_cell_angle_gamma 18.220784
_cell_volume 877.778120
_symmetry_space_group_name_H-M "P -1"
_symmetry_group_IT_number 2
_symmetry_cell_setting 'triclinic'
loop_
_space_group_symop_operation_xyz
x,y,z
-x,-y,-z
loop_
_atom_site_type_symbol
_atom_site_label
_atom_site_fract_x
_atom_site_fract_y
_atom_site_fract_z
Si Si1 0.226028 0.883672 0.859824
Si Si2 0.018429 0.218957 0.199511
Si Si3 0.616124 0.408290 0.536084
Si Si4 0.625368 0.680192 0.841330
Si Si5 0.056884 0.193026 0.628220
Si Si6 0.200301 0.270717 0.162202
Si Si7 0.420993 0.741557 0.879843
Si Si8 0.548348 0.614724 0.400481
O O1 0.101905 0.809702 0.632965
O O2 0.161125 0.044186 0.778716
O O3 0.436210 0.563491 0.021633
O O4 0.193752 0.127667 0.001810
O O5 0.021606 0.453667 0.302269
O O6 0.199153 0.960109 0.381576
O O7 0.830264 0.460272 0.071991
O O8 0.000000 0.000000 0.000000
O O9 0.632468 0.596368 0.727466
O O10 0.470005 0.409262 0.328586
O O11 0.568888 0.544151 0.467876
O O12 0.535558 0.036687 0.912706
O O13 0.214281 0.957336 0.693635
O O14 0.286130 0.418279 0.372282
O O15 0.356034 0.969902 0.283589
O O16 0.000000 0.500000 0.000000
O O17 0.447262 0.612361 0.774278
#
# Coordination Sequence:
#
# PCOD9096490 Si02
#       8
#     2   2   2   2   2   2   2   2
#     4  10  21  35  59  84 112 151 190 236 292 336
#     4   9  19  34  56  79 117 145 185 240 279 332
#     4  10  20  38  56  85 112 151 194 238 278 341
#     4   9  20  36  57  83 115 148 193 237 286 331
#     4  10  20  36  55  89 111 148 193 237 286 340
#     4  10  22  41  56  82 117 154 189 239 282 348
#     4  10  20  38  57  81 119 149 184 243 281 343
#     4  10  23  38  59  83 115 153 196 229 290 345
#
# _framework density 18.22784
#
# number of rings (size 3 to 8) (size 9 to 14) (size 15 to 20)
#    0.000    2.250    0.000    1.875    5.250    1.500 
#   11.250    2.500    0.000    0.000    0.000    0.000 
#    0.000    0.000    0.000    0.000    0.000    0.000 
#
# Total GULP energy -89179.770461 kJ/mol
# GULP energy per Si atom -5573.735654 kJ/mol
# Density = 1.818635 g / cm^3
# Si number density = 18.227840 Si / 1000 Ang^3
#
#
#
# Elastic Constant Matrix: (Units=GPa)
#
#
# Indices 1 2 3 4 5 6 
#
# 1 103.7820 45.2830 39.7692 -1.6822 -1.1540 6.0477
# 2 45.2830 99.6793 36.6679 12.5351 8.2583 -3.3368
# 3 39.7692 36.6679 77.1834 2.1522 8.3590 0.6369
# 4 -1.6822 12.5351 2.1522 34.7251 3.1417 3.6142
# 5 -1.1540 8.2583 8.3590 3.1417 56.1447 1.8740
# 6 6.0477 -3.3368 0.6369 3.6142 1.8740 14.7363
#
#
#
# Elastic Compliance Matrix: (Units=1/GPa)
#
#
# Indices 1 2 3 4 5 6 
#
# 1 0.014628 -0.005685 -0.005085 0.003757 0.001959 -0.008241
# 2 -0.005685 0.015274 -0.004037 -0.006189 -0.001673 0.007697
# 3 -0.005085 -0.004037 0.017719 0.000245 -0.002183 0.000624
# 4 0.003757 -0.006189 0.000245 0.032371 -0.000499 -0.010829
# 5 0.001959 -0.001673 -0.002183 -0.000499 0.018561 -0.003326
# 6 -0.008241 0.007697 0.000624 -0.010829 -0.003326 0.076037
#
#
# Mechanical properties :
#
#
# Convention : Reuss Voigt Hill
#
# Bulk Modulus (GPa) = 55.53569 58.23166 56.88367
# Shear Modulus (GPa) = 23.78621 31.71618 27.75119
#
# Velocity S-wave (km/s) = 3.61631 4.17584 3.90611
# Velocity P-wave (km/s) = 6.92608 7.43412 7.18459
#
# Compressibility (1/GPa) = 0.01800644
#
# Stress axis : x y z
#
# Youngs Moduli (GPa) = 68.36373 65.46900 56.43809
#
# Poissons Ratio (x) = 0.37220 0.28699
# Poissons Ratio (y) = 0.38866 0.22784
# Poissons Ratio (z) = 0.34763 0.26429
#
# Static dielectric constant tensor:
#      x y z
#    x 1.596450 -0.002900 0.016120 
#    y -0.002900 1.654020 -0.015800 
#    z 0.016120 -0.015800 1.652450 
# 
# From -- ./inp_files/406465.got.cif
#   From: 2010.05.17/outbox.cif.g08.bks.cpg/sg2_204_cif.got.tgz:406465.got - 2010.06.03 11:33:40.
