data_PCOD9096358
_publ_section_title
;
Structure prediction by ZEFSAII (Michael W. Deem and Ramdas Pophale) SiO2 
 PCOD9096358
Probable space group: P -1
;
_chemical_formula_sum "Si O2"
_cell_formula_units_Z 14
_cell_length_a 8.506761
_cell_length_b 13.031345
_cell_length_c 17.517379
_cell_angle_alpha 146.559736
_cell_angle_beta 43.581897
_cell_angle_gamma 145.421292
_cell_volume 602.982463
_symmetry_space_group_name_H-M "P -1"
_symmetry_group_IT_number 2
_symmetry_cell_setting 'triclinic'
loop_
_space_group_symop_operation_xyz
x,y,z
-x,-y,-z
loop_
_atom_site_type_symbol
_atom_site_label
_atom_site_fract_x
_atom_site_fract_y
_atom_site_fract_z
Si Si1 0.691721 0.338561 0.539544
Si Si2 0.455175 0.835891 0.844538
Si Si3 0.974015 0.199117 0.822568
Si Si4 0.370197 0.859386 0.315775
Si Si5 0.412869 0.511243 0.170143
Si Si6 0.200177 0.320294 0.648350
Si Si7 0.561085 0.891154 0.096709
O O1 0.662774 0.442121 0.691463
O O2 0.470340 0.318854 0.543983
O O3 0.000000 0.500000 0.500000
O O4 0.586548 0.077782 0.426021
O O5 0.305253 0.581520 0.766845
O O6 0.765078 0.941476 0.767225
O O7 0.300859 0.877193 0.856517
O O8 0.500000 0.000000 0.000000
O O9 0.743428 0.255622 0.930703
O O10 0.248261 0.344166 0.866629
O O11 0.084141 0.225793 0.715054
O O12 0.327017 0.627066 0.212214
O O13 0.497076 0.915755 0.220963
O O14 0.068844 0.817962 0.396619
O O15 0.309080 0.251104 0.039855
#
# Coordination Sequence:
#
# PCOD9096358 Si02
#       7
#     2   2   2   2   2   2   2
#     4  11  26  45  67  95 130 174 233 272 318 402
#     4  10  20  35  69 102 128 172 223 267 324 394
#     4   8  20  36  65  94 136 161 227 255 326 388
#     4  11  24  43  67  96 138 172 214 275 341 385
#     4  11  21  42  68  95 132 180 214 272 333 391
#     4  10  22  44  66  92 133 178 213 272 335 384
#     4   9  21  40  64 102 131 168 216 274 323 393
#
# _framework density 23.217922999999999
#
# number of rings (size 3 to 8) (size 9 to 14) (size 15 to 20)
#    0.857    1.143    0.000    3.429    6.000    1.143 
#    0.000    2.857    0.000    0.000    0.000    0.000 
#    0.000    0.000    0.000    0.000    0.000    0.000 
#
# Total GULP energy -78132.475879 kJ/mol
# GULP energy per Si atom -5580.891134 kJ/mol
# Density = 2.316508 g / cm^3
# Si number density = 23.217923 Si / 1000 Ang^3
#
#
#
# Elastic Constant Matrix: (Units=GPa)
#
#
# Indices 1 2 3 4 5 6 
#
# 1 73.6257 23.8743 12.7351 -12.0436 -19.2429 0.7107
# 2 23.8743 121.8978 56.1079 -3.2222 7.4647 9.9534
# 3 12.7351 56.1079 96.2425 7.9037 -4.0892 -17.1301
# 4 -12.0436 -3.2222 7.9037 27.8138 3.2331 0.6078
# 5 -19.2429 7.4647 -4.0892 3.2331 18.5426 1.3180
# 6 0.7107 9.9534 -17.1301 0.6078 1.3180 30.9113
#
#
#
# Elastic Compliance Matrix: (Units=1/GPa)
#
#
# Indices 1 2 3 4 5 6 
#
# 1 0.023348 -0.007094 0.001996 0.005613 0.026432 0.001616
# 2 -0.007094 0.017442 -0.012429 0.004726 -0.017116 -0.011704
# 3 0.001996 -0.012429 0.021321 -0.008383 0.012142 0.015418
# 4 0.005613 0.004726 -0.008383 0.042018 -0.004760 -0.006919
# 5 0.026432 -0.017116 0.012142 -0.004760 0.091202 0.007837
# 6 0.001616 -0.011704 0.015418 -0.006919 0.007837 0.044428
#
#
# Mechanical properties :
#
#
# Convention : Reuss Voigt Hill
#
# Bulk Modulus (GPa) = 36.95738 53.02228 44.98983
# Shear Modulus (GPa) = 17.61609 28.72347 23.16978
#
# Velocity S-wave (km/s) = 2.75749 3.52109 3.16242
# Velocity P-wave (km/s) = 5.10789 6.27831 5.72310
#
# Compressibility (1/GPa) = 0.02705819
#
# Stress axis : x y z
#
# Youngs Moduli (GPa) = 42.82978 57.33173 46.90308
#
# Poissons Ratio (x) = 0.40669 -0.09360
# Poissons Ratio (y) = 0.30382 0.58294
# Poissons Ratio (z) = -0.08548 0.71255
#
# Static dielectric constant tensor:
#      x y z
#    x 1.928550 0.009020 -0.023080 
#    y 0.009020 1.923720 0.044650 
#    z -0.023080 0.044650 1.878630 
# 
# From -- ./inp_files/558662.got.cif
#   From: 2010.05.17/outbox.cif.g08.bks.cpg/sg2_280_cif.got.tgz:558662.got - 2010.06.03 11:33:40.
