data_PCOD9096882
_publ_section_title
;
Structure prediction by ZEFSAII (Michael W. Deem and Ramdas Pophale) SiO2 
 PCOD9096882
Probable space group: P -1
;
_chemical_formula_sum "Si O2"
_cell_formula_units_Z 14
_cell_length_a 18.761077
_cell_length_b 12.729915
_cell_length_c 12.670786
_cell_angle_alpha 37.554875
_cell_angle_beta 151.552738
_cell_angle_gamma 154.009823
_cell_volume 631.644069
_symmetry_space_group_name_H-M "P -1"
_symmetry_group_IT_number 2
_symmetry_cell_setting 'triclinic'
loop_
_space_group_symop_operation_xyz
x,y,z
-x,-y,-z
loop_
_atom_site_type_symbol
_atom_site_label
_atom_site_fract_x
_atom_site_fract_y
_atom_site_fract_z
Si Si1 0.367313 0.970821 0.495798
Si Si2 0.090679 0.282269 0.854274
Si Si3 0.372534 0.636951 0.644341
Si Si4 0.570281 0.817260 0.277337
Si Si5 0.582497 0.169988 0.129631
Si Si6 0.216531 0.184997 0.882586
Si Si7 0.820426 0.705104 0.796647
O O1 0.298296 0.762106 0.492022
O O2 0.497653 0.986821 0.745683
O O3 0.155272 0.880536 0.336583
O O4 0.508663 0.223455 0.419869
O O5 0.216859 0.561438 0.789305
O O6 0.168409 0.232813 0.896312
O O7 0.148695 0.257835 0.065748
O O8 0.217185 0.350017 0.673288
O O9 0.557841 0.720666 0.896356
O O10 0.703199 0.774320 0.537839
O O11 0.331110 0.579765 0.187272
O O12 0.642091 0.058832 0.220322
O O13 0.564188 0.825272 0.135664
O O14 0.044692 0.897857 0.880204
#
# Coordination Sequence:
#
# PCOD9096882 Si02
#       7
#     2   2   2   2   2   2   2
#     4  11  21  39  57  94 119 155 186 249 300 358
#     4  11  21  34  64  94 113 149 198 250 298 341
#     4  10  24  36  56  90 130 154 180 226 338 346
#     4   9  21  36  56  90 111 161 196 254 278 315
#     4  10  20  36  58  86 119 146 202 246 280 346
#     4  11  21  39  57  94 119 155 186 249 300 358
#     4  10  20  36  58  86 119 146 202 246 280 346
#
# _framework density 22.164382
#
# number of rings (size 3 to 8) (size 9 to 14) (size 15 to 20)
#    0.000    1.714    2.857    1.714    4.000    0.000 
#    0.000    0.000    0.000    5.143    0.000    0.000 
#    0.000    0.000    0.000    0.000    0.000    0.000 
#
# Total GULP energy -78096.862036 kJ/mol
# GULP energy per Si atom -5578.347288 kJ/mol
# Density = 2.211393 g / cm^3
# Si number density = 22.164382 Si / 1000 Ang^3
#
#
#
# Elastic Constant Matrix: (Units=GPa)
#
#
# Indices 1 2 3 4 5 6 
#
# 1 44.5083 0.8684 18.4218 -1.7912 -0.7701 8.2483
# 2 0.8684 80.0800 6.3180 -18.2349 -1.5267 9.3312
# 3 18.4218 6.3180 88.5782 -18.1636 -27.0637 12.0029
# 4 -1.7912 -18.2349 -18.1636 33.3036 10.2021 -7.6144
# 5 -0.7701 -1.5267 -27.0637 10.2021 43.9821 -11.7048
# 6 8.2483 9.3312 12.0029 -7.6144 -11.7048 25.8138
#
#
#
# Elastic Compliance Matrix: (Units=1/GPa)
#
#
# Indices 1 2 3 4 5 6 
#
# 1 0.026569 0.000663 -0.006441 -0.002094 -0.005322 -0.008765
# 2 0.000663 0.014740 0.000345 0.007993 -0.002283 -0.004378
# 3 -0.006441 0.000345 0.016511 0.006206 0.008618 -0.000006
# 4 -0.002094 0.007993 0.006206 0.039998 -0.003909 0.004920
# 5 -0.005322 -0.002283 0.008618 -0.003909 0.031925 0.011842
# 6 -0.008765 -0.004378 -0.000006 0.004920 0.011842 0.049946
#
#
# Mechanical properties :
#
#
# Convention : Reuss Voigt Hill
#
# Bulk Modulus (GPa) = 21.29707 29.37587 25.33647
# Shear Modulus (GPa) = 24.24794 33.12380 28.68587
#
# Velocity S-wave (km/s) = 3.31116 3.87002 3.60145
# Velocity P-wave (km/s) = 4.92422 5.76644 5.36189
#
# Compressibility (1/GPa) = 0.04695482
#
# Stress axis : x y z
#
# Youngs Moduli (GPa) = 37.63851 67.84360 60.56676
#
# Poissons Ratio (x) = -0.04498 0.39008
# Poissons Ratio (y) = -0.02495 -0.02092
# Poissons Ratio (z) = 0.24241 -0.02343
#
# Static dielectric constant tensor:
#      x y z
#    x 1.815610 -0.006690 -0.035290 
#    y -0.006690 1.889570 -0.015090 
#    z -0.035290 -0.015090 1.853490 
# 
# From -- ./inp_files/154714.got.cif
#   From: 2010.05.17/outbox.cif.g08.bks.cpg/sg2_78_cif.got.tgz:154714.got - 2010.06.03 11:33:40.
