data_PCOD9096883
_publ_section_title
;
Structure prediction by ZEFSAII (Michael W. Deem and Ramdas Pophale) SiO2 
 PCOD9096883
Probable space group: P -1
;
_chemical_formula_sum "Si O2"
_cell_formula_units_Z 14
_cell_length_a 5.306457
_cell_length_b 24.552001
_cell_length_c 8.162108
_cell_angle_alpha 147.539003
_cell_angle_beta 118.483098
_cell_angle_gamma 65.443982
_cell_volume 501.468992
_symmetry_space_group_name_H-M "P -1"
_symmetry_group_IT_number 2
_symmetry_cell_setting 'triclinic'
loop_
_space_group_symop_operation_xyz
x,y,z
-x,-y,-z
loop_
_atom_site_type_symbol
_atom_site_label
_atom_site_fract_x
_atom_site_fract_y
_atom_site_fract_z
Si Si1 0.391592 0.405248 0.952130
Si Si2 0.502953 0.814102 0.624204
Si Si3 0.906324 0.402574 0.318434
Si Si4 0.058156 0.188563 0.770369
Si Si5 0.907680 0.162884 0.034871
Si Si6 0.256798 0.999355 0.210489
Si Si7 0.778342 0.379739 0.594868
O O1 0.508702 0.306278 0.633435
O O2 0.051416 0.392386 0.830167
O O3 0.572050 0.391469 0.138292
O O4 0.429751 0.521635 0.200291
O O5 0.256217 0.831381 0.457465
O O6 0.839653 0.821095 0.710719
O O7 0.465216 0.912790 0.979646
O O8 0.919083 0.399855 0.509702
O O9 0.000000 0.500000 0.500000
O O10 0.088536 0.307723 0.063373
O O11 0.025329 0.169907 0.906182
O O12 0.288425 0.116693 0.565694
O O13 0.701528 0.261393 0.254779
O O14 0.811225 0.051781 0.765988
O O15 0.000000 0.000000 0.000000
#
# Coordination Sequence:
#
# PCOD9096883 Si02
#       7
#     2   2   2   2   2   2   2
#     4   9  18  38  57  82 118 153 190 236 288 349
#     4   9  20  39  61  86 120 153 193 244 289 349
#     4  10  20  36  58  86 119 151 190 243 288 346
#     4   9  20  39  59  85 119 153 196 238 291 351
#     4  10  20  39  62  84 120 155 194 240 297 347
#     4  10  21  39  61  88 118 151 198 246 288 351
#     4   9  19  37  58  85 114 155 196 232 292 352
#
# _framework density 27.917975999999999
#
# number of rings (size 3 to 8) (size 9 to 14) (size 15 to 20)
#    0.000    2.571    0.000    0.857    0.000    3.429 
#   30.857    2.857    3.143    0.000    0.000    0.000 
#    0.000    0.000    0.000    0.000    0.000    0.000 
#
# Total GULP energy -78192.376387 kJ/mol
# GULP energy per Si atom -5585.169742 kJ/mol
# Density = 2.785443 g / cm^3
# Si number density = 27.917976 Si / 1000 Ang^3
#
#
#
# Elastic Constant Matrix: (Units=GPa)
#
#
# Indices 1 2 3 4 5 6 
#
# 1 44.0516 40.8212 29.4947 9.4251 -10.7866 -7.3057
# 2 40.8212 135.0143 57.4101 31.5784 -5.9549 -29.3266
# 3 29.4947 57.4101 187.0275 56.9069 -29.4535 0.5186
# 4 9.4251 31.5784 56.9069 65.3882 -15.8895 6.8045
# 5 -10.7866 -5.9549 -29.4535 -15.8895 32.8215 -0.0229
# 6 -7.3057 -29.3266 0.5186 6.8045 -0.0229 48.3226
#
#
#
# Elastic Compliance Matrix: (Units=1/GPa)
#
#
# Indices 1 2 3 4 5 6 
#
# 1 0.035257 -0.010812 -0.002044 0.004537 0.009986 -0.001843
# 2 -0.010812 0.014285 -0.001739 -0.005961 -0.005402 0.007890
# 3 -0.002044 -0.001739 0.008402 -0.005111 0.004078 -0.000733
# 4 0.004537 -0.005961 -0.005111 0.024489 0.007674 -0.006321
# 5 0.009986 -0.005402 0.004078 0.007674 0.040142 -0.002874
# 6 -0.001843 0.007890 -0.000733 -0.006321 -0.002874 0.026101
#
#
# Mechanical properties :
#
#
# Convention : Reuss Voigt Hill
#
# Bulk Modulus (GPa) = 34.77674 69.06061 51.91868
# Shear Modulus (GPa) = 26.67387 45.19761 35.93574
#
# Velocity S-wave (km/s) = 3.09437 4.02797 3.59164
# Velocity P-wave (km/s) = 5.02500 6.81347 5.98640
#
# Compressibility (1/GPa) = 0.02875485
#
# Stress axis : x y z
#
# Youngs Moduli (GPa) = 28.36311 70.00566 119.01668
#
# Poissons Ratio (x) = 0.75689 0.24327
# Poissons Ratio (y) = 0.30666 0.20693
# Poissons Ratio (z) = 0.05797 0.12172
#
# Static dielectric constant tensor:
#      x y z
#    x 2.279730 -0.015920 0.017470 
#    y -0.015920 2.105770 0.023680 
#    z 0.017470 0.023680 2.227500 
# 
# From -- ./inp_files/137490.got.cif
#   From: 2010.05.17/outbox.cif.g08.bks.cpg/sg2_69_cif.got.tgz:137490.got - 2010.06.03 11:33:40.
