data_PCOD9096342
_publ_section_title
;
Structure prediction by ZEFSAII (Michael W. Deem and Ramdas Pophale) SiO2 
 PCOD9096342
Probable space group: P -1
;
_chemical_formula_sum "Si O2"
_cell_formula_units_Z 12
_cell_length_a 15.362737
_cell_length_b 11.980857
_cell_length_c 8.250260
_cell_angle_alpha 144.354537
_cell_angle_beta 46.378301
_cell_angle_gamma 151.622958
_cell_volume 418.862458
_symmetry_space_group_name_H-M "P -1"
_symmetry_group_IT_number 2
_symmetry_cell_setting 'triclinic'
loop_
_space_group_symop_operation_xyz
x,y,z
-x,-y,-z
loop_
_atom_site_type_symbol
_atom_site_label
_atom_site_fract_x
_atom_site_fract_y
_atom_site_fract_z
Si Si1 0.155309 0.696970 0.170523
Si Si2 0.290892 0.842147 0.707521
Si Si3 0.314732 0.502264 0.075066
Si Si4 0.536655 0.274276 0.437929
Si Si5 0.791555 0.994816 0.240107
Si Si6 0.803278 0.697301 0.340243
O O1 0.095379 0.760832 0.473217
O O2 0.362621 0.014520 0.239915
O O3 0.191626 0.522456 0.962287
O O4 0.000000 0.500000 0.000000
O O5 0.262689 0.653361 0.376643
O O6 0.335893 0.746621 0.683286
O O7 0.477090 0.194020 0.884049
O O8 0.161284 0.857089 0.820448
O O9 0.223257 0.251812 0.033135
O O10 0.249840 0.297463 0.762227
O O11 0.419688 0.206826 0.663974
O O12 0.662513 0.559988 0.504602
O O13 0.000000 0.000000 0.500000
#
# Coordination Sequence:
#
# PCOD9096342 Si02
#       6
#     2   2   2   2   2   2
#     4  10  20  39  62  92 131 163 209 264 313 382
#     4  11  19  38  66  96 128 164 213 263 324 385
#     4  11  19  37  64  94 128 169 205 266 320 381
#     4  10  22  40  65  96 127 171 214 261 323 379
#     4  10  20  35  67  96 127 161 218 256 323 382
#     4  12  24  41  63  94 133 175 213 267 318 372
#
# _framework density 28.649021999999999
#
# number of rings (size 3 to 8) (size 9 to 14) (size 15 to 20)
#    1.000    0.333    6.667    2.000    0.000    0.667 
#    0.000    0.833    0.000    2.000    0.000    1.167 
#    0.000    0.000    0.000    0.000    0.000    0.000 
#
# Total GULP energy -66860.231827 kJ/mol
# GULP energy per Si atom -5571.685986 kJ/mol
# Density = 2.858382 g / cm^3
# Si number density = 28.649022 Si / 1000 Ang^3
#
#
#
# Elastic Constant Matrix: (Units=GPa)
#
#
# Indices 1 2 3 4 5 6 
#
# 1 90.7765 25.2339 28.3884 7.1180 23.0396 -0.5902
# 2 25.2339 136.5960 29.7163 6.6612 0.0507 17.5764
# 3 28.3884 29.7163 136.5134 25.6373 3.0513 3.2500
# 4 7.1180 6.6612 25.6373 47.3221 -8.1272 -2.2683
# 5 23.0396 0.0507 3.0513 -8.1272 54.0184 18.6672
# 6 -0.5902 17.5764 3.2500 -2.2683 18.6672 39.5519
#
#
#
# Elastic Compliance Matrix: (Units=1/GPa)
#
#
# Indices 1 2 3 4 5 6 
#
# 1 0.014766 -0.002901 -0.002029 -0.001887 -0.008372 0.005519
# 2 -0.002901 0.008816 -0.001294 0.000186 0.003177 -0.005343
# 3 -0.002029 -0.001294 0.008860 -0.004358 -0.000167 -0.000354
# 4 -0.001887 0.000186 -0.004358 0.024574 0.004989 -0.000698
# 5 -0.008372 0.003177 -0.000167 0.004989 0.027802 -0.014358
# 6 0.005519 -0.005343 -0.000354 -0.000698 -0.014358 0.034506
#
#
# Mechanical properties :
#
#
# Convention : Reuss Voigt Hill
#
# Bulk Modulus (GPa) = 50.02149 58.95143 54.48646
# Shear Modulus (GPa) = 36.11780 46.88163 41.49971
#
# Velocity S-wave (km/s) = 3.55448 4.04965 3.81012
# Velocity P-wave (km/s) = 5.86036 6.51828 6.19806
#
# Compressibility (1/GPa) = 0.01999141
#
# Stress axis : x y z
#
# Youngs Moduli (GPa) = 67.72446 113.43369 112.87172
#
# Poissons Ratio (x) = 0.32912 0.22901
# Poissons Ratio (y) = 0.19650 0.14610
# Poissons Ratio (z) = 0.13741 0.14683
#
# Static dielectric constant tensor:
#      x y z
#    x 2.798550 -0.094880 0.141880 
#    y -0.094880 2.330830 -0.018470 
#    z 0.141880 -0.018470 2.210220 
# 
# From -- ./inp_files/330484.got.cif
#   From: 2010.05.17/outbox.cif.g08.bks.cpg/sg2_166_cif.got.tgz:330484.got - 2010.06.03 11:33:40.
