data_PCOD9096114
_publ_section_title
;
Structure prediction by ZEFSAII (Michael W. Deem and Ramdas Pophale) SiO2 
 PCOD9096114
Probable space group: P -1
;
_chemical_formula_sum "Si O2"
_cell_formula_units_Z 14
_cell_length_a 17.772097
_cell_length_b 13.539120
_cell_length_c 25.497867
_cell_angle_alpha 23.834286
_cell_angle_beta 17.196002
_cell_angle_gamma 24.465830
_cell_volume 698.148543
_symmetry_space_group_name_H-M "P -1"
_symmetry_group_IT_number 2
_symmetry_cell_setting 'triclinic'
loop_
_space_group_symop_operation_xyz
x,y,z
-x,-y,-z
loop_
_atom_site_type_symbol
_atom_site_label
_atom_site_fract_x
_atom_site_fract_y
_atom_site_fract_z
Si Si1 0.044378 0.011032 0.050677
Si Si2 0.712844 0.201267 0.907760
Si Si3 0.858547 0.787772 0.682222
Si Si4 0.562543 0.196761 0.202045
Si Si5 0.083220 0.085431 0.532689
Si Si6 0.972426 0.561897 0.823839
Si Si7 0.608175 0.192142 0.868759
O O1 0.125921 0.272905 0.876970
O O2 0.257729 0.828990 0.957536
O O3 0.764793 0.089997 0.167080
O O4 0.057098 0.888548 0.158816
O O5 0.617209 0.508588 0.816015
O O6 0.756539 0.086672 0.875892
O O7 0.456671 0.130678 0.135856
O O8 0.902764 0.755711 0.606570
O O9 0.971319 0.570926 0.756593
O O10 0.000000 0.000000 0.500000
O O11 0.353288 0.042446 0.406100
O O12 0.829274 0.244427 0.658705
O O13 0.056238 0.805624 0.670289
O O14 0.670530 0.608187 0.023933
O O15 0.500000 0.000000 0.000000
#
# Coordination Sequence:
#
# PCOD9096114 Si02
#       7
#     2   2   2   2   2   2   2
#     4  11  22  38  63  87 123 158 198 246 296 353
#     4  11  21  40  62  86 120 167 193 237 310 353
#     4   9  17  34  59  88 112 150 204 243 286 348
#     4  11  23  37  61  90 124 155 200 242 301 354
#     4  10  20  35  62  90 119 155 202 246 295 349
#     4   9  19  39  61  87 119 155 202 247 296 350
#     4   9  19  39  64  84 120 161 198 242 298 356
#
# _framework density 20.053039999999999
#
# number of rings (size 3 to 8) (size 9 to 14) (size 15 to 20)
#    0.000    2.000    4.286    1.286    0.000    1.143 
#    0.000    3.571    9.429    0.000    0.000    0.000 
#    0.000    0.000    0.000    0.000    0.000    0.000 
#
# Total GULP energy -77971.817130 kJ/mol
# GULP energy per Si atom -5569.415509 kJ/mol
# Density = 2.000740 g / cm^3
# Si number density = 20.053040 Si / 1000 Ang^3
#
#
#
# Elastic Constant Matrix: (Units=GPa)
#
#
# Indices 1 2 3 4 5 6 
#
# 1 152.8124 40.4258 35.7147 3.4347 8.5466 -2.5723
# 2 40.4258 49.6011 4.7261 -12.2527 -0.4333 -3.2661
# 3 35.7147 4.7261 79.1050 11.9470 4.2125 9.2369
# 4 3.4347 -12.2527 11.9470 12.5676 7.6859 -0.0120
# 5 8.5466 -0.4333 4.2125 7.6859 40.6675 1.3061
# 6 -2.5723 -3.2661 9.2369 -0.0120 1.3061 28.3596
#
#
#
# Elastic Compliance Matrix: (Units=1/GPa)
#
#
# Indices 1 2 3 4 5 6 
#
# 1 0.010207 -0.010833 -0.002326 -0.011190 0.000081 0.000427
# 2 -0.010833 0.044058 -0.006711 0.056903 -0.007527 0.006648
# 3 -0.002326 -0.006711 0.018648 -0.025845 0.003602 -0.007235
# 4 -0.011190 0.056903 -0.025845 0.180395 -0.028952 0.015366
# 5 0.000081 -0.007527 0.003602 -0.028952 0.029700 -0.003413
# 6 0.000427 0.006648 -0.007235 0.015366 -0.003413 0.038586
#
#
# Mechanical properties :
#
#
# Convention : Reuss Voigt Hill
#
# Bulk Modulus (GPa) = 30.14289 49.25020 39.69654
# Shear Modulus (GPa) = 13.42672 29.69574 21.56123
#
# Velocity S-wave (km/s) = 2.59039 3.85237 3.28260
# Velocity P-wave (km/s) = 4.90011 6.66340 5.84859
#
# Compressibility (1/GPa) = 0.03317532
#
# Stress axis : x y z
#
# Youngs Moduli (GPa) = 97.96766 22.69743 53.62381
#
# Poissons Ratio (x) = 0.24588 0.12470
# Poissons Ratio (y) = 1.06129 0.35985
# Poissons Ratio (z) = 0.22783 0.15232
#
# Static dielectric constant tensor:
#      x y z
#    x 1.780370 0.010130 -0.025300 
#    y 0.010130 1.715080 0.001950 
#    z -0.025300 0.001950 1.736040 
# 
# From -- ./inp_files/187694.got.cif
#   From: 2010.05.17/outbox.cif.g08.bks.cpg/sg2_94_cif.got.tgz:187694.got - 2010.06.03 11:33:40.
