data_PCOD9096529
_publ_section_title
;
Structure prediction by ZEFSAII (Michael W. Deem and Ramdas Pophale) SiO2 
 PCOD9096529
Probable space group: P -1
;
_chemical_formula_sum "Si O2"
_cell_formula_units_Z 14
_cell_length_a 7.761874
_cell_length_b 18.715347
_cell_length_c 20.168940
_cell_angle_alpha 19.173950
_cell_angle_beta 54.973986
_cell_angle_gamma 45.138515
_cell_volume 626.156011
_symmetry_space_group_name_H-M "P -1"
_symmetry_group_IT_number 2
_symmetry_cell_setting 'triclinic'
loop_
_space_group_symop_operation_xyz
x,y,z
-x,-y,-z
loop_
_atom_site_type_symbol
_atom_site_label
_atom_site_fract_x
_atom_site_fract_y
_atom_site_fract_z
Si Si1 0.353404 0.800843 0.972583
Si Si2 0.119088 0.059783 0.536848
Si Si3 0.393336 0.212830 0.689817
Si Si4 0.274092 0.414501 0.164353
Si Si5 0.973787 0.013466 0.756110
Si Si6 0.819501 0.405735 0.118239
Si Si7 0.084342 0.700947 0.224633
O O1 0.118728 0.025196 0.777408
O O2 0.428138 0.963934 0.858551
O O3 0.602385 0.563065 0.084351
O O4 0.248646 0.655123 0.163257
O O5 0.435618 0.823502 0.664855
O O6 0.027932 0.102166 0.596356
O O7 0.011117 0.921601 0.641187
O O8 0.086451 0.320781 0.288454
O O9 0.260937 0.471397 0.442572
O O10 0.182133 0.276791 0.737135
O O11 0.665826 0.145222 0.714589
O O12 0.126814 0.689807 0.996600
O O13 0.314978 0.473131 0.029852
O O14 0.000000 0.500000 0.000000
O O15 0.000000 0.000000 0.000000
#
# Coordination Sequence:
#
# PCOD9096529 Si02
#       7
#     2   2   2   2   2   2   2
#     4  11  21  38  63  90 119 155 202 249 294 356
#     4  10  20  36  56  81 121 165 193 236 293 338
#     4  10  23  42  63  88 116 155 194 250 313 357
#     4  10  20  37  55  80 124 162 194 237 288 344
#     4  11  21  38  63  91 122 156 205 247 292 356
#     4  11  21  35  55  85 123 158 202 247 284 350
#     4   9  22  45  64  83 121 152 190 254 310 362
#
# _framework density 22.358644999999999
#
# number of rings (size 3 to 8) (size 9 to 14) (size 15 to 20)
#    0.000    1.714    2.857    2.571    0.000    6.857 
#    0.000    6.429    0.000    0.000    0.000    0.000 
#    0.000    0.000    0.000    0.000    0.000    0.000 
#
# Total GULP energy -78144.429340 kJ/mol
# GULP energy per Si atom -5581.744953 kJ/mol
# Density = 2.230776 g / cm^3
# Si number density = 22.358645 Si / 1000 Ang^3
#
#
#
# Elastic Constant Matrix: (Units=GPa)
#
#
# Indices 1 2 3 4 5 6 
#
# 1 74.3104 14.3559 1.9036 6.5819 -2.1035 -17.1253
# 2 14.3559 104.0138 18.9918 33.2714 -4.1286 -26.0066
# 3 1.9036 18.9918 74.0773 24.4075 -19.4413 -5.5036
# 4 6.5819 33.2714 24.4075 33.8105 -9.8951 -2.5167
# 5 -2.1035 -4.1286 -19.4413 -9.8951 35.5075 -3.9942
# 6 -17.1253 -26.0066 -5.5036 -2.5167 -3.9942 35.1864
#
#
#
# Elastic Compliance Matrix: (Units=1/GPa)
#
#
# Indices 1 2 3 4 5 6 
#
# 1 0.015611 0.001100 0.001848 -0.004276 0.001841 0.008603
# 2 0.001100 0.018449 0.002486 -0.019280 -0.000323 0.013145
# 3 0.001848 0.002486 0.020149 -0.014577 0.008016 0.005756
# 4 -0.004276 -0.019280 -0.014577 0.060278 0.004774 -0.013758
# 5 0.001841 -0.000323 0.008016 0.004774 0.034650 0.006186
# 6 0.008603 0.013145 0.005756 -0.013758 0.006186 0.042941
#
#
# Mechanical properties :
#
#
# Convention : Reuss Voigt Hill
#
# Bulk Modulus (GPa) = 15.36635 35.87824 25.62230
# Shear Modulus (GPa) = 24.64251 35.37755 30.01003
#
# Velocity S-wave (km/s) = 3.32346 3.98210 3.66760
# Velocity P-wave (km/s) = 4.64917 6.10118 5.42398
#
# Compressibility (1/GPa) = 0.06507724
#
# Stress axis : x y z
#
# Youngs Moduli (GPa) = 64.05872 54.20264 49.63057
#
# Poissons Ratio (x) = -0.05962 -0.09172
# Poissons Ratio (y) = -0.07046 -0.12339
# Poissons Ratio (z) = -0.11839 -0.13476
#
# Static dielectric constant tensor:
#      x y z
#    x 1.949730 0.006410 -0.005310 
#    y 0.006410 1.856710 -0.000670 
#    z -0.005310 -0.000670 1.858160 
# 
# From -- ./inp_files/591441.got.cif
#   From: 2010.05.17/outbox.cif.g08.bks.cpg/sg2_296_cif.got.tgz:591441.got - 2010.06.03 11:33:40.
