data_PCOD9096402
_publ_section_title
;
Structure prediction by ZEFSAII (Michael W. Deem and Ramdas Pophale) SiO2 
 PCOD9096402
Probable space group: P -1
;
_chemical_formula_sum "Si O2"
_cell_formula_units_Z 16
_cell_length_a 11.928650
_cell_length_b 15.676009
_cell_length_c 7.985876
_cell_angle_alpha 132.723788
_cell_angle_beta 105.906873
_cell_angle_gamma 113.343068
_cell_volume 597.707400
_symmetry_space_group_name_H-M "P -1"
_symmetry_group_IT_number 2
_symmetry_cell_setting 'triclinic'
loop_
_space_group_symop_operation_xyz
x,y,z
-x,-y,-z
loop_
_atom_site_type_symbol
_atom_site_label
_atom_site_fract_x
_atom_site_fract_y
_atom_site_fract_z
Si Si1 0.084243 0.324622 0.513388
Si Si2 0.495960 0.239341 0.710618
Si Si3 0.729050 0.739192 0.381576
Si Si4 0.735250 0.713318 0.952885
Si Si5 0.407206 0.918537 0.588285
Si Si6 0.814420 0.305269 0.471341
Si Si7 0.144775 0.430147 0.292316
Si Si8 0.605386 0.836984 0.059377
O O1 0.113535 0.210732 0.383119
O O2 0.091109 0.381895 0.403481
O O3 0.912332 0.257364 0.446089
O O4 0.292298 0.538161 0.975313
O O5 0.301987 0.148941 0.434307
O O6 0.531786 0.131070 0.583556
O O7 0.478171 0.267526 0.931009
O O8 0.500000 0.500000 0.000000
O O9 0.763357 0.744902 0.206039
O O10 0.500000 0.500000 0.500000
O O11 0.877835 0.723767 0.969518
O O12 0.762600 0.868278 0.104972
O O13 0.283382 0.754347 0.467530
O O14 0.307535 0.964601 0.599215
O O15 0.631096 0.137995 0.041815
O O16 0.949899 0.527128 0.762835
O O17 0.386089 0.649713 0.625101
#
# Coordination Sequence:
#
# PCOD9096402 Si02
#       8
#     2   2   2   2   2   2   2   2
#     4  10  20  37  55  84 112 141 184 240 277 317
#     4   9  18  33  58  81 106 144 183 226 277 328
#     4   9  18  31  53  84 113 137 178 232 276 321
#     4   9  16  30  54  82 110 142 181 227 270 324
#     4  10  20  36  54  80 110 152 183 221 271 344
#     4  10  22  36  54  79 115 145 186 230 277 326
#     4   9  18  33  54  80 108 145 183 230 279 320
#     4   8  16  32  54  80 106 141 185 221 270 330
#
# _framework density 26.768948999999999
#
# number of rings (size 3 to 8) (size 9 to 14) (size 15 to 20)
#    0.000    2.750    0.000    3.000    3.500    0.500 
#    4.500    0.625    0.000    1.500    0.000    0.000 
#    0.000    0.000    0.000    0.000    0.000    0.000 
#
# Total GULP energy -89096.886333 kJ/mol
# GULP energy per Si atom -5568.555396 kJ/mol
# Density = 2.670802 g / cm^3
# Si number density = 26.768949 Si / 1000 Ang^3
#
#
#
# Elastic Constant Matrix: (Units=GPa)
#
#
# Indices 1 2 3 4 5 6 
#
# 1 117.5862 -73.2517 42.6304 46.8296 -51.9435 -36.4726
# 2 -73.2517 -102.0554 33.0543 60.9111 -22.8918 -17.4828
# 3 42.6304 33.0543 23.6300 -10.8405 0.8432 1.2574
# 4 46.8296 60.9111 -10.8405 -6.2851 1.4836 -4.8774
# 5 -51.9435 -22.8918 0.8432 1.4836 34.8001 5.0404
# 6 -36.4726 -17.4828 1.2574 -4.8774 5.0404 49.7931
#
#
#
# Elastic Compliance Matrix: (Units=1/GPa)
#
#
# Indices 1 2 3 4 5 6 
#
# 1 0.008311 -0.006453 -0.004025 0.005241 0.007501 0.003677
# 2 -0.006453 0.008148 0.007828 0.016134 -0.005155 0.000039
# 3 -0.004025 0.007828 0.033742 -0.010963 -0.000914 -0.002033
# 4 0.005241 0.016134 -0.010963 0.048569 0.014741 0.013046
# 5 0.007501 -0.005155 -0.000914 0.014741 0.035712 0.001536
# 6 0.003677 0.000039 -0.002033 0.013046 0.001536 0.023964
#
#
# Mechanical properties :
#
#
# Convention : Reuss Voigt Hill
#
# Bulk Modulus (GPa) = 22.27160 4.89186 13.58173
# Shear Modulus (GPa) = 27.97790 18.11013 23.04401
#
# Velocity S-wave (km/s) = 3.23640 2.60385 2.93721
# Velocity P-wave (km/s) = 4.72268 3.29719 4.07279
#
# Compressibility (1/GPa) = 0.04490023
#
# Stress axis : x y z
#
# Youngs Moduli (GPa) = 120.32876 122.73061 29.63652
#
# Poissons Ratio (x) = 0.79200 0.11929
# Poissons Ratio (y) = 0.77650 -0.23199
# Poissons Ratio (z) = 0.48433 -0.96074
#
# Static dielectric constant tensor:
#      x y z
#    x 2.271690 -0.189880 0.026420 
#    y -0.189880 2.130990 0.045710 
#    z 0.026420 0.045710 2.192930 
# 
# From -- ./inp_files/278525.got.cif
#   From: 2010.05.17/outbox.cif.g08.bks.cpg/sg2_140_cif.got.tgz:278525.got - 2010.06.03 11:33:40.
