data_PCOD9096078
_publ_section_title
;
Structure prediction by ZEFSAII (Michael W. Deem and Ramdas Pophale) SiO2 
 PCOD9096078
Probable space group: P -1
;
_chemical_formula_sum "Si O2"
_cell_formula_units_Z 16
_cell_length_a 9.436432
_cell_length_b 13.312493
_cell_length_c 9.656596
_cell_angle_alpha 50.433131
_cell_angle_beta 73.680314
_cell_angle_gamma 57.732672
_cell_volume 787.474054
_symmetry_space_group_name_H-M "P -1"
_symmetry_group_IT_number 2
_symmetry_cell_setting 'triclinic'
loop_
_space_group_symop_operation_xyz
x,y,z
-x,-y,-z
loop_
_atom_site_type_symbol
_atom_site_label
_atom_site_fract_x
_atom_site_fract_y
_atom_site_fract_z
Si Si1 0.549806 0.317293 0.868134
Si Si2 0.302272 0.084902 0.433186
Si Si3 0.194273 0.478482 0.808098
Si Si4 0.762025 0.144034 0.201699
Si Si5 0.491145 0.391095 0.265946
Si Si6 0.096597 0.027211 0.320218
Si Si7 0.163507 0.438141 0.172547
Si Si8 0.305705 0.703830 0.447137
O O1 0.370842 0.328168 0.873493
O O2 0.495667 0.458878 0.859887
O O3 0.628207 0.339872 0.687058
O O4 0.683553 0.182388 0.037842
O O5 0.239209 0.057415 0.324247
O O6 0.227596 0.260990 0.304302
O O7 0.500000 0.000000 0.500000
O O8 0.220340 0.014710 0.621868
O O9 0.221079 0.608781 0.615911
O O10 0.027452 0.482154 0.792537
O O11 0.163224 0.498432 0.964918
O O12 0.625458 0.263658 0.241194
O O13 0.937257 0.146865 0.171742
O O14 0.302646 0.445146 0.223228
O O15 0.541826 0.326634 0.462956
O O16 0.182686 0.877818 0.339506
O O17 0.000000 0.000000 0.500000
#
# Coordination Sequence:
#
# PCOD9096078 Si02
#       8
#     2   2   2   2   2   2   2   2
#     4  11  24  38  60  87 123 158 191 242 302 350
#     4  11  19  34  56  89 118 149 190 247 291 336
#     4  10  21  37  57  88 119 151 195 246 292 342
#     4  11  21  36  61  89 120 147 203 246 283 345
#     4  11  20  37  60  91 114 154 197 247 288 345
#     4  10  20  35  62  86 112 150 200 248 281 340
#     4  11  22  33  61  92 118 148 202 248 289 340
#     4  11  22  41  61  86 120 156 194 242 306 344
#
# _framework density 20.318128999999999
#
# number of rings (size 3 to 8) (size 9 to 14) (size 15 to 20)
#    0.000    1.250    5.000    3.375    3.500    1.500 
#    0.000    2.500    0.000    8.250    0.000    0.000 
#    0.000    0.000    0.000    0.000    0.000    0.000 
#
# Total GULP energy -89190.242808 kJ/mol
# GULP energy per Si atom -5574.390175 kJ/mol
# Density = 2.027188 g / cm^3
# Si number density = 20.318129 Si / 1000 Ang^3
#
#
#
# Elastic Constant Matrix: (Units=GPa)
#
#
# Indices 1 2 3 4 5 6 
#
# 1 171.7271 21.7525 37.9057 3.3241 26.9391 -25.2030
# 2 21.7525 40.0665 11.9391 3.6654 1.4664 -7.5508
# 3 37.9057 11.9391 90.4594 8.2373 8.7465 -7.1451
# 4 3.3241 3.6654 8.2373 18.1279 -5.8385 2.4529
# 5 26.9391 1.4664 8.7465 -5.8385 30.0853 -8.2711
# 6 -25.2030 -7.5508 -7.1451 2.4529 -8.2711 19.6719
#
#
#
# Elastic Compliance Matrix: (Units=1/GPa)
#
#
# Indices 1 2 3 4 5 6 
#
# 1 0.008540 -0.002183 -0.001887 -0.003060 -0.005531 0.007474
# 2 -0.002183 0.028837 -0.001972 -0.004916 0.002730 0.009316
# 3 -0.001887 -0.001972 0.013048 -0.006276 -0.002917 0.001121
# 4 -0.003060 -0.004916 -0.006276 0.065694 0.014787 -0.010061
# 5 -0.005531 0.002730 -0.002917 0.014787 0.044457 0.009750
# 6 0.007474 0.009316 0.001121 -0.010061 0.009750 0.069746
#
#
# Mechanical properties :
#
#
# Convention : Reuss Voigt Hill
#
# Bulk Modulus (GPa) = 26.08155 49.49418 37.78786
# Shear Modulus (GPa) = 19.59365 28.95406 24.27386
#
# Velocity S-wave (km/s) = 3.10876 3.77906 3.46018
# Velocity P-wave (km/s) = 5.07447 6.59198 5.88237
#
# Compressibility (1/GPa) = 0.03834128
#
# Stress axis : x y z
#
# Youngs Moduli (GPa) = 117.09643 34.67785 76.64280
#
# Poissons Ratio (x) = 0.07572 0.14459
# Poissons Ratio (y) = 0.25567 0.15110
# Poissons Ratio (z) = 0.22091 0.06837
#
# Static dielectric constant tensor:
#      x y z
#    x 1.836000 -0.014800 0.041280 
#    y -0.014800 1.728210 -0.046780 
#    z 0.041280 -0.046780 1.758530 
# 
# From -- ./inp_files/185047.got.cif
#   From: 2010.05.17/outbox.cif.g08.bks.cpg/sg2_93_cif.got.tgz:185047.got - 2010.06.03 11:33:40.
