data_PCOD9096164
_publ_section_title
;
Structure prediction by ZEFSAII (Michael W. Deem and Ramdas Pophale) SiO2 
 PCOD9096164
Probable space group: P -1
;
_chemical_formula_sum "Si O2"
_cell_formula_units_Z 16
_cell_length_a 14.713528
_cell_length_b 5.613797
_cell_length_c 8.601523
_cell_angle_alpha 106.818670
_cell_angle_beta 90.861975
_cell_angle_gamma 107.629004
_cell_volume 644.028291
_symmetry_space_group_name_H-M "P -1"
_symmetry_group_IT_number 2
_symmetry_cell_setting 'triclinic'
loop_
_space_group_symop_operation_xyz
x,y,z
-x,-y,-z
loop_
_atom_site_type_symbol
_atom_site_label
_atom_site_fract_x
_atom_site_fract_y
_atom_site_fract_z
Si Si1 0.627439 0.205447 0.712932
Si Si2 0.014246 0.050796 0.259705
Si Si3 0.720987 0.373805 0.427351
Si Si4 0.441955 0.993402 0.837896
Si Si5 0.208022 0.935902 0.186472
Si Si6 0.697229 0.693523 0.027713
Si Si7 0.923110 0.608684 0.940967
Si Si8 0.817992 0.911483 0.371598
O O1 0.660046 0.352359 0.579545
O O2 0.516819 0.047297 0.707667
O O3 0.696423 0.026499 0.704315
O O4 0.649636 0.415731 0.892787
O O5 0.933811 0.019894 0.381376
O O6 0.109743 0.963940 0.261412
O O7 0.945223 0.873799 0.089356
O O8 0.056383 0.331284 0.228887
O O9 0.784927 0.672651 0.450757
O O10 0.646236 0.262107 0.262702
O O11 0.780978 0.167576 0.416333
O O12 0.390638 0.211167 0.901426
O O13 0.500000 0.000000 0.000000
O O14 0.174301 0.625992 0.084755
O O15 0.240647 0.117938 0.071994
O O16 0.765987 0.749303 0.187959
O O17 0.000000 0.500000 0.000000
#
# Coordination Sequence:
#
# PCOD9096164 Si02
#       8
#     2   2   2   2   2   2   2   2
#     4  12  25  46  69 102 147 186 231 292 364 432
#     4  10  20  35  62  98 136 188 233 293 347 412
#     4  11  29  47  72 105 148 191 232 293 363 427
#     4  11  23  47  77 108 135 179 238 299 357 424
#     4  11  22  37  66 101 142 178 239 289 363 407
#     4  11  24  42  74 104 138 183 239 300 352 423
#     4   9  18  32  58  98 135 172 231 298 356 399
#     4  11  25  46  72 105 143 187 247 294 345 417
#
# _framework density 24.843630000000001
#
# number of rings (size 3 to 8) (size 9 to 14) (size 15 to 20)
#    0.000    1.250    1.250    5.250   10.500    1.000 
#    0.000    5.000    0.000    0.000    0.000    0.000 
#    0.000    0.000    0.000    0.000    0.000    0.000 
#
# Total GULP energy -89339.055298 kJ/mol
# GULP energy per Si atom -5583.690956 kJ/mol
# Density = 2.478708 g / cm^3
# Si number density = 24.843630 Si / 1000 Ang^3
#
#
#
# Elastic Constant Matrix: (Units=GPa)
#
#
# Indices 1 2 3 4 5 6 
#
# 1 177.8617 37.7222 29.7832 -8.2626 -15.2962 7.4310
# 2 37.7222 128.2019 22.6503 -12.1520 -9.6089 14.3310
# 3 29.7832 22.6503 91.9398 -5.9317 -4.7778 -3.3077
# 4 -8.2626 -12.1520 -5.9317 39.3951 9.9376 -4.1839
# 5 -15.2962 -9.6089 -4.7778 9.9376 33.9232 -7.7112
# 6 7.4310 14.3310 -3.3077 -4.1839 -7.7112 24.3586
#
#
#
# Elastic Compliance Matrix: (Units=1/GPa)
#
#
# Indices 1 2 3 4 5 6 
#
# 1 0.006398 -0.001348 -0.001653 0.000076 0.002087 -0.000710
# 2 -0.001348 0.009261 -0.001906 0.001732 0.000112 -0.004963
# 3 -0.001653 -0.001906 0.012135 0.001047 0.000972 0.003761
# 4 0.000076 0.001732 0.001047 0.028077 -0.007178 0.001651
# 5 0.002087 0.000112 0.000972 -0.007178 0.034784 0.009209
# 6 -0.000710 -0.004963 0.003761 0.001651 0.009209 0.047899
#
#
# Mechanical properties :
#
#
# Convention : Reuss Voigt Hill
#
# Bulk Modulus (GPa) = 55.61464 64.25719 59.93592
# Shear Modulus (GPa) = 32.39181 40.05855 36.22518
#
# Velocity S-wave (km/s) = 3.61477 4.01986 3.82269
# Velocity P-wave (km/s) = 6.31321 6.88959 6.60769
#
# Compressibility (1/GPa) = 0.01798088
#
# Stress axis : x y z
#
# Youngs Moduli (GPa) = 156.31102 107.98228 82.40631
#
# Poissons Ratio (x) = 0.14551 0.13619
# Poissons Ratio (y) = 0.21063 0.15707
# Poissons Ratio (z) = 0.25833 0.20582
#
# Static dielectric constant tensor:
#      x y z
#    x 1.976560 -0.007140 -0.025130 
#    y -0.007140 1.953180 -0.001400 
#    z -0.025130 -0.001400 2.026490 
# 
# From -- ./inp_files/288857.got.cif
#   From: 2010.05.17/outbox.cif.g08.bks.cpg/sg2_145_cif.got.tgz:288857.got - 2010.06.03 11:33:40.
