data_PCOD9096287
_publ_section_title
;
Structure prediction by ZEFSAII (Michael W. Deem and Ramdas Pophale) SiO2 
 PCOD9096287
Probable space group: P -1
;
_chemical_formula_sum "Si O2"
_cell_formula_units_Z 14
_cell_length_a 8.154206
_cell_length_b 8.153729
_cell_length_c 10.548258
_cell_angle_alpha 116.274820
_cell_angle_beta 84.079830
_cell_angle_gamma 122.318163
_cell_volume 523.133186
_symmetry_space_group_name_H-M "P -1"
_symmetry_group_IT_number 2
_symmetry_cell_setting 'triclinic'
loop_
_space_group_symop_operation_xyz
x,y,z
-x,-y,-z
loop_
_atom_site_type_symbol
_atom_site_label
_atom_site_fract_x
_atom_site_fract_y
_atom_site_fract_z
Si Si1 0.093803 0.838048 0.076690
Si Si2 0.711310 0.353294 0.673043
Si Si3 0.829638 0.368796 0.202747
Si Si4 0.697563 0.508706 0.478973
Si Si5 0.598232 0.907250 0.210731
Si Si6 0.310838 0.285252 0.076639
Si Si7 0.978438 0.003577 0.355151
O O1 0.735303 0.482579 0.320331
O O2 0.255709 0.085801 0.106539
O O3 0.162600 0.684422 0.964103
O O4 0.893820 0.775763 0.996525
O O5 0.682624 0.328342 0.515641
O O6 0.589361 0.152236 0.710289
O O7 0.629607 0.502130 0.776190
O O8 0.943436 0.488186 0.723628
O O9 0.708219 0.129862 0.196939
O O10 0.500000 0.500000 0.500000
O O11 0.043003 0.856282 0.230103
O O12 0.874946 0.739265 0.599457
O O13 0.554669 0.723959 0.045556
O O14 0.764054 0.929092 0.299247
O O15 0.000000 0.000000 0.500000
#
# Coordination Sequence:
#
# PCOD9096287 Si02
#       7
#     2   2   2   2   2   2   2
#     4   8  15  34  62  85 119 164 200 250 306 350
#     4  11  19  36  65  92 125 157 205 251 303 367
#     4  10  22  42  64  91 125 156 206 265 303 358
#     4  12  25  42  59  88 128 168 201 254 320 366
#     4  10  20  35  64  98 120 158 206 253 306 360
#     4   8  14  30  58  94 121 150 202 254 298 361
#     4  11  21  39  61  91 130 165 205 246 305 375
#
# _framework density 26.76183
#
# number of rings (size 3 to 8) (size 9 to 14) (size 15 to 20)
#    0.000    2.000    2.857    3.429    0.000    0.571 
#    2.571    1.429    0.000    0.000    0.000    0.000 
#    0.000    0.000    0.000    0.000    0.000    0.000 
#
# Total GULP energy -78386.089487 kJ/mol
# GULP energy per Si atom -5599.006392 kJ/mol
# Density = 2.670092 g / cm^3
# Si number density = 26.761830 Si / 1000 Ang^3
#
#
#
# Elastic Constant Matrix: (Units=GPa)
#
#
# Indices 1 2 3 4 5 6 
#
# 1 147.1391 22.3350 56.6933 0.0139 -20.5801 27.7959
# 2 22.3350 109.3164 19.3214 1.6743 -2.5590 30.6981
# 3 56.6933 19.3214 88.0289 -9.0629 -35.2364 5.9577
# 4 0.0139 1.6743 -9.0629 48.5096 11.8693 -11.7630
# 5 -20.5801 -2.5590 -35.2364 11.8693 53.9263 -6.1722
# 6 27.7959 30.6981 5.9577 -11.7630 -6.1722 36.8603
#
#
#
# Elastic Compliance Matrix: (Units=1/GPa)
#
#
# Indices 1 2 3 4 5 6 
#
# 1 0.011315 0.002005 -0.007843 -0.003780 -0.001060 -0.010319
# 2 0.002005 0.013384 -0.004647 -0.004064 -0.002297 -0.013589
# 3 -0.007843 -0.004647 0.021661 0.003739 0.011187 0.009350
# 4 -0.003780 -0.004064 0.003739 0.025460 -0.003285 0.013206
# 5 -0.001060 -0.002297 0.011187 -0.003285 0.026556 0.004303
# 6 -0.010319 -0.013589 0.009350 0.013206 0.004303 0.049651
#
#
# Mechanical properties :
#
#
# Convention : Reuss Voigt Hill
#
# Bulk Modulus (GPa) = 39.38421 60.13152 49.75786
# Shear Modulus (GPa) = 28.17533 44.26821 36.22177
#
# Velocity S-wave (km/s) = 3.24824 4.07154 3.68297
# Velocity P-wave (km/s) = 5.36811 6.67991 6.05961
#
# Compressibility (1/GPa) = 0.02539089
#
# Stress axis : x y z
#
# Youngs Moduli (GPa) = 88.37754 74.71639 46.16598
#
# Poissons Ratio (x) = -0.14982 0.36206
# Poissons Ratio (y) = -0.17721 0.21454
# Poissons Ratio (z) = 0.69310 0.34722
#
# Static dielectric constant tensor:
#      x y z
#    x 2.071190 -0.051020 -0.049030 
#    y -0.051020 2.223450 -0.003970 
#    z -0.049030 -0.003970 2.064570 
# 
# From -- ./inp_files/556243.got.cif
#   From: 2010.05.17/outbox.cif.g08.bks.cpg/sg2_279_cif.got.tgz:556243.got - 2010.06.03 11:33:40.
