data_PCOD9096687
_publ_section_title
;
Structure prediction by ZEFSAII (Michael W. Deem and Ramdas Pophale) SiO2 
 PCOD9096687
Probable space group: P -1
;
_chemical_formula_sum "Si O2"
_cell_formula_units_Z 14
_cell_length_a 7.057647
_cell_length_b 5.033863
_cell_length_c 28.325814
_cell_angle_alpha 74.159871
_cell_angle_beta 137.931362
_cell_angle_gamma 114.451152
_cell_volume 612.822641
_symmetry_space_group_name_H-M "P -1"
_symmetry_group_IT_number 2
_symmetry_cell_setting 'triclinic'
loop_
_space_group_symop_operation_xyz
x,y,z
-x,-y,-z
loop_
_atom_site_type_symbol
_atom_site_label
_atom_site_fract_x
_atom_site_fract_y
_atom_site_fract_z
Si Si1 0.672765 0.775862 0.529469
Si Si2 0.337831 0.005059 0.663320
Si Si3 0.292726 0.522744 0.856665
Si Si4 0.945071 0.785744 0.956489
Si Si5 0.851590 0.140196 0.109943
Si Si6 0.179757 0.275190 0.533114
Si Si7 0.679405 0.554898 0.749381
O O1 0.428705 0.473353 0.525658
O O2 0.871873 0.967774 0.509545
O O3 0.500000 0.000000 0.500000
O O4 0.986053 0.824777 0.613563
O O5 0.379942 0.230977 0.615981
O O6 0.474633 0.220245 0.721594
O O7 0.503933 0.774496 0.692346
O O8 0.600645 0.694368 0.880830
O O9 0.328365 0.666346 0.908998
O O10 0.992170 0.576626 0.779838
O O11 0.235027 0.178031 0.866546
O O12 0.152846 0.896737 0.944544
O O13 0.000000 0.500000 0.000000
O O14 0.000000 0.000000 0.000000
O O15 0.186611 0.334260 0.179638
O O16 0.000000 0.500000 0.500000
#
# Coordination Sequence:
#
# PCOD9096687 Si02
#       7
#     2   2   2   2   2   2   2
#     4  11  22  37  56  87 128 149 196 270 323 360
#     4  11  20  37  66  81 112 171 209 240 313 395
#     4  10  22  43  64  90 134 165 210 265 321 364
#     4  12  26  40  68 102 127 169 217 256 321 390
#     4  10  22  43  64  91 135 168 204 273 325 351
#     4  10  20  36  57  85 114 156 199 253 309 368
#     4  10  20  40  61  86 114 168 215 249 314 376
#
# _framework density 22.845110999999999
#
# number of rings (size 3 to 8) (size 9 to 14) (size 15 to 20)
#    0.857    0.571    1.429    6.000    0.000    3.429 
#    0.000    4.286    3.143    0.000    0.000    0.000 
#    0.000    0.000    0.000    0.000    0.000    0.000 
#
# Total GULP energy -77960.455997 kJ/mol
# GULP energy per Si atom -5568.604000 kJ/mol
# Density = 2.279311 g / cm^3
# Si number density = 22.845111 Si / 1000 Ang^3
#
#
#
# Elastic Constant Matrix: (Units=GPa)
#
#
# Indices 1 2 3 4 5 6 
#
# 1 126.0901 23.4762 23.0109 20.1747 14.8928 15.9814
# 2 23.4762 170.0865 28.5515 23.9586 18.5567 2.6831
# 3 23.0109 28.5515 55.7903 17.6484 33.3109 6.5238
# 4 20.1747 23.9586 17.6484 38.3742 -2.2692 2.1537
# 5 14.8928 18.5567 33.3109 -2.2692 42.7759 3.5223
# 6 15.9814 2.6831 6.5238 2.1537 3.5223 35.6075
#
#
#
# Elastic Compliance Matrix: (Units=1/GPa)
#
#
# Indices 1 2 3 4 5 6 
#
# 1 0.009600 -0.000231 0.000124 -0.004948 -0.003297 -0.003688
# 2 -0.000231 0.006871 -0.000512 -0.004106 -0.002736 0.000199
# 3 0.000124 -0.000512 0.050532 -0.025150 -0.040195 -0.003778
# 4 -0.004948 -0.004106 -0.025150 0.044174 0.025270 0.001966
# 5 -0.003297 -0.002736 -0.040195 0.025270 0.058209 0.001764
# 6 -0.003688 0.000199 -0.003778 0.001966 0.001764 0.030123
#
#
# Mechanical properties :
#
#
# Convention : Reuss Voigt Hill
#
# Bulk Modulus (GPa) = 15.20574 55.78269 35.49421
# Shear Modulus (GPa) = 22.45486 41.81341 32.13413
#
# Velocity S-wave (km/s) = 3.13855 4.28284 3.75455
# Velocity P-wave (km/s) = 4.45022 6.99484 5.86226
#
# Compressibility (1/GPa) = 0.06576465
#
# Stress axis : x y z
#
# Youngs Moduli (GPa) = 104.16856 145.54197 19.78938
#
# Poissons Ratio (x) = 0.03361 -0.00245
# Poissons Ratio (y) = 0.02406 0.01013
# Poissons Ratio (z) = -0.01291 0.07453
#
# Static dielectric constant tensor:
#      x y z
#    x 1.841800 0.151390 -0.036130 
#    y 0.151390 1.772050 0.097860 
#    z -0.036130 0.097860 1.915750 
# 
# From -- ./inp_files/621536.got.cif
#   From: 2010.05.17/outbox.cif.g08.bks.cpg/sg2_311_cif.got.tgz:621536.got - 2010.06.03 11:33:40.
