data_PCOD9096649
_publ_section_title
;
Structure prediction by ZEFSAII (Michael W. Deem and Ramdas Pophale) SiO2 
 PCOD9096649
Probable space group: P -1
;
_chemical_formula_sum "Si O2"
_cell_formula_units_Z 16
_cell_length_a 16.367209
_cell_length_b 7.321016
_cell_length_c 12.764703
_cell_angle_alpha 100.338915
_cell_angle_beta 49.696019
_cell_angle_gamma 58.241372
_cell_volume 592.666430
_symmetry_space_group_name_H-M "P -1"
_symmetry_group_IT_number 2
_symmetry_cell_setting 'triclinic'
loop_
_space_group_symop_operation_xyz
x,y,z
-x,-y,-z
loop_
_atom_site_type_symbol
_atom_site_label
_atom_site_fract_x
_atom_site_fract_y
_atom_site_fract_z
Si Si1 0.959908 0.726285 0.911040
Si Si2 0.560653 0.450700 0.784478
Si Si3 0.152063 0.483940 0.320301
Si Si4 0.841101 0.678634 0.497277
Si Si5 0.594990 0.563208 0.334692
Si Si6 0.758303 0.291128 0.814812
Si Si7 0.851412 0.486247 0.039336
Si Si8 0.294812 0.685472 0.558349
O O1 0.101527 0.530706 0.670437
O O2 0.861099 0.666378 0.990416
O O3 0.090613 0.556816 0.891649
O O4 0.776710 0.146981 0.112762
O O5 0.618854 0.466867 0.844525
O O6 0.599502 0.520489 0.660006
O O7 0.717614 0.044489 0.602901
O O8 0.343251 0.671415 0.003352
O O9 0.273825 0.238809 0.297785
O O10 0.228671 0.507377 0.168481
O O11 0.053397 0.450839 0.345180
O O12 0.974273 0.873687 0.563960
O O13 0.383088 0.764635 0.516538
O O14 0.630569 0.540380 0.426777
O O15 0.643816 0.671994 0.237691
O O16 0.047455 0.070949 0.795563
#
# Coordination Sequence:
#
# PCOD9096649 Si02
#       8
#     2   2   2   2   2   2   2   2
#     4  10  20  37  61  89 117 159 198 244 300 351
#     4  10  20  36  58  81 117 149 185 244 294 339
#     4   9  20  37  58  83 112 146 196 234 282 361
#     4  10  20  36  57  82 117 149 183 243 295 340
#     4  10  23  39  63  88 120 162 203 243 296 354
#     4   9  20  37  58  84 109 151 192 233 291 348
#     4  10  21  41  63  84 124 159 199 248 294 353
#     4  10  20  39  59  88 121 154 199 254 288 350
#
# _framework density 26.996637
#
# number of rings (size 3 to 8) (size 9 to 14) (size 15 to 20)
#    0.000    2.250    1.250    1.500    1.750    3.500 
#    0.000   11.250   13.750    0.000    0.000    0.000 
#    0.000    0.000    0.000    0.000    0.000    0.000 
#
# Total GULP energy -89611.698810 kJ/mol
# GULP energy per Si atom -5600.731176 kJ/mol
# Density = 2.693519 g / cm^3
# Si number density = 26.996637 Si / 1000 Ang^3
#
#
#
# Elastic Constant Matrix: (Units=GPa)
#
#
# Indices 1 2 3 4 5 6 
#
# 1 41.6967 17.0289 10.5366 -1.2450 0.7290 7.3901
# 2 17.0289 78.4151 26.3847 -13.3685 1.8536 10.8577
# 3 10.5366 26.3847 103.0311 -7.4089 0.7934 0.8870
# 4 -1.2450 -13.3685 -7.4089 32.0250 9.1819 1.4524
# 5 0.7290 1.8536 0.7934 9.1819 50.6233 -16.1963
# 6 7.3901 10.8577 0.8870 1.4524 -16.1963 35.8519
#
#
#
# Elastic Compliance Matrix: (Units=1/GPa)
#
#
# Indices 1 2 3 4 5 6 
#
# 1 0.027192 -0.004782 -0.001546 -0.000612 -0.001626 -0.004828
# 2 -0.004782 0.017132 -0.003269 0.007596 -0.003860 -0.006173
# 3 -0.001546 -0.003269 0.010761 0.000977 0.000137 0.001065
# 4 -0.000612 0.007596 0.000977 0.037758 -0.009733 -0.008125
# 5 -0.001626 -0.003860 0.000137 -0.009733 0.026054 0.013665
# 6 -0.004828 -0.006173 0.001065 -0.008125 0.013665 0.037233
#
#
# Mechanical properties :
#
#
# Convention : Reuss Voigt Hill
#
# Bulk Modulus (GPa) = 27.86229 36.78259 32.32244
# Shear Modulus (GPa) = 26.69671 34.97955 30.83813
#
# Velocity S-wave (km/s) = 3.14807 3.60349 3.38345
# Velocity P-wave (km/s) = 4.85354 5.56489 5.22134
#
# Compressibility (1/GPa) = 0.03589081
#
# Stress axis : x y z
#
# Youngs Moduli (GPa) = 36.77502 58.36960 92.92687
#
# Poissons Ratio (x) = 0.27914 0.14367
# Poissons Ratio (y) = 0.17587 0.30379
# Poissons Ratio (z) = 0.05686 0.19082
#
# Static dielectric constant tensor:
#      x y z
#    x 2.138090 -0.022940 -0.029970 
#    y -0.022940 2.111980 -0.013180 
#    z -0.029970 -0.013180 2.137130 
# 
# From -- ./inp_files/461377.got.cif
#   From: 2010.05.17/outbox.cif.g08.bks.cpg/sg2_231_cif.got.tgz:461377.got - 2010.06.03 11:33:40.
