data_PCOD9096458
_publ_section_title
;
Structure prediction by ZEFSAII (Michael W. Deem and Ramdas Pophale) SiO2 
 PCOD9096458
Probable space group: P -1
;
_chemical_formula_sum "Si O2"
_cell_formula_units_Z 16
_cell_length_a 26.138699
_cell_length_b 8.022476
_cell_length_c 14.310373
_cell_angle_alpha 122.232369
_cell_angle_beta 24.028979
_cell_angle_gamma 138.877477
_cell_volume 656.052637
_symmetry_space_group_name_H-M "P -1"
_symmetry_group_IT_number 2
_symmetry_cell_setting 'triclinic'
loop_
_space_group_symop_operation_xyz
x,y,z
-x,-y,-z
loop_
_atom_site_type_symbol
_atom_site_label
_atom_site_fract_x
_atom_site_fract_y
_atom_site_fract_z
Si Si1 0.404241 0.599994 0.173380
Si Si2 0.583448 0.972035 0.165294
Si Si3 0.000391 0.800385 0.162117
Si Si4 0.072754 0.220389 0.029488
Si Si5 0.050386 0.254644 0.394739
Si Si6 0.766586 0.296514 0.233036
Si Si7 0.958426 0.364156 0.395211
Si Si8 0.336966 0.360682 0.031294
O O1 0.525404 0.886816 0.127329
O O2 0.177876 0.352496 0.515964
O O3 0.428339 0.633419 0.031034
O O4 0.500000 0.500000 0.000000
O O5 0.446413 0.961759 0.442158
O O6 0.546780 0.704852 0.187941
O O7 0.809164 0.300567 0.899697
O O8 0.895874 0.560588 0.177608
O O9 0.142520 0.807029 0.971013
O O10 0.109327 0.116892 0.024495
O O11 0.227392 0.552009 0.820320
O O12 0.908672 0.173033 0.331569
O O13 0.000000 0.000000 0.000000
O O14 0.957779 0.232629 0.449613
O O15 0.234822 0.329291 0.100881
O O16 0.134288 0.538529 0.400901
O O17 0.861068 0.940023 0.670268
#
# Coordination Sequence:
#
# PCOD9096458 Si02
#       8
#     2   2   2   2   2   2   2   2
#     4   9  17  31  59  84 113 149 184 232 294 345
#     4   9  19  36  53  80 120 151 182 239 295 343
#     4   9  18  35  58  82 109 146 191 239 281 339
#     4  10  21  37  59  86 109 152 202 241 282 337
#     4   9  19  34  56  86 112 148 190 234 296 347
#     4   9  19  36  57  80 110 148 195 233 283 342
#     4  10  20  36  55  81 120 149 187 246 290 346
#     4   9  17  33  58  85 109 147 193 233 290 351
#
# _framework density 24.388286999999998
#
# number of rings (size 3 to 8) (size 9 to 14) (size 15 to 20)
#    0.000    2.750    0.000    0.750    1.750    1.500 
#    4.500    1.250    8.250    0.000    0.000    0.000 
#    0.000    0.000    0.000    0.000    0.000    0.000 
#
# Total GULP energy -89188.289680 kJ/mol
# GULP energy per Si atom -5574.268105 kJ/mol
# Density = 2.433278 g / cm^3
# Si number density = 24.388287 Si / 1000 Ang^3
#
#
#
# Elastic Constant Matrix: (Units=GPa)
#
#
# Indices 1 2 3 4 5 6 
#
# 1 43.4170 15.2649 18.6108 -1.4708 -3.2925 7.1581
# 2 15.2649 67.5848 31.0400 17.4858 5.4225 0.2846
# 3 18.6108 31.0400 122.0565 20.2248 -8.0730 -7.3197
# 4 -1.4708 17.4858 20.2248 31.6793 1.6696 10.6017
# 5 -3.2925 5.4225 -8.0730 1.6696 32.7753 8.0329
# 6 7.1581 0.2846 -7.3197 10.6017 8.0329 24.5160
#
#
#
# Elastic Compliance Matrix: (Units=1/GPa)
#
#
# Indices 1 2 3 4 5 6 
#
# 1 0.034310 -0.010064 -0.006536 0.018411 0.008068 -0.022458
# 2 -0.010064 0.022135 -0.001378 -0.015154 -0.006962 0.011104
# 3 -0.006536 -0.001378 0.011901 -0.010449 0.000636 0.009788
# 4 0.018411 -0.015154 -0.010449 0.059255 0.007702 -0.036467
# 5 0.008068 -0.006962 0.000636 0.007702 0.036496 -0.017374
# 6 -0.022458 0.011104 0.009788 -0.036467 -0.017374 0.071603
#
#
# Mechanical properties :
#
#
# Convention : Reuss Voigt Hill
#
# Bulk Modulus (GPa) = 30.87373 40.32110 35.59742
# Shear Modulus (GPa) = 17.70213 29.00362 23.35288
#
# Velocity S-wave (km/s) = 2.69707 3.45228 3.09778
# Velocity P-wave (km/s) = 4.73135 5.69736 5.23668
#
# Compressibility (1/GPa) = 0.03238999
#
# Stress axis : x y z
#
# Youngs Moduli (GPa) = 29.14560 45.17782 84.02997
#
# Poissons Ratio (x) = 0.45466 0.54923
# Poissons Ratio (y) = 0.29331 0.11580
# Poissons Ratio (z) = 0.19050 0.06226
#
# Static dielectric constant tensor:
#      x y z
#    x 2.030630 0.012990 0.000370 
#    y 0.012990 2.041450 0.031170 
#    z 0.000370 0.031170 1.940390 
# 
# From -- ./inp_files/541527.got.cif
#   From: 2010.05.17/outbox.cif.g08.bks.cpg/sg2_271_cif.got.tgz:541527.got - 2010.06.03 11:33:40.
