data_PCOD9096630
_publ_section_title
;
Structure prediction by ZEFSAII (Michael W. Deem and Ramdas Pophale) SiO2 
 PCOD9096630
Probable space group: P -1
;
_chemical_formula_sum "Si O2"
_cell_formula_units_Z 16
_cell_length_a 13.748562
_cell_length_b 17.703421
_cell_length_c 7.967181
_cell_angle_alpha 126.824751
_cell_angle_beta 29.227524
_cell_angle_gamma 140.469236
_cell_volume 585.470841
_symmetry_space_group_name_H-M "P -1"
_symmetry_group_IT_number 2
_symmetry_cell_setting 'triclinic'
loop_
_space_group_symop_operation_xyz
x,y,z
-x,-y,-z
loop_
_atom_site_type_symbol
_atom_site_label
_atom_site_fract_x
_atom_site_fract_y
_atom_site_fract_z
Si Si1 0.458601 0.343371 0.379862
Si Si2 0.408085 0.572979 0.315799
Si Si3 0.790978 0.982674 0.982228
Si Si4 0.792979 0.175575 0.350277
Si Si5 0.487115 0.908248 0.018698
Si Si6 0.093227 0.679685 0.150839
Si Si7 0.229983 0.224209 0.227492
Si Si8 0.080794 0.404694 0.046600
O O1 0.495323 0.367598 0.561848
O O2 0.343627 0.243081 0.269953
O O3 0.276748 0.380056 0.669791
O O4 0.740323 0.452215 0.022157
O O5 0.108578 0.452326 0.636571
O O6 0.500000 0.500000 0.000000
O O7 0.541353 0.681840 0.122729
O O8 0.495519 0.901131 0.394051
O O9 0.730542 0.970773 0.858348
O O10 0.927869 0.122889 0.003961
O O11 0.891218 0.915081 0.814775
O O12 0.740991 0.138248 0.569283
O O13 0.938303 0.317377 0.302362
O O14 0.380550 0.779979 0.925097
O O15 0.500000 0.000000 0.000000
O O16 0.963717 0.745203 0.436198
O O17 0.114482 0.653232 0.891630
#
# Coordination Sequence:
#
# PCOD9096630 Si02
#       8
#     2   2   2   2   2   2   2   2
#     4   9  19  32  54  89 116 147 176 231 291 329
#     4   9  18  32  56  84 120 146 182 226 279 344
#     4   9  21  39  55  79 111 153 189 233 284 331
#     4   9  20  36  60  73 105 155 193 223 281 337
#     4  10  20  36  57  81 106 147 198 229 277 339
#     4   9  19  32  57  87 107 146 184 231 283 334
#     4  10  20  37  57  85 122 142 187 239 285 332
#     4   9  16  33  57  80 110 142 189 228 270 345
#
# _framework density 27.328431999999999
#
# number of rings (size 3 to 8) (size 9 to 14) (size 15 to 20)
#    0.750    2.000    0.000    3.000    5.250    0.000 
#    2.250    8.750    0.000    3.000    0.000    0.000 
#    0.000    0.000    0.000    0.000    0.000    0.000 
#
# Total GULP energy -89216.244270 kJ/mol
# GULP energy per Si atom -5576.015267 kJ/mol
# Density = 2.726623 g / cm^3
# Si number density = 27.328432 Si / 1000 Ang^3
#
#
#
# Elastic Constant Matrix: (Units=GPa)
#
#
# Indices 1 2 3 4 5 6 
#
# 1 122.7970 27.2439 20.4620 3.1956 14.1204 6.1128
# 2 27.2439 80.8989 41.3091 19.6869 24.4601 -2.7517
# 3 20.4620 41.3091 83.8743 -12.3006 27.9248 -22.2264
# 4 3.1956 19.6869 -12.3006 38.3368 -12.5355 -1.0719
# 5 14.1204 24.4601 27.9248 -12.5355 45.3139 -1.8623
# 6 6.1128 -2.7517 -22.2264 -1.0719 -1.8623 50.4846
#
#
#
# Elastic Compliance Matrix: (Units=1/GPa)
#
#
# Indices 1 2 3 4 5 6 
#
# 1 0.009051 -0.001738 -0.001586 -0.000822 -0.001212 -0.001951
# 2 -0.001738 0.031204 -0.015642 -0.025647 -0.014006 -0.006037
# 3 -0.001586 -0.015642 0.026040 0.016111 -0.002198 0.011065
# 4 -0.000822 -0.025647 0.016111 0.050761 0.018525 0.007556
# 5 -0.001212 -0.014006 -0.002198 0.018525 0.036491 0.000155
# 6 -0.001951 -0.006037 0.011065 0.007556 0.000155 0.024753
#
#
# Mechanical properties :
#
#
# Convention : Reuss Voigt Hill
#
# Bulk Modulus (GPa) = 35.25750 51.73337 43.49543
# Shear Modulus (GPa) = 22.15437 40.06408 31.10923
#
# Velocity S-wave (km/s) = 2.85032 3.83302 3.37760
# Velocity P-wave (km/s) = 4.87461 6.20973 5.58223
#
# Compressibility (1/GPa) = 0.02836276
#
# Stress axis : x y z
#
# Youngs Moduli (GPa) = 110.48066 32.04679 38.40203
#
# Poissons Ratio (x) = 0.05570 0.06091
# Poissons Ratio (y) = 0.19203 0.60070
# Poissons Ratio (z) = 0.17523 0.50129
#
# Static dielectric constant tensor:
#      x y z
#    x 2.187150 -0.016580 -0.073550 
#    y -0.016580 2.198830 0.019550 
#    z -0.073550 0.019550 2.235060 
# 
# From -- ./inp_files/317252.got.cif
#   From: 2010.05.17/outbox.cif.g08.bks.cpg/sg2_159_cif.got.tgz:317252.got - 2010.06.03 11:33:40.
