data_PCOD9096958
_publ_section_title
;
Structure prediction by ZEFSAII (Michael W. Deem and Ramdas Pophale) SiO2 
 PCOD9096958
Probable space group: P -1
;
_chemical_formula_sum "Si O2"
_cell_formula_units_Z 14
_cell_length_a 8.631953
_cell_length_b 15.542724
_cell_length_c 5.497824
_cell_angle_alpha 69.354924
_cell_angle_beta 62.288246
_cell_angle_gamma 87.652339
_cell_volume 604.298838
_symmetry_space_group_name_H-M "P -1"
_symmetry_group_IT_number 2
_symmetry_cell_setting 'triclinic'
loop_
_space_group_symop_operation_xyz
x,y,z
-x,-y,-z
loop_
_atom_site_type_symbol
_atom_site_label
_atom_site_fract_x
_atom_site_fract_y
_atom_site_fract_z
Si Si1 0.277359 0.463254 0.872356
Si Si2 0.394798 0.922781 0.327784
Si Si3 0.310201 0.755591 0.266107
Si Si4 0.107599 0.025555 0.646958
Si Si5 0.624835 0.805649 0.606532
Si Si6 0.938436 0.418341 0.438999
Si Si7 0.490802 0.364525 0.427878
O O1 0.186402 0.529273 0.691995
O O2 0.389441 0.401253 0.693520
O O3 0.400791 0.542195 0.858789
O O4 0.116554 0.403710 0.185495
O O5 0.267948 0.849981 0.322258
O O6 0.537763 0.869282 0.411023
O O7 0.273715 0.968129 0.560289
O O8 0.500000 0.000000 0.000000
O O9 0.166386 0.681419 0.308536
O O10 0.370851 0.698388 0.506952
O O11 0.479813 0.784727 0.944793
O O12 0.197086 0.133434 0.489169
O O13 0.000000 0.000000 0.500000
O O14 0.000000 0.000000 0.000000
O O15 0.636200 0.705413 0.578931
O O16 0.000000 0.500000 0.500000
#
# Coordination Sequence:
#
# PCOD9096958 Si02
#       7
#     2   2   2   2   2   2   2
#     4   9  19  38  60  86 131 167 210 265 332 391
#     4  11  23  46  72  92 128 184 231 273 343 423
#     4  10  22  38  65  92 123 168 225 269 324 408
#     4  12  28  45  68 102 140 175 226 297 354 402
#     4  11  23  42  70  92 129 174 232 271 342 421
#     4  10  20  36  58  90 127 165 210 266 327 397
#     4   9  20  38  62  92 122 172 215 270 325 404
#
# _framework density 23.167344
#
# number of rings (size 3 to 8) (size 9 to 14) (size 15 to 20)
#    0.000    1.714    1.429    2.143    4.000    3.429 
#    2.571    4.286    0.000    0.000    0.000    0.000 
#    0.000    0.000    0.000    0.000    0.000    0.000 
#
# Total GULP energy -78206.662179 kJ/mol
# GULP energy per Si atom -5586.190156 kJ/mol
# Density = 2.311461 g / cm^3
# Si number density = 23.167344 Si / 1000 Ang^3
#
#
#
# Elastic Constant Matrix: (Units=GPa)
#
#
# Indices 1 2 3 4 5 6 
#
# 1 81.8745 37.9126 17.9305 -18.8314 6.3130 25.4975
# 2 37.9126 162.5168 25.4570 -0.9967 -22.9475 48.9737
# 3 17.9305 25.4570 84.0188 -1.2495 -19.4061 24.7169
# 4 -18.8314 -0.9967 -1.2495 27.6479 0.0010 -14.5504
# 5 6.3130 -22.9475 -19.4061 0.0010 41.3661 -8.7249
# 6 25.4975 48.9737 24.7169 -14.5504 -8.7249 56.7170
#
#
#
# Elastic Compliance Matrix: (Units=1/GPa)
#
#
# Indices 1 2 3 4 5 6 
#
# 1 0.018724 -0.004430 -0.003886 0.011905 -0.007344 -0.000975
# 2 -0.004430 0.010200 0.001442 -0.007028 0.005230 -0.008443
# 3 -0.003886 0.001442 0.015893 -0.005382 0.007445 -0.006660
# 4 0.011905 -0.007028 -0.005382 0.052015 -0.004942 0.015646
# 5 -0.007344 0.005230 0.007445 -0.004942 0.031504 -0.000881
# 6 -0.000975 -0.008443 -0.006660 0.015646 -0.000881 0.032141
#
#
# Mechanical properties :
#
#
# Convention : Reuss Voigt Hill
#
# Bulk Modulus (GPa) = 32.18504 54.55668 43.37086
# Shear Modulus (GPa) = 27.08832 41.62020 34.35426
#
# Velocity S-wave (km/s) = 3.42313 4.24312 3.85499
# Velocity P-wave (km/s) = 5.43566 6.89967 6.21095
#
# Compressibility (1/GPa) = 0.03107034
#
# Stress axis : x y z
#
# Youngs Moduli (GPa) = 53.40732 98.03498 62.92022
#
# Poissons Ratio (x) = 0.43425 0.24452
# Poissons Ratio (y) = 0.23657 -0.09074
# Poissons Ratio (z) = 0.20755 -0.14138
#
# Static dielectric constant tensor:
#      x y z
#    x 1.963260 0.077850 0.004940 
#    y 0.077850 1.930520 -0.008830 
#    z 0.004940 -0.008830 1.871030 
# 
# From -- ./inp_files/37130.got.cif
#   From: 2010.05.17/outbox.cif.g08.bks.cpg/sg2_19_cif.got.tgz:37130.got - 2010.06.03 11:33:40.
