data_PCOD9096428
_publ_section_title
;
Structure prediction by ZEFSAII (Michael W. Deem and Ramdas Pophale) SiO2 
 PCOD9096428
Probable space group: P -1
;
_chemical_formula_sum "Si O2"
_cell_formula_units_Z 14
_cell_length_a 18.751530
_cell_length_b 7.911218
_cell_length_c 5.806952
_cell_angle_alpha 37.735605
_cell_angle_beta 110.799120
_cell_angle_gamma 115.064973
_cell_volume 477.259172
_symmetry_space_group_name_H-M "P -1"
_symmetry_group_IT_number 2
_symmetry_cell_setting 'triclinic'
loop_
_space_group_symop_operation_xyz
x,y,z
-x,-y,-z
loop_
_atom_site_type_symbol
_atom_site_label
_atom_site_fract_x
_atom_site_fract_y
_atom_site_fract_z
Si Si1 0.518630 0.283824 0.444110
Si Si2 0.660046 0.257288 0.395837
Si Si3 0.198701 0.761298 0.669787
Si Si4 0.235483 0.336455 0.535988
Si Si5 0.949569 0.105991 0.517970
Si Si6 0.907232 0.633430 0.369561
Si Si7 0.622947 0.691914 0.505443
O O1 0.576797 0.111094 0.580265
O O2 0.571070 0.484737 0.479766
O O3 0.436043 0.136536 0.633801
O O4 0.500000 0.500000 0.000000
O O5 0.717552 0.087587 0.516920
O O6 0.712570 0.447534 0.450207
O O7 0.640978 0.480787 0.949464
O O8 0.138374 0.863968 0.659460
O O9 0.142274 0.647262 0.510218
O O10 0.217506 0.504503 0.110403
O O11 0.152452 0.248145 0.665188
O O12 0.295477 0.158084 0.695090
O O13 0.013717 0.383982 0.389294
O O14 0.000000 0.000000 0.500000
O O15 0.932744 0.863371 0.952715
#
# Coordination Sequence:
#
# PCOD9096428 Si02
#       7
#     2   2   2   2   2   2   2
#     4   8  12  20  37  65 102 135 167 207 245 293
#     4   8  15  26  43  69 100 135 170 206 253 302
#     4  10  20  36  55  75 104 138 172 216 262 308
#     4   9  17  30  50  73 100 134 171 210 256 306
#     4  11  24  38  54  77 102 133 175 218 265 317
#     4  10  22  38  55  76 103 134 173 216 264 316
#     4   8  13  22  39  67 102 134 166 207 250 295
#
# _framework density 29.334168999999999
#
# number of rings (size 3 to 8) (size 9 to 14) (size 15 to 20)
#    0.000    2.857    0.000    1.286    0.000    6.857 
#    0.000    0.000    0.000    0.000    0.000    1.000 
#    0.000  235.429    0.000   72.286    0.000   28.286 
#
# Total GULP energy -78402.250944 kJ/mol
# GULP energy per Si atom -5600.160782 kJ/mol
# Density = 2.926740 g / cm^3
# Si number density = 29.334169 Si / 1000 Ang^3
#
#
#
# Elastic Constant Matrix: (Units=GPa)
#
#
# Indices 1 2 3 4 5 6 
#
# 1 407.8931 54.1739 40.8043 4.5413 -22.1562 -26.7145
# 2 54.1739 90.6674 36.2227 12.3399 6.6242 -6.6095
# 3 40.8043 36.2227 91.0306 7.7640 2.3920 7.2464
# 4 4.5413 12.3399 7.7640 36.7743 1.6856 3.1019
# 5 -22.1562 6.6242 2.3920 1.6856 50.8113 17.0177
# 6 -26.7145 -6.6095 7.2464 3.1019 17.0177 69.7784
#
#
#
# Elastic Compliance Matrix: (Units=1/GPa)
#
#
# Indices 1 2 3 4 5 6 
#
# 1 0.002834 -0.001431 -0.000806 0.000184 0.001210 0.000730
# 2 -0.001431 0.014785 -0.005022 -0.003780 -0.002947 0.002261
# 3 -0.000806 -0.005022 0.013592 -0.000914 0.000452 -0.002266
# 4 0.000184 -0.003780 -0.000914 0.028752 0.000168 -0.001512
# 5 0.001210 -0.002947 0.000452 0.000168 0.022347 -0.005321
# 6 0.000730 0.002261 -0.002266 -0.001512 -0.005321 0.016425
#
#
# Mechanical properties :
#
#
# Convention : Reuss Voigt Hill
#
# Bulk Modulus (GPa) = 59.90979 94.66587 77.28783
# Shear Modulus (GPa) = 42.08136 62.03215 52.05675
#
# Velocity S-wave (km/s) = 3.79166 4.60355 4.21718
# Velocity P-wave (km/s) = 6.29575 7.78450 7.07937
#
# Compressibility (1/GPa) = 0.01669176
#
# Stress axis : x y z
#
# Youngs Moduli (GPa) = 352.87798 67.63419 73.57529
#
# Poissons Ratio (x) = 0.09680 0.05932
# Poissons Ratio (y) = 0.50506 0.36949
# Poissons Ratio (z) = 0.28452 0.33966
#
# Static dielectric constant tensor:
#      x y z
#    x 2.362820 -0.034470 0.011130 
#    y -0.034470 2.377150 0.059760 
#    z 0.011130 0.059760 2.169000 
# 
# From -- ./inp_files/7705.got.cif
#   From: 2010.05.17/outbox.cif.g08.bks.cpg/sg2_4_cif.got.tgz:7705.got - 2010.06.03 11:33:40.
