data_PCOD9096606
_publ_section_title
;
Structure prediction by ZEFSAII (Michael W. Deem and Ramdas Pophale) SiO2 
 PCOD9096606
Probable space group: P -1
;
_chemical_formula_sum "Si O2"
_cell_formula_units_Z 16
_cell_length_a 13.171241
_cell_length_b 9.648418
_cell_length_c 14.457237
_cell_angle_alpha 138.847110
_cell_angle_beta 125.249222
_cell_angle_gamma 40.754351
_cell_volume 789.184381
_symmetry_space_group_name_H-M "P -1"
_symmetry_group_IT_number 2
_symmetry_cell_setting 'triclinic'
loop_
_space_group_symop_operation_xyz
x,y,z
-x,-y,-z
loop_
_atom_site_type_symbol
_atom_site_label
_atom_site_fract_x
_atom_site_fract_y
_atom_site_fract_z
Si Si1 0.929407 0.702777 0.151370
Si Si2 0.909808 0.035573 0.653645
Si Si3 0.127636 0.538840 0.618576
Si Si4 0.585698 0.274779 0.697343
Si Si5 0.513262 0.731796 0.642671
Si Si6 0.389880 0.170552 0.422761
Si Si7 0.826784 0.749692 0.322669
Si Si8 0.432840 0.843697 0.858168
O O1 0.910508 0.622757 0.204570
O O2 0.043622 0.784433 0.267294
O O3 0.751907 0.952521 0.156126
O O4 0.000000 0.500000 0.000000
O O5 0.755454 0.176652 0.705797
O O6 0.892280 0.885446 0.484158
O O7 0.049559 0.834448 0.696597
O O8 0.265916 0.353751 0.527708
O O9 0.165699 0.448612 0.699055
O O10 0.000000 0.500000 0.500000
O O11 0.528989 0.180877 0.536136
O O12 0.476741 0.589236 0.811329
O O13 0.584958 0.104994 0.694748
O O14 0.500000 0.500000 0.500000
O O15 0.641790 0.714193 0.638380
O O16 0.531362 0.712283 0.750666
O O17 0.351174 0.015579 0.678680
O O18 0.500000 0.000000 0.000000
#
# Coordination Sequence:
#
# PCOD9096606 Si02
#       8
#     2   2   2   2   2   2   2   2
#     4  11  25  41  61  87 124 171 205 251 308 362
#     4  11  20  39  61  95 125 155 206 251 312 366
#     4  10  20  36  56  93 126 156 191 251 311 361
#     4  11  20  36  63  91 124 160 200 253 307 364
#     4  11  21  36  63  97 121 156 208 260 306 366
#     4  11  19  36  61  93 127 154 201 255 315 362
#     4  10  20  39  59  91 124 156 204 253 303 366
#     4  11  24  44  61  87 128 165 211 255 304 369
#
# _framework density 20.274094999999999
#
# number of rings (size 3 to 8) (size 9 to 14) (size 15 to 20)
#    0.000    1.250    5.000    2.625    1.750    0.000 
#    9.000    1.250    0.000    1.500    0.000    0.000 
#    0.000    0.000    0.000    0.000    0.000    0.000 
#
# Total GULP energy -89143.944945 kJ/mol
# GULP energy per Si atom -5571.496559 kJ/mol
# Density = 2.022795 g / cm^3
# Si number density = 20.274095 Si / 1000 Ang^3
#
#
#
# Elastic Constant Matrix: (Units=GPa)
#
#
# Indices 1 2 3 4 5 6 
#
# 1 121.4820 35.1556 24.8005 5.8736 -14.2004 15.3833
# 2 35.1556 95.1754 3.1730 9.8690 -10.1563 13.5510
# 3 24.8005 3.1730 70.2923 13.2767 -11.2171 6.6802
# 4 5.8736 9.8690 13.2767 16.4923 -1.5035 0.5787
# 5 -14.2004 -10.1563 -11.2171 -1.5035 36.2739 -7.6962
# 6 15.3833 13.5510 6.6802 0.5787 -7.6962 29.8394
#
#
#
# Elastic Compliance Matrix: (Units=1/GPa)
#
#
# Indices 1 2 3 4 5 6 
#
# 1 0.010302 -0.003251 -0.003175 0.001075 0.001606 -0.002731
# 2 -0.003251 0.013374 0.002971 -0.008893 0.002099 -0.004349
# 3 -0.003175 0.002971 0.019074 -0.015520 0.004298 -0.002573
# 4 0.001075 -0.008893 -0.015520 0.077660 -0.002637 0.004773
# 5 0.001606 0.002099 0.004298 -0.002637 0.031137 0.005338
# 6 -0.002731 -0.004349 -0.002573 0.004773 0.005338 0.038756
#
#
# Mechanical properties :
#
#
# Convention : Reuss Voigt Hill
#
# Bulk Modulus (GPa) = 27.90083 45.91198 36.90640
# Shear Modulus (GPa) = 23.90516 31.44251 27.67383
#
# Velocity S-wave (km/s) = 3.43753 3.94238 3.69858
# Velocity P-wave (km/s) = 5.43573 6.58923 6.04008
#
# Compressibility (1/GPa) = 0.03584123
#
# Stress axis : x y z
#
# Youngs Moduli (GPa) = 97.06658 74.77174 52.42638
#
# Poissons Ratio (x) = 0.24307 0.16647
# Poissons Ratio (y) = 0.31554 -0.15578
# Poissons Ratio (z) = 0.30821 -0.22217
#
# Static dielectric constant tensor:
#      x y z
#    x 1.649790 0.122220 -0.050200 
#    y 0.122220 1.674000 0.004880 
#    z -0.050200 0.004880 1.679960 
# 
# From -- ./inp_files/420091.got.cif
#   From: 2010.05.17/outbox.cif.g08.bks.cpg/sg2_211_cif.got.tgz:420091.got - 2010.06.03 11:33:40.
