data_PCOD9096820
_publ_section_title
;
Structure prediction by ZEFSAII (Michael W. Deem and Ramdas Pophale) SiO2 
 PCOD9096820
Probable space group: P -1
;
_chemical_formula_sum "Si O2"
_cell_formula_units_Z 12
_cell_length_a 4.987873
_cell_length_b 9.428053
_cell_length_c 16.134323
_cell_angle_alpha 43.441193
_cell_angle_beta 77.803332
_cell_angle_gamma 71.939962
_cell_volume 495.896662
_symmetry_space_group_name_H-M "P -1"
_symmetry_group_IT_number 2
_symmetry_cell_setting 'triclinic'
loop_
_space_group_symop_operation_xyz
x,y,z
-x,-y,-z
loop_
_atom_site_type_symbol
_atom_site_label
_atom_site_fract_x
_atom_site_fract_y
_atom_site_fract_z
Si Si1 0.721677 0.145325 0.415657
Si Si2 0.314950 0.391615 0.997811
Si Si3 0.489054 0.316869 0.513514
Si Si4 0.237154 0.204591 0.924770
Si Si5 0.966664 0.940583 0.337281
Si Si6 0.791381 0.008333 0.134523
O O1 0.602555 0.339837 0.402956
O O2 0.500000 0.000000 0.500000
O O3 0.797770 0.143363 0.314678
O O4 0.000000 0.000000 0.500000
O O5 0.470954 0.143820 0.108267
O O6 0.500000 0.500000 0.000000
O O7 0.312864 0.386916 0.898920
O O8 0.000000 0.500000 0.000000
O O9 0.500000 0.500000 0.500000
O O10 0.191554 0.251113 0.554052
O O11 0.718064 0.121800 0.622210
O O12 0.183605 0.206698 0.828971
O O13 0.964916 0.148795 0.010456
O O14 0.500000 0.000000 0.000000
O O15 0.934255 0.972598 0.228841
#
# Coordination Sequence:
#
# PCOD9096820 Si02
#       6
#     2   2   2   2   2   2
#     4   8  16  33  53  77 105 145 179 216 280 340
#     4  11  21  37  59  82 113 152 191 239 300 341
#     4  10  20  36  58  83 118 148 182 234 297 336
#     4   9  20  37  60  81 119 159 198 234 298 350
#     4  10  21  35  60  84 109 151 195 234 270 349
#     4  10  21  38  59  88 115 156 208 237 282 352
#
# _framework density 24.198591
#
# number of rings (size 3 to 8) (size 9 to 14) (size 15 to 20)
#    0.000    2.333    1.667    0.500    4.667    0.000 
#    0.000    3.333    0.000    0.000    0.000    0.000 
#    0.000    0.000    0.000    0.000    0.000    0.000 
#
# Total GULP energy -66875.117564 kJ/mol
# GULP energy per Si atom -5572.926464 kJ/mol
# Density = 2.414351 g / cm^3
# Si number density = 24.198591 Si / 1000 Ang^3
#
#
#
# Elastic Constant Matrix: (Units=GPa)
#
#
# Indices 1 2 3 4 5 6 
#
# 1 139.7231 23.6492 6.3779 -0.4651 19.1307 -1.1973
# 2 23.6492 217.1229 43.1008 53.9437 -1.8114 21.4105
# 3 6.3779 43.1008 48.3196 34.9584 6.1725 4.9354
# 4 -0.4651 53.9437 34.9584 49.6601 14.9063 11.7219
# 5 19.1307 -1.8114 6.1725 14.9063 19.8976 5.7437
# 6 -1.1973 21.4105 4.9354 11.7219 5.7437 47.2699
#
#
#
# Elastic Compliance Matrix: (Units=1/GPa)
#
#
# Indices 1 2 3 4 5 6 
#
# 1 0.010819 -0.003796 -0.005618 0.013736 -0.019750 0.001573
# 2 -0.003796 0.008761 0.001715 -0.014922 0.015805 -0.002463
# 3 -0.005618 0.001715 0.047697 -0.042591 0.022098 0.001978
# 4 0.013736 -0.014922 -0.042591 0.086635 -0.065693 -0.001948
# 5 -0.019750 0.015805 0.022098 -0.065693 0.115261 -0.007681
# 6 0.001573 -0.002463 0.001978 -0.001948 -0.007681 0.023521
#
#
# Mechanical properties :
#
#
# Convention : Reuss Voigt Hill
#
# Bulk Modulus (GPa) = 19.27564 61.26903 40.27233
# Shear Modulus (GPa) = 15.36644 45.50135 30.43389
#
# Velocity S-wave (km/s) = 2.52268 4.34098 3.55021
# Velocity P-wave (km/s) = 4.05809 7.10632 5.78653
#
# Compressibility (1/GPa) = 0.05187896
#
# Stress axis : x y z
#
# Youngs Moduli (GPa) = 92.42817 114.14494 20.96571
#
# Poissons Ratio (x) = 0.43328 0.11778
# Poissons Ratio (y) = 0.35084 -0.03595
# Poissons Ratio (z) = 0.51925 -0.19573
#
# Static dielectric constant tensor:
#      x y z
#    x 1.934660 0.031180 -0.034020 
#    y 0.031180 2.033120 0.032780 
#    z -0.034020 0.032780 2.033860 
# 
# From -- ./inp_files/31783.got.cif
#   From: 2010.05.17/outbox.cif.g08.bks.cpg/sg2_16_cif.got.tgz:31783.got - 2010.06.03 11:33:40.
