data_PCOD9096146
_publ_section_title
;
Structure prediction by ZEFSAII (Michael W. Deem and Ramdas Pophale) SiO2 
 PCOD9096146
Probable space group: P -1
;
_chemical_formula_sum "Si O2"
_cell_formula_units_Z 14
_cell_length_a 10.309779
_cell_length_b 7.355884
_cell_length_c 14.113311
_cell_angle_alpha 52.915447
_cell_angle_beta 123.909904
_cell_angle_gamma 132.631581
_cell_volume 607.473972
_symmetry_space_group_name_H-M "P -1"
_symmetry_group_IT_number 2
_symmetry_cell_setting 'triclinic'
loop_
_space_group_symop_operation_xyz
x,y,z
-x,-y,-z
loop_
_atom_site_type_symbol
_atom_site_label
_atom_site_fract_x
_atom_site_fract_y
_atom_site_fract_z
Si Si1 0.679936 0.199860 0.639524
Si Si2 0.663610 0.190120 0.137033
Si Si3 0.911570 0.151125 0.368214
Si Si4 0.285016 0.769967 0.077057
Si Si5 0.284777 0.851820 0.537504
Si Si6 0.733653 0.620753 0.669873
Si Si7 0.010133 0.746846 0.111355
O O1 0.483618 0.933039 0.632843
O O2 0.641230 0.404242 0.616476
O O3 0.839541 0.188089 0.765014
O O4 0.743304 0.293097 0.528203
O O5 0.723623 0.013618 0.277506
O O6 0.810315 0.492324 0.133175
O O7 0.446613 0.045666 0.102925
O O8 0.699097 0.190934 0.039891
O O9 0.057286 0.291720 0.299100
O O10 0.863304 0.275312 0.399617
O O11 0.000000 0.000000 0.500000
O O12 0.314835 0.534522 0.201811
O O13 0.095501 0.702844 0.064886
O O14 0.291801 0.128885 0.426555
O O15 0.000000 0.000000 0.000000
#
# Coordination Sequence:
#
# PCOD9096146 Si02
#       7
#     2   2   2   2   2   2   2
#     4  10  21  40  58  95 122 168 208 261 322 368
#     4  11  22  42  65  93 127 163 213 268 311 385
#     4  10  20  35  62  94 123 164 210 260 314 381
#     4  10  23  41  67  92 124 167 214 261 323 376
#     4  10  22  37  66  91 131 164 216 258 319 390
#     4  10  20  39  64  93 124 168 209 263 322 375
#     4  11  24  40  66  90 130 166 211 266 321 375
#
# _framework density 23.046253
#
# number of rings (size 3 to 8) (size 9 to 14) (size 15 to 20)
#    0.000    1.714    2.857    2.571    2.000    3.429 
#    0.000    0.000    3.143    0.000    0.000    0.000 
#    0.000    0.000    0.000    0.000    0.000    0.000 
#
# Total GULP energy -77977.919727 kJ/mol
# GULP energy per Si atom -5569.851409 kJ/mol
# Density = 2.299380 g / cm^3
# Si number density = 23.046253 Si / 1000 Ang^3
#
#
#
# Elastic Constant Matrix: (Units=GPa)
#
#
# Indices 1 2 3 4 5 6 
#
# 1 62.5550 9.3847 25.0722 -0.3649 -13.4387 12.1670
# 2 9.3847 76.9199 28.3339 5.9817 16.4773 21.5842
# 3 25.0722 28.3339 118.3202 4.9478 -5.5649 -16.9375
# 4 -0.3649 5.9817 4.9478 36.3638 -2.3531 1.2987
# 5 -13.4387 16.4773 -5.5649 -2.3531 37.2178 3.8293
# 6 12.1670 21.5842 -16.9375 1.2987 3.8293 30.2158
#
#
#
# Elastic Compliance Matrix: (Units=1/GPa)
#
#
# Indices 1 2 3 4 5 6 
#
# 1 0.023807 0.003014 -0.007948 0.001958 0.007976 -0.017290
# 2 0.003014 0.025444 -0.010504 -0.002480 -0.009437 -0.023974
# 3 -0.007948 -0.010504 0.015539 -0.001018 0.002064 0.019196
# 4 0.001958 -0.002480 -0.001018 0.028342 0.003574 -0.001259
# 5 0.007976 -0.009437 0.002064 0.003574 0.034444 0.000167
# 6 -0.017290 -0.023974 0.019196 -0.001259 0.000167 0.067976
#
#
# Mechanical properties :
#
#
# Convention : Reuss Voigt Hill
#
# Bulk Modulus (GPa) = 29.48665 42.59740 36.04202
# Shear Modulus (GPa) = 21.03200 33.75977 27.39588
#
# Velocity S-wave (km/s) = 3.02420 3.83151 3.45154
# Velocity P-wave (km/s) = 5.00167 6.17232 5.61758
#
# Compressibility (1/GPa) = 0.03391366
#
# Stress axis : x y z
#
# Youngs Moduli (GPa) = 42.00377 39.30275 64.35527
#
# Poissons Ratio (x) = -0.11845 0.51152
# Poissons Ratio (y) = -0.12659 0.67596
# Poissons Ratio (z) = 0.33386 0.41282
#
# Static dielectric constant tensor:
#      x y z
#    x 1.848500 0.013110 -0.008930 
#    y 0.013110 2.000340 -0.038990 
#    z -0.008930 -0.038990 1.924480 
# 
# From -- ./inp_files/515092.got.cif
#   From: 2010.05.17/outbox.cif.g08.bks.cpg/sg2_258_cif.got.tgz:515092.got - 2010.06.03 11:33:40.
