data_PCOD9096419
_publ_section_title
;
Structure prediction by ZEFSAII (Michael W. Deem and Ramdas Pophale) SiO2 
 PCOD9096419
Probable space group: P -1
;
_chemical_formula_sum "Si O2"
_cell_formula_units_Z 16
_cell_length_a 13.996280
_cell_length_b 5.335656
_cell_length_c 18.728858
_cell_angle_alpha 75.780492
_cell_angle_beta 34.961568
_cell_angle_gamma 87.162791
_cell_volume 747.335220
_symmetry_space_group_name_H-M "P -1"
_symmetry_group_IT_number 2
_symmetry_cell_setting 'triclinic'
loop_
_space_group_symop_operation_xyz
x,y,z
-x,-y,-z
loop_
_atom_site_type_symbol
_atom_site_label
_atom_site_fract_x
_atom_site_fract_y
_atom_site_fract_z
Si Si1 0.002887 0.566310 0.338300
Si Si2 0.391448 0.604202 0.437124
Si Si3 0.897814 0.666610 0.130349
Si Si4 0.968306 0.988570 0.436173
Si Si5 0.020086 0.036091 0.795527
Si Si6 0.683902 0.204781 0.385668
Si Si7 0.785205 0.567482 0.052293
Si Si8 0.554903 0.809113 0.669689
O O1 0.795853 0.451705 0.479566
O O2 0.050278 0.778226 0.359155
O O3 0.032165 0.735606 0.234684
O O4 0.054536 0.289239 0.331219
O O5 0.352619 0.599309 0.544783
O O6 0.461861 0.370940 0.378882
O O7 0.490766 0.910654 0.336056
O O8 0.899854 0.856449 0.183655
O O9 0.779722 0.378459 0.249252
O O10 0.090044 0.630425 0.008064
O O11 0.826561 0.718763 0.093448
O O12 0.757515 0.889321 0.562109
O O13 0.000000 0.000000 0.500000
O O14 0.170336 0.941721 0.667982
O O15 0.858219 0.783836 0.930751
O O16 0.500000 0.000000 0.500000
O O17 0.587874 0.389434 0.179287
#
# Coordination Sequence:
#
# PCOD9096419 Si02
#       8
#     2   2   2   2   2   2   2   2
#     4  10  20  37  63  89 122 154 194 244 311 375
#     4  10  20  36  54  86 116 151 200 248 306 358
#     4  10  22  37  55  78 117 166 223 257 289 344
#     4  10  21  39  67  98 122 148 189 252 324 388
#     4  11  22  37  58  81 119 167 213 254 300 357
#     4  11  22  33  53  82 118 161 211 266 312 344
#     4  10  23  38  54  82 116 170 220 250 295 344
#     4  10  22  37  62  85 123 159 198 249 308 368
#
# _framework density 21.409403999999999
#
# number of rings (size 3 to 8) (size 9 to 14) (size 15 to 20)
#    0.000    1.750    1.250    3.750    5.250    0.500 
#    0.000    0.000    0.000    1.500    0.000    0.000 
#    0.000    0.000    0.000    0.000    0.000    0.000 
#
# Total GULP energy -89313.934623 kJ/mol
# GULP energy per Si atom -5582.120914 kJ/mol
# Density = 2.136067 g / cm^3
# Si number density = 21.409404 Si / 1000 Ang^3
#
#
#
# Elastic Constant Matrix: (Units=GPa)
#
#
# Indices 1 2 3 4 5 6 
#
# 1 49.2670 36.1863 20.2117 5.0428 12.0251 12.1144
# 2 36.1863 123.2129 43.3745 -15.1491 5.5152 18.0114
# 3 20.2117 43.3745 125.8304 -29.3821 2.2630 0.0507
# 4 5.0428 -15.1491 -29.3821 35.6601 -5.9811 8.2872
# 5 12.0251 5.5152 2.2630 -5.9811 19.4565 2.4575
# 6 12.1144 18.0114 0.0507 8.2872 2.4575 22.4011
#
#
#
# Elastic Compliance Matrix: (Units=1/GPa)
#
#
# Indices 1 2 3 4 5 6 
#
# 1 0.039639 -0.009844 -0.006962 -0.019116 -0.026327 -0.003546
# 2 -0.009844 0.013745 -0.000960 0.009901 0.006621 -0.010115
# 3 -0.006962 -0.000960 0.012023 0.011775 0.006872 -0.000601
# 4 -0.019116 0.009901 0.011775 0.053924 0.026809 -0.020540
# 5 -0.026327 0.006621 0.006872 0.026809 0.074393 -0.009181
# 6 -0.003546 -0.010115 -0.000601 -0.020540 -0.009181 0.063298
#
#
# Mechanical properties :
#
#
# Convention : Reuss Voigt Hill
#
# Bulk Modulus (GPa) = 33.47434 55.31724 44.39579
# Shear Modulus (GPa) = 16.52834 28.73939 22.63386
#
# Velocity S-wave (km/s) = 2.78153 3.66781 3.25498
# Velocity P-wave (km/s) = 5.09756 6.62050 5.90831
#
# Compressibility (1/GPa) = 0.02987363
#
# Stress axis : x y z
#
# Youngs Moduli (GPa) = 25.22788 72.75636 83.17706
#
# Poissons Ratio (x) = 0.71621 0.57912
# Poissons Ratio (y) = 0.24834 0.07981
# Poissons Ratio (z) = 0.17565 0.06981
#
# Static dielectric constant tensor:
#      x y z
#    x 1.777790 -0.001560 0.016770 
#    y -0.001560 1.883460 -0.018870 
#    z 0.016770 -0.018870 1.812870 
# 
# From -- ./inp_files/550860.got.cif
#   From: 2010.05.17/outbox.cif.g08.bks.cpg/sg2_276_cif.got.tgz:550860.got - 2010.06.03 11:33:40.
