data_PCOD9096929
_publ_section_title
;
Structure prediction by ZEFSAII (Michael W. Deem and Ramdas Pophale) SiO2 
 PCOD9096929
Probable space group: P -1
;
_chemical_formula_sum "Si O2"
_cell_formula_units_Z 14
_cell_length_a 7.914523
_cell_length_b 13.382595
_cell_length_c 9.641709
_cell_angle_alpha 36.514136
_cell_angle_beta 114.506122
_cell_angle_gamma 115.242020
_cell_volume 544.677818
_symmetry_space_group_name_H-M "P -1"
_symmetry_group_IT_number 2
_symmetry_cell_setting 'triclinic'
loop_
_space_group_symop_operation_xyz
x,y,z
-x,-y,-z
loop_
_atom_site_type_symbol
_atom_site_label
_atom_site_fract_x
_atom_site_fract_y
_atom_site_fract_z
Si Si1 0.516896 0.176279 0.160976
Si Si2 0.384734 0.494970 0.823282
Si Si3 0.243865 0.073636 0.426618
Si Si4 0.799687 0.880638 0.085570
Si Si5 0.301577 0.513697 0.487694
Si Si6 0.898209 0.863217 0.420323
Si Si7 0.001500 0.491851 0.180463
O O1 0.420802 0.145030 0.314548
O O2 0.709100 0.106056 0.299995
O O3 0.508376 0.372261 0.920938
O O4 0.364380 0.076157 0.115649
O O5 0.340598 0.606767 0.547802
O O6 0.177287 0.449335 0.873442
O O7 0.500000 0.500000 0.000000
O O8 0.212930 0.185596 0.421718
O O9 0.054983 0.026552 0.326574
O O10 0.802724 0.678893 0.288663
O O11 0.758278 0.895786 0.216574
O O12 0.000000 0.000000 0.000000
O O13 0.500000 0.500000 0.500000
O O14 0.174293 0.570430 0.255888
O O15 0.004220 0.712220 0.577066
O O16 0.000000 0.500000 0.000000
#
# Coordination Sequence:
#
# PCOD9096929 Si02
#       7
#     2   2   2   2   2   2   2
#     4  10  21  37  61  88 123 161 209 256 318 372
#     4  11  22  39  65  93 130 170 219 263 328 383
#     4  10  20  36  58  88 124 156 208 260 310 372
#     4  10  20  40  65  88 128 163 209 262 322 382
#     4  10  23  41  65  96 131 171 219 271 323 390
#     4  10  21  37  61  88 123 161 209 256 318 372
#     4  11  22  39  65  93 130 170 219 263 328 383
#
# _framework density 25.703268000000001
#
# number of rings (size 3 to 8) (size 9 to 14) (size 15 to 20)
#    0.000    1.714    1.429    3.000    0.000    2.857 
#    0.000    0.000   25.143    0.000    0.000    0.000 
#    0.000    0.000    0.000    0.000    0.000    0.000 
#
# Total GULP energy -77955.135509 kJ/mol
# GULP energy per Si atom -5568.223965 kJ/mol
# Density = 2.564477 g / cm^3
# Si number density = 25.703268 Si / 1000 Ang^3
#
#
#
# Elastic Constant Matrix: (Units=GPa)
#
#
# Indices 1 2 3 4 5 6 
#
# 1 108.0919 23.3099 28.3274 19.8834 14.2520 1.0050
# 2 23.3099 103.9966 41.4759 46.4784 7.2692 3.4290
# 3 28.3274 41.4759 86.1574 38.1879 -5.2370 -1.8691
# 4 19.8834 46.4784 38.1879 60.0603 3.9153 8.3552
# 5 14.2520 7.2692 -5.2370 3.9153 41.4671 12.8860
# 6 1.0050 3.4290 -1.8691 8.3552 12.8860 29.7377
#
#
#
# Elastic Compliance Matrix: (Units=1/GPa)
#
#
# Indices 1 2 3 4 5 6 
#
# 1 0.010963 -0.000377 -0.003060 -0.001350 -0.004527 0.001822
# 2 -0.000377 0.015523 -0.002992 -0.010094 -0.002643 0.002016
# 3 -0.003060 -0.002992 0.018286 -0.008888 0.003990 0.002366
# 4 -0.001350 -0.010094 -0.008888 0.031704 0.000790 -0.008599
# 5 -0.004527 -0.002643 0.003990 0.000790 0.030523 -0.012740
# 6 0.001822 0.002016 0.002366 -0.008599 -0.012740 0.041418
#
#
# Mechanical properties :
#
#
# Convention : Reuss Voigt Hill
#
# Bulk Modulus (GPa) = 31.33417 53.83027 42.58222
# Shear Modulus (GPa) = 29.08452 39.92851 34.50652
#
# Velocity S-wave (km/s) = 3.36750 3.94565 3.66798
# Velocity P-wave (km/s) = 5.22851 6.46111 5.87721
#
# Compressibility (1/GPa) = 0.03191404
#
# Stress axis : x y z
#
# Youngs Moduli (GPa) = 91.21620 64.42217 54.68588
#
# Poissons Ratio (x) = 0.02429 0.16735
# Poissons Ratio (y) = 0.03439 0.16360
# Poissons Ratio (z) = 0.27914 0.19273
#
# Static dielectric constant tensor:
#      x y z
#    x 1.947460 0.007460 -0.058880 
#    y 0.007460 2.264200 0.052240 
#    z -0.058880 0.052240 2.376600 
# 
# From -- ./inp_files/205406.got.cif
#   From: 2010.05.17/outbox.cif.g08.bks.cpg/sg2_103_cif.got.tgz:205406.got - 2010.06.03 11:33:40.
