data_PCOD9096510
_publ_section_title
;
Structure prediction by ZEFSAII (Michael W. Deem and Ramdas Pophale) SiO2 
 PCOD9096510
Probable space group: P -1
;
_chemical_formula_sum "Si O2"
_cell_formula_units_Z 16
_cell_length_a 21.786977
_cell_length_b 8.662944
_cell_length_c 7.079713
_cell_angle_alpha 101.791481
_cell_angle_beta 112.061816
_cell_angle_gamma 133.152250
_cell_volume 660.578733
_symmetry_space_group_name_H-M "P -1"
_symmetry_group_IT_number 2
_symmetry_cell_setting 'triclinic'
loop_
_space_group_symop_operation_xyz
x,y,z
-x,-y,-z
loop_
_atom_site_type_symbol
_atom_site_label
_atom_site_fract_x
_atom_site_fract_y
_atom_site_fract_z
Si Si1 0.649199 0.253294 0.542066
Si Si2 0.150257 0.374373 0.628899
Si Si3 0.405027 0.934641 0.123242
Si Si4 0.868233 0.307801 0.340266
Si Si5 0.890091 0.400153 0.831604
Si Si6 0.909034 0.797770 0.070010
Si Si7 0.387117 0.263329 0.065314
Si Si8 0.366987 0.136802 0.591708
O O1 0.626785 0.168701 0.719411
O O2 0.539194 0.134263 0.304062
O O3 0.642316 0.063380 0.404956
O O4 0.783960 0.595678 0.771348
O O5 0.143577 0.543805 0.727727
O O6 0.119673 0.219754 0.746644
O O7 0.290931 0.627655 0.804367
O O8 0.045107 0.137096 0.293889
O O9 0.404123 0.116179 0.111659
O O10 0.861853 0.340532 0.561802
O O11 0.000000 0.500000 0.500000
O O12 0.748167 0.962848 0.076368
O O13 0.764625 0.092651 0.706985
O O14 0.920140 0.633715 0.998404
O O15 0.000000 0.500000 0.000000
O O16 0.378239 0.260912 0.825962
O O17 0.514267 0.604699 0.335677
#
# Coordination Sequence:
#
# PCOD9096510 Si02
#       8
#     2   2   2   2   2   2   2   2
#     4   9  18  34  53  80 112 142 179 229 277 324
#     4   9  18  35  55  79 109 146 187 222 272 335
#     4   9  18  34  54  80 110 142 183 226 274 328
#     4  10  20  36  56  82 111 146 185 230 276 332
#     4  10  20  36  56  79 114 146 182 231 280 326
#     4   9  18  35  56  77 110 148 181 226 276 329
#     4   9  19  37  56  79 109 144 186 226 272 333
#     4   9  19  37  56  78 109 147 183 225 277 327
#
# _framework density 24.221187
#
# number of rings (size 3 to 8) (size 9 to 14) (size 15 to 20)
#    0.000    2.750    0.000    0.750    0.000    2.500 
#   18.000    0.000    0.000    0.000    0.000    0.000 
#    0.000    0.000    0.000    0.000    0.000    0.000 
#
# Total GULP energy -89243.539003 kJ/mol
# GULP energy per Si atom -5577.721188 kJ/mol
# Density = 2.416606 g / cm^3
# Si number density = 24.221187 Si / 1000 Ang^3
#
#
#
# Elastic Constant Matrix: (Units=GPa)
#
#
# Indices 1 2 3 4 5 6 
#
# 1 73.3089 4.3257 57.5522 17.4099 36.2468 18.3334
# 2 4.3257 69.8041 53.9815 16.8328 10.3211 23.3181
# 3 57.5522 53.9815 187.6397 55.7023 45.0572 11.7330
# 4 17.4099 16.8328 55.7023 53.2346 17.1023 4.3662
# 5 36.2468 10.3211 45.0572 17.1023 58.7663 -2.4464
# 6 18.3334 23.3181 11.7330 4.3662 -2.4464 27.8418
#
#
#
# Elastic Compliance Matrix: (Units=1/GPa)
#
#
# Indices 1 2 3 4 5 6 
#
# 1 0.050897 0.030524 -0.014989 0.003112 -0.028488 -0.055754
# 2 0.030524 0.043577 -0.014919 0.001827 -0.017745 -0.052155
# 3 -0.014989 -0.014919 0.014699 -0.008442 0.003794 0.017828
# 4 0.003112 0.001827 -0.008442 0.027703 -0.004026 -0.004720
# 5 -0.028488 -0.017745 0.003794 -0.004026 0.037463 0.035945
# 6 -0.055754 -0.052155 0.017828 -0.004720 0.035945 0.112697
#
#
# Mechanical properties :
#
#
# Convention : Reuss Voigt Hill
#
# Bulk Modulus (GPa) = 9.05760 62.49683 35.77722
# Shear Modulus (GPa) = 15.49879 42.29476 28.89677
#
# Velocity S-wave (km/s) = 2.53234 4.18328 3.45778
# Velocity P-wave (km/s) = 3.50685 7.01367 5.54480
#
# Compressibility (1/GPa) = 0.11040455
#
# Stress axis : x y z
#
# Youngs Moduli (GPa) = 19.64755 22.94793 68.03219
#
# Poissons Ratio (x) = -0.70046 1.01973
# Poissons Ratio (y) = -0.59972 1.01497
# Poissons Ratio (z) = 0.29450 0.34236
#
# Static dielectric constant tensor:
#      x y z
#    x 1.905310 0.078460 0.005600 
#    y 0.078460 1.986890 -0.003380 
#    z 0.005600 -0.003380 2.027890 
# 
# From -- ./inp_files/304621.got.cif
#   From: 2010.05.17/outbox.cif.g08.bks.cpg/sg2_153_cif.got.tgz:304621.got - 2010.06.03 11:33:40.
