data_PCOD9096846
_publ_section_title
;
Structure prediction by ZEFSAII (Michael W. Deem and Ramdas Pophale) SiO2 
 PCOD9096846
Probable space group: P -1
;
_chemical_formula_sum "Si O2"
_cell_formula_units_Z 14
_cell_length_a 12.167695
_cell_length_b 9.307246
_cell_length_c 11.669304
_cell_angle_alpha 68.060123
_cell_angle_beta 116.334629
_cell_angle_gamma 151.726131
_cell_volume 560.568594
_symmetry_space_group_name_H-M "P -1"
_symmetry_group_IT_number 2
_symmetry_cell_setting 'triclinic'
loop_
_space_group_symop_operation_xyz
x,y,z
-x,-y,-z
loop_
_atom_site_type_symbol
_atom_site_label
_atom_site_fract_x
_atom_site_fract_y
_atom_site_fract_z
Si Si1 0.551362 0.137466 0.651970
Si Si2 0.234292 0.930650 0.261002
Si Si3 0.739518 0.286513 0.143898
Si Si4 0.539927 0.365207 0.084884
Si Si5 0.010202 0.075459 0.726814
Si Si6 0.712138 0.849693 0.462528
Si Si7 0.936393 0.192392 0.233105
O O1 0.582690 0.007901 0.640744
O O2 0.364635 0.065258 0.549049
O O3 0.812559 0.497838 0.680048
O O4 0.466030 0.999228 0.781999
O O5 0.972185 0.569162 0.246990
O O6 0.202519 0.061075 0.267818
O O7 0.298685 0.039524 0.126952
O O8 0.649267 0.360682 0.045606
O O9 0.826123 0.234711 0.123766
O O10 0.738857 0.587193 0.212388
O O11 0.500000 0.500000 0.000000
O O12 0.012970 0.894739 0.801822
O O13 0.951711 0.050145 0.575827
O O14 0.500000 0.500000 0.500000
O O15 0.757006 0.927991 0.325707
#
# Coordination Sequence:
#
# PCOD9096846 Si02
#       7
#     2   2   2   2   2   2   2
#     4   9  18  36  57  79 117 159 183 230 280 331
#     4   9  20  38  59  82 115 149 191 235 281 337
#     4   8  18  37  59  84 110 153 189 230 285 334
#     4  10  22  41  63  83 111 148 190 242 289 331
#     4  11  23  34  57  91 114 150 194 231 281 337
#     4  11  22  34  56  87 120 156 189 225 279 336
#     4  10  20  36  58  84 123 152 186 230 278 341
#
# _framework density 24.974643
#
# number of rings (size 3 to 8) (size 9 to 14) (size 15 to 20)
#    0.000    2.286    1.429    0.429    2.000    2.857 
#    0.000   25.000    0.000    8.571    0.000    0.000 
#    0.000    0.000    0.000    0.000    0.000    0.000 
#
# Total GULP energy -78052.481882 kJ/mol
# GULP energy per Si atom -5575.177277 kJ/mol
# Density = 2.491780 g / cm^3
# Si number density = 24.974643 Si / 1000 Ang^3
#
#
#
# Elastic Constant Matrix: (Units=GPa)
#
#
# Indices 1 2 3 4 5 6 
#
# 1 223.9468 11.4700 34.2933 -12.4826 64.3880 -31.2070
# 2 11.4700 61.7054 29.4341 -12.6177 10.4784 -0.5654
# 3 34.2933 29.4341 58.4788 0.2960 30.3712 -2.2599
# 4 -12.4826 -12.6177 0.2960 35.6272 -7.2325 1.3531
# 5 64.3880 10.4784 30.3712 -7.2325 41.0028 -10.7053
# 6 -31.2070 -0.5654 -2.2599 1.3531 -10.7053 32.5547
#
#
#
# Elastic Compliance Matrix: (Units=1/GPa)
#
#
# Indices 1 2 3 4 5 6 
#
# 1 0.008894 -0.000606 0.003144 -0.000358 -0.015227 0.003742
# 2 -0.000606 0.025135 -0.017263 0.010722 0.009560 0.001355
# 3 0.003144 -0.017263 0.042159 -0.012332 -0.035358 -0.005474
# 4 -0.000358 0.010722 -0.012332 0.034521 0.013572 0.002015
# 5 -0.015227 0.009560 -0.035358 0.013572 0.076449 0.007690
# 6 0.003742 0.001355 -0.005474 0.002015 0.007690 0.036393
#
#
# Mechanical properties :
#
#
# Convention : Reuss Voigt Hill
#
# Bulk Modulus (GPa) = 21.39542 54.94733 38.17137
# Shear Modulus (GPa) = 18.61638 39.76585 29.19111
#
# Velocity S-wave (km/s) = 2.73318 3.99463 3.42252
# Velocity P-wave (km/s) = 4.30649 6.58218 5.56197
#
# Compressibility (1/GPa) = 0.04673897
#
# Stress axis : x y z
#
# Youngs Moduli (GPa) = 112.42921 39.78585 23.71949
#
# Poissons Ratio (x) = 0.02411 -0.07457
# Poissons Ratio (y) = 0.06814 0.40946
# Poissons Ratio (z) = -0.35347 0.68681
#
# Static dielectric constant tensor:
#      x y z
#    x 2.073790 -0.039360 -0.013050 
#    y -0.039360 1.918590 -0.002640 
#    z -0.013050 -0.002640 2.022980 
# 
# From -- ./inp_files/35434.got.cif
#   From: 2010.05.17/outbox.cif.g08.bks.cpg/sg2_18_cif.got.tgz:35434.got - 2010.06.03 11:33:40.
