data_PCOD9096552
_publ_section_title
;
Structure prediction by ZEFSAII (Michael W. Deem and Ramdas Pophale) SiO2 
 PCOD9096552
Probable space group: P -1
;
_chemical_formula_sum "Si O2"
_cell_formula_units_Z 16
_cell_length_a 21.152675
_cell_length_b 17.614522
_cell_length_c 12.056176
_cell_angle_alpha 139.669212
_cell_angle_beta 149.906968
_cell_angle_gamma 18.839246
_cell_volume 681.525432
_symmetry_space_group_name_H-M "P -1"
_symmetry_group_IT_number 2
_symmetry_cell_setting 'triclinic'
loop_
_space_group_symop_operation_xyz
x,y,z
-x,-y,-z
loop_
_atom_site_type_symbol
_atom_site_label
_atom_site_fract_x
_atom_site_fract_y
_atom_site_fract_z
Si Si1 0.374979 0.478292 0.476509
Si Si2 0.836257 0.294806 0.953524
Si Si3 0.318040 0.218226 0.792998
Si Si4 0.712063 0.742791 0.472666
Si Si5 0.997341 0.939045 0.275950
Si Si6 0.707584 0.379837 0.269259
Si Si7 0.451628 0.766607 0.752005
Si Si8 0.018236 0.716068 0.606359
O O1 0.632650 0.353358 0.722946
O O2 0.101199 0.764117 0.330409
O O3 0.350251 0.473715 0.564014
O O4 0.436246 0.333477 0.313943
O O5 0.032284 0.096588 0.928977
O O6 0.663697 0.541681 0.914359
O O7 0.960172 0.229407 0.185853
O O8 0.340347 0.202972 0.677393
O O9 0.027455 0.516708 0.717582
O O10 0.251271 0.140242 0.639482
O O11 0.565685 0.084170 0.072542
O O12 0.736678 0.582575 0.357839
O O13 0.500000 0.000000 0.500000
O O14 0.229921 0.847044 0.517481
O O15 0.749768 0.228405 0.240820
O O16 0.945151 0.232365 0.386801
O O17 0.500000 0.500000 0.000000
#
# Coordination Sequence:
#
# PCOD9096552 Si02
#       8
#     2   2   2   2   2   2   2   2
#     4   9  19  36  58  83 116 152 197 240 290 352
#     4   9  15  35  58  85 107 153 191 250 284 349
#     4   9  18  36  59  87 120 156 189 263 287 345
#     4   9  18  36  59  90 120 154 208 236 304 355
#     4   9  21  35  61  84 112 157 208 229 296 371
#     4  12  23  39  51  87 127 156 190 257 302 342
#     4   9  16  37  61  80 112 152 201 242 297 347
#     4  10  20  36  56  83 128 148 196 250 308 338
#
# _framework density 23.476747
#
# number of rings (size 3 to 8) (size 9 to 14) (size 15 to 20)
#    0.750    1.750    2.500    1.875    0.000    0.500 
#    9.000    1.250    0.000    0.000    0.000    0.000 
#    0.000    0.000    0.000    0.000    0.000    0.000 
#
# Total GULP energy -89118.796949 kJ/mol
# GULP energy per Si atom -5569.924809 kJ/mol
# Density = 2.342331 g / cm^3
# Si number density = 23.476747 Si / 1000 Ang^3
#
#
#
# Elastic Constant Matrix: (Units=GPa)
#
#
# Indices 1 2 3 4 5 6 
#
# 1 76.1191 7.6256 27.2072 9.6898 -20.8539 -4.8008
# 2 7.6256 53.1995 -12.5606 3.4950 -9.3247 -5.0188
# 3 27.2072 -12.5606 93.6788 19.3983 -2.2326 -6.7750
# 4 9.6898 3.4950 19.3983 15.3069 -3.2740 -6.6294
# 5 -20.8539 -9.3247 -2.2326 -3.2740 33.2291 12.8264
# 6 -4.8008 -5.0188 -6.7750 -6.6294 12.8264 29.4725
#
#
#
# Elastic Compliance Matrix: (Units=1/GPa)
#
#
# Indices 1 2 3 4 5 6 
#
# 1 0.018680 -0.001763 -0.004697 -0.004917 0.012275 -0.004785
# 2 -0.001763 0.021813 0.005613 -0.009781 0.004154 0.000709
# 3 -0.004697 0.005613 0.016920 -0.019994 -0.002458 0.000652
# 4 -0.004917 -0.009781 -0.019994 0.102879 -0.003898 0.017775
# 5 0.012275 0.004154 -0.002458 -0.003898 0.045583 -0.018573
# 6 -0.004785 0.000709 0.000652 0.017775 -0.018573 0.045502
#
#
# Mechanical properties :
#
#
# Convention : Reuss Voigt Hill
#
# Bulk Modulus (GPa) = 17.94782 29.72686 23.83734
# Shear Modulus (GPa) = 18.40633 28.98338 23.69486
#
# Velocity S-wave (km/s) = 2.80308 3.51744 3.18038
# Velocity P-wave (km/s) = 4.25886 5.40243 4.86437
#
# Compressibility (1/GPa) = 0.05571706
#
# Stress axis : x y z
#
# Youngs Moduli (GPa) = 53.53332 45.84496 59.10042
#
# Poissons Ratio (x) = 0.08084 0.27760
# Poissons Ratio (y) = 0.09440 -0.33170
# Poissons Ratio (z) = 0.25145 -0.25731
#
# Static dielectric constant tensor:
#      x y z
#    x 1.897020 0.011740 0.060120 
#    y 0.011740 2.024070 -0.062920 
#    z 0.060120 -0.062920 1.972780 
# 
# From -- ./inp_files/475595.got.cif
#   From: 2010.05.17/outbox.cif.g08.bks.cpg/sg2_238_cif.got.tgz:475595.got - 2010.06.03 11:33:40.
