data_PCOD9096663
_publ_section_title
;
Structure prediction by ZEFSAII (Michael W. Deem and Ramdas Pophale) SiO2 
 PCOD9096663
Probable space group: P -1
;
_chemical_formula_sum "Si O2"
_cell_formula_units_Z 12
_cell_length_a 11.196663
_cell_length_b 9.084217
_cell_length_c 10.965807
_cell_angle_alpha 40.458399
_cell_angle_beta 142.240173
_cell_angle_gamma 129.958802
_cell_volume 440.862672
_symmetry_space_group_name_H-M "P -1"
_symmetry_group_IT_number 2
_symmetry_cell_setting 'triclinic'
loop_
_space_group_symop_operation_xyz
x,y,z
-x,-y,-z
loop_
_atom_site_type_symbol
_atom_site_label
_atom_site_fract_x
_atom_site_fract_y
_atom_site_fract_z
Si Si1 0.713646 0.128209 0.971240
Si Si2 0.025310 0.738327 0.220661
Si Si3 0.851782 0.885719 0.632910
Si Si4 0.098030 0.693095 0.756407
Si Si5 0.561176 0.187383 0.565031
Si Si6 0.367443 0.281861 0.979365
O O1 0.738229 0.252160 0.041656
O O2 0.942176 0.116459 0.132931
O O3 0.616421 0.867176 0.038803
O O4 0.620701 0.263251 0.704179
O O5 0.258755 0.713767 0.436747
O O6 0.944676 0.557470 0.167849
O O7 0.861079 0.677911 0.228498
O O8 0.000000 0.000000 0.000000
O O9 0.669923 0.797300 0.625612
O O10 0.900049 0.757702 0.625521
O O11 0.839908 0.139517 0.411383
O O12 0.587619 0.916841 0.762362
O O13 0.500000 0.500000 0.000000
#
# Coordination Sequence:
#
# PCOD9096663 Si02
#       6
#     2   2   2   2   2   2
#     4   8  19  35  59  85 110 147 195 228 278 335
#     4  10  20  36  57  83 119 151 185 232 283 338
#     4   9  18  38  58  86 116 137 198 238 274 326
#     4   9  19  36  59  83 117 146 188 245 268 327
#     4   9  19  34  59  78 116 152 181 229 287 330
#     4   9  18  36  58  81 111 151 188 227 281 335
#
# _framework density 27.219360000000002
#
# number of rings (size 3 to 8) (size 9 to 14) (size 15 to 20)
#    2.000    1.000    0.000    1.000    0.000    2.000 
#    0.000    4.167    3.667    0.000    0.000    0.000 
#    0.000    0.000    0.000    0.000    0.000    0.000 
#
# Total GULP energy -66843.329207 kJ/mol
# GULP energy per Si atom -5570.277434 kJ/mol
# Density = 2.715741 g / cm^3
# Si number density = 27.219360 Si / 1000 Ang^3
#
#
#
# Elastic Constant Matrix: (Units=GPa)
#
#
# Indices 1 2 3 4 5 6 
#
# 1 143.7305 48.9920 30.4026 6.2300 42.6458 34.9362
# 2 48.9920 209.0589 26.4411 -7.3059 0.3471 -9.4702
# 3 30.4026 26.4411 64.9946 13.0609 20.2534 15.8609
# 4 6.2300 -7.3059 13.0609 39.9917 16.1588 6.0078
# 5 42.6458 0.3471 20.2534 16.1588 47.8249 15.8120
# 6 34.9362 -9.4702 15.8609 6.0078 15.8120 36.8284
#
#
#
# Elastic Compliance Matrix: (Units=1/GPa)
#
#
# Indices 1 2 3 4 5 6 
#
# 1 0.013161 -0.003425 0.000022 0.002565 -0.009355 -0.009777
# 2 -0.003425 0.006234 -0.003080 0.000987 0.002320 0.005022
# 3 0.000022 -0.003080 0.020742 -0.004259 -0.005070 -0.006875
# 4 0.002565 0.000987 -0.004259 0.030561 -0.010552 -0.000800
# 5 -0.009355 0.002320 -0.005070 -0.010552 0.035574 -0.001898
# 6 -0.009777 0.005022 -0.006875 -0.000800 -0.001898 0.041626
#
#
# Mechanical properties :
#
#
# Convention : Reuss Voigt Hill
#
# Bulk Modulus (GPa) = 36.80400 69.93948 53.37174
# Shear Modulus (GPa) = 29.42567 45.72556 37.57562
#
# Velocity S-wave (km/s) = 3.29151 4.10309 3.71950
# Velocity P-wave (km/s) = 5.29112 6.94246 6.17226
#
# Compressibility (1/GPa) = 0.02717096
#
# Stress axis : x y z
#
# Youngs Moduli (GPa) = 75.98202 160.41983 48.21144
#
# Poissons Ratio (x) = 0.54940 -0.00108
# Poissons Ratio (y) = 0.26022 0.14852
# Poissons Ratio (z) = -0.00171 0.49417
#
# Static dielectric constant tensor:
#      x y z
#    x 2.199110 -0.022090 -0.012360 
#    y -0.022090 2.108910 0.003090 
#    z -0.012360 0.003090 2.148180 
# 
# From -- ./inp_files/419031.got.cif
#   From: 2010.05.17/outbox.cif.g08.bks.cpg/sg2_210_cif.got.tgz:419031.got - 2010.06.03 11:33:40.
