data_PCOD9096302
_publ_section_title
;
Structure prediction by ZEFSAII (Michael W. Deem and Ramdas Pophale) SiO2 
 PCOD9096302
Probable space group: P -1
;
_chemical_formula_sum "Si O2"
_cell_formula_units_Z 14
_cell_length_a 9.099806
_cell_length_b 9.005642
_cell_length_c 11.263709
_cell_angle_alpha 90.504083
_cell_angle_beta 126.782038
_cell_angle_gamma 102.252727
_cell_volume 711.483696
_symmetry_space_group_name_H-M "P -1"
_symmetry_group_IT_number 2
_symmetry_cell_setting 'triclinic'
loop_
_space_group_symop_operation_xyz
x,y,z
-x,-y,-z
loop_
_atom_site_type_symbol
_atom_site_label
_atom_site_fract_x
_atom_site_fract_y
_atom_site_fract_z
Si Si1 0.296423 0.979936 0.662978
Si Si2 0.384529 0.749220 0.886898
Si Si3 0.821517 0.514904 0.340468
Si Si4 0.601756 0.583309 0.856430
Si Si5 0.034569 0.142978 0.678392
Si Si6 0.979481 0.833088 0.044355
Si Si7 0.354544 0.759235 0.133317
O O1 0.463033 0.131686 0.711415
O O2 0.153443 0.028235 0.687415
O O3 0.384618 0.860437 0.776520
O O4 0.169388 0.906805 0.488041
O O5 0.200083 0.603865 0.780444
O O6 0.554420 0.666015 0.955226
O O7 0.379763 0.824151 0.011097
O O8 0.613475 0.455098 0.302591
O O9 0.000000 0.500000 0.500000
O O10 0.857069 0.688251 0.316732
O O11 0.643113 0.418180 0.879119
O O12 0.787071 0.710818 0.902619
O O13 0.022212 0.149609 0.813710
O O14 0.160672 0.774757 0.095045
O O15 0.000000 0.000000 0.000000
#
# Coordination Sequence:
#
# PCOD9096302 Si02
#       7
#     2   2   2   2   2   2   2
#     4  11  21  37  64  92 120 162 206 263 303 357
#     4  10  20  35  65  90 122 153 212 258 301 354
#     4  10  20  39  67  93 121 151 206 265 310 352
#     4  10  22  40  63  89 121 159 208 257 303 359
#     4  11  22  40  63  91 126 160 209 256 311 357
#     4  12  26  41  60  90 131 168 205 249 306 377
#     4  12  22  38  61  92 128 166 204 246 311 372
#
# _framework density 19.67719
#
# number of rings (size 3 to 8) (size 9 to 14) (size 15 to 20)
#    0.857    0.286    2.857    4.714    0.000    0.571 
#    0.000    0.000    0.000    5.143    0.000    0.000 
#    0.000    0.000    0.000    0.000    0.000    0.000 
#
# Total GULP energy -78022.958469 kJ/mol
# GULP energy per Si atom -5573.068462 kJ/mol
# Density = 1.963240 g / cm^3
# Si number density = 19.677190 Si / 1000 Ang^3
#
#
#
# Elastic Constant Matrix: (Units=GPa)
#
#
# Indices 1 2 3 4 5 6 
#
# 1 101.5885 40.2544 43.8968 3.0544 24.1992 -5.1433
# 2 40.2544 140.5541 55.1701 4.2504 11.9030 7.2909
# 3 43.8968 55.1701 103.0784 16.1210 28.0170 6.0719
# 4 3.0544 4.2504 16.1210 33.1783 5.6649 11.9307
# 5 24.1992 11.9030 28.0170 5.6649 27.8579 8.7499
# 6 -5.1433 7.2909 6.0719 11.9307 8.7499 30.9354
#
#
#
# Elastic Compliance Matrix: (Units=1/GPa)
#
#
# Indices 1 2 3 4 5 6 
#
# 1 0.015082 -0.002900 -0.001916 -0.000621 -0.012077 0.007223
# 2 -0.002900 0.009798 -0.005346 0.002238 0.004470 -0.003869
# 3 -0.001916 -0.005346 0.018053 -0.006970 -0.014066 0.004065
# 4 -0.000621 0.002238 -0.006970 0.038067 0.003547 -0.014947
# 5 -0.012077 0.004470 -0.014066 0.003547 0.064124 -0.019806
# 6 0.007223 -0.003869 0.004065 -0.014947 -0.019806 0.045007
#
#
# Mechanical properties :
#
#
# Convention : Reuss Voigt Hill
#
# Bulk Modulus (GPa) = 44.23259 69.31817 56.77538
# Shear Modulus (GPa) = 22.93665 32.12098 27.52881
#
# Velocity S-wave (km/s) = 3.41786 4.04468 3.74441
# Velocity P-wave (km/s) = 6.17281 7.55756 6.90001
#
# Compressibility (1/GPa) = 0.02260777
#
# Stress axis : x y z
#
# Youngs Moduli (GPa) = 66.30329 102.05817 55.39357
#
# Poissons Ratio (x) = 0.29602 0.10614
# Poissons Ratio (y) = 0.19231 0.29614
# Poissons Ratio (z) = 0.12705 0.54561
#
# Static dielectric constant tensor:
#      x y z
#    x 1.687440 -0.008070 0.020400 
#    y -0.008070 1.726900 0.036290 
#    z 0.020400 0.036290 1.764530 
# 
# From -- ./inp_files/243526.got.cif
#   From: 2010.05.17/outbox.cif.g08.bks.cpg/sg2_122_cif.got.tgz:243526.got - 2010.06.03 11:33:40.
