data_PCOD9096654
_publ_section_title
;
Structure prediction by ZEFSAII (Michael W. Deem and Ramdas Pophale) SiO2 
 PCOD9096654
Probable space group: P -1
;
_chemical_formula_sum "Si O2"
_cell_formula_units_Z 16
_cell_length_a 8.595700
_cell_length_b 9.037714
_cell_length_c 14.366370
_cell_angle_alpha 115.739095
_cell_angle_beta 79.024971
_cell_angle_gamma 60.945308
_cell_volume 756.130250
_symmetry_space_group_name_H-M "P -1"
_symmetry_group_IT_number 2
_symmetry_cell_setting 'triclinic'
loop_
_space_group_symop_operation_xyz
x,y,z
-x,-y,-z
loop_
_atom_site_type_symbol
_atom_site_label
_atom_site_fract_x
_atom_site_fract_y
_atom_site_fract_z
Si Si1 0.457354 0.205667 0.939407
Si Si2 0.645389 0.549983 0.534351
Si Si3 0.066225 0.638424 0.061283
Si Si4 0.389559 0.741792 0.250021
Si Si5 0.304305 0.741770 0.937154
Si Si6 0.068649 0.922481 0.576444
Si Si7 0.662292 0.065538 0.185433
Si Si8 0.476471 0.825340 0.467429
O O1 0.507172 0.216491 0.829609
O O2 0.412972 0.041078 0.896927
O O3 0.258518 0.454365 0.053081
O O4 0.643610 0.148215 0.965791
O O5 0.500000 0.500000 0.500000
O O6 0.846181 0.319292 0.484398
O O7 0.522922 0.733473 0.677437
O O8 0.662827 0.643913 0.463926
O O9 0.158925 0.700057 0.988889
O O10 0.851216 0.871283 0.173695
O O11 0.000000 0.500000 0.000000
O O12 0.484890 0.498769 0.168994
O O13 0.453831 0.762181 0.350573
O O14 0.145699 0.905520 0.299957
O O15 0.250893 0.856179 0.875198
O O16 0.262373 0.914222 0.566144
O O17 0.000000 0.000000 0.500000
O O18 0.500000 0.000000 0.500000
#
# Coordination Sequence:
#
# PCOD9096654 Si02
#       8
#     2   2   2   2   2   2   2   2
#     4  10  22  38  58  84 112 151 192 232 287 348
#     4  10  21  36  58  85 112 151 194 232 285 346
#     4   9  20  37  59  84 112 148 191 232 284 344
#     4  10  20  39  58  78 115 153 185 234 286 337
#     4  11  21  37  60  86 114 151 191 233 287 346
#     4   9  19  37  58  81 112 154 191 227 284 348
#     4  11  21  38  58  83 118 148 185 244 287 331
#     4  10  20  36  57  83 111 146 192 240 285 336
#
# _framework density 21.160375999999999
#
# number of rings (size 3 to 8) (size 9 to 14) (size 15 to 20)
#    0.000    2.000    0.000    5.250    0.000    4.000 
#    0.000   11.875    0.000    0.000    0.000    0.000 
#    0.000    0.000    0.000    0.000    0.000    0.000 
#
# Total GULP energy -89093.671256 kJ/mol
# GULP energy per Si atom -5568.354454 kJ/mol
# Density = 2.111221 g / cm^3
# Si number density = 21.160376 Si / 1000 Ang^3
#
#
#
# Elastic Constant Matrix: (Units=GPa)
#
#
# Indices 1 2 3 4 5 6 
#
# 1 77.2188 30.3976 31.8839 7.2806 9.7439 8.8225
# 2 30.3976 122.6199 31.1848 19.9802 6.0693 6.8836
# 3 31.8839 31.1848 93.6526 19.5702 11.6409 -4.4562
# 4 7.2806 19.9802 19.5702 40.3092 -11.8326 -2.0619
# 5 9.7439 6.0693 11.6409 -11.8326 24.8249 7.7830
# 6 8.8225 6.8836 -4.4562 -2.0619 7.7830 34.3917
#
#
#
# Elastic Compliance Matrix: (Units=1/GPa)
#
#
# Indices 1 2 3 4 5 6 
#
# 1 0.016664 -0.002528 -0.004516 -0.000615 -0.002929 -0.003728
# 2 -0.002528 0.010083 -0.001175 -0.004876 -0.002882 -0.001162
# 3 -0.004516 -0.001175 0.016444 -0.009855 -0.012128 0.005678
# 4 -0.000615 -0.004876 -0.009855 0.039587 0.026074 -0.003671
# 5 -0.002929 -0.002882 -0.012128 0.026074 0.064408 -0.013256
# 6 -0.003728 -0.001162 0.005678 -0.003671 -0.013256 0.033781
#
#
# Mechanical properties :
#
#
# Convention : Reuss Voigt Hill
#
# Bulk Modulus (GPa) = 37.38023 53.38043 45.38033
# Shear Modulus (GPa) = 24.23390 33.24016 28.73703
#
# Velocity S-wave (km/s) = 3.38782 3.96772 3.68918
# Velocity P-wave (km/s) = 5.74514 6.80233 6.29597
#
# Compressibility (1/GPa) = 0.02675211
#
# Stress axis : x y z
#
# Youngs Moduli (GPa) = 60.01116 99.17425 60.81366
#
# Poissons Ratio (x) = 0.25071 0.27465
# Poissons Ratio (y) = 0.15171 0.07146
# Poissons Ratio (z) = 0.27102 0.11653
#
# Static dielectric constant tensor:
#      x y z
#    x 1.831460 -0.050750 -0.027150 
#    y -0.050750 1.812250 0.005060 
#    z -0.027150 0.005060 1.819230 
# 
# From -- ./inp_files/378767.got.cif
#   From: 2010.05.17/outbox.cif.g08.bks.cpg/sg2_190_cif.got.tgz:378767.got - 2010.06.03 11:33:40.
