data_PCOD9096208
_publ_section_title
;
Structure prediction by ZEFSAII (Michael W. Deem and Ramdas Pophale) SiO2 
 PCOD9096208
Probable space group: P -1
;
_chemical_formula_sum "Si O2"
_cell_formula_units_Z 16
_cell_length_a 15.741067
_cell_length_b 9.516251
_cell_length_c 13.498173
_cell_angle_alpha 130.114251
_cell_angle_beta 29.663178
_cell_angle_gamma 119.167311
_cell_volume 751.099515
_symmetry_space_group_name_H-M "P -1"
_symmetry_group_IT_number 2
_symmetry_cell_setting 'triclinic'
loop_
_space_group_symop_operation_xyz
x,y,z
-x,-y,-z
loop_
_atom_site_type_symbol
_atom_site_label
_atom_site_fract_x
_atom_site_fract_y
_atom_site_fract_z
Si Si1 0.055265 0.939402 0.657058
Si Si2 0.069045 0.374474 0.467869
Si Si3 0.961546 0.783272 0.044512
Si Si4 0.555890 0.523324 0.840150
Si Si5 0.355424 0.804801 0.010002
Si Si6 0.705290 0.885770 0.630849
Si Si7 0.218040 0.820156 0.628684
Si Si8 0.943594 0.398338 0.823535
O O1 0.978147 0.136975 0.877424
O O2 0.239514 0.974341 0.442632
O O3 0.095317 0.805264 0.650840
O O4 0.956862 0.835263 0.630661
O O5 0.268077 0.390537 0.293650
O O6 0.960139 0.436031 0.705957
O O7 0.000000 0.500000 0.500000
O O8 0.806416 0.953472 0.241577
O O9 0.123082 0.764624 0.796498
O O10 0.899856 0.588229 0.016198
O O11 0.606301 0.321764 0.641802
O O12 0.500000 0.500000 0.000000
O O13 0.425502 0.660275 0.962959
O O14 0.199351 0.731282 0.082244
O O15 0.294626 0.002781 0.215724
O O16 0.519378 0.825859 0.784713
O O17 0.864342 0.711575 0.392132
#
# Coordination Sequence:
#
# PCOD9096208 Si02
#       8
#     2   2   2   2   2   2   2   2
#     4  10  20  35  63  92 120 161 206 256 304 369
#     4  12  20  36  65  96 119 156 214 257 305 377
#     4   9  19  38  64  89 124 163 202 258 315 377
#     4  12  22  37  61  95 131 156 205 271 314 361
#     4  11  24  38  61  93 121 167 207 261 320 359
#     4  11  23  40  60  89 132 159 213 261 307 367
#     4   9  18  38  60  89 129 156 198 257 318 369
#     4  12  22  41  65  87 122 172 209 252 317 369
#
# _framework density 21.302102999999999
#
# number of rings (size 3 to 8) (size 9 to 14) (size 15 to 20)
#    0.750    0.500    5.000    1.875    0.000    0.500 
#    0.000    1.250    2.750    0.000    0.000    0.000 
#    0.000    0.000    0.000    0.000    0.000    0.000 
#
# Total GULP energy -89225.719838 kJ/mol
# GULP energy per Si atom -5576.607490 kJ/mol
# Density = 2.125362 g / cm^3
# Si number density = 21.302103 Si / 1000 Ang^3
#
#
#
# Elastic Constant Matrix: (Units=GPa)
#
#
# Indices 1 2 3 4 5 6 
#
# 1 53.1994 3.8125 8.3994 -4.6133 16.1805 -6.7241
# 2 3.8125 118.9952 45.3482 0.9457 11.7122 17.7511
# 3 8.3994 45.3482 86.8639 3.1940 22.4702 -0.9180
# 4 -4.6133 0.9457 3.1940 51.0022 -2.8048 3.7434
# 5 16.1805 11.7122 22.4702 -2.8048 15.7777 1.5005
# 6 -6.7241 17.7511 -0.9180 3.7434 1.5005 27.4370
#
#
#
# Elastic Compliance Matrix: (Units=1/GPa)
#
#
# Indices 1 2 3 4 5 6 
#
# 1 0.034233 -0.002349 0.011279 -0.001340 -0.050924 0.013255
# 2 -0.002349 0.012241 -0.007666 0.001005 0.005293 -0.009178
# 3 0.011279 -0.007666 0.026392 -0.003831 -0.045248 0.011604
# 4 -0.001340 0.001005 -0.003831 0.020595 0.010169 -0.004473
# 5 -0.050924 0.005293 -0.045248 0.010169 0.180652 -0.028685
# 6 0.013255 -0.009178 0.011604 -0.004473 -0.028685 0.048201
#
#
# Mechanical properties :
#
#
# Convention : Reuss Voigt Hill
#
# Bulk Modulus (GPa) = 13.26400 41.57541 27.41970
# Shear Modulus (GPa) = 14.49620 32.27662 23.38641
#
# Velocity S-wave (km/s) = 2.61148 3.89676 3.31697
# Velocity P-wave (km/s) = 3.91577 6.30918 5.25067
#
# Compressibility (1/GPa) = 0.07539204
#
# Stress axis : x y z
#
# Youngs Moduli (GPa) = 29.21197 81.69381 37.88998
#
# Poissons Ratio (x) = 0.19194 -0.42736
# Poissons Ratio (y) = 0.06863 0.29048
# Poissons Ratio (z) = -0.32948 0.62629
#
# Static dielectric constant tensor:
#      x y z
#    x 1.791110 -0.064080 0.002880 
#    y -0.064080 1.842790 0.045300 
#    z 0.002880 0.045300 1.790270 
# 
# From -- ./inp_files/532709.got.cif
#   From: 2010.05.17/outbox.cif.g08.bks.cpg/sg2_267_cif.got.tgz:532709.got - 2010.06.03 11:33:40.
