data_PCOD9096586
_publ_section_title
;
Structure prediction by ZEFSAII (Michael W. Deem and Ramdas Pophale) SiO2 
 PCOD9096586
Probable space group: P -1
;
_chemical_formula_sum "Si O2"
_cell_formula_units_Z 16
_cell_length_a 8.786036
_cell_length_b 14.745168
_cell_length_c 11.873223
_cell_angle_alpha 130.395281
_cell_angle_beta 47.840879
_cell_angle_gamma 104.147368
_cell_volume 817.434485
_symmetry_space_group_name_H-M "P -1"
_symmetry_group_IT_number 2
_symmetry_cell_setting 'triclinic'
loop_
_space_group_symop_operation_xyz
x,y,z
-x,-y,-z
loop_
_atom_site_type_symbol
_atom_site_label
_atom_site_fract_x
_atom_site_fract_y
_atom_site_fract_z
Si Si1 0.224311 0.704754 0.786167
Si Si2 0.665818 0.500010 0.820810
Si Si3 0.128103 0.342629 0.743798
Si Si4 0.662301 0.333861 0.057539
Si Si5 0.954861 0.366844 0.404550
Si Si6 0.590470 0.848481 0.958470
Si Si7 0.898249 0.611911 0.968412
Si Si8 0.479096 0.133657 0.257688
O O1 0.195419 0.637949 0.631281
O O2 0.313980 0.817054 0.803088
O O3 0.993195 0.721949 0.975612
O O4 0.367017 0.636863 0.769903
O O5 0.830355 0.368719 0.586632
O O6 0.791533 0.582207 0.885805
O O7 0.500000 0.500000 0.000000
O O8 0.523538 0.563774 0.836368
O O9 0.287207 0.228440 0.503133
O O10 0.894766 0.329438 0.885715
O O11 0.073846 0.474132 0.807072
O O12 0.234123 0.352847 0.821135
O O13 0.606441 0.205600 0.964222
O O14 0.000000 0.500000 0.500000
O O15 0.180522 0.251291 0.195915
O O16 0.600013 0.856518 0.824517
O O17 0.544131 0.987774 0.142232
#
# Coordination Sequence:
#
# PCOD9096586 Si02
#       8
#     2   2   2   2   2   2   2   2
#     4  10  23  38  61  90 122 163 203 249 305 362
#     4  12  23  36  58  93 126 156 194 254 317 363
#     4  10  21  35  58  90 123 168 195 251 306 363
#     4  10  21  39  61  88 127 161 202 255 301 366
#     4  12  23  39  64  93 121 161 203 258 311 362
#     4  10  22  43  62  90 123 162 214 255 296 364
#     4  10  20  36  56  87 133 152 203 250 305 370
#     4  10  23  40  63  89 125 168 209 248 300 368
#
# _framework density 19.573436000000001
#
# number of rings (size 3 to 8) (size 9 to 14) (size 15 to 20)
#    0.000    1.500    3.750    0.750    1.750    2.000 
#    0.000    0.000    0.000    3.750    0.000    0.000 
#    0.000    0.000    0.000    0.000    0.000    0.000 
#
# Total GULP energy -89069.316250 kJ/mol
# GULP energy per Si atom -5566.832266 kJ/mol
# Density = 1.952889 g / cm^3
# Si number density = 19.573436 Si / 1000 Ang^3
#
#
#
# Elastic Constant Matrix: (Units=GPa)
#
#
# Indices 1 2 3 4 5 6 
#
# 1 106.6978 40.3822 25.3631 5.9276 18.2819 7.3821
# 2 40.3822 101.0245 53.8279 8.1457 -2.2458 20.7470
# 3 25.3631 53.8279 112.1390 10.0668 10.2054 13.4471
# 4 5.9276 8.1457 10.0668 26.5759 -0.3479 0.7812
# 5 18.2819 -2.2458 10.2054 -0.3479 23.9126 -3.4552
# 6 7.3821 20.7470 13.4471 0.7812 -3.4552 27.7010
#
#
#
# Elastic Compliance Matrix: (Units=1/GPa)
#
#
# Indices 1 2 3 4 5 6 
#
# 1 0.013474 -0.005858 0.001104 -0.001745 -0.011510 -0.001126
# 2 -0.005858 0.017700 -0.006920 -0.001178 0.008022 -0.007303
# 3 0.001104 -0.006920 0.013247 -0.003171 -0.007539 -0.002393
# 4 -0.001745 -0.001178 -0.003171 0.039560 0.003471 0.002204
# 5 -0.011510 0.008022 -0.007539 0.003471 0.055735 0.007573
# 6 -0.001126 -0.007303 -0.002393 0.002204 0.007573 0.043913
#
#
# Mechanical properties :
#
#
# Convention : Reuss Voigt Hill
#
# Bulk Modulus (GPa) = 47.45425 62.11197 54.78311
# Shear Modulus (GPa) = 23.36415 28.99047 26.17731
#
# Velocity S-wave (km/s) = 3.45870 3.85270 3.66100
# Velocity P-wave (km/s) = 6.34405 7.18281 6.77642
#
# Compressibility (1/GPa) = 0.02107293
#
# Stress axis : x y z
#
# Youngs Moduli (GPa) = 74.21664 56.49619 75.48667
#
# Poissons Ratio (x) = 0.33095 -0.08330
# Poissons Ratio (y) = 0.43476 0.52237
# Poissons Ratio (z) = -0.08190 0.39096
#
# Static dielectric constant tensor:
#      x y z
#    x 1.787050 0.049110 -0.008890 
#    y 0.049110 1.758450 -0.056900 
#    z -0.008890 -0.056900 1.701110 
# 
# From -- ./inp_files/399549.got.cif
#   From: 2010.05.17/outbox.cif.g08.bks.cpg/sg2_200_cif.got.tgz:399549.got - 2010.06.03 11:33:40.
