data_PCOD9096636
_publ_section_title
;
Structure prediction by ZEFSAII (Michael W. Deem and Ramdas Pophale) SiO2 
 PCOD9096636
Probable space group: P -1
;
_chemical_formula_sum "Si O2"
_cell_formula_units_Z 16
_cell_length_a 20.592969
_cell_length_b 8.056472
_cell_length_c 5.815262
_cell_angle_alpha 59.114320
_cell_angle_beta 87.201857
_cell_angle_gamma 63.589463
_cell_volume 721.053340
_symmetry_space_group_name_H-M "P -1"
_symmetry_group_IT_number 2
_symmetry_cell_setting 'triclinic'
loop_
_space_group_symop_operation_xyz
x,y,z
-x,-y,-z
loop_
_atom_site_type_symbol
_atom_site_label
_atom_site_fract_x
_atom_site_fract_y
_atom_site_fract_z
Si Si1 0.047289 0.322728 0.424298
Si Si2 0.266786 0.762979 0.306928
Si Si3 0.624951 0.446541 0.176814
Si Si4 0.624889 0.711963 0.602650
Si Si5 0.964273 0.272955 0.087755
Si Si6 0.111146 0.954979 0.988953
Si Si7 0.638058 0.098034 0.063908
Si Si8 0.499335 0.790649 0.264271
O O1 0.115038 0.119676 0.681820
O O2 0.000000 0.500000 0.500000
O O3 0.994290 0.241729 0.365812
O O4 0.065515 0.466256 0.141616
O O5 0.299706 0.726250 0.583138
O O6 0.316721 0.516143 0.369233
O O7 0.286725 0.926738 0.042081
O O8 0.181247 0.840732 0.223926
O O9 0.608707 0.310437 0.084498
O O10 0.555700 0.571270 0.270466
O O11 0.635272 0.642550 0.916323
O O12 0.540287 0.766492 0.515773
O O13 0.638238 0.903286 0.355469
O O14 0.904082 0.212714 0.042106
O O15 0.038482 0.112780 0.041629
O O16 0.583499 0.156956 0.811288
O O17 0.500000 0.000000 0.000000
#
# Coordination Sequence:
#
# PCOD9096636 Si02
#       8
#     2   2   2   2   2   2   2   2
#     4   9  18  35  58  87 113 138 181 234 283 335
#     4  10  23  38  53  81 118 150 187 230 279 343
#     4  10  21  36  56  83 111 146 190 235 281 340
#     4   9  21  39  56  80 112 146 189 237 285 340
#     4   9  19  35  59  86 111 142 188 235 279 334
#     4  10  20  36  57  81 113 152 186 229 283 338
#     4  10  21  37  57  81 110 149 190 235 289 340
#     4   9  19  35  58  82 109 143 188 243 289 334
#
# _framework density 22.189757
#
# number of rings (size 3 to 8) (size 9 to 14) (size 15 to 20)
#    0.000    2.500    0.000    0.750    0.000   13.500 
#    0.000    2.500    0.000    0.000    0.000    0.000 
#    0.000    0.000    0.000    0.000    0.000    0.000 
#
# Total GULP energy -89237.846926 kJ/mol
# GULP energy per Si atom -5577.365433 kJ/mol
# Density = 2.213925 g / cm^3
# Si number density = 22.189757 Si / 1000 Ang^3
#
#
#
# Elastic Constant Matrix: (Units=GPa)
#
#
# Indices 1 2 3 4 5 6 
#
# 1 82.8039 18.8838 35.2379 -14.2377 17.1954 15.8445
# 2 18.8838 52.6029 14.8782 -3.1758 1.4257 23.7728
# 3 35.2379 14.8782 103.7062 -13.6888 1.3816 14.6995
# 4 -14.2377 -3.1758 -13.6888 30.9449 6.4312 -2.1352
# 5 17.1954 1.4257 1.3816 6.4312 38.8794 -3.6684
# 6 15.8445 23.7728 14.6995 -2.1352 -3.6684 22.1257
#
#
#
# Elastic Compliance Matrix: (Units=1/GPa)
#
#
# Indices 1 2 3 4 5 6 
#
# 1 0.020080 0.001111 -0.003595 0.009203 -0.011659 -0.014229
# 2 0.001111 0.038300 0.000758 0.003150 -0.006522 -0.043227
# 3 -0.003595 0.000758 0.012032 0.003333 0.000026 -0.005907
# 4 0.009203 0.003150 0.003333 0.040113 -0.011911 -0.010293
# 5 -0.011659 -0.006522 0.000026 -0.011911 0.034971 0.019988
# 6 -0.014229 -0.043227 -0.005907 -0.010293 0.019988 0.108076
#
#
# Mechanical properties :
#
#
# Convention : Reuss Voigt Hill
#
# Bulk Modulus (GPa) = 14.93469 41.90144 28.41807
# Shear Modulus (GPa) = 17.89895 29.73087 23.81491
#
# Velocity S-wave (km/s) = 2.84321 3.66436 3.27959
# Velocity P-wave (km/s) = 4.18611 6.06858 5.21302
#
# Compressibility (1/GPa) = 0.06695819
#
# Stress axis : x y z
#
# Youngs Moduli (GPa) = 49.80159 26.10972 83.10831
#
# Poissons Ratio (x) = -0.02900 0.29879
# Poissons Ratio (y) = -0.05531 -0.06296
# Poissons Ratio (z) = 0.17904 -0.01978
#
# Static dielectric constant tensor:
#      x y z
#    x 1.846460 0.033230 -0.028180 
#    y 0.033230 1.817460 0.021070 
#    z -0.028180 0.021070 1.904100 
# 
# From -- ./inp_files/116662.got.cif
#   From: 2010.05.17/outbox.cif.g08.bks.cpg/sg2_59_cif.got.tgz:116662.got - 2010.06.03 11:33:40.
