data_PCOD9096455
_publ_section_title
;
Structure prediction by ZEFSAII (Michael W. Deem and Ramdas Pophale) SiO2 
 PCOD9096455
Probable space group: P -1
;
_chemical_formula_sum "Si O2"
_cell_formula_units_Z 16
_cell_length_a 11.806773
_cell_length_b 4.912823
_cell_length_c 14.459778
_cell_angle_alpha 76.444033
_cell_angle_beta 116.727337
_cell_angle_gamma 78.449349
_cell_volume 681.636922
_symmetry_space_group_name_H-M "P -1"
_symmetry_group_IT_number 2
_symmetry_cell_setting 'triclinic'
loop_
_space_group_symop_operation_xyz
x,y,z
-x,-y,-z
loop_
_atom_site_type_symbol
_atom_site_label
_atom_site_fract_x
_atom_site_fract_y
_atom_site_fract_z
Si Si1 0.928252 0.814602 0.206397
Si Si2 0.352227 0.207821 0.968934
Si Si3 0.215172 0.464156 0.317241
Si Si4 0.492281 0.154695 0.384932
Si Si5 0.941691 0.221165 0.340387
Si Si6 0.773188 0.141769 0.543019
Si Si7 0.350711 0.672222 0.785762
Si Si8 0.494926 0.909286 0.210899
O O1 0.784162 0.852196 0.105079
O O2 0.948244 0.550326 0.310404
O O3 0.068175 0.678579 0.210771
O O4 0.933668 0.097178 0.242642
O O5 0.344318 0.521749 0.895046
O O6 0.371860 0.146418 0.090298
O O7 0.500000 0.000000 0.000000
O O8 0.350157 0.431723 0.312526
O O9 0.234278 0.581196 0.417343
O O10 0.215392 0.130251 0.359553
O O11 0.634952 0.206463 0.431456
O O12 0.483856 0.947435 0.313206
O O13 0.500000 0.000000 0.500000
O O14 0.793829 0.263977 0.318909
O O15 0.083221 0.988967 0.446172
O O16 0.381326 0.974848 0.778197
O O17 0.467865 0.418078 0.792813
#
# Coordination Sequence:
#
# PCOD9096455 Si02
#       8
#     2   2   2   2   2   2   2   2
#     4   9  17  29  52  81 106 138 177 211 264 326
#     4   9  18  34  56  82 113 144 170 215 271 325
#     4   9  18  33  54  77 102 138 181 224 266 309
#     4  10  22  40  58  78 107 145 186 232 268 304
#     4   9  16  31  53  79 108 139 171 213 267 325
#     4   9  18  32  55  79 101 138 182 218 266 318
#     4  10  20  36  55  81 114 143 171 219 272 326
#     4  11  23  35  54  83 109 143 187 218 262 327
#
# _framework density 23.472909000000001
#
# number of rings (size 3 to 8) (size 9 to 14) (size 15 to 20)
#    0.000    2.500    0.000    3.000    0.000    7.000 
#    0.000    1.875    0.000    0.000    0.000   20.125 
#    0.000    0.000    0.000    0.000    0.000    0.000 
#
# Total GULP energy -89247.209294 kJ/mol
# GULP energy per Si atom -5577.950581 kJ/mol
# Density = 2.341948 g / cm^3
# Si number density = 23.472909 Si / 1000 Ang^3
#
#
#
# Elastic Constant Matrix: (Units=GPa)
#
#
# Indices 1 2 3 4 5 6 
#
# 1 111.4510 21.0921 37.1354 -3.3205 37.1176 -25.8253
# 2 21.0921 64.3574 12.4786 1.9588 10.3988 -9.0979
# 3 37.1354 12.4786 122.8610 1.1043 13.5336 -14.4971
# 4 -3.3205 1.9588 1.1043 26.6127 -7.2309 11.1557
# 5 37.1176 10.3988 13.5336 -7.2309 42.1572 -5.1781
# 6 -25.8253 -9.0979 -14.4971 11.1557 -5.1781 41.7795
#
#
#
# Elastic Compliance Matrix: (Units=1/GPa)
#
#
# Indices 1 2 3 4 5 6 
#
# 1 0.016139 -0.001399 -0.002254 -0.004906 -0.012927 0.008598
# 2 -0.001399 0.017169 -0.000569 -0.003608 -0.003039 0.003263
# 3 -0.002254 -0.000569 0.009231 -0.001715 -0.000883 0.002035
# 4 -0.004906 -0.003608 -0.001715 0.047036 0.011925 -0.015495
# 5 -0.012927 -0.003039 -0.000883 0.011925 0.037257 -0.007525
# 6 0.008598 0.003263 0.002035 -0.015495 -0.007525 0.033871
#
#
# Mechanical properties :
#
#
# Convention : Reuss Voigt Hill
#
# Bulk Modulus (GPa) = 29.32817 48.89796 39.11307
# Shear Modulus (GPa) = 27.69908 37.30745 32.50326
#
# Velocity S-wave (km/s) = 3.43890 3.99103 3.72521
# Velocity P-wave (km/s) = 5.31880 6.48958 5.93314
#
# Compressibility (1/GPa) = 0.03409691
#
# Stress axis : x y z
#
# Youngs Moduli (GPa) = 61.95996 58.24389 108.33057
#
# Poissons Ratio (x) = 0.08149 0.24414
# Poissons Ratio (y) = 0.08668 0.06161
# Poissons Ratio (z) = 0.13963 0.03312
#
# Static dielectric constant tensor:
#      x y z
#    x 1.995390 -0.031550 -0.004910 
#    y -0.031550 1.878400 -0.029400 
#    z -0.004910 -0.029400 1.917250 
# 
# From -- ./inp_files/77841.got.cif
#   From: 2010.05.17/outbox.cif.g08.bks.cpg/sg2_39_cif.got.tgz:77841.got - 2010.06.03 11:33:40.
