data_PCOD9096152
_publ_section_title
;
Structure prediction by ZEFSAII (Michael W. Deem and Ramdas Pophale) SiO2 
 PCOD9096152
Probable space group: P -1
;
_chemical_formula_sum "Si O2"
_cell_formula_units_Z 12
_cell_length_a 12.074538
_cell_length_b 9.377191
_cell_length_c 8.127771
_cell_angle_alpha 35.976236
_cell_angle_beta 68.939775
_cell_angle_gamma 58.776843
_cell_volume 458.980828
_symmetry_space_group_name_H-M "P -1"
_symmetry_group_IT_number 2
_symmetry_cell_setting 'triclinic'
loop_
_space_group_symop_operation_xyz
x,y,z
-x,-y,-z
loop_
_atom_site_type_symbol
_atom_site_label
_atom_site_fract_x
_atom_site_fract_y
_atom_site_fract_z
Si Si1 0.450373 0.855228 0.294241
Si Si2 0.079871 0.636215 0.666156
Si Si3 0.874056 0.922947 0.980092
Si Si4 0.407369 0.231193 0.219062
Si Si5 0.126043 0.540101 0.115459
Si Si6 0.622720 0.338668 0.800073
O O1 0.576639 0.654126 0.513817
O O2 0.383605 0.718498 0.340293
O O3 0.356680 0.073854 0.262836
O O4 0.500000 0.000000 0.000000
O O5 0.930546 0.686842 0.653921
O O6 0.118406 0.847093 0.356302
O O7 0.152004 0.323920 0.857384
O O8 0.099202 0.651004 0.837993
O O9 0.756822 0.093317 0.005518
O O10 0.026943 0.748477 0.103819
O O11 0.276492 0.452614 0.155887
O O12 0.500000 0.000000 0.500000
O O13 0.501543 0.333704 0.974215
#
# Coordination Sequence:
#
# PCOD9096152 Si02
#       6
#     2   2   2   2   2   2
#     4   9  21  37  60  91 125 164 210 266 322 377
#     4   9  20  34  62  94 126 159 208 271 327 374
#     4  10  20  35  62  95 122 158 210 273 330 370
#     4  11  24  42  62  91 134 175 210 260 324 395
#     4   9  21  35  58  89 129 164 214 259 322 385
#     4  10  22  37  65  95 125 164 219 274 319 379
#
# _framework density 26.144881000000002
#
# number of rings (size 3 to 8) (size 9 to 14) (size 15 to 20)
#    1.000    1.333    0.000    1.500   11.667    2.000 
#    0.000    0.833    0.000    2.000    0.000    0.000 
#    0.000    0.000    0.000    0.000    0.000    0.000 
#
# Total GULP energy -66851.322127 kJ/mol
# GULP energy per Si atom -5570.943511 kJ/mol
# Density = 2.608537 g / cm^3
# Si number density = 26.144881 Si / 1000 Ang^3
#
#
#
# Elastic Constant Matrix: (Units=GPa)
#
#
# Indices 1 2 3 4 5 6 
#
# 1 88.4947 51.2571 33.4111 -1.2144 14.0600 -46.7477
# 2 51.2571 157.2312 22.7057 -34.7221 3.6935 -35.9848
# 3 33.4111 22.7057 104.7339 -14.7862 -11.0925 -13.6477
# 4 -1.2144 -34.7221 -14.7862 25.8537 0.5488 2.3491
# 5 14.0600 3.6935 -11.0925 0.5488 30.1555 -6.8090
# 6 -46.7477 -35.9848 -13.6477 2.3491 -6.8090 66.4758
#
#
#
# Elastic Compliance Matrix: (Units=1/GPa)
#
#
# Indices 1 2 3 4 5 6 
#
# 1 0.027617 -0.007938 -0.008887 -0.015336 -0.012047 0.012607
# 2 -0.007938 0.012897 0.002891 0.018380 0.003228 0.001674
# 3 -0.008887 0.002891 0.014099 0.011470 0.008467 -0.001328
# 4 -0.015336 0.018380 0.011470 0.069048 0.007835 -0.000118
# 5 -0.012047 0.003228 0.008467 0.007835 0.041118 -0.001051
# 6 0.012607 0.001674 -0.001328 -0.000118 -0.001051 0.024439
#
#
# Mechanical properties :
#
#
# Convention : Reuss Voigt Hill
#
# Bulk Modulus (GPa) = 37.39059 62.80087 50.09573
# Shear Modulus (GPa) = 22.12384 40.70274 31.41329
#
# Velocity S-wave (km/s) = 2.91211 3.94993 3.47004
# Velocity P-wave (km/s) = 5.06355 6.69889 5.93779
#
# Compressibility (1/GPa) = 0.02674470
#
# Stress axis : x y z
#
# Youngs Moduli (GPa) = 36.20990 77.54012 70.92488
#
# Poissons Ratio (x) = 0.61551 0.63034
# Poissons Ratio (y) = 0.28743 -0.20507
# Poissons Ratio (z) = 0.32181 -0.22420
#
# Static dielectric constant tensor:
#      x y z
#    x 2.264910 0.028570 0.005640 
#    y 0.028570 2.212020 -0.091430 
#    z 0.005640 -0.091430 2.096120 
# 
# From -- ./inp_files/64663.got.cif
#   From: 2010.05.17/outbox.cif.g08.bks.cpg/sg2_33_cif.got.tgz:64663.got - 2010.06.03 11:33:40.
