data_PCOD9096268
_publ_section_title
;
Structure prediction by ZEFSAII (Michael W. Deem and Ramdas Pophale) SiO2 
 PCOD9096268
Probable space group: P -1
;
_chemical_formula_sum "Si O2"
_cell_formula_units_Z 14
_cell_length_a 10.128260
_cell_length_b 12.237660
_cell_length_c 10.102047
_cell_angle_alpha 118.715725
_cell_angle_beta 40.479723
_cell_angle_gamma 133.216462
_cell_volume 590.215320
_symmetry_space_group_name_H-M "P -1"
_symmetry_group_IT_number 2
_symmetry_cell_setting 'triclinic'
loop_
_space_group_symop_operation_xyz
x,y,z
-x,-y,-z
loop_
_atom_site_type_symbol
_atom_site_label
_atom_site_fract_x
_atom_site_fract_y
_atom_site_fract_z
Si Si1 0.870845 0.107487 0.154696
Si Si2 0.875619 0.348019 0.141795
Si Si3 0.093667 0.180773 0.303093
Si Si4 0.532795 0.159547 0.047810
Si Si5 0.295582 0.366645 0.670415
Si Si6 0.739322 0.887889 0.321530
Si Si7 0.004694 0.661602 0.335944
O O1 0.074148 0.189628 0.164363
O O2 0.789197 0.214463 0.234555
O O3 0.007924 0.090939 0.916968
O O4 0.668866 0.947830 0.283396
O O5 0.313210 0.729400 0.881523
O O6 0.147249 0.399571 0.908973
O O7 0.913707 0.496201 0.260951
O O8 0.297066 0.162214 0.199914
O O9 0.103181 0.320745 0.438559
O O10 0.833514 0.019805 0.433957
O O11 0.704485 0.237297 0.833562
O O12 0.500000 0.000000 0.000000
O O13 0.500000 0.500000 0.500000
O O14 0.393231 0.275523 0.611766
O O15 0.082443 0.267763 0.667834
#
# Coordination Sequence:
#
# PCOD9096268 Si02
#       7
#     2   2   2   2   2   2   2
#     4   8  17  39  69  86 129 177 207 263 331 378
#     4  10  22  42  62  94 136 168 215 269 318 396
#     4  10  21  39  67  94 127 172 211 270 327 378
#     4  11  23  39  66  99 124 165 228 278 314 372
#     4  10  20  35  64  92 122 172 215 259 320 381
#     4   8  17  37  68  92 121 168 222 257 320 389
#     4  11  25  38  59  97 137 165 214 267 328 384
#
# _framework density 23.720157
#
# number of rings (size 3 to 8) (size 9 to 14) (size 15 to 20)
#    0.857    1.429    0.000    4.286    4.000    2.857 
#    0.000    0.714    6.286    5.143    0.000    0.000 
#    0.000    0.000    0.000    0.000    0.000    0.000 
#
# Total GULP energy -78034.881454 kJ/mol
# GULP energy per Si atom -5573.920104 kJ/mol
# Density = 2.366617 g / cm^3
# Si number density = 23.720157 Si / 1000 Ang^3
#
#
#
# Elastic Constant Matrix: (Units=GPa)
#
#
# Indices 1 2 3 4 5 6 
#
# 1 82.7581 53.4152 28.8032 14.6026 0.9126 -13.6638
# 2 53.4152 146.1757 48.4231 3.7296 6.7942 -18.1755
# 3 28.8032 48.4231 70.9762 13.6992 0.5498 4.8855
# 4 14.6026 3.7296 13.6992 52.6981 3.0354 11.2047
# 5 0.9126 6.7942 0.5498 3.0354 25.6170 0.4796
# 6 -13.6638 -18.1755 4.8855 11.2047 0.4796 38.4002
#
#
#
# Elastic Compliance Matrix: (Units=1/GPa)
#
#
# Indices 1 2 3 4 5 6 
#
# 1 0.018283 -0.004578 -0.003740 -0.005177 0.001138 0.006311
# 2 -0.004578 0.011223 -0.006332 0.001414 -0.002922 0.004112
# 3 -0.003740 -0.006332 0.020866 -0.002723 0.001804 -0.006211
# 4 -0.005177 0.001414 -0.002723 0.022754 -0.002689 -0.007432
# 5 0.001138 -0.002922 0.001804 -0.002689 0.040068 -0.000923
# 6 0.006311 0.004112 -0.006211 -0.007432 -0.000923 0.033204
#
#
# Mechanical properties :
#
#
# Convention : Reuss Voigt Hill
#
# Bulk Modulus (GPa) = 47.45808 62.35476 54.90642
# Shear Modulus (GPa) = 27.36400 34.62762 30.99581
#
# Velocity S-wave (km/s) = 3.40018 3.82493 3.61879
# Velocity P-wave (km/s) = 5.95532 6.77137 6.37642
#
# Compressibility (1/GPa) = 0.02107123
#
# Stress axis : x y z
#
# Youngs Moduli (GPa) = 54.69582 89.10531 47.92430
#
# Poissons Ratio (x) = 0.40793 0.17924
# Poissons Ratio (y) = 0.25040 0.30347
# Poissons Ratio (z) = 0.20457 0.56423
#
# Static dielectric constant tensor:
#      x y z
#    x 1.891800 -0.020660 -0.035470 
#    y -0.020660 1.976210 -0.022970 
#    z -0.035470 -0.022970 2.027800 
# 
# From -- ./inp_files/421711.got.cif
#   From: 2010.05.17/outbox.cif.g08.bks.cpg/sg2_211_cif.got.tgz:421711.got - 2010.06.03 11:33:40.
