data_PCOD9096255
_publ_section_title
;
Structure prediction by ZEFSAII (Michael W. Deem and Ramdas Pophale) SiO2 
 PCOD9096255
Probable space group: P -1
;
_chemical_formula_sum "Si O2"
_cell_formula_units_Z 16
_cell_length_a 12.475528
_cell_length_b 10.753855
_cell_length_c 7.758798
_cell_angle_alpha 41.750522
_cell_angle_beta 100.175558
_cell_angle_gamma 113.114126
_cell_volume 625.913753
_symmetry_space_group_name_H-M "P -1"
_symmetry_group_IT_number 2
_symmetry_cell_setting 'triclinic'
loop_
_space_group_symop_operation_xyz
x,y,z
-x,-y,-z
loop_
_atom_site_type_symbol
_atom_site_label
_atom_site_fract_x
_atom_site_fract_y
_atom_site_fract_z
Si Si1 0.865663 0.028951 0.789710
Si Si2 0.377131 0.078088 0.235151
Si Si3 0.495902 0.219092 0.803206
Si Si4 0.958499 0.357833 0.972267
Si Si5 0.892400 0.926295 0.295295
Si Si6 0.796108 0.562335 0.203589
Si Si7 0.535808 0.277938 0.371035
Si Si8 0.751957 0.488522 0.673352
O O1 0.759839 0.080558 0.633386
O O2 0.872230 0.019079 0.009773
O O3 0.825017 0.799577 0.946025
O O4 0.998205 0.139468 0.645635
O O5 0.436500 0.239128 0.236750
O O6 0.450532 0.937475 0.391284
O O7 0.390628 0.187524 0.939503
O O8 0.496266 0.310873 0.518939
O O9 0.615326 0.350835 0.802335
O O10 0.500000 0.000000 0.000000
O O11 0.838263 0.379382 0.861606
O O12 0.076793 0.444586 0.796508
O O13 0.000000 0.500000 0.000000
O O14 0.925799 0.116184 0.235627
O O15 0.789236 0.712690 0.533144
O O16 0.670964 0.433747 0.208431
O O17 0.769536 0.513309 0.447167
#
# Coordination Sequence:
#
# PCOD9096255 Si02
#       8
#     2   2   2   2   2   2   2   2
#     4   9  19  37  64  90 118 167 205 270 321 364
#     4  10  20  35  64  88 124 169 209 262 326 371
#     4   9  20  38  61  93 128 166 216 264 313 390
#     4  11  24  37  64  94 124 171 206 264 339 372
#     4   9  21  40  61  96 127 156 226 264 306 405
#     4   9  20  39  60  88 122 155 221 260 308 399
#     4   9  20  36  58  91 124 161 219 262 308 394
#     4  10  21  40  66  89 125 172 209 265 326 372
#
# _framework density 25.562625000000001
#
# number of rings (size 3 to 8) (size 9 to 14) (size 15 to 20)
#    0.000    2.500    0.000    1.125    8.750    1.000 
#    0.000    5.625   11.000    0.000    0.000    0.000 
#    0.000    0.000    0.000    0.000    0.000    0.000 
#
# Total GULP energy -89450.288216 kJ/mol
# GULP energy per Si atom -5590.643014 kJ/mol
# Density = 2.550444 g / cm^3
# Si number density = 25.562625 Si / 1000 Ang^3
#
#
#
# Elastic Constant Matrix: (Units=GPa)
#
#
# Indices 1 2 3 4 5 6 
#
# 1 99.9472 37.7410 15.8206 6.0658 8.8863 20.7239
# 2 37.7410 121.6071 23.3303 -12.9815 -8.8605 13.7852
# 3 15.8206 23.3303 28.8055 -14.5639 -0.1524 -1.5605
# 4 6.0658 -12.9815 -14.5639 42.4936 11.3316 2.7154
# 5 8.8863 -8.8605 -0.1524 11.3316 27.1921 -11.2631
# 6 20.7239 13.7852 -1.5605 2.7154 -11.2631 35.5936
#
#
#
# Elastic Compliance Matrix: (Units=1/GPa)
#
#
# Indices 1 2 3 4 5 6 
#
# 1 0.015836 -0.003052 -0.008251 -0.002695 -0.009767 -0.011285
# 2 -0.003052 0.011041 -0.007074 0.000524 0.003633 -0.001700
# 3 -0.008251 -0.007074 0.054608 0.018307 -0.003906 0.007306
# 4 -0.002695 0.000524 0.018307 0.034867 -0.015627 -0.005436
# 5 -0.009767 0.003633 -0.003906 -0.015627 0.057354 0.023450
# 6 -0.011285 -0.001700 0.007306 -0.005436 0.023450 0.043479
#
#
# Mechanical properties :
#
#
# Convention : Reuss Voigt Hill
#
# Bulk Modulus (GPa) = 22.35630 44.90487 33.63058
# Shear Modulus (GPa) = 18.59783 32.62039 25.60911
#
# Velocity S-wave (km/s) = 2.70022 3.57613 3.16859
# Velocity P-wave (km/s) = 4.29957 5.88696 5.15474
#
# Compressibility (1/GPa) = 0.04473012
#
# Stress axis : x y z
#
# Youngs Moduli (GPa) = 63.14907 90.57338 18.31234
#
# Poissons Ratio (x) = 0.27640 0.15110
# Poissons Ratio (y) = 0.19271 0.12954
# Poissons Ratio (z) = 0.52106 0.64073
#
# Static dielectric constant tensor:
#      x y z
#    x 2.107160 0.028730 0.013750 
#    y 0.028730 2.051150 0.033750 
#    z 0.013750 0.033750 2.051990 
# 
# From -- ./inp_files/261657.got.cif
#   From: 2010.05.17/outbox.cif.g08.bks.cpg/sg2_131_cif.got.tgz:261657.got - 2010.06.03 11:33:40.
