data_PCOD9096832
_publ_section_title
;
Structure prediction by ZEFSAII (Michael W. Deem and Ramdas Pophale) SiO2 
 PCOD9096832
Probable space group: P -1
;
_chemical_formula_sum "Si O2"
_cell_formula_units_Z 16
_cell_length_a 14.425401
_cell_length_b 15.591760
_cell_length_c 9.637244
_cell_angle_alpha 132.450028
_cell_angle_beta 92.311882
_cell_angle_gamma 49.505359
_cell_volume 857.469955
_symmetry_space_group_name_H-M "P -1"
_symmetry_group_IT_number 2
_symmetry_cell_setting 'triclinic'
loop_
_space_group_symop_operation_xyz
x,y,z
-x,-y,-z
loop_
_atom_site_type_symbol
_atom_site_label
_atom_site_fract_x
_atom_site_fract_y
_atom_site_fract_z
Si Si1 0.300088 0.745288 0.088360
Si Si2 0.890022 0.633766 0.472667
Si Si3 0.851287 0.672862 0.066720
Si Si4 0.129992 0.548367 0.558257
Si Si5 0.714028 0.318201 0.663700
Si Si6 0.302256 0.011584 0.381510
Si Si7 0.026496 0.907933 0.050126
Si Si8 0.701458 0.588469 0.873954
O O1 0.270591 0.729931 0.225990
O O2 0.243659 0.940181 0.295763
O O3 0.182509 0.801999 0.031870
O O4 0.509912 0.517144 0.827847
O O5 0.786030 0.640009 0.545613
O O6 0.965676 0.650890 0.599104
O O7 0.791671 0.808695 0.540210
O O8 0.054127 0.399234 0.150382
O O9 0.726097 0.901218 0.373732
O O10 0.771321 0.630491 0.995861
O O11 0.000000 0.500000 0.000000
O O12 0.245442 0.459951 0.336457
O O13 0.075533 0.722620 0.821809
O O14 0.764874 0.399515 0.733313
O O15 0.849738 0.105567 0.344248
O O16 0.499462 0.802319 0.121109
O O17 0.000000 0.000000 0.000000
#
# Coordination Sequence:
#
# PCOD9096832 Si02
#       8
#     2   2   2   2   2   2   2   2
#     4  10  24  41  62  92 125 157 207 250 304 357
#     4   9  20  38  57  81 118 147 192 248 288 354
#     4   9  19  32  57  81 106 145 191 234 289 347
#     4  10  21  38  56  85 115 153 197 238 295 362
#     4  10  23  43  61  89 127 160 201 258 296 359
#     4  10  20  36  58  84 112 154 189 246 303 345
#     4  12  23  39  66  91 121 165 204 244 310 362
#     4  10  20  38  57  82 119 149 194 247 296 352
#
# _framework density 18.659545000000001
#
# number of rings (size 3 to 8) (size 9 to 14) (size 15 to 20)
#    0.000    2.000    1.250    1.500    5.250    3.000 
#    2.250    1.250    0.000    0.000    0.000    0.000 
#    0.000    0.000    0.000    0.000    0.000    0.000 
#
# Total GULP energy -89195.656153 kJ/mol
# GULP energy per Si atom -5574.728510 kJ/mol
# Density = 1.861708 g / cm^3
# Si number density = 18.659545 Si / 1000 Ang^3
#
#
#
# Elastic Constant Matrix: (Units=GPa)
#
#
# Indices 1 2 3 4 5 6 
#
# 1 104.3159 42.6564 70.4164 -16.0134 15.4951 10.2733
# 2 42.6564 93.4300 39.7809 -13.7314 4.4615 8.4062
# 3 70.4164 39.7809 138.2402 -11.8995 19.8796 -3.2739
# 4 -16.0134 -13.7314 -11.8995 21.6611 1.0283 2.0783
# 5 15.4951 4.4615 19.8796 1.0283 33.2568 -2.9220
# 6 10.2733 8.4062 -3.2739 2.0783 -2.9220 31.9703
#
#
#
# Elastic Compliance Matrix: (Units=1/GPa)
#
#
# Indices 1 2 3 4 5 6 
#
# 1 0.018471 -0.003275 -0.007219 0.008488 -0.004711 -0.006796
# 2 -0.003275 0.014187 -0.002053 0.005735 0.000389 -0.003225
# 3 -0.007219 -0.002053 0.012033 -0.000241 -0.003212 0.003814
# 4 0.008488 0.005735 -0.000241 0.057109 -0.007104 -0.008622
# 5 -0.004711 0.000389 -0.003212 -0.007104 0.034766 0.004722
# 6 -0.006796 -0.003225 0.003814 -0.008622 0.004722 0.035693
#
#
# Mechanical properties :
#
#
# Convention : Reuss Voigt Hill
#
# Bulk Modulus (GPa) = 51.02874 71.29927 61.16401
# Shear Modulus (GPa) = 24.52360 29.58648 27.05504
#
# Velocity S-wave (km/s) = 3.62921 3.98627 3.81193
# Velocity P-wave (km/s) = 6.70583 7.71238 7.22665
#
# Compressibility (1/GPa) = 0.01959680
#
# Stress axis : x y z
#
# Youngs Moduli (GPa) = 54.14025 70.48599 83.10483
#
# Poissons Ratio (x) = 0.23087 0.59991
# Poissons Ratio (y) = 0.17733 0.17060
# Poissons Ratio (z) = 0.39082 0.14470
#
# Static dielectric constant tensor:
#      x y z
#    x 2.149900 0.252260 0.157680 
#    y 0.252260 1.793220 0.085590 
#    z 0.157680 0.085590 1.737630 
# 
# From -- ./inp_files/315890.got.cif
#   From: 2010.05.17/outbox.cif.g08.bks.cpg/sg2_158_cif.got.tgz:315890.got - 2010.06.03 11:33:40.
