data_PCOD9096619
_publ_section_title
;
Structure prediction by ZEFSAII (Michael W. Deem and Ramdas Pophale) SiO2 
 PCOD9096619
Probable space group: P -1
;
_chemical_formula_sum "Si O2"
_cell_formula_units_Z 14
_cell_length_a 11.820759
_cell_length_b 12.784923
_cell_length_c 7.097337
_cell_angle_alpha 83.396638
_cell_angle_beta 143.268102
_cell_angle_gamma 101.306116
_cell_volume 627.419004
_symmetry_space_group_name_H-M "P -1"
_symmetry_group_IT_number 2
_symmetry_cell_setting 'triclinic'
loop_
_space_group_symop_operation_xyz
x,y,z
-x,-y,-z
loop_
_atom_site_type_symbol
_atom_site_label
_atom_site_fract_x
_atom_site_fract_y
_atom_site_fract_z
Si Si1 0.787038 0.847052 0.757213
Si Si2 0.046531 0.962419 0.773745
Si Si3 0.636361 0.595377 0.273338
Si Si4 0.416892 0.696775 0.699986
Si Si5 0.596696 0.122505 0.636174
Si Si6 0.043514 0.519478 0.273408
Si Si7 0.696909 0.617944 0.785085
O O1 0.557135 0.831600 0.453675
O O2 0.832916 0.732100 0.896987
O O3 0.868847 0.897045 0.662226
O O4 0.870718 0.933095 0.011210
O O5 0.202992 0.884409 0.000117
O O6 0.000000 0.000000 0.500000
O O7 0.853089 0.580349 0.512989
O O8 0.617143 0.584226 0.476086
O O9 0.500000 0.500000 0.000000
O O10 0.560930 0.698229 0.068839
O O11 0.384411 0.808619 0.544841
O O12 0.213995 0.622377 0.493005
O O13 0.533372 0.643782 0.702346
O O14 0.500000 0.000000 0.500000
O O15 0.000000 0.500000 0.000000
O O16 0.838899 0.541177 0.070988
#
# Coordination Sequence:
#
# PCOD9096619 Si02
#       7
#     2   2   2   2   2   2   2
#     4   9  20  36  54  82 110 144 186 221 272 330
#     4  10  20  36  57  79 112 146 181 230 274 321
#     4   9  20  36  55  81 107 142 186 224 274 331
#     4  10  20  37  57  78 111 147 181 227 278 323
#     4   9  19  36  56  80 111 147 181 223 276 325
#     4   9  19  35  55  81 110 143 183 228 277 327
#     4  10  20  36  57  80 112 145 181 228 273 326
#
# _framework density 22.313635000000001
#
# number of rings (size 3 to 8) (size 9 to 14) (size 15 to 20)
#    0.000    2.571    0.000    0.857    0.000    9.714 
#    0.000   17.143    0.000    0.000    0.000    0.000 
#    0.000    0.000    0.000    0.000    0.000    0.000 
#
# Total GULP energy -78057.843325 kJ/mol
# GULP energy per Si atom -5575.560237 kJ/mol
# Density = 2.226285 g / cm^3
# Si number density = 22.313635 Si / 1000 Ang^3
#
#
#
# Elastic Constant Matrix: (Units=GPa)
#
#
# Indices 1 2 3 4 5 6 
#
# 1 61.3202 -8.4853 35.7332 -1.5413 -11.0752 -0.0856
# 2 -8.4853 54.3750 19.3608 -11.5115 9.6651 10.5989
# 3 35.7332 19.3608 127.4981 -35.1234 -2.7502 -2.9835
# 4 -1.5413 -11.5115 -35.1234 41.3579 -5.3944 -3.1278
# 5 -11.0752 9.6651 -2.7502 -5.3944 32.3090 -5.4918
# 6 -0.0856 10.5989 -2.9835 -3.1278 -5.4918 30.7133
#
#
#
# Elastic Compliance Matrix: (Units=1/GPa)
#
#
# Indices 1 2 3 4 5 6 
#
# 1 0.022503 0.005181 -0.008238 -0.004310 0.004372 -0.002182
# 2 0.005181 0.024653 -0.005420 0.000666 -0.007705 -0.010330
# 3 -0.008238 -0.005420 0.014150 0.010909 0.002640 0.004805
# 4 -0.004310 0.000666 0.010909 0.034655 0.005958 0.005412
# 5 0.004372 -0.007705 0.002640 0.005958 0.037722 0.010279
# 6 -0.002182 -0.010330 0.004805 0.005412 0.010279 0.038974
#
#
# Mechanical properties :
#
#
# Convention : Reuss Voigt Hill
#
# Bulk Modulus (GPa) = 22.54703 37.37897 29.96300
# Shear Modulus (GPa) = 24.46255 33.98170 29.22213
#
# Velocity S-wave (km/s) = 3.31464 3.90668 3.62278
# Velocity P-wave (km/s) = 4.97752 6.09406 5.56387
#
# Compressibility (1/GPa) = 0.04435174
#
# Stress axis : x y z
#
# Youngs Moduli (GPa) = 44.43774 40.56282 70.67362
#
# Poissons Ratio (x) = -0.21014 0.58219
# Poissons Ratio (y) = -0.23021 0.38305
# Poissons Ratio (z) = 0.36606 0.21985
#
# Static dielectric constant tensor:
#      x y z
#    x 1.922660 -0.044460 0.059820 
#    y -0.044460 1.967640 -0.072690 
#    z 0.059820 -0.072690 1.868360 
# 
# From -- ./inp_files/51925.got.cif
#   From: 2010.05.17/outbox.cif.g08.bks.cpg/sg2_26_cif.got.tgz:51925.got - 2010.06.03 11:33:40.
