data_PCOD9096340
_publ_section_title
;
Structure prediction by ZEFSAII (Michael W. Deem and Ramdas Pophale) SiO2 
 PCOD9096340
Probable space group: P -1
;
_chemical_formula_sum "Si O2"
_cell_formula_units_Z 14
_cell_length_a 5.320572
_cell_length_b 9.596248
_cell_length_c 16.628200
_cell_angle_alpha 57.580712
_cell_angle_beta 125.056628
_cell_angle_gamma 101.340246
_cell_volume 579.000794
_symmetry_space_group_name_H-M "P -1"
_symmetry_group_IT_number 2
_symmetry_cell_setting 'triclinic'
loop_
_space_group_symop_operation_xyz
x,y,z
-x,-y,-z
loop_
_atom_site_type_symbol
_atom_site_label
_atom_site_fract_x
_atom_site_fract_y
_atom_site_fract_z
Si Si1 0.930964 0.651381 0.127894
Si Si2 0.548628 0.976042 0.920656
Si Si3 0.632092 0.222005 0.727781
Si Si4 0.670662 0.509692 0.890890
Si Si5 0.931169 0.978290 0.730225
Si Si6 0.934292 0.810632 0.450525
Si Si7 0.395725 0.821729 0.664339
O O1 0.595896 0.592077 0.095187
O O2 0.099055 0.671422 0.237778
O O3 0.193846 0.542633 0.156307
O O4 0.849348 0.834175 0.014358
O O5 0.273188 0.905459 0.844545
O O6 0.539123 0.151973 0.818592
O O7 0.500000 0.000000 0.000000
O O8 0.334270 0.290300 0.597169
O O9 0.778167 0.051590 0.762265
O O10 0.482215 0.696460 0.791932
O O11 0.000000 0.500000 0.000000
O O12 0.733827 0.855920 0.687099
O O13 0.913609 0.137466 0.619559
O O14 0.187701 0.746770 0.583539
O O15 0.773414 0.994124 0.397636
#
# Coordination Sequence:
#
# PCOD9096340 Si02
#       7
#     2   2   2   2   2   2   2
#     4  12  26  43  65  95 138 176 215 262 334 398
#     4  11  21  36  63  97 132 167 215 277 329 379
#     4  10  22  38  64 100 123 164 222 282 330 373
#     4  12  29  45  66  94 140 182 213 257 325 424
#     4  10  20  35  67  95 126 159 219 289 323 377
#     4   9  21  40  70  93 126 160 228 290 318 375
#     4  10  22  42  63  96 125 177 223 267 330 379
#
# _framework density 24.179589
#
# number of rings (size 3 to 8) (size 9 to 14) (size 15 to 20)
#    0.000    1.429    1.429    3.000   12.000    0.000 
#    0.000    1.429    0.000    0.000    0.000    0.000 
#    0.000    0.000    0.000    0.000    0.000    0.000 
#
# Total GULP energy -78077.588165 kJ/mol
# GULP energy per Si atom -5576.970583 kJ/mol
# Density = 2.412456 g / cm^3
# Si number density = 24.179589 Si / 1000 Ang^3
#
#
#
# Elastic Constant Matrix: (Units=GPa)
#
#
# Indices 1 2 3 4 5 6 
#
# 1 77.4043 23.1832 23.1734 24.4572 11.6675 9.7942
# 2 23.1832 58.5259 39.6629 37.9398 21.5652 16.7926
# 3 23.1734 39.6629 120.0613 45.3791 22.5773 12.1001
# 4 24.4572 37.9398 45.3791 42.2877 9.4986 10.3627
# 5 11.6675 21.5652 22.5773 9.4986 24.7003 9.8235
# 6 9.7942 16.7926 12.1001 10.3627 9.8235 39.5174
#
#
#
# Elastic Compliance Matrix: (Units=1/GPa)
#
#
# Indices 1 2 3 4 5 6 
#
# 1 0.016616 0.003459 0.002055 -0.013029 -0.007349 -0.000974
# 2 0.003459 0.064487 0.008285 -0.058232 -0.040992 -0.005337
# 3 0.002055 0.008285 0.016778 -0.023469 -0.014778 0.000660
# 4 -0.013029 -0.058232 -0.023469 0.099777 0.040504 -0.001073
# 5 -0.007349 -0.040992 -0.014778 0.040504 0.080399 -0.006842
# 6 -0.000974 -0.005337 0.000660 -0.001073 -0.006842 0.029594
#
#
# Mechanical properties :
#
#
# Convention : Reuss Voigt Hill
#
# Bulk Modulus (GPa) = 7.96950 47.55896 27.76423
# Shear Modulus (GPa) = 15.53376 32.63254 24.08315
#
# Velocity S-wave (km/s) = 2.53738 3.67766 3.15939
# Velocity P-wave (km/s) = 3.44782 6.14372 4.98161
#
# Compressibility (1/GPa) = 0.12547832
#
# Stress axis : x y z
#
# Youngs Moduli (GPa) = 60.18425 15.50707 59.60069
#
# Poissons Ratio (x) = -0.05364 -0.12247
# Poissons Ratio (y) = -0.20818 -0.49379
# Poissons Ratio (z) = -0.12367 -0.12848
#
# Static dielectric constant tensor:
#      x y z
#    x 2.105320 0.029370 0.014210 
#    y 0.029370 2.053880 0.006000 
#    z 0.014210 0.006000 1.920820 
# 
# From -- ./inp_files/371542.got.cif
#   From: 2010.05.17/outbox.cif.g08.bks.cpg/sg2_186_cif.got.tgz:371542.got - 2010.06.03 11:33:40.
