data_PCOD9096782
_publ_section_title
;
Structure prediction by ZEFSAII (Michael W. Deem and Ramdas Pophale) SiO2 
 PCOD9096782
Probable space group: P -1
;
_chemical_formula_sum "Si O2"
_cell_formula_units_Z 14
_cell_length_a 18.551958
_cell_length_b 5.484013
_cell_length_c 7.538284
_cell_angle_alpha 104.674958
_cell_angle_beta 46.791715
_cell_angle_gamma 109.193400
_cell_volume 527.481290
_symmetry_space_group_name_H-M "P -1"
_symmetry_group_IT_number 2
_symmetry_cell_setting 'triclinic'
loop_
_space_group_symop_operation_xyz
x,y,z
-x,-y,-z
loop_
_atom_site_type_symbol
_atom_site_label
_atom_site_fract_x
_atom_site_fract_y
_atom_site_fract_z
Si Si1 0.080362 0.754457 0.858227
Si Si2 0.638542 0.470645 0.891061
Si Si3 0.157125 0.630392 0.367740
Si Si4 0.314797 0.785501 0.566372
Si Si5 0.713809 0.985512 0.007150
Si Si6 0.922498 0.865631 0.766287
Si Si7 0.506001 0.790117 0.612354
O O1 0.080570 0.727572 0.641659
O O2 0.197619 0.744058 0.700967
O O3 0.000000 0.500000 0.000000
O O4 0.056564 0.987281 0.055241
O O5 0.760813 0.511429 0.712239
O O6 0.627579 0.387289 0.686881
O O7 0.627997 0.745380 0.040256
O O8 0.571005 0.256934 0.096614
O O9 0.100548 0.443360 0.277339
O O10 0.232246 0.889368 0.233771
O O11 0.380883 0.078017 0.481875
O O12 0.310657 0.778792 0.787696
O O13 0.807522 0.910994 0.938153
O O14 0.000000 0.000000 0.500000
O O15 0.500000 0.500000 0.500000
O O16 0.500000 0.000000 0.500000
#
# Coordination Sequence:
#
# PCOD9096782 Si02
#       7
#     2   2   2   2   2   2   2
#     4  10  20  39  64  91 131 174 224 278 336 412
#     4  10  22  41  67  94 133 172 219 277 340 412
#     4  10  21  38  62  90 125 171 219 276 334 407
#     4  10  22  43  66  97 135 177 225 280 347 411
#     4  10  21  39  61  91 129 167 223 275 336 406
#     4  10  20  36  58  81 124 169 212 271 336 394
#     4  12  25  47  75 105 142 185 232 290 352 417
#
# _framework density 26.541224
#
# number of rings (size 3 to 8) (size 9 to 14) (size 15 to 20)
#    0.000    1.714    2.857    1.286    0.000    1.714 
#    5.143    2.143    0.000    0.000    0.000    0.000 
#    0.000    0.000    0.000    0.000    0.000    0.000 
#
# Total GULP energy -77939.966359 kJ/mol
# GULP energy per Si atom -5567.140454 kJ/mol
# Density = 2.648081 g / cm^3
# Si number density = 26.541224 Si / 1000 Ang^3
#
#
#
# Elastic Constant Matrix: (Units=GPa)
#
#
# Indices 1 2 3 4 5 6 
#
# 1 38.4984 27.6711 23.5907 4.0154 -9.6724 23.0844
# 2 27.6711 159.0037 70.8454 -9.5986 1.9003 20.5352
# 3 23.5907 70.8454 212.6447 3.1489 8.0911 11.0548
# 4 4.0154 -9.5986 3.1489 45.2069 9.1543 -10.8450
# 5 -9.6724 1.9003 8.0911 9.1543 43.8352 -2.1337
# 6 23.0844 20.5352 11.0548 -10.8450 -2.1337 40.4900
#
#
#
# Elastic Compliance Matrix: (Units=1/GPa)
#
#
# Indices 1 2 3 4 5 6 
#
# 1 0.057029 -0.005531 -0.003123 -0.016949 0.015353 -0.032586
# 2 -0.005531 0.008387 -0.002163 0.002817 -0.001766 0.000152
# 3 -0.003123 -0.002163 0.005767 0.000037 -0.001608 0.001228
# 4 -0.016949 0.002817 0.000037 0.029889 -0.009344 0.015737
# 5 0.015353 -0.001766 -0.001608 -0.009344 0.028114 -0.008440
# 6 -0.032586 0.000152 0.001228 0.015737 -0.008440 0.046634
#
#
# Mechanical properties :
#
#
# Convention : Reuss Voigt Hill
#
# Bulk Modulus (GPa) = 20.18262 72.70681 46.44472
# Shear Modulus (GPa) = 23.36777 45.10906 34.23841
#
# Velocity S-wave (km/s) = 2.97043 4.12707 3.59557
# Velocity P-wave (km/s) = 4.40288 7.08263 5.89699
#
# Compressibility (1/GPa) = 0.04954758
#
# Stress axis : x y z
#
# Youngs Moduli (GPa) = 17.53503 119.23154 173.41326
#
# Poissons Ratio (x) = 0.65950 0.54158
# Poissons Ratio (y) = 0.09699 0.37510
# Poissons Ratio (z) = 0.05476 0.25790
#
# Static dielectric constant tensor:
#      x y z
#    x 2.455660 -0.058260 -0.083720 
#    y -0.058260 2.041340 0.079600 
#    z -0.083720 0.079600 2.176950 
# 
# From -- ./inp_files/39092.got.cif
#   From: 2010.05.17/outbox.cif.g08.bks.cpg/sg2_20_cif.got.tgz:39092.got - 2010.06.03 11:33:40.
