data_PCOD9096599
_publ_section_title
;
Structure prediction by ZEFSAII (Michael W. Deem and Ramdas Pophale) SiO2 
 PCOD9096599
Probable space group: P -1
;
_chemical_formula_sum "Si O2"
_cell_formula_units_Z 16
_cell_length_a 14.805940
_cell_length_b 14.776605
_cell_length_c 10.011138
_cell_angle_alpha 79.158118
_cell_angle_beta 49.585112
_cell_angle_gamma 37.332475
_cell_volume 713.095707
_symmetry_space_group_name_H-M "P -1"
_symmetry_group_IT_number 2
_symmetry_cell_setting 'triclinic'
loop_
_space_group_symop_operation_xyz
x,y,z
-x,-y,-z
loop_
_atom_site_type_symbol
_atom_site_label
_atom_site_fract_x
_atom_site_fract_y
_atom_site_fract_z
Si Si1 0.380768 0.074637 0.441904
Si Si2 0.215579 0.997780 0.670865
Si Si3 0.138602 0.674999 0.714759
Si Si4 0.311966 0.800774 0.398313
Si Si5 0.746480 0.086038 0.861617
Si Si6 0.340938 0.627033 0.789477
Si Si7 0.933545 0.633090 0.934036
Si Si8 0.631106 0.706268 0.603879
O O1 0.174260 0.133641 0.631069
O O2 0.500000 0.000000 0.500000
O O3 0.312045 0.226924 0.427046
O O4 0.613551 0.872723 0.176786
O O5 0.359874 0.833829 0.468243
O O6 0.399374 0.869891 0.663629
O O7 0.914395 0.169150 0.934355
O O8 0.210471 0.701823 0.747916
O O9 0.418353 0.467563 0.423545
O O10 0.047441 0.647806 0.884407
O O11 0.898187 0.882385 0.797672
O O12 0.352852 0.829493 0.216232
O O13 0.506166 0.575515 0.267356
O O14 0.998981 0.982199 0.659389
O O15 0.503503 0.255988 0.155746
O O16 0.091764 0.517939 0.674085
O O17 0.000000 0.500000 0.000000
#
# Coordination Sequence:
#
# PCOD9096599 Si02
#       8
#     2   2   2   2   2   2   2   2
#     4  10  20  36  56  89 125 158 196 257 304 345
#     4  11  21  36  63  91 119 158 203 254 298 363
#     4  10  20  38  61  89 124 152 201 257 297 352
#     4  10  24  40  62  87 128 164 199 243 311 367
#     4  10  21  45  59  86 130 166 193 251 307 359
#     4  10  21  37  59  92 123 153 194 261 303 349
#     4  12  21  33  59  95 117 156 204 247 297 360
#     4  11  22  36  63  89 121 162 205 254 293 358
#
# _framework density 22.437383000000001
#
# number of rings (size 3 to 8) (size 9 to 14) (size 15 to 20)
#    0.000    1.500    5.000    1.500    1.750    0.500 
#    2.250    2.500    0.000    1.500    0.000    0.000 
#    0.000    0.000    0.000    0.000    0.000    0.000 
#
# Total GULP energy -89324.971740 kJ/mol
# GULP energy per Si atom -5582.810734 kJ/mol
# Density = 2.238631 g / cm^3
# Si number density = 22.437383 Si / 1000 Ang^3
#
#
#
# Elastic Constant Matrix: (Units=GPa)
#
#
# Indices 1 2 3 4 5 6 
#
# 1 26.8310 13.8399 9.8413 -13.2863 3.5975 15.1403
# 2 13.8399 69.5159 26.8361 -17.5106 13.5250 2.9936
# 3 9.8413 26.8361 151.7242 -8.0632 12.1287 -1.8978
# 4 -13.2863 -17.5106 -8.0632 38.4765 5.5385 -2.1476
# 5 3.5975 13.5250 12.1287 5.5385 27.0385 -3.3749
# 6 15.1403 2.9936 -1.8978 -2.1476 -3.3749 20.8455
#
#
#
# Elastic Compliance Matrix: (Units=1/GPa)
#
#
# Indices 1 2 3 4 5 6 
#
# 1 0.102141 -0.002143 -0.003233 0.033349 -0.027279 -0.075153
# 2 -0.002143 0.020296 -0.002080 0.009538 -0.011184 -0.002376
# 3 -0.003233 -0.002080 0.007310 -0.000159 -0.001393 0.003071
# 4 0.033349 0.009538 -0.000159 0.043481 -0.021107 -0.024544
# 5 -0.027279 -0.011184 -0.001393 -0.021107 0.054647 0.027965
# 6 -0.075153 -0.002376 0.003071 -0.024544 0.027965 0.105176
#
#
# Mechanical properties :
#
#
# Convention : Reuss Voigt Hill
#
# Bulk Modulus (GPa) = 8.70814 38.78953 23.74884
# Shear Modulus (GPa) = 12.94532 30.44237 21.69385
#
# Velocity S-wave (km/s) = 2.40459 3.68743 3.11281
# Velocity P-wave (km/s) = 3.40572 5.95441 4.85046
#
# Compressibility (1/GPa) = 0.11483506
#
# Stress axis : x y z
#
# Youngs Moduli (GPa) = 9.79041 49.27200 136.80425
#
# Poissons Ratio (x) = 0.10558 0.44232
# Poissons Ratio (y) = 0.02098 0.28449
# Poissons Ratio (z) = 0.03165 0.10246
#
# Static dielectric constant tensor:
#      x y z
#    x 1.846560 0.021580 -0.022940 
#    y 0.021580 1.824260 0.001440 
#    z -0.022940 0.001440 1.898670 
# 
# From -- ./inp_files/315043.got.cif
#   From: 2010.05.17/outbox.cif.g08.bks.cpg/sg2_158_cif.got.tgz:315043.got - 2010.06.03 11:33:40.
