data_PCOD9096933
_publ_section_title
;
Structure prediction by ZEFSAII (Michael W. Deem and Ramdas Pophale) SiO2 
 PCOD9096933
Probable space group: P -1
;
_chemical_formula_sum "Si O2"
_cell_formula_units_Z 16
_cell_length_a 13.376152
_cell_length_b 25.120904
_cell_length_c 5.145363
_cell_angle_alpha 102.943408
_cell_angle_beta 101.278715
_cell_angle_gamma 24.033354
_cell_volume 686.079627
_symmetry_space_group_name_H-M "P -1"
_symmetry_group_IT_number 2
_symmetry_cell_setting 'triclinic'
loop_
_space_group_symop_operation_xyz
x,y,z
-x,-y,-z
loop_
_atom_site_type_symbol
_atom_site_label
_atom_site_fract_x
_atom_site_fract_y
_atom_site_fract_z
Si Si1 0.161401 0.184876 0.030269
Si Si2 0.928873 0.871218 0.425577
Si Si3 0.769553 0.615339 0.707932
Si Si4 0.379870 0.135527 0.571412
Si Si5 0.372804 0.731071 0.480584
Si Si6 0.278080 0.628314 0.705744
Si Si7 0.940520 0.621851 0.137923
Si Si8 0.428439 0.421560 0.071932
O O1 0.330342 0.118643 0.289085
O O2 0.893302 0.328797 0.175256
O O3 0.127329 0.138186 0.870057
O O4 0.276137 0.159813 0.812118
O O5 0.090624 0.847763 0.448269
O O6 0.089289 0.752761 0.559173
O O7 0.666755 0.009259 0.576567
O O8 0.496859 0.729117 0.610366
O O9 0.000000 0.500000 0.500000
O O10 0.870560 0.518394 0.842116
O O11 0.769139 0.674823 0.903443
O O12 0.222304 0.268354 0.611720
O O13 0.489805 0.662355 0.186599
O O14 0.486652 0.636132 0.657402
O O15 0.500000 0.500000 0.500000
O O16 0.412877 0.603127 0.945049
O O17 0.138305 0.568874 0.081859
#
# Coordination Sequence:
#
# PCOD9096933 Si02
#       8
#     2   2   2   2   2   2   2   2
#     4  12  25  44  65  94 132 182 223 265 314 382
#     4  11  25  45  64  91 137 181 220 265 317 380
#     4  10  20  40  71  92 127 159 207 273 342 389
#     4  12  28  41  67  93 133 178 226 263 314 387
#     4  10  21  38  64  90 121 163 206 257 322 381
#     4  11  24  41  63  96 131 175 220 269 320 373
#     4  10  23  41  62 100 125 163 212 270 327 393
#     4  10  20  36  58  88 126 159 203 259 317 371
#
# _framework density 23.320907999999999
#
# number of rings (size 3 to 8) (size 9 to 14) (size 15 to 20)
#    0.000    1.250    3.750    1.500    3.500    2.500 
#    0.000    0.625    0.000    0.750    0.000    0.000 
#    0.000    0.000    0.000    0.000    0.000    0.000 
#
# Total GULP energy -89228.383593 kJ/mol
# GULP energy per Si atom -5576.773975 kJ/mol
# Density = 2.326783 g / cm^3
# Si number density = 23.320908 Si / 1000 Ang^3
#
#
#
# Elastic Constant Matrix: (Units=GPa)
#
#
# Indices 1 2 3 4 5 6 
#
# 1 20.9232 79.6196 78.5223 -7.0098 -32.8734 -38.2146
# 2 79.6196 118.8466 16.6369 7.2777 29.6046 -58.5531
# 3 78.5223 16.6369 56.2575 3.7001 33.3722 -33.2053
# 4 -7.0098 7.2777 3.7001 21.6678 -11.9947 2.2236
# 5 -32.8734 29.6046 33.3722 -11.9947 21.6463 2.1082
# 6 -38.2146 -58.5531 -33.2053 2.2236 2.1082 49.5302
#
#
#
# Elastic Compliance Matrix: (Units=1/GPa)
#
#
# Indices 1 2 3 4 5 6 
#
# 1 0.009238 0.007484 0.006325 -0.010432 -0.013809 0.021272
# 2 0.007484 0.011611 -0.005470 -0.001229 0.001697 0.015817
# 3 0.006325 -0.005470 0.008779 0.005418 0.006184 0.003793
# 4 -0.010432 -0.001229 0.005418 0.044795 0.003087 -0.008011
# 5 -0.013809 0.001697 0.006184 0.003087 0.015600 -0.005305
# 6 0.021272 0.015817 0.003793 -0.008011 -0.005305 0.058428
#
#
# Mechanical properties :
#
#
# Convention : Reuss Voigt Hill
#
# Bulk Modulus (GPa) = 21.59480 60.62054 41.10767
# Shear Modulus (GPa) = 33.96522 19.98542 26.97532
#
# Velocity S-wave (km/s) = 3.82046 2.93059 3.40472
# Velocity P-wave (km/s) = 5.36108 6.12386 5.75512
#
# Compressibility (1/GPa) = 0.04630746
#
# Stress axis : x y z
#
# Youngs Moduli (GPa) = 108.24295 86.12279 113.90614
#
# Poissons Ratio (x) = -0.64454 -0.72044
# Poissons Ratio (y) = -0.81009 0.62302
# Poissons Ratio (z) = -0.68462 0.47106
#
# Static dielectric constant tensor:
#      x y z
#    x 2.966710 0.146180 0.077910 
#    y 0.146180 1.954560 -0.037950 
#    z 0.077910 -0.037950 1.927580 
# 
# From -- ./inp_files/101797.got.cif
#   From: 2010.05.17/outbox.cif.g08.bks.cpg/sg2_51_cif.got.tgz:101797.got - 2010.06.03 11:33:40.
