data_PCOD9096418
_publ_section_title
;
Structure prediction by ZEFSAII (Michael W. Deem and Ramdas Pophale) SiO2 
 PCOD9096418
Probable space group: P -1
;
_chemical_formula_sum "Si O2"
_cell_formula_units_Z 16
_cell_length_a 16.270844
_cell_length_b 12.456928
_cell_length_c 9.111258
_cell_angle_alpha 107.840528
_cell_angle_beta 65.043585
_cell_angle_gamma 155.245503
_cell_volume 686.582841
_symmetry_space_group_name_H-M "P -1"
_symmetry_group_IT_number 2
_symmetry_cell_setting 'triclinic'
loop_
_space_group_symop_operation_xyz
x,y,z
-x,-y,-z
loop_
_atom_site_type_symbol
_atom_site_label
_atom_site_fract_x
_atom_site_fract_y
_atom_site_fract_z
Si Si1 0.572842 0.779991 0.260572
Si Si2 0.338531 0.928561 0.451633
Si Si3 0.693034 0.645086 0.478835
Si Si4 0.915763 0.562116 0.509560
Si Si5 0.154236 0.982836 0.319127
Si Si6 0.238926 0.448605 0.135888
Si Si7 0.750834 0.797768 0.964316
Si Si8 0.405467 0.653309 0.786442
O O1 0.393471 0.513761 0.377304
O O2 0.462646 0.696620 0.159390
O O3 0.642536 0.962075 0.383637
O O4 0.751618 0.888450 0.134440
O O5 0.288505 0.746459 0.466562
O O6 0.125475 0.724109 0.440243
O O7 0.524111 0.165432 0.296459
O O8 0.500000 0.500000 0.500000
O O9 0.855952 0.923368 0.520510
O O10 0.723978 0.584473 0.308808
O O11 0.898736 0.627224 0.687608
O O12 0.962810 0.686927 0.381422
O O13 0.163462 0.044836 0.177781
O O14 0.375865 0.166149 0.257224
O O15 0.168786 0.238775 0.088024
O O16 0.282533 0.544277 0.981077
O O17 0.500000 0.500000 0.000000
#
# Coordination Sequence:
#
# PCOD9096418 Si02
#       8
#     2   2   2   2   2   2   2   2
#     4  10  18  34  61  82 104 143 188 227 257 322
#     4   9  21  42  58  72 107 154 192 213 266 334
#     4   9  15  27  51  82 104 139 184 212 253 324
#     4  10  23  37  55  78 114 149 179 222 279 323
#     4  10  16  32  53  77 111 147 174 209 277 334
#     4  11  20  33  57  90 111 132 182 236 276 306
#     4  10  16  30  54  85 112 133 175 226 272 323
#     4   9  17  31  58  80 102 143 187 226 259 319
#
# _framework density 23.303815
#
# number of rings (size 3 to 8) (size 9 to 14) (size 15 to 20)
#    0.000    2.250    5.000    1.500    0.000    1.500 
#    0.000    3.125    2.750    0.000    0.000    0.000 
#    0.000    0.000    0.000    0.000    0.000    0.000 
#
# Total GULP energy -89434.851824 kJ/mol
# GULP energy per Si atom -5589.678239 kJ/mol
# Density = 2.325077 g / cm^3
# Si number density = 23.303815 Si / 1000 Ang^3
#
#
#
# Elastic Constant Matrix: (Units=GPa)
#
#
# Indices 1 2 3 4 5 6 
#
# 1 47.5434 37.7585 9.2781 -17.0811 -3.0077 -3.9424
# 2 37.7585 120.5399 52.4463 -12.9062 18.5155 -43.5199
# 3 9.2781 52.4463 121.5025 -15.5594 23.9472 -26.1149
# 4 -17.0811 -12.9062 -15.5594 30.7135 -2.1803 2.6437
# 5 -3.0077 18.5155 23.9472 -2.1803 26.0693 -7.5174
# 6 -3.9424 -43.5199 -26.1149 2.6437 -7.5174 37.7106
#
#
#
# Elastic Compliance Matrix: (Units=1/GPa)
#
#
# Indices 1 2 3 4 5 6 
#
# 1 0.043217 -0.020341 0.001412 0.018670 0.014998 -0.016297
# 2 -0.020341 0.025664 -0.002778 -0.004790 -0.011622 0.023587
# 3 0.001412 -0.002778 0.012227 0.004964 -0.007661 0.003534
# 4 0.018670 -0.004790 0.004964 0.043935 0.003971 -0.002427
# 5 0.014998 -0.011622 -0.007661 0.003971 0.053780 -0.006708
# 6 -0.016297 0.023587 0.003534 -0.002427 -0.006708 0.053314
#
#
# Mechanical properties :
#
#
# Convention : Reuss Voigt Hill
#
# Bulk Modulus (GPa) = 26.52875 54.28350 40.40612
# Shear Modulus (GPa) = 17.35415 31.57221 24.46318
#
# Velocity S-wave (km/s) = 2.73186 3.68477 3.24350
# Velocity P-wave (km/s) = 4.62162 6.43799 5.60389
#
# Compressibility (1/GPa) = 0.03769496
#
# Stress axis : x y z
#
# Youngs Moduli (GPa) = 23.13887 38.96458 81.78802
#
# Poissons Ratio (x) = 0.79256 -0.11548
# Poissons Ratio (y) = 0.47066 0.22721
# Poissons Ratio (z) = -0.03267 0.10824
#
# Static dielectric constant tensor:
#      x y z
#    x 2.165480 -0.057700 0.139310 
#    y -0.057700 1.910650 -0.034000 
#    z 0.139310 -0.034000 1.952810 
# 
# From -- ./inp_files/176649.got.cif
#   From: 2010.05.17/outbox.cif.g08.bks.cpg/sg2_89_cif.got.tgz:176649.got - 2010.06.03 11:33:40.
