data_PCOD9096827
_publ_section_title
;
Structure prediction by ZEFSAII (Michael W. Deem and Ramdas Pophale) SiO2 
 PCOD9096827
Probable space group: P -1
;
_chemical_formula_sum "Si O2"
_cell_formula_units_Z 16
_cell_length_a 6.580597
_cell_length_b 15.182044
_cell_length_c 14.912251
_cell_angle_alpha 37.698856
_cell_angle_beta 121.833371
_cell_angle_gamma 109.120353
_cell_volume 762.370713
_symmetry_space_group_name_H-M "P -1"
_symmetry_group_IT_number 2
_symmetry_cell_setting 'triclinic'
loop_
_space_group_symop_operation_xyz
x,y,z
-x,-y,-z
loop_
_atom_site_type_symbol
_atom_site_label
_atom_site_fract_x
_atom_site_fract_y
_atom_site_fract_z
Si Si1 0.482170 0.880847 0.516995
Si Si2 0.661818 0.878139 0.848222
Si Si3 0.712723 0.491699 0.317210
Si Si4 0.831958 0.024215 0.083642
Si Si5 0.645088 0.808017 0.098904
Si Si6 0.978695 0.778918 0.454898
Si Si7 0.287511 0.434657 0.954704
Si Si8 0.781289 0.626097 0.699935
O O1 0.227275 0.824100 0.514166
O O2 0.695300 0.742388 0.665635
O O3 0.500000 0.000000 0.500000
O O4 0.466919 0.973132 0.346746
O O5 0.559041 0.843167 0.948383
O O6 0.665086 0.741198 0.892777
O O7 0.936266 0.899180 0.915124
O O8 0.747853 0.636698 0.260535
O O9 0.921471 0.350546 0.487896
O O10 0.713587 0.525785 0.183199
O O11 0.450277 0.451188 0.310178
O O12 0.824829 0.915287 0.086278
O O13 0.837314 0.916072 0.257711
O O14 0.590048 0.144958 0.931591
O O15 0.838511 0.715387 0.553264
O O16 0.024483 0.510282 0.869230
O O17 0.500000 0.500000 0.000000
#
# Coordination Sequence:
#
# PCOD9096827 Si02
#       8
#     2   2   2   2   2   2   2   2
#     4  10  22  37  56  83 111 147 193 227 273 335
#     4  10  21  38  58  80 116 144 183 234 278 324
#     4   9  20  37  55  80 112 146 186 229 271 332
#     4  10  20  36  58  84 110 143 186 229 280 333
#     4  10  20  36  58  84 110 143 186 229 280 333
#     4   9  20  37  55  80 112 146 186 229 271 332
#     4  10  22  37  56  83 111 147 193 227 273 335
#     4  10  20  38  57  74 118 150 181 232 280 314
#
# _framework density 20.987165999999998
#
# number of rings (size 3 to 8) (size 9 to 14) (size 15 to 20)
#    0.000    2.250    0.000    1.875    5.250    1.500 
#    9.000    0.625    0.000    0.000    0.000    0.000 
#    0.000    0.000    0.000    0.000    0.000    0.000 
#
# Total GULP energy -89319.735754 kJ/mol
# GULP energy per Si atom -5582.483485 kJ/mol
# Density = 2.093940 g / cm^3
# Si number density = 20.987166 Si / 1000 Ang^3
#
#
#
# Elastic Constant Matrix: (Units=GPa)
#
#
# Indices 1 2 3 4 5 6 
#
# 1 71.3793 39.2766 16.7676 -15.1730 12.1236 -5.3447
# 2 39.2766 156.6139 7.5884 -28.8006 20.3744 -7.7499
# 3 16.7676 7.5884 19.3499 -15.4646 8.7296 0.5693
# 4 -15.1730 -28.8006 -15.4646 32.5836 -4.7445 -0.4895
# 5 12.1236 20.3744 8.7296 -4.7445 28.9189 -3.1378
# 6 -5.3447 -7.7499 0.5693 -0.4895 -3.1378 14.1091
#
#
#
# Elastic Compliance Matrix: (Units=1/GPa)
#
#
# Indices 1 2 3 4 5 6 
#
# 1 0.020752 -0.004675 -0.019348 -0.003484 0.000521 0.006069
# 2 -0.004675 0.010089 0.012406 0.011680 -0.006741 0.002176
# 3 -0.019348 0.012406 0.120993 0.054977 -0.029217 -0.009987
# 4 -0.003484 0.011680 0.054977 0.063673 -0.012671 0.002269
# 5 0.000521 -0.006741 -0.029217 -0.012671 0.046677 0.007615
# 6 0.006069 0.002176 -0.009987 0.002269 0.007615 0.076546
#
#
# Mechanical properties :
#
#
# Convention : Reuss Voigt Hill
#
# Bulk Modulus (GPa) = 7.77598 41.62316 24.69957
# Shear Modulus (GPa) = 12.35084 27.36970 19.86027
#
# Velocity S-wave (km/s) = 2.42852 3.61517 3.07955
# Velocity P-wave (km/s) = 3.40247 6.10751 4.94361
#
# Compressibility (1/GPa) = 0.12860112
#
# Stress axis : x y z
#
# Youngs Moduli (GPa) = 48.18718 99.11799 8.26493
#
# Poissons Ratio (x) = 0.46340 0.15991
# Poissons Ratio (y) = 0.22528 -0.10254
# Poissons Ratio (z) = 0.93232 -1.22970
#
# Static dielectric constant tensor:
#      x y z
#    x 1.737450 -0.019200 -0.014160 
#    y -0.019200 1.753680 -0.007390 
#    z -0.014160 -0.007390 1.763680 
# 
# From -- ./inp_files/38885.got.cif
#   From: 2010.05.17/outbox.cif.g08.bks.cpg/sg2_20_cif.got.tgz:38885.got - 2010.06.03 11:33:40.
