data_PCOD9096860
_publ_section_title
;
Structure prediction by ZEFSAII (Michael W. Deem and Ramdas Pophale) SiO2 
 PCOD9096860
Probable space group: P -1
;
_chemical_formula_sum "Si O2"
_cell_formula_units_Z 12
_cell_length_a 4.959051
_cell_length_b 11.592604
_cell_length_c 8.561325
_cell_angle_alpha 100.820409
_cell_angle_beta 93.474661
_cell_angle_gamma 106.300137
_cell_volume 460.631087
_symmetry_space_group_name_H-M "P -1"
_symmetry_group_IT_number 2
_symmetry_cell_setting 'triclinic'
loop_
_space_group_symop_operation_xyz
x,y,z
-x,-y,-z
loop_
_atom_site_type_symbol
_atom_site_label
_atom_site_fract_x
_atom_site_fract_y
_atom_site_fract_z
Si Si1 0.187183 0.860344 0.511402
Si Si2 0.620015 0.367531 0.579803
Si Si3 0.920292 0.851027 0.819719
Si Si4 0.238484 0.092071 0.741790
Si Si5 0.248493 0.510429 0.721793
Si Si6 0.371239 0.748949 0.958745
O O1 0.371243 0.771328 0.457647
O O2 0.977239 0.802426 0.636806
O O3 0.988195 0.872350 0.365084
O O4 0.348219 0.994090 0.622307
O O5 0.382069 0.399514 0.681652
O O6 0.631223 0.411066 0.410889
O O7 0.914840 0.452984 0.681790
O O8 0.088138 0.786633 0.926843
O O9 0.597733 0.817445 0.851447
O O10 0.060275 0.996940 0.842018
O O11 0.477852 0.196670 0.862204
O O12 0.322419 0.604851 0.891525
#
# Coordination Sequence:
#
# PCOD9096860 Si02
#       6
#     2   2   2   2   2   2
#     4   9  20  41  61  90 120 160 195 240 303 354
#     4  10  20  36  58  85 117 152 196 242 285 352
#     4  10  22  37  63  90 118 153 200 240 296 348
#     4   9  21  40  62  88 125 155 194 247 300 353
#     4  10  21  34  59  88 113 153 197 244 286 339
#     4  12  21  40  62  93 118 153 201 248 292 345
#
# _framework density 26.051217000000001
#
# number of rings (size 3 to 8) (size 9 to 14) (size 15 to 20)
#    1.000    1.000    1.667    2.000    4.667    0.000 
#    0.000   10.000    0.000    0.000    0.000    0.000 
#    0.000    0.000    0.000    0.000    0.000    0.000 
#
# Total GULP energy -67260.800729 kJ/mol
# GULP energy per Si atom -5605.066727 kJ/mol
# Density = 2.599192 g / cm^3
# Si number density = 26.051217 Si / 1000 Ang^3
#
#
#
# Elastic Constant Matrix: (Units=GPa)
#
#
# Indices 1 2 3 4 5 6 
#
# 1 51.2286 0.0944 18.0681 1.6714 -8.1965 -12.1241
# 2 0.0944 132.0699 60.0322 33.0805 6.0574 -30.2079
# 3 18.0681 60.0322 161.7234 29.4362 12.4507 -18.1318
# 4 1.6714 33.0805 29.4362 45.9852 4.2003 1.6947
# 5 -8.1965 6.0574 12.4507 4.2003 32.5735 -1.7090
# 6 -12.1241 -30.2079 -18.1318 1.6947 -1.7090 44.0223
#
#
#
# Elastic Compliance Matrix: (Units=1/GPa)
#
#
# Indices 1 2 3 4 5 6 
#
# 1 0.023779 0.003515 -0.003204 -0.002301 0.007272 0.008012
# 2 0.003515 0.012848 -0.002775 -0.008022 0.001062 0.008991
# 3 -0.003204 -0.002775 0.008438 -0.003031 -0.003089 0.000685
# 4 -0.002301 -0.008022 -0.003031 0.030065 -0.002258 -0.008632
# 5 0.007272 0.001062 -0.003089 -0.002258 0.033954 0.002865
# 6 0.008012 0.008991 0.000685 -0.008632 0.002865 0.031818
#
#
# Mechanical properties :
#
#
# Convention : Reuss Voigt Hill
#
# Bulk Modulus (GPa) = 24.91585 55.71239 40.31412
# Shear Modulus (GPa) = 31.40519 42.30469 36.85494
#
# Velocity S-wave (km/s) = 3.47582 4.03414 3.76534
# Velocity P-wave (km/s) = 5.06887 6.56744 5.86620
#
# Compressibility (1/GPa) = 0.04013509
#
# Stress axis : x y z
#
# Youngs Moduli (GPa) = 42.05469 77.83369 118.51141
#
# Poissons Ratio (x) = -0.27357 0.37971
# Poissons Ratio (y) = -0.14781 0.32893
# Poissons Ratio (z) = 0.13474 0.21603
#
# Static dielectric constant tensor:
#      x y z
#    x 2.024170 0.058040 -0.073630 
#    y 0.058040 2.054430 -0.026500 
#    z -0.073630 -0.026500 2.062620 
# 
# From -- ./inp_files/131057.got.cif
#   From: 2010.05.17/outbox.cif.g08.bks.cpg/sg2_66_cif.got.tgz:131057.got - 2010.06.03 11:33:40.
