data_PCOD9096862
_publ_section_title
;
Structure prediction by ZEFSAII (Michael W. Deem and Ramdas Pophale) SiO2 
 PCOD9096862
Probable space group: P -1
;
_chemical_formula_sum "Si O2"
_cell_formula_units_Z 16
_cell_length_a 7.397504
_cell_length_b 16.370841
_cell_length_c 14.211854
_cell_angle_alpha 45.170138
_cell_angle_beta 61.103761
_cell_angle_gamma 94.486453
_cell_volume 788.796230
_symmetry_space_group_name_H-M "P -1"
_symmetry_group_IT_number 2
_symmetry_cell_setting 'triclinic'
loop_
_space_group_symop_operation_xyz
x,y,z
-x,-y,-z
loop_
_atom_site_type_symbol
_atom_site_label
_atom_site_fract_x
_atom_site_fract_y
_atom_site_fract_z
Si Si1 0.485088 0.358150 0.119264
Si Si2 0.291413 0.821961 0.734278
Si Si3 0.980759 0.187688 0.511285
Si Si4 0.574179 0.835129 0.840740
Si Si5 0.903436 0.615584 0.509132
Si Si6 0.001190 0.396330 0.717158
Si Si7 0.727253 0.565133 0.191810
Si Si8 0.131316 0.632436 0.737886
O O1 0.340342 0.259714 0.138838
O O2 0.280916 0.260011 0.337437
O O3 0.500000 0.500000 0.000000
O O4 0.817289 0.461505 0.954882
O O5 0.479637 0.839223 0.756479
O O6 0.219810 0.719012 0.744430
O O7 0.500000 0.000000 0.500000
O O8 0.989951 0.723186 0.943241
O O9 0.876408 0.260630 0.417883
O O10 0.996999 0.240646 0.569604
O O11 0.787981 0.005359 0.690388
O O12 0.308403 0.731337 0.058816
O O13 0.039728 0.548233 0.568028
O O14 0.566810 0.483468 0.711137
O O15 0.969871 0.649732 0.354528
O O16 0.198620 0.416194 0.731011
O O17 0.698166 0.418953 0.288081
#
# Coordination Sequence:
#
# PCOD9096862 Si02
#       8
#     2   2   2   2   2   2   2   2
#     4  10  20  36  58  85 118 160 206 245 302 369
#     4  11  22  36  57  92 127 167 198 247 319 377
#     4  11  22  37  60  90 126 167 203 255 314 374
#     4  11  22  40  60  87 132 166 199 261 318 366
#     4  11  23  41  68  93 117 166 218 259 306 367
#     4  10  22  44  66  90 122 160 218 263 307 363
#     4  11  22  41  64  91 124 162 213 258 310 364
#     4  11  20  38  59  85 125 163 206 254 301 374
#
# _framework density 20.284072999999999
#
# number of rings (size 3 to 8) (size 9 to 14) (size 15 to 20)
#    0.000    1.250    5.000    2.625    1.750    1.500 
#    2.250    0.000    0.000    0.750    0.000    0.000 
#    0.000    0.000    0.000    0.000    0.000    0.000 
#
# Total GULP energy -89222.989023 kJ/mol
# GULP energy per Si atom -5576.436814 kJ/mol
# Density = 2.023791 g / cm^3
# Si number density = 20.284073 Si / 1000 Ang^3
#
#
#
# Elastic Constant Matrix: (Units=GPa)
#
#
# Indices 1 2 3 4 5 6 
#
# 1 62.1183 15.8205 -0.1079 4.1638 7.8503 10.4286
# 2 15.8205 182.0915 64.2844 -3.3838 -3.3117 32.0360
# 3 -0.1079 64.2844 66.7207 -8.3446 16.3409 16.4266
# 4 4.1638 -3.3838 -8.3446 40.8723 4.7433 -2.9329
# 5 7.8503 -3.3117 16.3409 4.7433 17.5731 4.5001
# 6 10.4286 32.0360 16.4266 -2.9329 4.5001 29.9576
#
#
#
# Elastic Compliance Matrix: (Units=1/GPa)
#
#
# Indices 1 2 3 4 5 6 
#
# 1 0.020727 -0.005457 0.011648 0.001866 -0.020468 -0.004509
# 2 -0.005457 0.014546 -0.019450 -0.005865 0.026792 -0.007589
# 3 0.011648 -0.019450 0.050157 0.014286 -0.059248 -0.000459
# 4 0.001866 -0.005865 0.014286 0.029853 -0.024402 0.004377
# 5 -0.020468 0.026792 -0.059248 -0.024402 0.135806 -0.011828
# 6 -0.004509 -0.007589 -0.000459 0.004377 -0.011828 0.045522
#
#
# Mechanical properties :
#
#
# Convention : Reuss Voigt Hill
#
# Bulk Modulus (GPa) = 16.97493 52.32495 34.64994
# Shear Modulus (GPa) = 14.58711 33.07617 23.83164
#
# Velocity S-wave (km/s) = 2.68459 4.04251 3.43139
# Velocity P-wave (km/s) = 4.24218 6.90226 5.72876
#
# Compressibility (1/GPa) = 0.05891041
#
# Stress axis : x y z
#
# Youngs Moduli (GPa) = 48.24651 68.74753 19.93728
#
# Poissons Ratio (x) = 0.37516 -0.23222
# Poissons Ratio (y) = 0.26329 0.38779
# Poissons Ratio (z) = -0.56196 1.33717
#
# Static dielectric constant tensor:
#      x y z
#    x 2.076400 -0.505920 0.106300 
#    y -0.505920 2.615400 -0.149500 
#    z 0.106300 -0.149500 1.754060 
# 
# From -- ./inp_files/505355.got.cif
#   From: 2010.05.17/outbox.cif.g08.bks.cpg/sg2_253_cif.got.tgz:505355.got - 2010.06.03 11:33:40.
