data_PCOD9096640
_publ_section_title
;
Structure prediction by ZEFSAII (Michael W. Deem and Ramdas Pophale) SiO2 
 PCOD9096640
Probable space group: P -1
;
_chemical_formula_sum "Si O2"
_cell_formula_units_Z 16
_cell_length_a 17.811595
_cell_length_b 18.944855
_cell_length_c 6.562310
_cell_angle_alpha 110.179427
_cell_angle_beta 77.806776
_cell_angle_gamma 157.915659
_cell_volume 743.625658
_symmetry_space_group_name_H-M "P -1"
_symmetry_group_IT_number 2
_symmetry_cell_setting 'triclinic'
loop_
_space_group_symop_operation_xyz
x,y,z
-x,-y,-z
loop_
_atom_site_type_symbol
_atom_site_label
_atom_site_fract_x
_atom_site_fract_y
_atom_site_fract_z
Si Si1 0.722715 0.808362 0.203839
Si Si2 0.089080 0.342835 0.511664
Si Si3 0.512696 0.193751 0.277359
Si Si4 0.291126 0.890429 0.438055
Si Si5 0.422602 0.880613 0.115260
Si Si6 0.132153 0.945666 0.310692
Si Si7 0.066362 0.178668 0.093221
Si Si8 0.504763 0.511454 0.747601
O O1 0.697513 0.714355 0.272371
O O2 0.727362 0.883749 0.427451
O O3 0.553893 0.636677 0.948548
O O4 0.935471 0.008942 0.156899
O O5 0.312771 0.583403 0.578893
O O6 0.047846 0.246018 0.259633
O O7 0.912907 0.246678 0.534835
O O8 0.054172 0.264398 0.664331
O O9 0.453440 0.088674 0.405044
O O10 0.288964 0.029151 0.197911
O O11 0.605896 0.226400 0.076604
O O12 0.250428 0.776297 0.221315
O O13 0.400937 0.968657 0.663597
O O14 0.500000 0.000000 0.000000
O O15 0.037701 0.913273 0.160552
O O16 0.302972 0.366438 0.167525
O O17 0.500000 0.500000 0.500000
#
# Coordination Sequence:
#
# PCOD9096640 Si02
#       8
#     2   2   2   2   2   2   2   2
#     4  10  23  39  60  84 111 148 185 232 283 334
#     4  10  22  36  57  85 113 149 190 232 283 340
#     4  10  20  36  57  82 112 148 188 233 282 334
#     4   9  19  37  55  81 114 146 188 232 282 337
#     4   9  18  35  58  79 112 152 185 233 284 330
#     4  10  22  39  58  84 116 148 190 235 283 339
#     4  11  23  39  59  83 115 152 187 233 286 337
#     4  11  24  40  60  87 115 147 190 233 281 341
#
# _framework density 21.516200999999999
#
# number of rings (size 3 to 8) (size 9 to 14) (size 15 to 20)
#    0.000    2.000    0.000    2.625    0.000    7.500 
#    0.000    5.625    0.000    0.000    0.000    0.000 
#    0.000    0.000    0.000    0.000    0.000    0.000 
#
# Total GULP energy -89179.508187 kJ/mol
# GULP energy per Si atom -5573.719262 kJ/mol
# Density = 2.146723 g / cm^3
# Si number density = 21.516201 Si / 1000 Ang^3
#
#
#
# Elastic Constant Matrix: (Units=GPa)
#
#
# Indices 1 2 3 4 5 6 
#
# 1 79.9123 31.4935 38.9348 -9.9843 1.3709 8.4665
# 2 31.4935 102.4750 35.4542 -3.7874 4.6576 -6.4710
# 3 38.9348 35.4542 112.8208 -13.2686 0.8537 -10.7486
# 4 -9.9843 -3.7874 -13.2686 22.8881 -11.0030 -3.3487
# 5 1.3709 4.6576 0.8537 -11.0030 37.9019 -3.4556
# 6 8.4665 -6.4710 -10.7486 -3.3487 -3.4556 19.1823
#
#
#
# Elastic Compliance Matrix: (Units=1/GPa)
#
#
# Indices 1 2 3 4 5 6 
#
# 1 0.018864 -0.004394 -0.006178 0.001657 -0.000717 -0.013110
# 2 -0.004394 0.012088 -0.001948 -0.000924 -0.001135 0.004560
# 3 -0.006178 -0.001948 0.013705 0.008440 0.003688 0.011887
# 4 0.001657 -0.000924 0.008440 0.060980 0.019188 0.017788
# 5 -0.000717 -0.001135 0.003688 0.019188 0.033067 0.011307
# 6 -0.013110 0.004560 0.011887 0.017788 0.011307 0.071258
#
#
# Mechanical properties :
#
#
# Convention : Reuss Voigt Hill
#
# Bulk Modulus (GPa) = 50.97562 56.33035 53.65298
# Shear Modulus (GPa) = 20.70037 28.61617 24.65827
#
# Velocity S-wave (km/s) = 3.10511 3.65085 3.38898
# Velocity P-wave (km/s) = 6.04969 6.63392 6.34853
#
# Compressibility (1/GPa) = 0.01961722
#
# Stress axis : x y z
#
# Youngs Moduli (GPa) = 53.01223 82.72511 72.96658
#
# Poissons Ratio (x) = 0.36349 0.45076
# Poissons Ratio (y) = 0.23293 0.14215
# Poissons Ratio (z) = 0.32749 0.16116
#
# Static dielectric constant tensor:
#      x y z
#    x 1.835460 -0.002170 -0.059050 
#    y -0.002170 1.771620 -0.002890 
#    z -0.059050 -0.002890 1.821130 
# 
# From -- ./inp_files/120445.got.cif
#   From: 2010.05.17/outbox.cif.g08.bks.cpg/sg2_61_cif.got.tgz:120445.got - 2010.06.03 11:33:40.
