data_PCOD9096424
_publ_section_title
;
Structure prediction by ZEFSAII (Michael W. Deem and Ramdas Pophale) SiO2 
 PCOD9096424
Probable space group: P -1
;
_chemical_formula_sum "Si O2"
_cell_formula_units_Z 16
_cell_length_a 15.341144
_cell_length_b 7.757895
_cell_length_c 12.764260
_cell_angle_alpha 150.489616
_cell_angle_beta 64.230957
_cell_angle_gamma 103.106135
_cell_volume 633.315648
_symmetry_space_group_name_H-M "P -1"
_symmetry_group_IT_number 2
_symmetry_cell_setting 'triclinic'
loop_
_space_group_symop_operation_xyz
x,y,z
-x,-y,-z
loop_
_atom_site_type_symbol
_atom_site_label
_atom_site_fract_x
_atom_site_fract_y
_atom_site_fract_z
Si Si1 0.882205 0.415666 0.795049
Si Si2 0.175413 0.640025 0.975416
Si Si3 0.228828 0.697048 0.636993
Si Si4 0.070089 0.633983 0.827739
Si Si5 0.231242 0.758808 0.438688
Si Si6 0.462710 0.295457 0.006076
Si Si7 0.611344 0.458504 0.159330
Si Si8 0.572135 0.141892 0.384188
O O1 0.834205 0.301846 0.656736
O O2 0.002914 0.368840 0.711425
O O3 0.858436 0.262591 0.836935
O O4 0.821410 0.864446 0.075390
O O5 0.084736 0.771936 0.008942
O O6 0.276494 0.748991 0.963360
O O7 0.210884 0.195044 0.698912
O O8 0.181139 0.492354 0.638090
O O9 0.199644 0.631717 0.499324
O O10 0.349391 0.634058 0.538555
O O11 0.000000 0.000000 0.000000
O O12 0.352603 0.555691 0.245266
O O13 0.551046 0.223616 0.008323
O O14 0.500000 0.500000 0.000000
O O15 0.444769 0.955542 0.777273
O O16 0.621062 0.759190 0.225923
O O17 0.535088 0.674786 0.404145
#
# Coordination Sequence:
#
# PCOD9096424 Si02
#       8
#     2   2   2   2   2   2   2   2
#     4  10  20  38  61  87 109 148 193 242 284 320
#     4  11  21  38  59  87 115 144 194 242 280 329
#     4  10  19  37  57  84 119 152 188 224 280 346
#     4  10  24  42  61  79 111 158 192 233 293 342
#     4  11  19  33  62  88 118 143 187 241 276 331
#     4  10  17  26  52  89 117 144 181 227 276 331
#     4  10  17  29  52  86 116 143 183 231 277 325
#     4  10  16  30  54  85 117 149 181 221 278 336
#
# _framework density 25.263862
#
# number of rings (size 3 to 8) (size 9 to 14) (size 15 to 20)
#    0.000    1.750    5.000    2.625    0.000    1.000 
#    0.000    3.125    0.000    0.750    0.000    0.000 
#    0.000    0.000    0.000    0.000    0.000    0.000 
#
# Total GULP energy -89573.328335 kJ/mol
# GULP energy per Si atom -5598.333021 kJ/mol
# Density = 2.520636 g / cm^3
# Si number density = 25.263862 Si / 1000 Ang^3
#
#
#
# Elastic Constant Matrix: (Units=GPa)
#
#
# Indices 1 2 3 4 5 6 
#
# 1 174.1815 19.2935 38.7282 -10.5433 31.7375 6.5492
# 2 19.2935 41.2373 13.8837 -7.1210 1.8072 10.7825
# 3 38.7282 13.8837 106.5823 -14.7134 26.2780 -3.9911
# 4 -10.5433 -7.1210 -14.7134 33.6871 -5.8950 -9.9430
# 5 31.7375 1.8072 26.2780 -5.8950 46.1916 -24.7767
# 6 6.5492 10.7825 -3.9911 -9.9430 -24.7767 29.8823
#
#
#
# Elastic Compliance Matrix: (Units=1/GPa)
#
#
# Indices 1 2 3 4 5 6 
#
# 1 0.008962 0.000142 -0.000868 -0.004956 -0.015001 -0.016218
# 2 0.000142 0.031099 -0.002230 -0.003703 -0.013281 -0.023794
# 3 -0.000868 -0.002230 0.012010 0.002499 -0.007186 -0.002528
# 4 -0.004956 -0.003703 0.002499 0.047706 0.032795 0.045822
# 5 -0.015001 -0.013281 -0.007186 0.032795 0.090808 0.093325
# 6 -0.016218 -0.023794 -0.002528 0.045822 0.093325 0.137894
#
#
# Mechanical properties :
#
#
# Convention : Reuss Voigt Hill
#
# Bulk Modulus (GPa) = 21.66484 51.75689 36.71087
# Shear Modulus (GPa) = 14.29482 38.62523 26.46003
#
# Velocity S-wave (km/s) = 2.38128 3.91432 3.23978
# Velocity P-wave (km/s) = 4.01929 6.40002 5.34392
#
# Compressibility (1/GPa) = 0.04615773
#
# Stress axis : x y z
#
# Youngs Moduli (GPa) = 111.58793 32.15571 83.26188
#
# Poissons Ratio (x) = -0.00455 0.07225
# Poissons Ratio (y) = -0.01580 0.18569
# Poissons Ratio (z) = 0.09683 0.07171
#
# Static dielectric constant tensor:
#      x y z
#    x 2.084780 -0.000900 -0.013030 
#    y -0.000900 2.086530 0.068060 
#    z -0.013030 0.068060 2.028230 
# 
# From -- ./inp_files/445336.got.cif
#   From: 2010.05.17/outbox.cif.g08.bks.cpg/sg2_223_cif.got.tgz:445336.got - 2010.06.03 11:33:40.
