data_PCOD9096130
_publ_section_title
;
Structure prediction by ZEFSAII (Michael W. Deem and Ramdas Pophale) SiO2 
 PCOD9096130
Probable space group: P -1
;
_chemical_formula_sum "Si O2"
_cell_formula_units_Z 16
_cell_length_a 8.011508
_cell_length_b 12.137729
_cell_length_c 7.282880
_cell_angle_alpha 95.115753
_cell_angle_beta 78.020466
_cell_angle_gamma 86.731664
_cell_volume 687.939505
_symmetry_space_group_name_H-M "P -1"
_symmetry_group_IT_number 2
_symmetry_cell_setting 'triclinic'
loop_
_space_group_symop_operation_xyz
x,y,z
-x,-y,-z
loop_
_atom_site_type_symbol
_atom_site_label
_atom_site_fract_x
_atom_site_fract_y
_atom_site_fract_z
Si Si1 0.951976 0.229142 0.334935
Si Si2 0.998973 0.395022 0.623770
Si Si3 0.510223 0.532450 0.786483
Si Si4 0.845089 0.585421 0.868796
Si Si5 0.367822 0.769588 0.815036
Si Si6 0.653775 0.671147 0.293975
Si Si7 0.686040 0.898005 0.771179
Si Si8 0.523175 0.130829 0.833624
O O1 0.898638 0.297896 0.542214
O O2 0.025295 0.325627 0.206480
O O3 0.117639 0.143082 0.310300
O O4 0.791868 0.184230 0.261778
O O5 0.186657 0.337923 0.609267
O O6 0.000000 0.500000 0.500000
O O7 0.926602 0.458442 0.832191
O O8 0.696835 0.576263 0.748003
O O9 0.380259 0.636706 0.785538
O O10 0.473784 0.425384 0.661575
O O11 0.500000 0.500000 0.000000
O O12 0.747257 0.633725 0.075441
O O13 0.547818 0.815170 0.718487
O O14 0.363244 0.805884 0.035498
O O15 0.551250 0.786958 0.292567
O O16 0.635339 0.901518 0.002623
O O17 0.629009 0.019941 0.728791
#
# Coordination Sequence:
#
# PCOD9096130 Si02
#       8
#     2   2   2   2   2   2   2   2
#     4  11  20  37  56  83 117 151 180 227 285 335
#     4  10  23  35  49  85 118 151 188 215 281 354
#     4  10  16  30  53  83 113 135 177 230 281 321
#     4  10  18  35  56  80 115 148 180 234 275 319
#     4  10  18  33  57  83 114 141 186 229 278 336
#     4  11  19  37  58  82 115 148 188 234 276 328
#     4   9  18  38  57  84 111 142 188 241 277 321
#     4   9  18  36  59  85 106 142 194 238 277 316
#
# _framework density 23.257857999999999
#
# number of rings (size 3 to 8) (size 9 to 14) (size 15 to 20)
#    0.750    1.250    5.000    1.875    0.000    1.500 
#    2.250    2.500    0.000    0.750    0.000    0.000 
#    0.000    0.000    0.000    0.000    0.000    0.000 
#
# Total GULP energy -89273.769564 kJ/mol
# GULP energy per Si atom -5579.610598 kJ/mol
# Density = 2.320492 g / cm^3
# Si number density = 23.257858 Si / 1000 Ang^3
#
#
#
# Elastic Constant Matrix: (Units=GPa)
#
#
# Indices 1 2 3 4 5 6 
#
# 1 110.6821 42.1901 3.2540 -5.8531 17.7243 -33.2695
# 2 42.1901 166.6578 17.2847 4.6316 4.3917 -42.4830
# 3 3.2540 17.2847 52.0710 -0.4844 -7.9076 -9.7928
# 4 -5.8531 4.6316 -0.4844 16.2142 -10.2070 -6.0225
# 5 17.7243 4.3917 -7.9076 -10.2070 28.4737 -1.9789
# 6 -33.2695 -42.4830 -9.7928 -6.0225 -1.9789 33.1324
#
#
#
# Elastic Compliance Matrix: (Units=1/GPa)
#
#
# Indices 1 2 3 4 5 6 
#
# 1 0.015454 0.000326 0.001654 0.009215 -0.004668 0.017821
# 2 0.000326 0.009003 -0.000807 0.001716 -0.000372 0.011922
# 3 0.001654 -0.000807 0.022985 0.011880 0.010446 0.010203
# 4 0.009215 0.001716 0.011880 0.100542 0.035799 0.035379
# 5 -0.004668 -0.000372 0.010446 0.035799 0.054351 0.007676
# 6 0.017821 0.011922 0.010203 0.035379 0.007676 0.073267
#
#
# Mechanical properties :
#
#
# Convention : Reuss Voigt Hill
#
# Bulk Modulus (GPa) = 20.08555 50.54096 35.31325
# Shear Modulus (GPa) = 17.25022 33.34284 25.29653
#
# Velocity S-wave (km/s) = 2.72636 3.79042 3.30154
# Velocity P-wave (km/s) = 4.30877 6.39799 5.45434
#
# Compressibility (1/GPa) = 0.04978705
#
# Stress axis : x y z
#
# Youngs Moduli (GPa) = 64.70994 111.07867 43.50705
#
# Poissons Ratio (x) = -0.03620 -0.07197
# Poissons Ratio (y) = -0.02109 0.03512
# Poissons Ratio (z) = -0.10705 0.08966
#
# Static dielectric constant tensor:
#      x y z
#    x 1.920430 -0.014840 -0.036740 
#    y -0.014840 1.882340 0.012970 
#    z -0.036740 0.012970 1.997850 
# 
# From -- ./inp_files/197210.got.cif
#   From: 2010.05.17/outbox.cif.g08.bks.cpg/sg2_99_cif.got.tgz:197210.got - 2010.06.03 11:33:40.
