data_PCOD9096286
_publ_section_title
;
Structure prediction by ZEFSAII (Michael W. Deem and Ramdas Pophale) SiO2 
 PCOD9096286
Probable space group: P -1
;
_chemical_formula_sum "Si O2"
_cell_formula_units_Z 16
_cell_length_a 26.082026
_cell_length_b 8.909818
_cell_length_c 8.559550
_cell_angle_alpha 66.101601
_cell_angle_beta 142.666272
_cell_angle_gamma 138.610853
_cell_volume 700.836919
_symmetry_space_group_name_H-M "P -1"
_symmetry_group_IT_number 2
_symmetry_cell_setting 'triclinic'
loop_
_space_group_symop_operation_xyz
x,y,z
-x,-y,-z
loop_
_atom_site_type_symbol
_atom_site_label
_atom_site_fract_x
_atom_site_fract_y
_atom_site_fract_z
Si Si1 0.717347 0.483076 0.292064
Si Si2 0.935197 0.308191 0.068846
Si Si3 0.552130 0.547733 0.781065
Si Si4 0.018063 0.923475 0.414284
Si Si5 0.849404 0.730561 0.801351
Si Si6 0.715825 0.850088 0.522390
Si Si7 0.222714 0.715516 0.686518
Si Si8 0.815191 0.159870 0.148074
O O1 0.758504 0.484691 0.567209
O O2 0.695135 0.302708 0.191692
O O3 0.853208 0.784346 0.459440
O O4 0.601238 0.440183 0.996719
O O5 0.864438 0.301176 0.039697
O O6 0.070786 0.432810 0.404258
O O7 0.000000 0.500000 0.000000
O O8 0.819731 0.018995 0.847424
O O9 0.500000 0.500000 0.500000
O O10 0.431126 0.403936 0.665442
O O11 0.679057 0.855180 0.958083
O O12 0.073785 0.818594 0.570728
O O13 0.000000 0.000000 0.500000
O O14 0.884580 0.734828 0.063663
O O15 0.767856 0.777914 0.578830
O O16 0.000000 0.000000 0.000000
O O17 0.735469 0.050386 0.393757
O O18 0.211562 0.742902 0.828977
#
# Coordination Sequence:
#
# PCOD9096286 Si02
#       8
#     2   2   2   2   2   2   2   2
#     4  10  23  40  60  94 132 176 223 279 334 402
#     4  10  21  38  64  98 133 171 216 276 349 410
#     4  11  24  44  71  91 130 182 244 279 326 402
#     4  10  20  35  64  97 133 169 225 282 336 392
#     4  10  20  38  62  98 136 170 226 278 335 399
#     4  11  22  40  68  96 131 182 222 275 335 406
#     4  11  23  39  64  96 139 172 220 277 356 408
#     4  11  22  41  67  98 132 183 222 279 339 414
#
# _framework density 22.829846
#
# number of rings (size 3 to 8) (size 9 to 14) (size 15 to 20)
#    0.000    1.500    1.250    5.625    1.750    4.500 
#    0.000    0.625    0.000    0.000    0.000    0.000 
#    0.000    0.000    0.000    0.000    0.000    0.000 
#
# Total GULP energy -89088.426178 kJ/mol
# GULP energy per Si atom -5568.026636 kJ/mol
# Density = 2.277788 g / cm^3
# Si number density = 22.829846 Si / 1000 Ang^3
#
#
#
# Elastic Constant Matrix: (Units=GPa)
#
#
# Indices 1 2 3 4 5 6 
#
# 1 172.5614 46.2618 59.7367 -10.9942 0.6279 -6.5070
# 2 46.2618 75.1337 31.2100 -7.1761 12.4979 1.7200
# 3 59.7367 31.2100 93.6441 -6.9120 7.9114 -3.9415
# 4 -10.9942 -7.1761 -6.9120 21.5891 7.4859 11.0393
# 5 0.6279 12.4979 7.9114 7.4859 46.0600 8.2476
# 6 -6.5070 1.7200 -3.9415 11.0393 8.2476 35.5754
#
#
#
# Elastic Compliance Matrix: (Units=1/GPa)
#
#
# Indices 1 2 3 4 5 6 
#
# 1 0.008231 -0.003503 -0.004094 0.000953 0.001274 0.000630
# 2 -0.003503 0.018232 -0.003068 0.006383 -0.004926 -0.002701
# 3 -0.004094 -0.003068 0.014665 0.001837 -0.002098 0.000941
# 4 0.000953 0.006383 0.001837 0.061252 -0.008998 -0.016852
# 5 0.001274 -0.004926 -0.002098 -0.008998 0.025363 -0.002849
# 6 0.000630 -0.002701 0.000941 -0.016852 -0.002849 0.034349
#
#
# Mechanical properties :
#
#
# Convention : Reuss Voigt Hill
#
# Bulk Modulus (GPa) = 50.50998 68.41736 59.46367
# Shear Modulus (GPa) = 26.31275 34.25359 30.28317
#
# Velocity S-wave (km/s) = 3.39862 3.87768 3.64603
# Velocity P-wave (km/s) = 6.12971 7.07687 6.62025
#
# Compressibility (1/GPa) = 0.01979807
#
# Stress axis : x y z
#
# Youngs Moduli (GPa) = 121.48846 54.84911 68.18773
#
# Poissons Ratio (x) = 0.19213 0.27917
# Poissons Ratio (y) = 0.42556 0.20922
# Poissons Ratio (z) = 0.49739 0.16829
#
# Static dielectric constant tensor:
#      x y z
#    x 2.016810 0.080610 -0.136250 
#    y 0.080610 2.109880 -0.118600 
#    z -0.136250 -0.118600 1.918910 
# 
# From -- ./inp_files/352215.got.cif
#   From: 2010.05.17/outbox.cif.g08.bks.cpg/sg2_177_cif.got.tgz:352215.got - 2010.06.03 11:33:40.
