data_PCOD9096722
_publ_section_title
;
Structure prediction by ZEFSAII (Michael W. Deem and Ramdas Pophale) SiO2 
 PCOD9096722
Probable space group: P -1
;
_chemical_formula_sum "Si O2"
_cell_formula_units_Z 14
_cell_length_a 11.740151
_cell_length_b 24.495886
_cell_length_c 5.633041
_cell_angle_alpha 127.096888
_cell_angle_beta 120.940651
_cell_angle_gamma 26.571974
_cell_volume 576.539301
_symmetry_space_group_name_H-M "P -1"
_symmetry_group_IT_number 2
_symmetry_cell_setting 'triclinic'
loop_
_space_group_symop_operation_xyz
x,y,z
-x,-y,-z
loop_
_atom_site_type_symbol
_atom_site_label
_atom_site_fract_x
_atom_site_fract_y
_atom_site_fract_z
Si Si1 0.024487 0.410765 0.738739
Si Si2 0.993757 0.327333 0.113605
Si Si3 0.862299 0.170515 0.736784
Si Si4 0.993444 0.102038 0.186272
Si Si5 0.151721 0.149896 0.195634
Si Si6 0.421727 0.474218 0.170097
Si Si7 0.571065 0.860258 0.298129
O O1 0.992810 0.404777 0.414787
O O2 0.288995 0.260315 0.716149
O O3 0.792416 0.476652 0.798632
O O4 0.000000 0.500000 0.000000
O O5 0.018913 0.267348 0.209716
O O6 0.240360 0.211124 0.909660
O O7 0.735529 0.426979 0.960427
O O8 0.854938 0.145695 0.398085
O O9 0.642048 0.324300 0.935111
O O10 0.873443 0.122966 0.871208
O O11 0.134456 0.091818 0.851051
O O12 0.997114 0.182713 0.335907
O O13 0.294394 0.959349 0.175150
O O14 0.398903 0.080100 0.373864
O O15 0.500000 0.500000 0.500000
#
# Coordination Sequence:
#
# PCOD9096722 Si02
#       7
#     2   2   2   2   2   2   2
#     4  10  24  42  66  96 123 168 223 274 331 388
#     4  10  21  36  63  87 131 166 217 270 334 379
#     4  10  23  36  55  88 130 172 210 260 328 387
#     4  10  23  35  56  87 133 169 216 261 325 392
#     4   9  20  31  54  87 125 164 216 254 326 379
#     4  11  24  39  63  96 135 173 216 270 327 396
#     4  10  20  36  57  88 119 168 213 272 322 385
#
# _framework density 24.282819
#
# number of rings (size 3 to 8) (size 9 to 14) (size 15 to 20)
#    0.857    1.143    0.000    3.857    8.000    4.571 
#    0.000    0.714    0.000    1.714    0.000    0.000 
#    0.000    0.000    0.000    0.000    0.000    0.000 
#
# Total GULP energy -78092.240492 kJ/mol
# GULP energy per Si atom -5578.017178 kJ/mol
# Density = 2.422755 g / cm^3
# Si number density = 24.282819 Si / 1000 Ang^3
#
#
#
# Elastic Constant Matrix: (Units=GPa)
#
#
# Indices 1 2 3 4 5 6 
#
# 1 49.8744 30.7810 34.5200 -7.2735 -14.0431 1.1701
# 2 30.7810 136.1759 39.2243 -28.2732 -18.8330 5.3574
# 3 34.5200 39.2243 91.1279 -25.1080 -18.4053 19.6939
# 4 -7.2735 -28.2732 -25.1080 22.9409 8.8243 -9.8137
# 5 -14.0431 -18.8330 -18.4053 8.8243 39.7408 9.5739
# 6 1.1701 5.3574 19.6939 -9.8137 9.5739 35.2887
#
#
#
# Elastic Compliance Matrix: (Units=1/GPa)
#
#
# Indices 1 2 3 4 5 6 
#
# 1 0.031403 -0.005247 -0.012067 -0.010634 0.004849 0.002217
# 2 -0.005247 0.011097 0.000528 0.013261 0.000269 0.001810
# 3 -0.012067 0.000528 0.022745 0.015610 0.005338 -0.009481
# 4 -0.010634 0.013261 0.015610 0.086265 -0.013566 0.017298
# 5 0.004849 0.000269 0.005338 -0.013566 0.036553 -0.016870
# 6 0.002217 0.001810 -0.009481 0.017298 -0.016870 0.042668
#
#
# Mechanical properties :
#
#
# Convention : Reuss Voigt Hill
#
# Bulk Modulus (GPa) = 31.57186 54.02543 42.79864
# Shear Modulus (GPa) = 18.19108 31.10429 24.64769
#
# Velocity S-wave (km/s) = 2.74000 3.58287 3.18940
# Velocity P-wave (km/s) = 4.80001 6.27795 5.58806
#
# Compressibility (1/GPa) = 0.03167378
#
# Stress axis : x y z
#
# Youngs Moduli (GPa) = 31.84400 90.11782 43.96516
#
# Poissons Ratio (x) = 0.47284 0.53052
# Poissons Ratio (y) = 0.16708 -0.02322
# Poissons Ratio (z) = 0.38426 -0.04760
#
# Static dielectric constant tensor:
#      x y z
#    x 1.974130 0.039860 -0.062930 
#    y 0.039860 1.973790 -0.041250 
#    z -0.062930 -0.041250 2.011540 
# 
# From -- ./inp_files/84583.got.cif
#   From: 2010.05.17/outbox.cif.g08.bks.cpg/sg2_43_cif.got.tgz:84583.got - 2010.06.03 11:33:40.
