data_PCOD9096396
_publ_section_title
;
Structure prediction by ZEFSAII (Michael W. Deem and Ramdas Pophale) SiO2 
 PCOD9096396
Probable space group: P -1
;
_chemical_formula_sum "Si O2"
_cell_formula_units_Z 16
_cell_length_a 19.634252
_cell_length_b 6.546555
_cell_length_c 11.978971
_cell_angle_alpha 32.084318
_cell_angle_beta 130.273115
_cell_angle_gamma 127.002995
_cell_volume 618.405393
_symmetry_space_group_name_H-M "P -1"
_symmetry_group_IT_number 2
_symmetry_cell_setting 'triclinic'
loop_
_space_group_symop_operation_xyz
x,y,z
-x,-y,-z
loop_
_atom_site_type_symbol
_atom_site_label
_atom_site_fract_x
_atom_site_fract_y
_atom_site_fract_z
Si Si1 0.060709 0.818448 0.992371
Si Si2 0.929135 0.334487 0.661823
Si Si3 0.562592 0.450684 0.832009
Si Si4 0.372769 0.739258 0.539350
Si Si5 0.317442 0.799918 0.101352
Si Si6 0.197474 0.109849 0.662270
Si Si7 0.402973 0.626394 0.861852
Si Si8 0.807584 0.721030 0.667253
O O1 0.056446 0.720221 0.165079
O O2 0.155703 0.698017 0.113576
O O3 0.021878 0.229560 0.752137
O O4 0.000000 0.500000 0.000000
O O5 0.884900 0.734361 0.429885
O O6 0.855973 0.999441 0.685621
O O7 0.460739 0.543303 0.689621
O O8 0.622680 0.871088 0.705309
O O9 0.591401 0.250709 0.844331
O O10 0.592406 0.227277 0.075372
O O11 0.279438 0.461203 0.570159
O O12 0.387778 0.864883 0.626087
O O13 0.239575 0.790070 0.927156
O O14 0.331151 0.237353 0.958073
O O15 0.292216 0.456355 0.320813
O O16 0.174638 0.039497 0.540032
O O17 0.500000 0.500000 0.000000
#
# Coordination Sequence:
#
# PCOD9096396 Si02
#       8
#     2   2   2   2   2   2   2   2
#     4   8  16  33  61  86 107 142 180 213 263 325
#     4   9  17  34  59  83 110 144 177 216 269 324
#     4  10  20  36  54  74 104 141 184 230 274 320
#     4   9  19  36  54  75 105 141 182 228 274 323
#     4  11  23  35  54  82 109 144 188 225 269 325
#     4  10  21  35  52  79 112 141 179 225 270 320
#     4   9  20  37  54  75 105 142 184 229 273 318
#     4  10  20  36  57  82 111 143 178 222 270 319
#
# _framework density 25.872995
#
# number of rings (size 3 to 8) (size 9 to 14) (size 15 to 20)
#    0.000    2.500    0.000    1.500    0.000    8.500 
#    0.000   10.625    0.000   25.500    0.000    0.000 
#    0.000    0.000    0.000    0.000    0.000    0.000 
#
# Total GULP energy -89281.618652 kJ/mol
# GULP energy per Si atom -5580.101166 kJ/mol
# Density = 2.581411 g / cm^3
# Si number density = 25.872995 Si / 1000 Ang^3
#
#
#
# Elastic Constant Matrix: (Units=GPa)
#
#
# Indices 1 2 3 4 5 6 
#
# 1 78.3319 19.6960 22.7301 -8.7127 12.6807 -25.9624
# 2 19.6960 76.6418 20.8555 -0.5552 -5.7618 -14.7053
# 3 22.7301 20.8555 77.1831 4.1149 5.8252 -20.3574
# 4 -8.7127 -0.5552 4.1149 23.7802 -6.6144 5.4080
# 5 12.6807 -5.7618 5.8252 -6.6144 41.5544 -2.3946
# 6 -25.9624 -14.7053 -20.3574 5.4080 -2.3946 30.2190
#
#
#
# Elastic Compliance Matrix: (Units=1/GPa)
#
#
# Indices 1 2 3 4 5 6 
#
# 1 0.019374 -0.002342 -0.001214 0.002770 -0.004830 0.013810
# 2 -0.002342 0.015398 -0.002697 0.000036 0.003460 0.003932
# 3 -0.001214 -0.002697 0.017326 -0.006649 -0.002899 0.010277
# 4 0.002770 0.000036 -0.006649 0.048549 0.007232 -0.010197
# 5 -0.004830 0.003460 -0.002899 0.007232 0.027372 -0.003544
# 6 0.013810 0.003932 0.010277 -0.010197 -0.003544 0.055337
#
#
# Mechanical properties :
#
#
# Convention : Reuss Voigt Hill
#
# Bulk Modulus (GPa) = 25.25676 39.85776 32.55726
# Shear Modulus (GPa) = 23.91661 30.36906 27.14283
#
# Velocity S-wave (km/s) = 3.04367 3.42976 3.24246
# Velocity P-wave (km/s) = 4.70478 5.57879 5.16032
#
# Compressibility (1/GPa) = 0.03959335
#
# Stress axis : x y z
#
# Youngs Moduli (GPa) = 51.61469 64.94222 57.71573
#
# Poissons Ratio (x) = 0.15210 0.07004
# Poissons Ratio (y) = 0.12089 0.15566
# Poissons Ratio (z) = 0.06264 0.17515
#
# Static dielectric constant tensor:
#      x y z
#    x 2.080920 -0.042490 0.048520 
#    y -0.042490 2.047070 0.060710 
#    z 0.048520 0.060710 2.055610 
# 
# From -- ./inp_files/43629.got.cif
#   From: 2010.05.17/outbox.cif.g08.bks.cpg/sg2_22_cif.got.tgz:43629.got - 2010.06.03 11:33:40.
