data_PCOD9096950
_publ_section_title
;
Structure prediction by ZEFSAII (Michael W. Deem and Ramdas Pophale) SiO2 
 PCOD9096950
Probable space group: P -1
;
_chemical_formula_sum "Si O2"
_cell_formula_units_Z 14
_cell_length_a 11.798904
_cell_length_b 14.789120
_cell_length_c 17.759858
_cell_angle_alpha 24.743315
_cell_angle_beta 27.404137
_cell_angle_gamma 27.497897
_cell_volume 542.030030
_symmetry_space_group_name_H-M "P -1"
_symmetry_group_IT_number 2
_symmetry_cell_setting 'triclinic'
loop_
_space_group_symop_operation_xyz
x,y,z
-x,-y,-z
loop_
_atom_site_type_symbol
_atom_site_label
_atom_site_fract_x
_atom_site_fract_y
_atom_site_fract_z
Si Si1 0.490562 0.537621 0.272485
Si Si2 0.170141 0.883142 0.413959
Si Si3 0.200442 0.206863 0.031178
Si Si4 0.247266 0.388554 0.672206
Si Si5 0.071875 0.162515 0.675216
Si Si6 0.310021 0.651421 0.862620
Si Si7 0.138711 0.608055 0.221034
O O1 0.395260 0.422103 0.483167
O O2 0.229760 0.779095 0.222050
O O3 0.560119 0.391740 0.265073
O O4 0.731711 0.595890 0.116098
O O5 0.156756 0.640196 0.578351
O O6 0.491769 0.811417 0.290580
O O7 0.069237 0.074844 0.262258
O O8 0.000000 0.000000 0.500000
O O9 0.994296 0.323177 0.995586
O O10 0.500000 0.000000 0.000000
O O11 0.002412 0.342916 0.814196
O O12 0.036326 0.203473 0.754881
O O13 0.137961 0.363025 0.441596
O O14 0.268202 0.900433 0.734424
O O15 0.546237 0.436743 0.930077
#
# Coordination Sequence:
#
# PCOD9096950 Si02
#       7
#     2   2   2   2   2   2   2
#     4  10  20  36  58  90 117 154 197 245 293 345
#     4  11  24  39  61  90 120 156 196 238 297 352
#     4  12  21  39  62  88 120 156 195 248 295 342
#     4  10  21  40  59  86 124 151 193 245 296 346
#     4   9  17  31  51  86 120 147 192 248 292 335
#     4  11  20  31  56  88 119 150 198 244 292 344
#     4   9  19  32  54  84 118 154 192 242 293 346
#
# _framework density 25.828828000000001
#
# number of rings (size 3 to 8) (size 9 to 14) (size 15 to 20)
#    0.000    1.714    2.857    3.429    0.000    1.143 
#    0.000    0.000    0.000    4.286    0.000    0.000 
#    0.000    0.000    0.000    0.000    0.000    0.000 
#
# Total GULP energy -78352.158092 kJ/mol
# GULP energy per Si atom -5596.582721 kJ/mol
# Density = 2.577004 g / cm^3
# Si number density = 25.828828 Si / 1000 Ang^3
#
#
#
# Elastic Constant Matrix: (Units=GPa)
#
#
# Indices 1 2 3 4 5 6 
#
# 1 184.1951 51.1427 24.6810 -1.4191 -28.4402 -18.3649
# 2 51.1427 153.3732 19.4876 5.1644 -21.1609 7.8211
# 3 24.6810 19.4876 63.0052 2.6247 -14.2678 -5.1942
# 4 -1.4191 5.1644 2.6247 30.7085 -8.9884 -13.5470
# 5 -28.4402 -21.1609 -14.2678 -8.9884 45.5875 5.5226
# 6 -18.3649 7.8211 -5.1942 -13.5470 5.5226 52.8419
#
#
#
# Elastic Compliance Matrix: (Units=1/GPa)
#
#
# Indices 1 2 3 4 5 6 
#
# 1 0.006978 -0.001972 -0.001258 0.003061 0.003280 0.003035
# 2 -0.001972 0.007814 -0.001349 -0.001902 0.001922 -0.002663
# 3 -0.001258 -0.001349 0.017789 0.000364 0.004085 0.001177
# 4 0.003061 -0.001902 0.000364 0.040036 0.007721 0.010838
# 5 0.003280 0.001922 0.004085 0.007721 0.027633 0.000348
# 6 0.003035 -0.002663 0.001177 0.010838 0.000348 0.023231
#
#
# Mechanical properties :
#
#
# Convention : Reuss Voigt Hill
#
# Bulk Modulus (GPa) = 42.69546 65.68843 54.19195
# Shear Modulus (GPa) = 35.60057 46.17839 40.88948
#
# Velocity S-wave (km/s) = 3.71661 4.23290 3.98313
# Velocity P-wave (km/s) = 5.91470 7.02690 6.49465
#
# Compressibility (1/GPa) = 0.02342169
#
# Stress axis : x y z
#
# Youngs Moduli (GPa) = 143.31173 127.97224 56.21471
#
# Poissons Ratio (x) = 0.25239 0.07072
# Poissons Ratio (y) = 0.28265 0.07586
# Poissons Ratio (z) = 0.18028 0.17269
#
# Static dielectric constant tensor:
#      x y z
#    x 2.056200 0.001120 -0.024700 
#    y 0.001120 2.056240 0.112860 
#    z -0.024700 0.112860 2.096590 
# 
# From -- ./inp_files/595333.got.cif
#   From: 2010.05.17/outbox.cif.g08.bks.cpg/sg2_298_cif.got.tgz:595333.got - 2010.06.03 11:33:40.
