data_PCOD9096438
_publ_section_title
;
Structure prediction by ZEFSAII (Michael W. Deem and Ramdas Pophale) SiO2 
 PCOD9096438
Probable space group: P -1
;
_chemical_formula_sum "Si O2"
_cell_formula_units_Z 16
_cell_length_a 13.647696
_cell_length_b 11.837067
_cell_length_c 8.329618
_cell_angle_alpha 141.918624
_cell_angle_beta 105.650718
_cell_angle_gamma 73.686307
_cell_volume 793.850553
_symmetry_space_group_name_H-M "P -1"
_symmetry_group_IT_number 2
_symmetry_cell_setting 'triclinic'
loop_
_space_group_symop_operation_xyz
x,y,z
-x,-y,-z
loop_
_atom_site_type_symbol
_atom_site_label
_atom_site_fract_x
_atom_site_fract_y
_atom_site_fract_z
Si Si1 0.133183 0.075567 0.577871
Si Si2 0.379276 0.521990 0.310256
Si Si3 0.171608 0.584546 0.494699
Si Si4 0.766102 0.599059 0.137444
Si Si5 0.887299 0.060506 0.947634
Si Si6 0.460397 0.213583 0.238724
Si Si7 0.913828 0.277537 0.708532
Si Si8 0.238707 0.247180 0.336438
O O1 0.116052 0.989703 0.297786
O O2 0.027996 0.198072 0.717078
O O3 0.150385 0.899220 0.503549
O O4 0.215701 0.218319 0.753156
O O5 0.282623 0.583808 0.455868
O O6 0.330242 0.482833 0.074239
O O7 0.436797 0.333247 0.199317
O O8 0.456058 0.676017 0.513221
O O9 0.090712 0.647957 0.391245
O O10 0.170101 0.380849 0.334339
O O11 0.150345 0.729000 0.790708
O O12 0.861995 0.444347 0.978342
O O13 0.759119 0.655434 0.380922
O O14 0.809767 0.940050 0.868523
O O15 0.000000 0.000000 0.000000
O O16 0.353018 0.223196 0.293838
O O17 0.500000 0.000000 0.000000
#
# Coordination Sequence:
#
# PCOD9096438 Si02
#       8
#     2   2   2   2   2   2   2   2
#     4  10  21  36  52  81 114 153 198 232 278 324
#     4   9  21  37  60  86 113 145 187 231 284 342
#     4  10  20  37  57  85 112 152 191 233 280 330
#     4  10  21  38  55  82 117 149 185 232 283 339
#     4  11  21  37  54  82 116 152 192 234 274 329
#     4  10  20  40  62  86 110 143 187 235 284 341
#     4  10  20  36  55  78 112 156 193 238 274 326
#     4  10  23  38  59  84 114 151 189 233 286 338
#
# _framework density 20.154927000000001
#
# number of rings (size 3 to 8) (size 9 to 14) (size 15 to 20)
#    0.000    2.000    1.250    1.875    0.000    6.000 
#    2.250    0.625    0.000    0.000    0.000    0.000 
#    0.000    0.000    0.000    0.000    0.000    0.000 
#
# Total GULP energy -89382.995094 kJ/mol
# GULP energy per Si atom -5586.437193 kJ/mol
# Density = 2.010905 g / cm^3
# Si number density = 20.154927 Si / 1000 Ang^3
#
#
#
# Elastic Constant Matrix: (Units=GPa)
#
#
# Indices 1 2 3 4 5 6 
#
# 1 29.6821 1.7339 11.9235 4.2678 8.5878 6.4076
# 2 1.7339 59.5162 18.7685 11.2310 0.6427 5.2070
# 3 11.9235 18.7685 69.6538 14.6745 -10.1997 -6.0702
# 4 4.2678 11.2310 14.6745 28.6518 -5.5168 3.8303
# 5 8.5878 0.6427 -10.1997 -5.5168 30.7997 2.2019
# 6 6.4076 5.2070 -6.0702 3.8303 2.2019 23.1143
#
#
#
# Elastic Compliance Matrix: (Units=1/GPa)
#
#
# Indices 1 2 3 4 5 6 
#
# 1 0.047062 0.004735 -0.012326 -0.003787 -0.016901 -0.015112
# 2 0.004735 0.020269 -0.006310 -0.005427 -0.004360 -0.006221
# 3 -0.012326 -0.006310 0.021792 -0.006597 0.008831 0.010813
# 4 -0.003787 -0.005427 -0.006597 0.043354 0.007274 -0.007337
# 5 -0.016901 -0.004360 0.008831 0.007274 0.041295 0.002847
# 6 -0.015112 -0.006221 0.010813 -0.007337 0.002847 0.052638
#
#
# Mechanical properties :
#
#
# Convention : Reuss Voigt Hill
#
# Bulk Modulus (GPa) = 16.30716 24.85598 20.58157
# Shear Modulus (GPa) = 18.20484 24.94159 21.57321
#
# Velocity S-wave (km/s) = 3.00866 3.52162 3.27520
# Velocity P-wave (km/s) = 4.49198 5.37540 4.95343
#
# Compressibility (1/GPa) = 0.06132276
#
# Stress axis : x y z
#
# Youngs Moduli (GPa) = 21.24861 49.33557 45.88793
#
# Poissons Ratio (x) = -0.23362 0.56562
# Poissons Ratio (y) = -0.10062 0.28953
# Poissons Ratio (z) = 0.26191 0.31129
#
# Static dielectric constant tensor:
#      x y z
#    x 1.705030 0.006130 0.015880 
#    y 0.006130 1.721000 0.000300 
#    z 0.015880 0.000300 1.708990 
# 
# From -- ./inp_files/53734.got.cif
#   From: 2010.05.17/outbox.cif.g08.bks.cpg/sg2_27_cif.got.tgz:53734.got - 2010.06.03 11:33:40.
