data_PCOD9096236
_publ_section_title
;
Structure prediction by ZEFSAII (Michael W. Deem and Ramdas Pophale) SiO2 
 PCOD9096236
Probable space group: P -1
;
_chemical_formula_sum "Si O2"
_cell_formula_units_Z 16
_cell_length_a 16.126129
_cell_length_b 22.374275
_cell_length_c 7.964263
_cell_angle_alpha 57.197014
_cell_angle_beta 121.687989
_cell_angle_gamma 163.602098
_cell_volume 681.683612
_symmetry_space_group_name_H-M "P -1"
_symmetry_group_IT_number 2
_symmetry_cell_setting 'triclinic'
loop_
_space_group_symop_operation_xyz
x,y,z
-x,-y,-z
loop_
_atom_site_type_symbol
_atom_site_label
_atom_site_fract_x
_atom_site_fract_y
_atom_site_fract_z
Si Si1 0.400969 0.574917 0.595323
Si Si2 0.260203 0.509621 0.924127
Si Si3 0.139721 0.891921 0.397465
Si Si4 0.776024 0.082531 0.184548
Si Si5 0.788620 0.790408 0.147228
Si Si6 0.713307 0.322064 0.192802
Si Si7 0.646682 0.613013 0.672984
Si Si8 0.275652 0.638854 0.231132
O O1 0.365868 0.553615 0.789690
O O2 0.659104 0.702720 0.604207
O O3 0.424331 0.670549 0.408791
O O4 0.117718 0.338748 0.578928
O O5 0.271078 0.601546 0.780899
O O6 0.496095 0.637953 0.114497
O O7 0.933187 0.259860 0.006570
O O8 0.272569 0.949955 0.618789
O O9 0.025519 0.894602 0.311666
O O10 0.387270 0.067459 0.251822
O O11 0.040606 0.207627 0.251121
O O12 0.481823 0.849620 0.148061
O O13 0.589501 0.591276 0.150713
O O14 0.000000 0.000000 0.000000
O O15 0.968890 0.440678 0.300901
O O16 0.774805 0.401667 0.958751
O O17 0.500000 0.500000 0.500000
#
# Coordination Sequence:
#
# PCOD9096236 Si02
#       8
#     2   2   2   2   2   2   2   2
#     4  11  24  41  66  99 129 172 212 263 323 391
#     4  11  24  40  68  96 134 171 214 265 324 385
#     4  11  22  40  70  94 132 169 215 263 327 383
#     4  11  23  42  66  98 132 173 209 270 319 385
#     4  10  20  35  63  97 127 166 207 257 324 379
#     4  11  25  46  66  93 125 173 222 275 321 378
#     4  10  21  39  64  96 133 165 207 255 321 388
#     4  11  27  44  66  93 128 169 226 271 321 379
#
# _framework density 23.471301
#
# number of rings (size 3 to 8) (size 9 to 14) (size 15 to 20)
#    0.000    1.250    3.750    2.250    1.750    9.000 
#    0.000    0.000    0.000    0.000    0.000    0.000 
#    0.000    0.000    0.000    0.000    0.000    0.000 
#
# Total GULP energy -89099.595894 kJ/mol
# GULP energy per Si atom -5568.724743 kJ/mol
# Density = 2.341788 g / cm^3
# Si number density = 23.471301 Si / 1000 Ang^3
#
#
#
# Elastic Constant Matrix: (Units=GPa)
#
#
# Indices 1 2 3 4 5 6 
#
# 1 50.6198 -10.8047 -2.8616 3.3733 -13.8148 -2.1720
# 2 -10.8047 73.3997 -10.3780 -24.0373 3.8730 1.2536
# 3 -2.8616 -10.3780 46.1635 -3.0423 -9.7597 -7.8634
# 4 3.3733 -24.0373 -3.0423 27.4442 -5.5956 -3.6631
# 5 -13.8148 3.8730 -9.7597 -5.5956 19.2406 1.8235
# 6 -2.1720 1.2536 -7.8634 -3.6631 1.8235 23.0369
#
#
#
# Elastic Compliance Matrix: (Units=1/GPa)
#
#
# Indices 1 2 3 4 5 6 
#
# 1 0.029106 0.007881 0.011091 0.010933 0.027581 0.005656
# 2 0.007881 0.023566 0.011213 0.024408 0.013120 0.006131
# 3 0.011091 0.011213 0.034203 0.019602 0.027520 0.013049
# 4 0.010933 0.024408 0.019602 0.066902 0.030954 0.014582
# 5 0.027581 0.013120 0.027520 0.030954 0.091246 0.008980
# 6 0.005656 0.006131 0.013049 0.014582 0.008980 0.049670
#
#
# Mechanical properties :
#
#
# Convention : Reuss Voigt Hill
#
# Bulk Modulus (GPa) = 6.79142 13.56604 10.17873
# Shear Modulus (GPa) = 17.64264 26.89283 22.26774
#
# Velocity S-wave (km/s) = 2.74463 3.38860 3.08347
# Velocity P-wave (km/s) = 3.59775 4.59375 4.12591
#
# Compressibility (1/GPa) = 0.14724466
#
# Stress axis : x y z
#
# Youngs Moduli (GPa) = 34.35763 42.43437 29.23718
#
# Poissons Ratio (x) = -0.33443 -0.32427
# Poissons Ratio (y) = -0.27078 -0.32784
# Poissons Ratio (z) = -0.38106 -0.47582
#
# Static dielectric constant tensor:
#      x y z
#    x 1.953300 0.044370 -0.016320 
#    y 0.044370 1.901190 0.004450 
#    z -0.016320 0.004450 2.047830 
# 
# From -- ./inp_files/319317.got.cif
#   From: 2010.05.17/outbox.cif.g08.bks.cpg/sg2_160_cif.got.tgz:319317.got - 2010.06.03 11:33:40.
