data_PCOD9096093
_publ_section_title
;
Structure prediction by ZEFSAII (Michael W. Deem and Ramdas Pophale) SiO2 
 PCOD9096093
Probable space group: P -1
;
_chemical_formula_sum "Si O2"
_cell_formula_units_Z 16
_cell_length_a 15.304096
_cell_length_b 13.125202
_cell_length_c 12.765103
_cell_angle_alpha 31.053825
_cell_angle_beta 28.691755
_cell_angle_gamma 32.799999
_cell_volume 592.523563
_symmetry_space_group_name_H-M "P -1"
_symmetry_group_IT_number 2
_symmetry_cell_setting 'triclinic'
loop_
_space_group_symop_operation_xyz
x,y,z
-x,-y,-z
loop_
_atom_site_type_symbol
_atom_site_label
_atom_site_fract_x
_atom_site_fract_y
_atom_site_fract_z
Si Si1 0.643690 0.277745 0.354624
Si Si2 0.759937 0.521597 0.831472
Si Si3 0.998150 0.573309 0.717235
Si Si4 0.701448 0.448960 0.425490
Si Si5 0.214987 0.886663 0.920564
Si Si6 0.716713 0.857475 0.929965
Si Si7 0.509012 0.001924 0.350663
Si Si8 0.018050 0.837018 0.781354
O O1 0.677039 0.408612 0.107141
O O2 0.529101 0.466739 0.387950
O O3 0.850947 0.101253 0.325248
O O4 0.504409 0.145231 0.600270
O O5 0.774403 0.354863 0.869717
O O6 0.944646 0.546499 0.676690
O O7 0.619432 0.753195 0.745396
O O8 0.841999 0.772062 0.767512
O O9 0.204612 0.580141 0.530351
O O10 0.991713 0.367501 0.966745
O O11 0.825947 0.247960 0.403394
O O12 0.732733 0.641679 0.161640
O O13 0.272341 0.000596 0.858657
O O14 0.386718 0.916275 0.640022
O O15 0.000000 0.000000 0.000000
O O16 0.819705 0.954896 0.824558
O O17 0.500000 0.000000 0.000000
#
# Coordination Sequence:
#
# PCOD9096093 Si02
#       8
#     2   2   2   2   2   2   2   2
#     4  10  20  35  62  87 121 162 202 249 305 355
#     4  10  21  40  62  88 127 152 195 252 300 363
#     4   8  17  32  53  81 113 158 202 243 298 351
#     4   9  17  31  55  78 115 166 204 243 302 347
#     4  10  23  44  68  92 119 160 197 238 315 375
#     4   9  17  30  53  81 115 161 206 252 292 343
#     4  10  23  42  64  93 126 152 196 254 301 365
#     4   8  16  34  53  75 116 165 206 242 298 352
#
# _framework density 27.003145
#
# number of rings (size 3 to 8) (size 9 to 14) (size 15 to 20)
#    0.000    2.750    0.000    2.250    3.500    0.500 
#    2.250    0.625    5.500    0.000    0.000    0.000 
#    0.000    0.000    0.000    0.000    0.000    0.000 
#
# Total GULP energy -89251.522769 kJ/mol
# GULP energy per Si atom -5578.220173 kJ/mol
# Density = 2.694168 g / cm^3
# Si number density = 27.003145 Si / 1000 Ang^3
#
#
#
# Elastic Constant Matrix: (Units=GPa)
#
#
# Indices 1 2 3 4 5 6 
#
# 1 106.7742 32.8796 48.1714 3.0164 -53.4619 -24.7268
# 2 32.8796 106.6903 32.0326 -0.9761 -25.7003 -21.8537
# 3 48.1714 32.0326 86.8080 -10.4050 -9.2996 -6.3426
# 4 3.0164 -0.9761 -10.4050 46.2674 -8.3392 -11.6588
# 5 -53.4619 -25.7003 -9.2996 -8.3392 55.8727 6.5133
# 6 -24.7268 -21.8537 -6.3426 -11.6588 6.5133 48.1426
#
#
#
# Elastic Compliance Matrix: (Units=1/GPa)
#
#
# Indices 1 2 3 4 5 6 
#
# 1 0.033029 0.004513 -0.015371 0.003358 0.030021 0.013739
# 2 0.004513 0.013285 -0.005694 0.002059 0.008986 0.006881
# 3 -0.015371 -0.005694 0.020561 0.001756 -0.012991 -0.005588
# 4 0.003358 0.002059 0.001756 0.025160 0.007275 0.008000
# 5 0.030021 0.008986 -0.012991 0.007275 0.048161 0.013033
# 6 0.013739 0.006881 -0.005588 0.008000 0.013033 0.030390
#
#
# Mechanical properties :
#
#
# Convention : Reuss Voigt Hill
#
# Bulk Modulus (GPa) = 29.61227 58.49330 44.05279
# Shear Modulus (GPa) = 23.26154 42.53582 32.89868
#
# Velocity S-wave (km/s) = 2.93821 3.97321 3.49424
# Velocity P-wave (km/s) = 4.74350 6.53890 5.71218
#
# Compressibility (1/GPa) = 0.03376978
#
# Stress axis : x y z
#
# Youngs Moduli (GPa) = 30.27648 75.27437 48.63555
#
# Poissons Ratio (x) = -0.33970 0.74759
# Poissons Ratio (y) = -0.13663 0.27694
# Poissons Ratio (z) = 0.46539 0.42862
#
# Static dielectric constant tensor:
#      x y z
#    x 2.635450 0.140150 -0.116380 
#    y 0.140150 2.123320 0.012110 
#    z -0.116380 0.012110 2.122880 
# 
# From -- ./inp_files/534060.got.cif
#   From: 2010.05.17/outbox.cif.g08.bks.cpg/sg2_268_cif.got.tgz:534060.got - 2010.06.03 11:33:40.
