data_PCOD9096968
_publ_section_title
;
Structure prediction by ZEFSAII (Michael W. Deem and Ramdas Pophale) SiO2 
 PCOD9096968
Probable space group: P -1
;
_chemical_formula_sum "Si O2"
_cell_formula_units_Z 16
_cell_length_a 8.329575
_cell_length_b 8.491563
_cell_length_c 11.554676
_cell_angle_alpha 118.196982
_cell_angle_beta 79.245637
_cell_angle_gamma 115.542835
_cell_volume 649.738095
_symmetry_space_group_name_H-M "P -1"
_symmetry_group_IT_number 2
_symmetry_cell_setting 'triclinic'
loop_
_space_group_symop_operation_xyz
x,y,z
-x,-y,-z
loop_
_atom_site_type_symbol
_atom_site_label
_atom_site_fract_x
_atom_site_fract_y
_atom_site_fract_z
Si Si1 0.666771 0.163289 0.407480
Si Si2 0.683314 0.283946 0.181677
Si Si3 0.151339 0.379128 0.116720
Si Si4 0.852579 0.550085 0.604345
Si Si5 0.344704 0.108446 0.022500
Si Si6 0.505891 0.765669 0.203951
Si Si7 0.008170 0.062874 0.387760
Si Si8 0.857267 0.673019 0.158344
O O1 0.685862 0.249700 0.305332
O O2 0.679835 0.346486 0.548186
O O3 0.830731 0.102533 0.397360
O O4 0.507931 0.949489 0.342603
O O5 0.478062 0.219301 0.145470
O O6 0.806678 0.497292 0.194699
O O7 0.733712 0.123387 0.051092
O O8 0.072084 0.391867 0.256454
O O9 0.194132 0.188649 0.056903
O O10 0.333499 0.571132 0.165295
O O11 0.094211 0.379065 0.992473
O O12 0.000000 0.500000 0.500000
O O13 0.838752 0.734449 0.605164
O O14 0.464628 0.167222 0.910497
O O15 0.675243 0.711404 0.187206
O O16 0.003624 0.876988 0.252602
O O17 0.000000 0.000000 0.500000
#
# Coordination Sequence:
#
# PCOD9096968 Si02
#       8
#     2   2   2   2   2   2   2   2
#     4   9  20  35  59  83 114 155 190 239 286 344
#     4  10  16  30  57  89 124 146 176 223 294 357
#     4  11  19  35  59  87 125 151 187 239 288 352
#     4  10  23  42  58  77 111 159 207 247 284 325
#     4   9  17  29  53  90 128 150 169 223 294 359
#     4   9  16  32  56  90 122 148 181 227 300 357
#     4  10  21  40  64  78 106 159 205 239 289 340
#     4  10  18  32  60  92 118 151 188 235 289 349
#
# _framework density 24.625308
#
# number of rings (size 3 to 8) (size 9 to 14) (size 15 to 20)
#    0.000    2.250    2.500    2.250    0.000    1.000 
#    0.000    3.125    0.000    6.750    0.000    0.000 
#    0.000    0.000    0.000    0.000    0.000    0.000 
#
# Total GULP energy -89393.057975 kJ/mol
# GULP energy per Si atom -5587.066123 kJ/mol
# Density = 2.456926 g / cm^3
# Si number density = 24.625308 Si / 1000 Ang^3
#
#
#
# Elastic Constant Matrix: (Units=GPa)
#
#
# Indices 1 2 3 4 5 6 
#
# 1 11.5322 37.0316 17.4460 -2.8632 13.7984 -19.3297
# 2 37.0316 184.2048 63.0437 11.4959 8.3296 -18.6754
# 3 17.4460 63.0437 153.7126 -0.3935 15.8212 -13.0663
# 4 -2.8632 11.4959 -0.3935 47.6267 -4.6888 11.3503
# 5 13.7984 8.3296 15.8212 -4.6888 26.3703 -11.0275
# 6 -19.3297 -18.6754 -13.0663 11.3503 -11.0275 37.7889
#
#
#
# Elastic Compliance Matrix: (Units=1/GPa)
#
#
# Indices 1 2 3 4 5 6 
#
# 1 -0.189340 0.029200 -0.002707 0.003535 0.064696 -0.065538
# 2 0.029200 0.002261 -0.002118 -0.002949 -0.009647 0.013392
# 3 -0.002707 -0.002118 0.007926 0.000277 -0.002877 -0.000614
# 4 0.003535 -0.002949 0.000277 0.023511 0.000376 -0.006506
# 5 0.064696 -0.009647 -0.002877 0.000376 0.023111 0.033962
# 6 -0.065538 0.013392 -0.000614 -0.006506 0.033962 0.011210
#
#
# Mechanical properties :
#
#
# Convention : Reuss Voigt Hill
#
# Bulk Modulus (GPa) = -7.66854 64.94359 28.63753
# Shear Modulus (GPa) = -23.41511 37.81908 7.20199
#
# Velocity S-wave (km/s) = -3.08694 3.92316 1.71201
# Velocity P-wave (km/s) = 3.97825 6.85212 3.94494
#
# Compressibility (1/GPa) = -0.13040293
#
# Stress axis : x y z
#
# Youngs Moduli (GPa) = -5.28151 442.20596 126.16339
#
# Poissons Ratio (x) = -12.91239 0.34158
# Poissons Ratio (y) = 0.15422 0.26719
# Poissons Ratio (z) = -0.01430 0.93652
#
# Static dielectric constant tensor:
#      x y z
#    x 2.047680 0.039390 0.017380 
#    y 0.039390 1.963700 0.040680 
#    z 0.017380 0.040680 1.970250 
# 
# From -- ./inp_files/418146.got.cif
#   From: 2010.05.17/outbox.cif.g08.bks.cpg/sg2_210_cif.got.tgz:418146.got - 2010.06.03 11:33:40.
