data_PCOD9096411
_publ_section_title
;
Structure prediction by ZEFSAII (Michael W. Deem and Ramdas Pophale) SiO2 
 PCOD9096411
Probable space group: P -1
;
_chemical_formula_sum "Si O2"
_cell_formula_units_Z 15
_cell_length_a 8.071909
_cell_length_b 12.636903
_cell_length_c 15.032223
_cell_angle_alpha 42.968320
_cell_angle_beta 62.633609
_cell_angle_gamma 94.369225
_cell_volume 679.206872
_symmetry_space_group_name_H-M "P -1"
_symmetry_group_IT_number 2
_symmetry_cell_setting 'triclinic'
loop_
_space_group_symop_operation_xyz
x,y,z
-x,-y,-z
loop_
_atom_site_type_symbol
_atom_site_label
_atom_site_fract_x
_atom_site_fract_y
_atom_site_fract_z
Si Si1 0.000000 0.500000 0.000000
Si Si2 0.869180 0.165768 0.181420
Si Si3 0.258072 0.989759 0.989772
Si Si4 0.525610 0.297859 0.374918
Si Si5 0.022999 0.166166 0.503296
Si Si6 0.851935 0.256346 0.662061
Si Si7 0.842615 0.722584 0.123868
Si Si8 0.198036 0.299783 0.186043
O O1 0.177802 0.685636 0.924086
O O2 0.259930 0.633230 0.787612
O O3 0.046995 0.308522 0.138446
O O4 0.624175 0.932027 0.407183
O O5 0.055040 0.184636 0.057674
O O6 0.549488 0.111013 0.830597
O O7 0.256665 0.175470 0.872666
O O8 0.120893 0.854093 0.197377
O O9 0.090731 0.820076 0.057994
O O10 0.641889 0.472627 0.315418
O O11 0.307846 0.272856 0.393909
O O12 0.931282 0.230021 0.563683
O O13 0.051097 0.247558 0.346733
O O14 0.858788 0.913033 0.694468
O O15 0.000000 0.500000 0.500000
O O16 0.500000 0.500000 0.000000
#
# Coordination Sequence:
#
# PCOD9096411 Si02
#       8
#     1   2   2   2   2   2   2   2
#     4  10  20  36  54  84 120 160 202 248 304 362
#     4  10  21  38  59  90 125 165 205 256 308 378
#     4  10  23  42  65  94 126 164 215 263 318 375
#     4  10  20  38  62  86 122 165 206 260 310 370
#     4  10  22  40  62  93 121 161 216 252 309 383
#     4  11  24  44  66  95 129 167 210 270 320 379
#     4  10  21  41  66  92 124 168 212 261 317 377
#     4  10  20  38  63  89 121 167 204 253 309 371
#
# _framework density 22.084582999999999
#
# number of rings (size 3 to 8) (size 9 to 14) (size 15 to 20)
#    0.000    1.867    0.000    4.400    0.000    3.200 
#   26.400    3.333    0.000    0.000    0.000    0.000 
#    0.000    0.000    0.000    0.000    0.000    0.000 
#
# Total GULP energy -83587.642395 kJ/mol
# GULP energy per Si atom -5572.509493 kJ/mol
# Density = 2.203432 g / cm^3
# Si number density = 22.084583 Si / 1000 Ang^3
#
#
#
# Elastic Constant Matrix: (Units=GPa)
#
#
# Indices 1 2 3 4 5 6 
#
# 1 33.5540 31.0598 27.1176 -12.8806 -8.9330 9.9479
# 2 31.0598 152.8773 66.7822 -10.6921 -8.6186 4.8358
# 3 27.1176 66.7822 148.6647 -27.6631 0.2742 3.1786
# 4 -12.8806 -10.6921 -27.6631 47.4962 5.8272 -3.9125
# 5 -8.9330 -8.6186 0.2742 5.8272 17.9033 -5.9730
# 6 9.9479 4.8358 3.1786 -3.9125 -5.9730 29.7744
#
#
#
# Elastic Compliance Matrix: (Units=1/GPa)
#
#
# Indices 1 2 3 4 5 6 
#
# 1 0.049414 -0.006238 -0.004832 0.006316 0.016022 -0.010937
# 2 -0.006238 0.009257 -0.003379 -0.001769 0.002366 0.001184
# 3 -0.004832 -0.003379 0.009949 0.004440 -0.005437 0.000594
# 4 0.006316 -0.001769 0.004440 0.025700 -0.006187 -0.000161
# 5 0.016022 0.002366 -0.005437 -0.006187 0.069764 0.008025
# 6 -0.010937 0.001184 0.000594 -0.000161 0.008025 0.038573
#
#
# Mechanical properties :
#
#
# Convention : Reuss Voigt Hill
#
# Bulk Modulus (GPa) = 25.17458 65.00169 45.08813
# Shear Modulus (GPa) = 20.42510 33.04389 26.73449
#
# Velocity S-wave (km/s) = 3.04445 3.87233 3.48307
# Velocity P-wave (km/s) = 4.87669 7.03492 6.05278
#
# Compressibility (1/GPa) = 0.03972261
#
# Stress axis : x y z
#
# Youngs Moduli (GPa) = 20.23705 108.02681 100.50811
#
# Poissons Ratio (x) = 0.67384 0.48566
# Poissons Ratio (y) = 0.12623 0.33965
# Poissons Ratio (z) = 0.09779 0.36506
#
# Static dielectric constant tensor:
#      x y z
#    x 2.042350 -0.058130 0.144200 
#    y -0.058130 1.883590 -0.064970 
#    z 0.144200 -0.064970 1.834170 
# 
# From -- ./inp_files/348145.got.cif
#   From: 2010.05.17/outbox.cif.g08.bks.cpg/sg2_175_cif.got.tgz:348145.got - 2010.06.03 11:33:40.
