data_PCOD9096070
_publ_section_title
;
Structure prediction by ZEFSAII (Michael W. Deem and Ramdas Pophale) SiO2 
 PCOD9096070
Probable space group: P -1
;
_chemical_formula_sum "Si O2"
_cell_formula_units_Z 14
_cell_length_a 14.369221
_cell_length_b 12.242133
_cell_length_c 8.564896
_cell_angle_alpha 129.883890
_cell_angle_beta 89.348632
_cell_angle_gamma 128.824129
_cell_volume 681.809514
_symmetry_space_group_name_H-M "P -1"
_symmetry_group_IT_number 2
_symmetry_cell_setting 'triclinic'
loop_
_space_group_symop_operation_xyz
x,y,z
-x,-y,-z
loop_
_atom_site_type_symbol
_atom_site_label
_atom_site_fract_x
_atom_site_fract_y
_atom_site_fract_z
Si Si1 0.196565 0.598143 0.508316
Si Si2 0.881155 0.781936 0.683396
Si Si3 0.624711 0.949129 0.221569
Si Si4 0.110602 0.664609 0.882599
Si Si5 0.427451 0.466385 0.630552
Si Si6 0.326421 0.107471 0.506761
Si Si7 0.928193 0.176379 0.511955
O O1 0.210121 0.454717 0.436140
O O2 0.170303 0.660357 0.721360
O O3 0.038006 0.421156 0.244514
O O4 0.342853 0.850056 0.646317
O O5 0.757119 0.740261 0.583243
O O6 0.975936 0.824170 0.580050
O O7 0.000000 0.000000 0.000000
O O8 0.600153 0.896774 0.359199
O O9 0.499374 0.704611 0.903511
O O10 0.793886 0.077259 0.308865
O O11 0.041152 0.450565 0.794603
O O12 0.248972 0.918465 0.198886
O O13 0.500000 0.500000 0.500000
O O14 0.444833 0.369563 0.675973
O O15 0.176191 0.994865 0.494805
#
# Coordination Sequence:
#
# PCOD9096070 Si02
#       7
#     2   2   2   2   2   2   2
#     4   9  18  33  59  84 118 145 192 234 277 340
#     4  11  22  38  58  88 116 148 193 238 282 336
#     4   9  20  37  57  86 112 149 189 229 288 338
#     4   9  15  32  59  91 110 147 184 235 286 335
#     4  12  24  38  59  80 115 161 193 230 285 343
#     4  10  20  35  62  84 118 148 191 236 283 341
#     4   8  19  34  60  85 114 141 188 237 282 333
#
# _framework density 20.533594999999998
#
# number of rings (size 3 to 8) (size 9 to 14) (size 15 to 20)
#    0.857    1.429    0.000    4.286    0.000    1.143 
#    0.000    0.000    0.000    4.286    0.000    0.000 
#    0.000    0.000    0.000    0.000    0.000    0.000 
#
# Total GULP energy -78072.193402 kJ/mol
# GULP energy per Si atom -5576.585243 kJ/mol
# Density = 2.048686 g / cm^3
# Si number density = 20.533595 Si / 1000 Ang^3
#
#
#
# Elastic Constant Matrix: (Units=GPa)
#
#
# Indices 1 2 3 4 5 6 
#
# 1 22.0189 0.8431 -5.8898 -7.7998 -4.7938 6.1027
# 2 0.8431 121.4590 2.5574 5.1283 -14.8216 -19.0257
# 3 -5.8898 2.5574 92.5455 -4.2811 -6.2561 -10.1760
# 4 -7.7998 5.1283 -4.2811 24.3085 -0.5331 -3.6621
# 5 -4.7938 -14.8216 -6.2561 -0.5331 16.9837 1.8820
# 6 6.1027 -19.0257 -10.1760 -3.6621 1.8820 14.1890
#
#
#
# Elastic Compliance Matrix: (Units=1/GPa)
#
#
# Indices 1 2 3 4 5 6 
#
# 1 0.065151 -0.003139 0.003426 0.018442 0.020565 -0.027741
# 2 -0.003139 0.012015 0.001959 -0.000352 0.008353 0.017667
# 3 0.003426 0.001959 0.012792 0.004689 0.006351 0.010695
# 4 0.018442 -0.000352 0.004689 0.049120 0.007430 0.006651
# 5 0.020565 0.008353 0.006351 0.007430 0.074665 -0.001076
# 6 -0.027741 0.017667 0.010695 0.006651 -0.001076 0.115628
#
#
# Mechanical properties :
#
#
# Convention : Reuss Voigt Hill
#
# Bulk Modulus (GPa) = 10.58759 25.67165 18.12962
# Shear Modulus (GPa) = 14.03067 26.99710 20.51388
#
# Velocity S-wave (km/s) = 2.61684 3.62992 3.16419
# Velocity P-wave (km/s) = 3.78126 5.48615 4.71146
#
# Compressibility (1/GPa) = 0.09445020
#
# Stress axis : x y z
#
# Youngs Moduli (GPa) = 15.34905 83.22664 78.17603
#
# Poissons Ratio (x) = 0.26125 -0.26783
# Poissons Ratio (y) = 0.04818 -0.15316
# Poissons Ratio (z) = -0.05259 -0.16306
#
# Static dielectric constant tensor:
#      x y z
#    x 1.703790 -0.007250 0.000960 
#    y -0.007250 1.790450 0.025530 
#    z 0.000960 0.025530 1.735420 
# 
# From -- ./inp_files/169710.got.cif
#   From: 2010.05.17/outbox.cif.g08.bks.cpg/sg2_85_cif.got.tgz:169710.got - 2010.06.03 11:33:40.
