data_PCOD9096320
_publ_section_title
;
Structure prediction by ZEFSAII (Michael W. Deem and Ramdas Pophale) SiO2 
 PCOD9096320
Probable space group: P -1
;
_chemical_formula_sum "Si O2"
_cell_formula_units_Z 14
_cell_length_a 15.792766
_cell_length_b 11.564050
_cell_length_c 11.738810
_cell_angle_alpha 61.141161
_cell_angle_beta 36.874124
_cell_angle_gamma 37.378129
_cell_volume 708.705705
_symmetry_space_group_name_H-M "P -1"
_symmetry_group_IT_number 2
_symmetry_cell_setting 'triclinic'
loop_
_space_group_symop_operation_xyz
x,y,z
-x,-y,-z
loop_
_atom_site_type_symbol
_atom_site_label
_atom_site_fract_x
_atom_site_fract_y
_atom_site_fract_z
Si Si1 0.736854 0.456496 0.448021
Si Si2 0.162601 0.515391 0.438275
Si Si3 0.988415 0.855896 0.885369
Si Si4 0.627599 0.286137 0.025228
Si Si5 0.676289 0.394727 0.158654
Si Si6 0.378825 0.952212 0.623278
Si Si7 0.004411 0.660790 0.289021
O O1 0.857937 0.380763 0.475973
O O2 0.585462 0.433322 0.612852
O O3 0.562353 0.706323 0.515895
O O4 0.903736 0.332309 0.222066
O O5 0.061934 0.444288 0.603382
O O6 0.062161 0.640319 0.368795
O O7 0.431357 0.319048 0.221658
O O8 0.179705 0.759643 0.815390
O O9 0.863946 0.053174 0.844103
O O10 0.789644 0.951778 0.135888
O O11 0.500000 0.500000 0.000000
O O12 0.691511 0.292325 0.079001
O O13 0.790171 0.445855 0.964576
O O14 0.500000 0.000000 0.500000
O O15 0.208599 0.097925 0.632885
#
# Coordination Sequence:
#
# PCOD9096320 Si02
#       7
#     2   2   2   2   2   2   2
#     4  11  23  39  63  91 122 156 202 251 299 358
#     4  10  20  38  60  89 122 156 203 241 301 362
#     4  11  23  39  63  89 124 158 198 255 298 350
#     4  11  20  37  64  87 118 163 199 241 301 356
#     4  10  21  38  61  88 121 158 205 245 301 356
#     4  11  21  40  64  91 119 158 202 245 301 357
#     4  10  20  35  66  86 116 166 195 246 302 351
#
# _framework density 19.75432
#
# number of rings (size 3 to 8) (size 9 to 14) (size 15 to 20)
#    0.000    1.429    5.714    0.857    2.000    0.571 
#    0.000    4.286    0.000    2.571    0.000    0.000 
#    0.000    0.000    0.000    0.000    0.000    0.000 
#
# Total GULP energy -77939.069524 kJ/mol
# GULP energy per Si atom -5567.076395 kJ/mol
# Density = 1.970936 g / cm^3
# Si number density = 19.754320 Si / 1000 Ang^3
#
#
#
# Elastic Constant Matrix: (Units=GPa)
#
#
# Indices 1 2 3 4 5 6 
#
# 1 125.1735 57.8657 49.8062 12.8595 -9.8733 -31.6339
# 2 57.8657 95.6257 47.0195 2.2998 9.4172 -17.0534
# 3 49.8062 47.0195 75.4700 0.6156 -1.4250 4.1605
# 4 12.8595 2.2998 0.6156 27.7752 14.1688 -5.0497
# 5 -9.8733 9.4172 -1.4250 14.1688 33.8078 -3.5748
# 6 -31.6339 -17.0534 4.1605 -5.0497 -3.5748 31.1095
#
#
#
# Elastic Compliance Matrix: (Units=1/GPa)
#
#
# Indices 1 2 3 4 5 6 
#
# 1 0.024929 -0.005222 -0.014069 -0.015135 0.017009 0.023866
# 2 -0.005222 0.020747 -0.010141 0.007407 -0.010046 0.007467
# 3 -0.014069 -0.010141 0.030034 0.004674 -0.004476 -0.023638
# 4 -0.015135 0.007407 0.004674 0.056855 -0.030776 -0.006263
# 5 0.017009 -0.010046 -0.004476 -0.030776 0.051461 0.013305
# 6 0.023866 0.007467 -0.023638 -0.006263 0.013305 0.064179
#
#
# Mechanical properties :
#
#
# Convention : Reuss Voigt Hill
#
# Bulk Modulus (GPa) = 59.36670 67.29466 63.33068
# Shear Modulus (GPa) = 15.99052 27.97703 21.98377
#
# Velocity S-wave (km/s) = 2.84820 3.76739 3.33957
# Velocity P-wave (km/s) = 6.39798 7.28451 6.85559
#
# Compressibility (1/GPa) = 0.01684446
#
# Stress axis : x y z
#
# Youngs Moduli (GPa) = 40.11370 48.20044 33.29565
#
# Poissons Ratio (x) = 0.25171 0.46845
# Poissons Ratio (y) = 0.20948 0.33765
# Poissons Ratio (z) = 0.56438 0.48880
#
# Static dielectric constant tensor:
#      x y z
#    x 1.705010 -0.027840 -0.021450 
#    y -0.027840 1.808940 -0.042230 
#    z -0.021450 -0.042230 1.755780 
# 
# From -- ./inp_files/392353.got.cif
#   From: 2010.05.17/outbox.cif.g08.bks.cpg/sg2_197_cif.got.tgz:392353.got - 2010.06.03 11:33:40.
