data_PCOD9096505
_publ_section_title
;
Structure prediction by ZEFSAII (Michael W. Deem and Ramdas Pophale) SiO2 
 PCOD9096505
Probable space group: P -1
;
_chemical_formula_sum "Si O2"
_cell_formula_units_Z 16
_cell_length_a 5.201035
_cell_length_b 13.237287
_cell_length_c 17.763920
_cell_angle_alpha 126.532173
_cell_angle_beta 69.814479
_cell_angle_gamma 124.482761
_cell_volume 809.985445
_symmetry_space_group_name_H-M "P -1"
_symmetry_group_IT_number 2
_symmetry_cell_setting 'triclinic'
loop_
_space_group_symop_operation_xyz
x,y,z
-x,-y,-z
loop_
_atom_site_type_symbol
_atom_site_label
_atom_site_fract_x
_atom_site_fract_y
_atom_site_fract_z
Si Si1 0.949124 0.580793 0.969730
Si Si2 0.136413 0.801623 0.933103
Si Si3 0.063149 0.528599 0.418651
Si Si4 0.114479 0.210110 0.828021
Si Si5 0.811508 0.685700 0.770781
Si Si6 0.194641 0.032757 0.132718
Si Si7 0.210398 0.696845 0.226046
Si Si8 0.278043 0.408938 0.642725
O O1 0.838438 0.458650 0.863619
O O2 0.203303 0.718846 0.957937
O O3 0.775800 0.662182 0.062684
O O4 0.000000 0.500000 0.000000
O O5 0.439835 0.887573 0.889463
O O6 0.866987 0.693220 0.857584
O O7 0.045455 0.914029 0.029462
O O8 0.991804 0.379859 0.318970
O O9 0.435051 0.625533 0.408386
O O10 0.000000 0.500000 0.500000
O O11 0.857721 0.586121 0.422611
O O12 0.418958 0.212711 0.763509
O O13 0.919413 0.244073 0.801416
O O14 0.901307 0.060231 0.823709
O O15 0.899196 0.843266 0.804862
O O16 0.461227 0.569657 0.731300
O O17 0.004887 0.681216 0.312958
#
# Coordination Sequence:
#
# PCOD9096505 Si02
#       8
#     2   2   2   2   2   2   2   2
#     4   9  19  35  52  75 110 150 198 243 289 324
#     4  10  20  36  56  78 119 157 201 241 284 334
#     4  10  21  38  61  95 121 141 180 238 304 362
#     4  10  23  34  52  75 112 153 200 238 275 326
#     4  10  21  33  61  83 119 149 193 231 301 340
#     4  10  21  37  51  81 116 162 202 238 277 330
#     4  11  20  37  53  79 110 151 191 238 284 336
#     4  10  22  37  62  88 119 146 185 232 306 352
#
# _framework density 19.753443000000001
#
# number of rings (size 3 to 8) (size 9 to 14) (size 15 to 20)
#    0.750    1.250    0.000    4.125    3.500    0.000 
#   15.750    0.000    0.000    0.000    0.000    5.250 
#    0.000    0.000    0.000    0.000    0.000    0.000 
#
# Total GULP energy -89084.974213 kJ/mol
# GULP energy per Si atom -5567.810888 kJ/mol
# Density = 1.970848 g / cm^3
# Si number density = 19.753443 Si / 1000 Ang^3
#
#
#
# Elastic Constant Matrix: (Units=GPa)
#
#
# Indices 1 2 3 4 5 6 
#
# 1 80.7879 28.6130 6.9299 -6.7335 3.2322 -1.7651
# 2 28.6130 112.1344 -1.6641 -20.6213 -0.6364 -4.5729
# 3 6.9299 -1.6641 18.9031 -12.6372 3.2406 4.6552
# 4 -6.7335 -20.6213 -12.6372 20.5286 -2.7105 -5.8746
# 5 3.2322 -0.6364 3.2406 -2.7105 22.0315 -9.4118
# 6 -1.7651 -4.5729 4.6552 -5.8746 -9.4118 22.4534
#
#
#
# Elastic Compliance Matrix: (Units=1/GPa)
#
#
# Indices 1 2 3 4 5 6 
#
# 1 0.014553 -0.005167 -0.010012 -0.006946 -0.001847 -0.000424
# 2 -0.005167 0.016823 0.021263 0.031811 0.006081 0.009483
# 3 -0.010012 0.021263 0.120300 0.091917 -0.003863 0.001032
# 4 -0.006946 0.031811 0.091917 0.147634 0.021288 0.034425
# 5 -0.001847 0.006081 -0.003863 0.021288 0.063601 0.034123
# 6 -0.000424 0.009483 0.001032 0.034425 0.034123 0.069531
#
#
# Mechanical properties :
#
#
# Convention : Reuss Voigt Hill
#
# Bulk Modulus (GPa) = 6.10332 31.06478 18.58405
# Shear Modulus (GPa) = 10.52879 24.86581 17.69730
#
# Velocity S-wave (km/s) = 2.31121 3.55182 2.99642
# Velocity P-wave (km/s) = 3.19667 5.70797 4.62599
#
# Compressibility (1/GPa) = 0.16384515
#
# Stress axis : x y z
#
# Youngs Moduli (GPa) = 68.71593 59.44228 8.31252
#
# Poissons Ratio (x) = 0.30714 0.08322
# Poissons Ratio (y) = 0.35505 -0.17675
# Poissons Ratio (z) = 0.68798 -1.26395
#
# Static dielectric constant tensor:
#      x y z
#    x 1.761150 0.028510 0.002920 
#    y 0.028510 1.740570 0.002210 
#    z 0.002920 0.002210 1.696680 
# 
# From -- ./inp_files/549204.got.cif
#   From: 2010.05.17/outbox.cif.g08.bks.cpg/sg2_275_cif.got.tgz:549204.got - 2010.06.03 11:33:40.
