data_PCOD9096869
_publ_section_title
;
Structure prediction by ZEFSAII (Michael W. Deem and Ramdas Pophale) SiO2 
 PCOD9096869
Probable space group: P -1
;
_chemical_formula_sum "Si O2"
_cell_formula_units_Z 10
_cell_length_a 18.246766
_cell_length_b 15.258556
_cell_length_c 11.093229
_cell_angle_alpha 30.283575
_cell_angle_beta 21.914911
_cell_angle_gamma 22.874885
_cell_volume 447.276918
_symmetry_space_group_name_H-M "P -1"
_symmetry_group_IT_number 2
_symmetry_cell_setting 'triclinic'
loop_
_space_group_symop_operation_xyz
x,y,z
-x,-y,-z
loop_
_atom_site_type_symbol
_atom_site_label
_atom_site_fract_x
_atom_site_fract_y
_atom_site_fract_z
Si Si1 0.878793 0.373360 0.822486
Si Si2 0.594237 0.173881 0.922071
Si Si3 0.777901 0.640235 0.072787
Si Si4 0.269739 0.066460 0.404963
Si Si5 0.931908 0.221761 0.185512
O O1 0.000000 0.500000 0.500000
O O2 0.006553 0.202678 0.718191
O O3 0.580080 0.588485 0.024075
O O4 0.937430 0.234050 0.019782
O O5 0.746161 0.184774 0.571125
O O6 0.425609 0.121559 0.179597
O O7 0.792556 0.974820 0.946607
O O8 0.832577 0.460425 0.105929
O O9 0.486715 0.796585 0.380345
O O10 0.791384 0.814678 0.772691
O O11 0.000000 0.500000 0.000000
#
# Coordination Sequence:
#
# PCOD9096869 Si02
#       5
#     2   2   2   2   2
#     4  10  20  36  58  86 110 144 189 236 269 324
#     4  10  21  36  59  87 111 144 192 227 275 329
#     4  11  21  36  57  83 114 148 182 228 280 335
#     4  10  22  37  58  86 108 147 189 228 279 328
#     4  11  21  36  62  85 110 149 186 232 275 325
#
# _framework density 22.357513000000001
#
# number of rings (size 3 to 8) (size 9 to 14) (size 15 to 20)
#    0.000    1.600    6.000    0.600    0.000    4.800 
#    0.000    1.000    0.000    3.600    0.000    0.000 
#    0.000    0.000    0.000    0.000    0.000    0.000 
#
# Total GULP energy -55900.219774 kJ/mol
# GULP energy per Si atom -5590.021977 kJ/mol
# Density = 2.230663 g / cm^3
# Si number density = 22.357513 Si / 1000 Ang^3
#
#
#
# Elastic Constant Matrix: (Units=GPa)
#
#
# Indices 1 2 3 4 5 6 
#
# 1 61.1502 52.7295 27.0948 24.1790 20.1715 -4.1419
# 2 52.7295 161.5200 45.4215 26.7442 26.2123 -23.4833
# 3 27.0948 45.4215 38.4641 18.6660 20.9611 -3.4400
# 4 24.1790 26.7442 18.6660 31.7653 13.6668 -2.3242
# 5 20.1715 26.2123 20.9611 13.6668 36.9958 6.2647
# 6 -4.1419 -23.4833 -3.4400 -2.3242 6.2647 37.4665
#
#
#
# Elastic Compliance Matrix: (Units=1/GPa)
#
#
# Indices 1 2 3 4 5 6 
#
# 1 0.030310 -0.005332 -0.006573 -0.013010 -0.004097 -0.000716
# 2 -0.005332 0.011375 -0.008613 0.000645 -0.001535 0.006046
# 3 -0.006573 -0.008613 0.057311 -0.013590 -0.017986 0.001301
# 4 -0.013010 0.000645 -0.013590 0.051012 -0.004794 0.001684
# 5 -0.004097 -0.001535 -0.017986 -0.004794 0.044132 -0.010743
# 6 -0.000716 0.006046 0.001301 0.001684 -0.010743 0.032421
#
#
# Mechanical properties :
#
#
# Convention : Reuss Voigt Hill
#
# Bulk Modulus (GPa) = 17.25269 56.84731 37.05000
# Shear Modulus (GPa) = 17.42667 30.30477 23.86572
#
# Velocity S-wave (km/s) = 2.79490 3.68565 3.27074
# Velocity P-wave (km/s) = 4.26014 6.60256 5.55619
#
# Compressibility (1/GPa) = 0.05796199
#
# Stress axis : x y z
#
# Youngs Moduli (GPa) = 32.99225 87.91132 17.44855
#
# Poissons Ratio (x) = 0.46872 0.11468
# Poissons Ratio (y) = 0.17591 0.15028
# Poissons Ratio (z) = 0.21685 0.75716
#
# Static dielectric constant tensor:
#      x y z
#    x 1.802400 0.047790 -0.021340 
#    y 0.047790 1.849640 -0.005130 
#    z -0.021340 -0.005130 1.893200 
# 
# From -- ./inp_files/148118.got.cif
#   From: 2010.05.17/outbox.cif.g08.bks.cpg/sg2_75_cif.got.tgz:148118.got - 2010.06.03 11:33:40.
