data_PCOD9096847
_publ_section_title
;
Structure prediction by ZEFSAII (Michael W. Deem and Ramdas Pophale) SiO2 
 PCOD9096847
Probable space group: P -1
;
_chemical_formula_sum "Si O2"
_cell_formula_units_Z 13
_cell_length_a 9.063977
_cell_length_b 10.636130
_cell_length_c 9.972663
_cell_angle_alpha 138.326798
_cell_angle_beta 118.680776
_cell_angle_gamma 45.919613
_cell_volume 457.611628
_symmetry_space_group_name_H-M "P -1"
_symmetry_group_IT_number 2
_symmetry_cell_setting 'triclinic'
loop_
_space_group_symop_operation_xyz
x,y,z
-x,-y,-z
loop_
_atom_site_type_symbol
_atom_site_label
_atom_site_fract_x
_atom_site_fract_y
_atom_site_fract_z
Si Si1 0.330093 0.279610 0.559275
Si Si2 0.484938 0.316494 0.266312
Si Si3 0.500000 0.500000 0.000000
Si Si4 0.883458 0.227935 0.760211
Si Si5 0.292882 0.016278 0.667104
Si Si6 0.096252 0.476714 0.338820
Si Si7 0.123837 0.011721 0.945512
O O1 0.524033 0.032394 0.390417
O O2 0.217214 0.435870 0.499562
O O3 0.138094 0.304638 0.570723
O O4 0.424018 0.386548 0.771445
O O5 0.500000 0.500000 0.500000
O O6 0.581827 0.092017 0.225753
O O7 0.242915 0.446905 0.258571
O O8 0.638548 0.206128 0.121291
O O9 0.302020 0.570448 0.071885
O O10 0.780009 0.142033 0.547722
O O11 0.018022 0.023772 0.769102
O O12 0.068499 0.236785 0.786989
O O13 0.095545 0.251992 0.143714
O O14 0.000000 0.000000 0.000000
#
# Coordination Sequence:
#
# PCOD9096847 Si02
#       7
#     2   2   1   2   2   2   2
#     4   9  18  30  59  81 114 149 196 242 287 356
#     4  10  22  37  61  88 118 158 200 251 298 351
#     4  10  16  30  56  86 106 154 198 236 292 358
#     4   9  17  32  52  84 112 154 195 234 291 356
#     4   8  17  33  54  81 112 153 194 235 292 356
#     4  10  20  37  56  88 121 157 200 243 298 354
#     4  11  23  35  58  91 123 155 198 250 299 356
#
# _framework density 28.408369
#
# number of rings (size 3 to 8) (size 9 to 14) (size 15 to 20)
#    0.000    2.462    1.538    0.462    6.462    0.000 
#    0.000    0.000    0.000    9.231    8.000    0.000 
#    0.000    0.000    0.000    0.000    0.000    0.000 
#
# Total GULP energy -72508.716592 kJ/mol
# GULP energy per Si atom -5577.593584 kJ/mol
# Density = 2.834371 g / cm^3
# Si number density = 28.408369 Si / 1000 Ang^3
#
#
#
# Elastic Constant Matrix: (Units=GPa)
#
#
# Indices 1 2 3 4 5 6 
#
# 1 241.3884 61.2810 47.5600 36.8307 -49.0526 -85.4961
# 2 61.2810 174.5450 28.2070 -3.0385 -17.1029 -51.9337
# 3 47.5600 28.2070 132.9395 -6.0940 -11.3981 -16.9123
# 4 36.8307 -3.0385 -6.0940 40.3963 -19.1455 -9.7960
# 5 -49.0526 -17.1029 -11.3981 -19.1455 64.6884 25.2007
# 6 -85.4961 -51.9337 -16.9123 -9.7960 25.2007 55.5271
#
#
#
# Elastic Compliance Matrix: (Units=1/GPa)
#
#
# Indices 1 2 3 4 5 6 
#
# 1 0.011075 0.001262 -0.002440 -0.006386 0.000045 0.016341
# 2 0.001262 0.008389 -0.000927 0.001564 -0.000409 0.009968
# 3 -0.002440 -0.000927 0.008616 0.003570 0.001231 -0.001927
# 4 -0.006386 0.001564 0.003570 0.033897 0.008187 -0.005018
# 5 0.000045 -0.000409 0.001231 0.008187 0.021183 -0.008107
# 6 0.016341 0.009968 -0.001927 -0.005018 -0.008107 0.054700
#
#
# Mechanical properties :
#
#
# Convention : Reuss Voigt Hill
#
# Bulk Modulus (GPa) = 41.89385 91.44101 66.66743
# Shear Modulus (GPa) = 33.32764 59.57733 46.45249
#
# Velocity S-wave (km/s) = 3.42886 4.58446 4.04811
# Velocity P-wave (km/s) = 5.51862 7.76408 6.73558
#
# Compressibility (1/GPa) = 0.02386985
#
# Stress axis : x y z
#
# Youngs Moduli (GPa) = 90.29724 119.20394 116.06905
#
# Poissons Ratio (x) = -0.15038 0.28316
# Poissons Ratio (y) = -0.11391 0.10754
# Poissons Ratio (z) = 0.22029 0.11045
#
# Static dielectric constant tensor:
#      x y z
#    x 2.334740 0.059380 -0.102450 
#    y 0.059380 2.277640 -0.054080 
#    z -0.102450 -0.054080 2.129430 
# 
# From -- ./inp_files/250334.got.cif
#   From: 2010.05.17/outbox.cif.g08.bks.cpg/sg2_126_cif.got.tgz:250334.got - 2010.06.03 11:33:40.
