data_PCOD9096790
_publ_section_title
;
Structure prediction by ZEFSAII (Michael W. Deem and Ramdas Pophale) SiO2 
 PCOD9096790
Probable space group: P -1
;
_chemical_formula_sum "Si O2"
_cell_formula_units_Z 15
_cell_length_a 16.228438
_cell_length_b 4.951099
_cell_length_c 9.183997
_cell_angle_alpha 50.219816
_cell_angle_beta 69.985174
_cell_angle_gamma 77.250404
_cell_volume 532.844373
_symmetry_space_group_name_H-M "P -1"
_symmetry_group_IT_number 2
_symmetry_cell_setting 'triclinic'
loop_
_space_group_symop_operation_xyz
x,y,z
-x,-y,-z
loop_
_atom_site_type_symbol
_atom_site_label
_atom_site_fract_x
_atom_site_fract_y
_atom_site_fract_z
Si Si1 0.000000 0.000000 0.500000
Si Si2 0.958199 0.874675 0.836807
Si Si3 0.705329 0.342201 0.210330
Si Si4 0.424458 0.684612 0.283406
Si Si5 0.320696 0.219261 0.316485
Si Si6 0.867397 0.945446 0.154428
Si Si7 0.857803 0.550834 0.570892
Si Si8 0.398318 0.122460 0.757644
O O1 0.085211 0.144595 0.494765
O O2 0.983740 0.667296 0.747118
O O3 0.922486 0.211751 0.644627
O O4 0.044485 0.927342 0.861817
O O5 0.884987 0.836793 0.016266
O O6 0.684072 0.716286 0.161899
O O7 0.697021 0.063714 0.445171
O O8 0.796419 0.253860 0.109143
O O9 0.628802 0.235162 0.180268
O O10 0.401631 0.460564 0.233334
O O11 0.416169 0.397715 0.519200
O O12 0.517866 0.860637 0.194987
O O13 0.349243 0.978030 0.249313
O O14 0.232903 0.450577 0.287038
O O15 0.836099 0.631917 0.387572
#
# Coordination Sequence:
#
# PCOD9096790 Si02
#       8
#     1   2   2   2   2   2   2   2
#     4  10  20  36  58  82 112 150 198 240 294 348
#     4  10  21  40  57  84 116 160 195 249 299 358
#     4   9  17  31  48  80 111 155 188 250 288 360
#     4   9  16  28  47  81 110 154 188 246 292 364
#     4   9  18  29  51  78 115 148 201 236 297 351
#     4   9  19  39  57  83 119 152 208 238 302 358
#     4  10  21  38  57  82 120 159 192 253 297 353
#     4   9  16  28  49  75 119 146 192 240 308 342
#
# _framework density 28.150811000000001
#
# number of rings (size 3 to 8) (size 9 to 14) (size 15 to 20)
#    0.000    2.667    0.000    2.400    1.867    3.200 
#   19.200    5.333    0.000    0.000    0.000    5.600 
#    0.000    0.000    0.000    0.000    0.000    0.000 
#
# Total GULP energy -83801.974601 kJ/mol
# GULP energy per Si atom -5586.798307 kJ/mol
# Density = 2.808674 g / cm^3
# Si number density = 28.150811 Si / 1000 Ang^3
#
#
#
# Elastic Constant Matrix: (Units=GPa)
#
#
# Indices 1 2 3 4 5 6 
#
# 1 100.6793 6.3197 2.8597 4.3263 -8.3622 0.9502
# 2 6.3197 73.9530 19.4632 15.3793 -4.7379 10.2471
# 3 2.8597 19.4632 148.5901 12.4133 20.2753 5.7747
# 4 4.3263 15.3793 12.4133 28.0208 1.1626 5.3547
# 5 -8.3622 -4.7379 20.2753 1.1626 20.1852 10.8811
# 6 0.9502 10.2471 5.7747 5.3547 10.8811 42.3594
#
#
#
# Elastic Compliance Matrix: (Units=1/GPa)
#
#
# Indices 1 2 3 4 5 6 
#
# 1 0.010538 0.000241 -0.000922 -0.001302 0.006298 -0.001622
# 2 0.000241 0.017265 -0.002834 -0.007638 0.010405 -0.005503
# 3 -0.000922 -0.002834 0.008715 -0.002209 -0.011102 0.002649
# 4 -0.001302 -0.007638 -0.002209 0.041642 -0.000985 -0.002833
# 5 0.006298 0.010405 -0.011102 -0.000985 0.077016 -0.020804
# 6 -0.001622 -0.005503 0.002649 -0.002833 -0.020804 0.030316
#
#
# Mechanical properties :
#
#
# Convention : Reuss Voigt Hill
#
# Bulk Modulus (GPa) = 33.91130 42.27861 38.09496
# Shear Modulus (GPa) = 24.70959 37.75173 31.23066
#
# Velocity S-wave (km/s) = 2.96591 3.66601 3.33439
# Velocity P-wave (km/s) = 4.87866 5.74202 5.32785
#
# Compressibility (1/GPa) = 0.02948869
#
# Stress axis : x y z
#
# Youngs Moduli (GPa) = 94.89548 57.92120 114.73993
#
# Poissons Ratio (x) = -0.01397 0.10578
# Poissons Ratio (y) = -0.02288 0.32517
# Poissons Ratio (z) = 0.08748 0.16415
#
# Static dielectric constant tensor:
#      x y z
#    x 2.130520 0.087590 -0.022190 
#    y 0.087590 1.711880 -0.398260 
#    z -0.022190 -0.398260 2.204700 
# 
# From -- ./inp_files/42627.got.cif
#   From: 2010.05.17/outbox.cif.g08.bks.cpg/sg2_22_cif.got.tgz:42627.got - 2010.06.03 11:33:40.
