data_PCOD9096940
_publ_section_title
;
Structure prediction by ZEFSAII (Michael W. Deem and Ramdas Pophale) SiO2 
 PCOD9096940
Probable space group: P -1
;
_chemical_formula_sum "Si O2"
_cell_formula_units_Z 16
_cell_length_a 7.609405
_cell_length_b 12.885663
_cell_length_c 8.231303
_cell_angle_alpha 60.354918
_cell_angle_beta 106.967215
_cell_angle_gamma 85.276251
_cell_volume 645.490432
_symmetry_space_group_name_H-M "P -1"
_symmetry_group_IT_number 2
_symmetry_cell_setting 'triclinic'
loop_
_space_group_symop_operation_xyz
x,y,z
-x,-y,-z
loop_
_atom_site_type_symbol
_atom_site_label
_atom_site_fract_x
_atom_site_fract_y
_atom_site_fract_z
Si Si1 0.367152 0.802955 0.307259
Si Si2 0.597125 0.808566 0.805116
Si Si3 0.277639 0.158669 0.820322
Si Si4 0.969759 0.600145 0.556196
Si Si5 0.750754 0.017699 0.561573
Si Si6 0.585036 0.552638 0.635151
Si Si7 0.888923 0.056873 0.091743
Si Si8 0.210650 0.482793 0.991086
O O1 0.555179 0.812269 0.258980
O O2 0.310616 0.912177 0.337479
O O3 0.422326 0.679142 0.522197
O O4 0.219416 0.808921 0.113398
O O5 0.369329 0.878712 0.676783
O O6 0.683086 0.662771 0.902201
O O7 0.680181 0.892945 0.635792
O O8 0.678436 0.828260 0.988998
O O9 0.083468 0.261494 0.636922
O O10 0.259308 0.024885 0.869701
O O11 0.779794 0.584931 0.607894
O O12 0.000000 0.500000 0.500000
O O13 0.152398 0.561704 0.751683
O O14 0.977670 0.965552 0.697671
O O15 0.500000 0.500000 0.500000
O O16 0.651093 0.475131 0.876303
O O17 0.000000 0.000000 0.000000
O O18 0.000000 0.500000 0.000000
#
# Coordination Sequence:
#
# PCOD9096940 Si02
#       8
#     2   2   2   2   2   2   2   2
#     4  10  20  37  61  88 121 155 201 242 304 361
#     4  11  20  37  62  88 123 157 201 247 303 364
#     4  11  21  36  62  87 123 159 194 251 303 356
#     4  10  21  37  59  89 116 157 204 242 304 357
#     4  10  22  37  61  92 117 159 201 249 300 359
#     4  10  22  39  61  88 116 161 204 250 298 357
#     4  10  20  36  58  89 113 156 199 242 289 358
#     4  10  21  39  60  88 120 162 204 248 293 365
#
# _framework density 24.787355000000002
#
# number of rings (size 3 to 8) (size 9 to 14) (size 15 to 20)
#    0.000    1.750    5.000    0.375    0.000    4.000 
#    0.000    3.750    0.000    0.000    0.000    0.000 
#    0.000    0.000    0.000    0.000    0.000    0.000 
#
# Total GULP energy -89286.386161 kJ/mol
# GULP energy per Si atom -5580.399135 kJ/mol
# Density = 2.473094 g / cm^3
# Si number density = 24.787355 Si / 1000 Ang^3
#
#
#
# Elastic Constant Matrix: (Units=GPa)
#
#
# Indices 1 2 3 4 5 6 
#
# 1 49.6946 5.7939 33.0521 -3.6743 18.8533 -1.3364
# 2 5.7939 60.8624 49.0191 2.5075 16.8420 -9.9757
# 3 33.0521 49.0191 264.5003 10.4361 57.1715 2.6612
# 4 -3.6743 2.5075 10.4361 37.9387 2.8327 12.5345
# 5 18.8533 16.8420 57.1715 2.8327 43.7164 2.6590
# 6 -1.3364 -9.9757 2.6612 12.5345 2.6590 22.3961
#
#
#
# Elastic Compliance Matrix: (Units=1/GPa)
#
#
# Indices 1 2 3 4 5 6 
#
# 1 0.024856 0.001728 -0.001434 0.002742 -0.009812 0.002054
# 2 0.001728 0.022944 -0.003115 -0.004675 -0.006062 0.014029
# 3 -0.001434 -0.003115 0.005799 -0.000753 -0.005652 -0.001070
# 4 0.002742 -0.004675 -0.000753 0.034009 0.000673 -0.020943
# 5 -0.009812 -0.006062 -0.005652 0.000673 0.037240 -0.007412
# 6 0.002054 0.014029 -0.001070 -0.020943 -0.007412 0.063750
#
#
# Mechanical properties :
#
#
# Convention : Reuss Voigt Hill
#
# Bulk Modulus (GPa) = 20.85199 61.19862 41.02530
# Shear Modulus (GPa) = 23.78395 39.95639 31.87017
#
# Velocity S-wave (km/s) = 3.10097 4.01929 3.58962
# Velocity P-wave (km/s) = 4.60999 6.80313 5.81096
#
# Compressibility (1/GPa) = 0.04795705
#
# Stress axis : x y z
#
# Youngs Moduli (GPa) = 40.23207 43.58461 172.43583
#
# Poissons Ratio (x) = -0.07530 0.24730
# Poissons Ratio (y) = -0.06951 0.53705
# Poissons Ratio (z) = 0.05770 0.13574
#
# Static dielectric constant tensor:
#      x y z
#    x 2.020530 -0.017180 0.064580 
#    y -0.017180 1.986510 -0.030280 
#    z 0.064580 -0.030280 2.076910 
# 
# From -- ./inp_files/206067.got.cif
#   From: 2010.05.17/outbox.cif.g08.bks.cpg/sg2_104_cif.got.tgz:206067.got - 2010.06.03 11:33:40.
