data_PCOD9096690
_publ_section_title
;
Structure prediction by ZEFSAII (Michael W. Deem and Ramdas Pophale) SiO2 
 PCOD9096690
Probable space group: P -1
;
_chemical_formula_sum "Si O2"
_cell_formula_units_Z 16
_cell_length_a 12.559427
_cell_length_b 14.654210
_cell_length_c 13.754263
_cell_angle_alpha 150.258720
_cell_angle_beta 29.606933
_cell_angle_gamma 141.887761
_cell_volume 615.154846
_symmetry_space_group_name_H-M "P -1"
_symmetry_group_IT_number 2
_symmetry_cell_setting 'triclinic'
loop_
_space_group_symop_operation_xyz
x,y,z
-x,-y,-z
loop_
_atom_site_type_symbol
_atom_site_label
_atom_site_fract_x
_atom_site_fract_y
_atom_site_fract_z
Si Si1 0.531333 0.901573 0.999686
Si Si2 0.844751 0.221769 0.387804
Si Si3 0.337720 0.494310 0.714698
Si Si4 0.531376 0.250235 0.896631
Si Si5 0.078934 0.513960 0.249857
Si Si6 0.180376 0.140746 0.433277
Si Si7 0.386308 0.606303 0.432604
Si Si8 0.759175 0.818603 0.109962
O O1 0.374333 0.709227 0.918739
O O2 0.765409 0.883071 0.746845
O O3 0.542631 0.907696 0.113037
O O4 0.411996 0.074485 0.222408
O O5 0.894193 0.394751 0.579823
O O6 0.660796 0.248434 0.478019
O O7 0.053115 0.203754 0.138636
O O8 0.801446 0.030022 0.303764
O O9 0.500000 0.500000 0.500000
O O10 0.145172 0.348483 0.687137
O O11 0.412185 0.380379 0.642588
O O12 0.786763 0.326570 0.773035
O O13 0.403434 0.416855 0.186497
O O14 0.459459 0.214871 0.810410
O O15 0.213097 0.338313 0.979308
O O16 0.827770 0.436278 0.367514
O O17 0.000000 0.000000 0.500000
#
# Coordination Sequence:
#
# PCOD9096690 Si02
#       8
#     2   2   2   2   2   2   2   2
#     4   9  22  40  60  93 122 156 198 246 308 359
#     4  10  20  36  60  83 115 166 202 242 305 348
#     4   9  20  39  63  89 121 159 195 244 313 362
#     4  11  21  36  61  85 123 157 200 247 296 357
#     4  11  21  39  57  86 119 162 205 244 297 350
#     4  10  21  42  67  90 120 156 199 252 306 363
#     4  10  20  39  60  81 122 156 199 253 296 357
#     4  10  20  36  57  85 117 159 204 248 295 348
#
# _framework density 26.009712
#
# number of rings (size 3 to 8) (size 9 to 14) (size 15 to 20)
#    0.000    2.000    2.500    1.125    1.750    4.000 
#    0.000    6.250    0.000    0.000    0.000    0.000 
#    0.000    0.000    0.000    0.000    0.000    0.000 
#
# Total GULP energy -89321.883457 kJ/mol
# GULP energy per Si atom -5582.617716 kJ/mol
# Density = 2.595051 g / cm^3
# Si number density = 26.009712 Si / 1000 Ang^3
#
#
#
# Elastic Constant Matrix: (Units=GPa)
#
#
# Indices 1 2 3 4 5 6 
#
# 1 52.0276 -0.6636 1.6716 0.4162 7.8519 -11.5835
# 2 -0.6636 91.4639 4.8319 -7.5292 5.4008 -10.2321
# 3 1.6716 4.8319 90.7742 6.9887 1.3727 3.2678
# 4 0.4162 -7.5292 6.9887 52.1405 5.7130 3.8894
# 5 7.8519 5.4008 1.3727 5.7130 25.2982 -3.9171
# 6 -11.5835 -10.2321 3.2678 3.8894 -3.9171 34.6707
#
#
#
# Elastic Compliance Matrix: (Units=1/GPa)
#
#
# Indices 1 2 3 4 5 6 
#
# 1 0.021718 0.001348 -0.000653 0.000239 -0.005961 0.007015
# 2 0.001348 0.011690 -0.000872 0.001836 -0.002745 0.003467
# 3 -0.000653 -0.000872 0.011242 -0.001515 -0.000092 -0.001375
# 4 0.000239 0.001836 -0.001515 0.020386 -0.005316 -0.002123
# 5 -0.005961 -0.002745 -0.000092 -0.005316 0.043593 0.002729
# 6 0.007015 0.003467 -0.001375 -0.002123 0.002729 0.032886
#
#
# Mechanical properties :
#
#
# Convention : Reuss Voigt Hill
#
# Bulk Modulus (GPa) = 22.57372 27.32726 24.95049
# Shear Modulus (GPa) = 31.92166 37.65027 34.78596
#
# Velocity S-wave (km/s) = 3.50708 3.80879 3.66105
# Velocity P-wave (km/s) = 5.00972 5.46552 5.24257
#
# Compressibility (1/GPa) = 0.04429930
#
# Stress axis : x y z
#
# Youngs Moduli (GPa) = 46.04395 85.54203 88.94972
#
# Poissons Ratio (x) = -0.11535 0.05804
# Poissons Ratio (y) = -0.06209 0.07754
# Poissons Ratio (z) = 0.03004 0.07457
#
# Static dielectric constant tensor:
#      x y z
#    x 2.126290 -0.040550 -0.005570 
#    y -0.040550 2.153500 -0.061240 
#    z -0.005570 -0.061240 2.051040 
# 
# From -- ./inp_files/533889.got.cif
#   From: 2010.05.17/outbox.cif.g08.bks.cpg/sg2_267_cif.got.tgz:533889.got - 2010.06.03 11:33:40.
