data_PCOD9096385
_publ_section_title
;
Structure prediction by ZEFSAII (Michael W. Deem and Ramdas Pophale) SiO2 
 PCOD9096385
Probable space group: P -1
;
_chemical_formula_sum "Si O2"
_cell_formula_units_Z 14
_cell_length_a 21.691945
_cell_length_b 5.085518
_cell_length_c 12.687944
_cell_angle_alpha 121.155559
_cell_angle_beta 144.758156
_cell_angle_gamma 70.324081
_cell_volume 680.634332
_symmetry_space_group_name_H-M "P -1"
_symmetry_group_IT_number 2
_symmetry_cell_setting 'triclinic'
loop_
_space_group_symop_operation_xyz
x,y,z
-x,-y,-z
loop_
_atom_site_type_symbol
_atom_site_label
_atom_site_fract_x
_atom_site_fract_y
_atom_site_fract_z
Si Si1 0.873784 0.676342 0.956295
Si Si2 0.247327 0.764391 0.146192
Si Si3 0.126214 0.802562 0.334942
Si Si4 0.460281 0.629109 0.361186
Si Si5 0.405045 0.202523 0.607568
Si Si6 0.752675 0.517059 0.404212
Si Si7 0.539719 0.168828 0.980343
O O1 0.847936 0.477967 0.985016
O O2 0.850405 0.425204 0.775607
O O3 0.799720 0.944104 0.906553
O O4 0.999999 0.824398 0.153756
O O5 0.330041 0.588927 0.160754
O O6 0.325513 0.923478 0.382067
O O7 0.152064 0.630044 0.441212
O O8 0.200277 0.144389 0.507389
O O9 0.500000 0.500000 0.500000
O O10 0.519698 0.577416 0.324336
O O11 0.500000 0.000000 0.500000
O O12 0.325512 0.402036 0.594473
O O13 0.480303 0.057719 0.765243
O O14 0.669960 0.258886 0.170631
O O15 0.500000 0.500000 0.000000
O O16 0.500000 0.000000 0.000000
#
# Coordination Sequence:
#
# PCOD9096385 Si02
#       7
#     2   2   2   2   2   2   2
#     4  11  21  34  52  77 106 143 181 220 272 325
#     4  11  20  34  54  77 109 145 173 221 272 317
#     4  11  21  34  52  77 106 143 181 220 272 325
#     4  10  22  34  53  80 107 145 187 212 270 329
#     4  10  20  36  53  78 115 142 172 226 264 322
#     4  11  20  34  54  77 109 145 173 221 272 317
#     4  10  22  34  53  80 107 145 187 212 270 329
#
# _framework density 20.569047999999999
#
# number of rings (size 3 to 8) (size 9 to 14) (size 15 to 20)
#    0.000    1.429    2.857    4.286    0.000    5.714 
#    0.000    0.000    0.000    0.000    0.000    6.000 
#    0.000    0.000    0.000    0.000    0.000    0.000 
#
# Total GULP energy -78034.250074 kJ/mol
# GULP energy per Si atom -5573.875005 kJ/mol
# Density = 2.052223 g / cm^3
# Si number density = 20.569048 Si / 1000 Ang^3
#
#
#
# Elastic Constant Matrix: (Units=GPa)
#
#
# Indices 1 2 3 4 5 6 
#
# 1 55.1766 18.3362 7.3620 -2.8205 15.9028 13.3049
# 2 18.3362 127.3765 16.5710 -8.1315 2.2303 27.5449
# 3 7.3620 16.5710 80.2214 -7.8363 7.4867 4.5814
# 4 -2.8205 -8.1315 -7.8363 25.5035 4.3967 3.5712
# 5 15.9028 2.2303 7.4867 4.3967 26.6229 -4.2341
# 6 13.3049 27.5449 4.5814 3.5712 -4.2341 25.5303
#
#
#
# Elastic Compliance Matrix: (Units=1/GPa)
#
#
# Indices 1 2 3 4 5 6 
#
# 1 0.030976 0.001774 0.001700 0.012214 -0.024998 -0.024216
# 2 0.001774 0.011425 -0.000511 0.006705 -0.005364 -0.014986
# 3 0.001700 -0.000511 0.013907 0.006116 -0.006655 -0.004789
# 4 0.012214 0.006705 0.006116 0.052007 -0.022247 -0.025661
# 5 -0.024998 -0.005364 -0.006655 -0.022247 0.063850 0.033710
# 6 -0.024216 -0.014986 -0.004789 -0.025661 0.033710 0.077997
#
#
# Mechanical properties :
#
#
# Convention : Reuss Voigt Hill
#
# Bulk Modulus (GPa) = 16.06877 38.59032 27.32955
# Shear Modulus (GPa) = 18.86928 30.23169 24.55048
#
# Velocity S-wave (km/s) = 3.03209 3.83791 3.45855
# Velocity P-wave (km/s) = 4.48187 6.20012 5.40965
#
# Compressibility (1/GPa) = 0.06223251
#
# Stress axis : x y z
#
# Youngs Moduli (GPa) = 32.28325 87.53055 71.90537
#
# Poissons Ratio (x) = -0.15527 -0.12223
# Poissons Ratio (y) = -0.05727 0.03677
# Poissons Ratio (z) = -0.05488 0.04476
#
# Static dielectric constant tensor:
#      x y z
#    x 1.870630 -0.004640 -0.042480 
#    y -0.004640 1.786610 0.001990 
#    z -0.042480 0.001990 1.812850 
# 
# From -- ./inp_files/541951.got.cif
#   From: 2010.05.17/outbox.cif.g08.bks.cpg/sg2_271_cif.got.tgz:541951.got - 2010.06.03 11:33:40.
