data_PCOD9096879
_publ_section_title
;
Structure prediction by ZEFSAII (Michael W. Deem and Ramdas Pophale) SiO2 
 PCOD9096879
Probable space group: P -1
;
_chemical_formula_sum "Si O2"
_cell_formula_units_Z 12
_cell_length_a 9.365459
_cell_length_b 11.584541
_cell_length_c 11.667614
_cell_angle_alpha 33.531337
_cell_angle_beta 108.522030
_cell_angle_gamma 130.056138
_cell_volume 458.004499
_symmetry_space_group_name_H-M "P -1"
_symmetry_group_IT_number 2
_symmetry_cell_setting 'triclinic'
loop_
_space_group_symop_operation_xyz
x,y,z
-x,-y,-z
loop_
_atom_site_type_symbol
_atom_site_label
_atom_site_fract_x
_atom_site_fract_y
_atom_site_fract_z
Si Si1 0.475006 0.535146 0.831462
Si Si2 0.146231 0.836121 0.943466
Si Si3 0.835615 0.645683 0.483078
Si Si4 0.373954 0.679574 0.082821
Si Si5 0.080711 0.313642 0.782664
Si Si6 0.903255 0.210076 0.365192
O O1 0.460387 0.296820 0.960658
O O2 0.274362 0.475180 0.789527
O O3 0.682207 0.876567 0.556404
O O4 0.500000 0.500000 0.000000
O O5 0.341557 0.895656 0.889405
O O6 0.111508 0.766914 0.128973
O O7 0.939824 0.495409 0.121596
O O8 0.160789 0.097267 0.720605
O O9 0.636212 0.382737 0.733055
O O10 0.839519 0.551902 0.435310
O O11 0.051925 0.792748 0.486183
O O12 0.129924 0.352453 0.251717
O O13 0.000000 0.000000 0.000000
#
# Coordination Sequence:
#
# PCOD9096879 Si02
#       6
#     2   2   2   2   2   2
#     4  12  22  38  59  85 121 151 192 242 285 338
#     4   8  17  36  61  84 117 149 189 232 287 342
#     4   8  17  37  61  83 118 148 185 236 287 334
#     4   8  21  37  62  86 111 155 193 229 294 337
#     4  10  20  36  58  86 117 154 187 233 294 335
#     4   8  20  37  61  85 111 153 192 228 293 336
#
# _framework density 26.200616
#
# number of rings (size 3 to 8) (size 9 to 14) (size 15 to 20)
#    2.000    0.667    0.000    2.500    0.000    4.000 
#    0.000   12.500    0.000    0.000    0.000    0.000 
#    0.000    0.000    0.000    0.000    0.000    0.000 
#
# Total GULP energy -66808.899906 kJ/mol
# GULP energy per Si atom -5567.408326 kJ/mol
# Density = 2.614098 g / cm^3
# Si number density = 26.200616 Si / 1000 Ang^3
#
#
#
# Elastic Constant Matrix: (Units=GPa)
#
#
# Indices 1 2 3 4 5 6 
#
# 1 91.1731 26.8807 5.2565 9.6643 0.1315 -24.8537
# 2 26.8807 91.4677 26.8706 19.1983 -1.9452 -5.0301
# 3 5.2565 26.8706 76.6259 18.9322 12.8115 4.9511
# 4 9.6643 19.1983 18.9322 61.1342 -8.7612 -11.2489
# 5 0.1315 -1.9452 12.8115 -8.7612 27.9974 0.9410
# 6 -24.8537 -5.0301 4.9511 -11.2489 0.9410 42.6942
#
#
#
# Elastic Compliance Matrix: (Units=1/GPa)
#
#
# Indices 1 2 3 4 5 6 
#
# 1 0.014224 -0.003776 -0.000208 0.000416 -0.000372 0.007978
# 2 -0.003776 0.013799 -0.004389 -0.002170 0.002329 -0.000686
# 3 -0.000208 -0.004389 0.018260 -0.006539 -0.010563 -0.004246
# 4 0.000416 -0.002170 -0.006539 0.021479 0.009352 0.006198
# 5 -0.000372 0.002329 -0.010563 0.009352 0.043548 0.002787
# 6 0.007978 -0.000686 -0.004246 0.006198 0.002787 0.030049
#
#
# Mechanical properties :
#
#
# Convention : Reuss Voigt Hill
#
# Bulk Modulus (GPa) = 33.85434 41.92026 37.88730
# Shear Modulus (GPa) = 29.77081 39.71574 34.74328
#
# Velocity S-wave (km/s) = 3.37451 3.89759 3.64544
# Velocity P-wave (km/s) = 5.30399 6.02407 5.67546
#
# Compressibility (1/GPa) = 0.02953831
#
# Stress axis : x y z
#
# Youngs Moduli (GPa) = 70.30132 72.46913 54.76574
#
# Poissons Ratio (x) = 0.27363 0.01138
# Poissons Ratio (y) = 0.26544 0.24036
# Poissons Ratio (z) = 0.01461 0.31805
#
# Static dielectric constant tensor:
#      x y z
#    x 2.085340 0.041270 -0.009680 
#    y 0.041270 2.132570 0.034150 
#    z -0.009680 0.034150 2.137030 
# 
# From -- ./inp_files/422861.got.cif
#   From: 2010.05.17/outbox.cif.g08.bks.cpg/sg2_212_cif.got.tgz:422861.got - 2010.06.03 11:33:40.
