data_PCOD9096074
_publ_section_title
;
Structure prediction by ZEFSAII (Michael W. Deem and Ramdas Pophale) SiO2 
 PCOD9096074
Probable space group: P -1
;
_chemical_formula_sum "Si O2"
_cell_formula_units_Z 16
_cell_length_a 11.761455
_cell_length_b 26.748902
_cell_length_c 11.376821
_cell_angle_alpha 156.647409
_cell_angle_beta 36.580201
_cell_angle_gamma 149.520259
_cell_volume 718.399790
_symmetry_space_group_name_H-M "P -1"
_symmetry_group_IT_number 2
_symmetry_cell_setting 'triclinic'
loop_
_space_group_symop_operation_xyz
x,y,z
-x,-y,-z
loop_
_atom_site_type_symbol
_atom_site_label
_atom_site_fract_x
_atom_site_fract_y
_atom_site_fract_z
Si Si1 0.701233 0.166925 0.669443
Si Si2 0.341990 0.526154 0.101110
Si Si3 0.576328 0.649828 0.527630
Si Si4 0.889246 0.126696 0.769064
Si Si5 0.833149 0.357126 0.209491
Si Si6 0.017747 0.086839 0.316952
Si Si7 0.624864 0.750866 0.959923
Si Si8 0.687557 0.791719 0.253123
O O1 0.763086 0.268505 0.952294
O O2 0.589876 0.228585 0.808108
O O3 0.909034 0.144703 0.435735
O O4 0.500000 0.000000 0.500000
O O5 0.309615 0.426989 0.798512
O O6 0.098605 0.474936 0.243200
O O7 0.500000 0.500000 0.000000
O O8 0.485904 0.692964 0.295267
O O9 0.722741 0.824774 0.743972
O O10 0.331768 0.582001 0.525972
O O11 0.579443 0.648509 0.663301
O O12 0.789645 0.231727 0.069793
O O13 0.000933 0.140236 0.577098
O O14 0.084042 0.179467 0.816258
O O15 0.718925 0.951970 0.551572
O O16 0.851263 0.910135 0.084900
O O17 0.656708 0.712743 0.982506
#
# Coordination Sequence:
#
# PCOD9096074 Si02
#       8
#     2   2   2   2   2   2   2   2
#     4   8  14  29  54  84 113 146 192 234 278 341
#     4  12  23  41  63  86 115 163 199 243 300 350
#     4  11  21  35  62  89 121 153 196 248 288 351
#     4   9  17  37  63  87 113 156 199 249 290 342
#     4  10  20  37  62  93 112 150 209 241 287 349
#     4   9  15  32  59  86 116 154 198 244 290 335
#     4   9  19  31  54  89 119 153 194 240 296 351
#     4  10  20  35  62  84 122 159 192 241 305 348
#
# _framework density 22.271722
#
# number of rings (size 3 to 8) (size 9 to 14) (size 15 to 20)
#    0.000    2.250    3.750    1.125    0.000    1.000 
#    0.000    2.500    8.250    4.500    0.000    0.000 
#    0.000    0.000    0.000    0.000    0.000    0.000 
#
# Total GULP energy -89218.878328 kJ/mol
# GULP energy per Si atom -5576.179895 kJ/mol
# Density = 2.222103 g / cm^3
# Si number density = 22.271722 Si / 1000 Ang^3
#
#
#
# Elastic Constant Matrix: (Units=GPa)
#
#
# Indices 1 2 3 4 5 6 
#
# 1 125.3551 31.9038 21.8170 -4.8006 16.9595 4.0545
# 2 31.9038 115.8230 14.6513 8.3683 -8.2256 5.7949
# 3 21.8170 14.6513 45.2184 -2.7582 11.3340 -6.1097
# 4 -4.8006 8.3683 -2.7582 28.8046 2.0588 -1.9205
# 5 16.9595 -8.2256 11.3340 2.0588 26.5392 2.0106
# 6 4.0545 5.7949 -6.1097 -1.9205 2.0106 34.4134
#
#
#
# Elastic Compliance Matrix: (Units=1/GPa)
#
#
# Indices 1 2 3 4 5 6 
#
# 1 0.010205 -0.003223 -0.002052 0.002898 -0.006834 -0.000463
# 2 -0.003223 0.011254 -0.004901 -0.005077 0.008273 -0.003152
# 3 -0.002052 -0.004901 0.029474 0.005382 -0.013773 0.007405
# 4 0.002898 -0.005077 0.005382 0.038108 -0.008993 0.004121
# 5 -0.006834 0.008273 -0.013773 -0.008993 0.051688 -0.006555
# 6 -0.000463 -0.003152 0.007405 0.004121 -0.006555 0.031571
#
#
# Mechanical properties :
#
#
# Convention : Reuss Voigt Hill
#
# Bulk Modulus (GPa) = 32.70007 47.01565 39.85786
# Shear Modulus (GPa) = 24.64933 32.48640 28.56786
#
# Velocity S-wave (km/s) = 3.33040 3.82336 3.58536
# Velocity P-wave (km/s) = 5.43166 6.37547 5.92240
#
# Compressibility (1/GPa) = 0.03058097
#
# Stress axis : x y z
#
# Youngs Moduli (GPa) = 97.98776 88.86005 33.92816
#
# Poissons Ratio (x) = 0.28640 0.06964
# Poissons Ratio (y) = 0.31582 0.16627
# Poissons Ratio (z) = 0.20112 0.43546
#
# Static dielectric constant tensor:
#      x y z
#    x 1.832960 0.021680 0.010700 
#    y 0.021680 1.841430 0.002390 
#    z 0.010700 0.002390 1.907220 
# 
# From -- ./inp_files/439499.got.cif
#   From: 2010.05.17/outbox.cif.g08.bks.cpg/sg2_220_cif.got.tgz:439499.got - 2010.06.03 11:33:40.
