data_PCOD9096289
_publ_section_title
;
Structure prediction by ZEFSAII (Michael W. Deem and Ramdas Pophale) SiO2 
 PCOD9096289
Probable space group: P -1
;
_chemical_formula_sum "Si O2"
_cell_formula_units_Z 16
_cell_length_a 9.282268
_cell_length_b 13.719125
_cell_length_c 8.731092
_cell_angle_alpha 105.844971
_cell_angle_beta 130.596106
_cell_angle_gamma 90.933338
_cell_volume 783.017800
_symmetry_space_group_name_H-M "P -1"
_symmetry_group_IT_number 2
_symmetry_cell_setting 'triclinic'
loop_
_space_group_symop_operation_xyz
x,y,z
-x,-y,-z
loop_
_atom_site_type_symbol
_atom_site_label
_atom_site_fract_x
_atom_site_fract_y
_atom_site_fract_z
Si Si1 0.723399 0.274731 0.561750
Si Si2 0.507668 0.902567 0.858198
Si Si3 0.377571 0.761376 0.971264
Si Si4 0.307737 0.263469 0.400483
Si Si5 0.116362 0.812682 0.069848
Si Si6 0.043545 0.607499 0.479671
Si Si7 0.617228 0.610436 0.201388
Si Si8 0.686777 0.964153 0.683033
O O1 0.690574 0.166510 0.393379
O O2 0.501973 0.281886 0.439589
O O3 0.821245 0.252265 0.776881
O O4 0.838617 0.376429 0.591391
O O5 0.527586 0.822165 0.971241
O O6 0.652140 0.940131 0.831087
O O7 0.500000 0.000000 0.000000
O O8 0.185328 0.691542 0.723211
O O9 0.282653 0.822610 0.056819
O O10 0.490321 0.688419 0.100963
O O11 0.346481 0.363575 0.582198
O O12 0.296666 0.147863 0.419870
O O13 0.100162 0.244405 0.163739
O O14 0.133544 0.933869 0.177224
O O15 0.000000 0.500000 0.500000
O O16 0.839858 0.632722 0.307891
O O17 0.500000 0.500000 0.000000
O O18 0.500000 0.000000 0.500000
#
# Coordination Sequence:
#
# PCOD9096289 Si02
#       8
#     2   2   2   2   2   2   2   2
#     4  10  24  42  67  96 135 170 221 276 336 389
#     4  10  20  35  64  98 134 178 217 260 332 396
#     4  11  22  40  69  96 139 174 215 282 331 391
#     4  11  24  41  66 101 132 176 229 271 330 405
#     4  12  21  41  70  96 137 180 217 272 335 396
#     4  11  24  46  68  95 130 173 226 278 339 397
#     4  12  24  43  71  97 128 178 224 278 344 390
#     4  11  20  40  66  93 139 182 217 269 331 395
#
# _framework density 20.433762999999999
#
# number of rings (size 3 to 8) (size 9 to 14) (size 15 to 20)
#    0.000    1.000    7.500    0.375    0.000    3.000 
#    0.000    3.125    0.000    6.750    0.000    0.000 
#    0.000    0.000    0.000    0.000    0.000    0.000 
#
# Total GULP energy -89085.627886 kJ/mol
# GULP energy per Si atom -5567.851743 kJ/mol
# Density = 2.038725 g / cm^3
# Si number density = 20.433763 Si / 1000 Ang^3
#
#
#
# Elastic Constant Matrix: (Units=GPa)
#
#
# Indices 1 2 3 4 5 6 
#
# 1 89.2272 35.0477 42.1373 -1.7727 8.7737 11.1194
# 2 35.0477 63.7281 25.3427 7.4515 -0.8245 13.7209
# 3 42.1373 25.3427 122.4284 0.3263 7.3729 -1.2108
# 4 -1.7727 7.4515 0.3263 31.6459 -8.3285 -1.0028
# 5 8.7737 -0.8245 7.3729 -8.3285 37.4710 -3.5498
# 6 11.1194 13.7209 -1.2108 -1.0028 -3.5498 33.9914
#
#
#
# Elastic Compliance Matrix: (Units=1/GPa)
#
#
# Indices 1 2 3 4 5 6 
#
# 1 0.016664 -0.007130 -0.004104 0.001731 -0.003150 -0.002997
# 2 -0.007130 0.022745 -0.002349 -0.005774 0.000683 -0.007032
# 3 -0.004104 -0.002349 0.010142 0.000083 -0.000824 0.002568
# 4 0.001731 -0.005774 0.000083 0.035172 0.007610 0.003600
# 5 -0.003150 0.000683 -0.000824 0.007610 0.029677 0.004049
# 6 -0.002997 -0.007032 0.002568 0.003600 0.004049 0.033859
#
#
# Mechanical properties :
#
#
# Convention : Reuss Voigt Hill
#
# Bulk Modulus (GPa) = 44.67570 53.38210 49.02890
# Shear Modulus (GPa) = 27.33932 32.14539 29.74236
#
# Velocity S-wave (km/s) = 3.66177 3.97060 3.81931
# Velocity P-wave (km/s) = 6.30787 6.87038 6.59512
#
# Compressibility (1/GPa) = 0.02238354
#
# Stress axis : x y z
#
# Youngs Moduli (GPa) = 60.01061 43.96542 98.60297
#
# Poissons Ratio (x) = 0.31348 0.40466
# Poissons Ratio (y) = 0.42789 0.23166
# Poissons Ratio (z) = 0.24628 0.10330
#
# Static dielectric constant tensor:
#      x y z
#    x 1.845690 0.017380 -0.170330 
#    y 0.017380 1.785740 -0.006860 
#    z -0.170330 -0.006860 2.070130 
# 
# From -- ./inp_files/203384.got.cif
#   From: 2010.05.17/outbox.cif.g08.bks.cpg/sg2_102_cif.got.tgz:203384.got - 2010.06.03 11:33:40.
