data_PCOD9096015
_publ_section_title
;
Structure prediction by ZEFSAII (Michael W. Deem and Ramdas Pophale) SiO2 
 PCOD9096015
Probable space group: P -1
;
_chemical_formula_sum "Si O2"
_cell_formula_units_Z 16
_cell_length_a 15.583477
_cell_length_b 15.384988
_cell_length_c 9.547983
_cell_angle_alpha 42.824767
_cell_angle_beta 37.838456
_cell_angle_gamma 39.595245
_cell_volume 848.124164
_symmetry_space_group_name_H-M "P -1"
_symmetry_group_IT_number 2
_symmetry_cell_setting 'triclinic'
loop_
_space_group_symop_operation_xyz
x,y,z
-x,-y,-z
loop_
_atom_site_type_symbol
_atom_site_label
_atom_site_fract_x
_atom_site_fract_y
_atom_site_fract_z
Si Si1 0.999945 0.543878 0.608305
Si Si2 0.776987 0.146523 0.048489
Si Si3 0.091485 0.133028 0.600240
Si Si4 0.665294 0.635094 0.950491
Si Si5 0.533784 0.838447 0.637193
Si Si6 0.307976 0.335520 0.629708
Si Si7 0.356078 0.151869 0.049665
Si Si8 0.433531 0.573205 0.847036
O O1 0.971001 0.706896 0.450020
O O2 0.000000 0.500000 0.500000
O O3 0.152804 0.448366 0.615880
O O4 0.845216 0.544461 0.874161
O O5 0.625328 0.175557 0.117648
O O6 0.714852 0.275779 0.092040
O O7 0.825264 0.996845 0.244034
O O8 0.926140 0.130456 0.785378
O O9 0.221610 0.121618 0.332801
O O10 0.607468 0.526028 0.086989
O O11 0.658894 0.734120 0.709190
O O12 0.587480 0.756201 0.027875
O O13 0.593763 0.784880 0.468898
O O14 0.500000 0.000000 0.500000
O O15 0.426645 0.402378 0.430266
O O16 0.282741 0.256211 0.888291
O O17 0.500000 0.000000 0.000000
O O18 0.500000 0.500000 0.000000
#
# Coordination Sequence:
#
# PCOD9096015 Si02
#       8
#     2   2   2   2   2   2   2   2
#     4  11  20  37  60  97 124 155 214 271 306 374
#     4  10  20  35  61  93 121 162 208 265 322 364
#     4  10  22  37  59  89 124 166 205 261 322 372
#     4  11  22  36  64  91 124 167 208 262 313 361
#     4  11  20  36  61  95 115 160 217 259 305 372
#     4  11  23  37  67  89 128 172 200 261 329 365
#     4  11  24  44  62  91 131 172 209 257 317 393
#     4  11  19  39  62  98 123 158 214 271 315 370
#
# _framework density 18.865162000000002
#
# number of rings (size 3 to 8) (size 9 to 14) (size 15 to 20)
#    0.000    1.250    3.750    5.250    0.000    2.500 
#    0.000    0.000    2.750    1.500    0.000    0.000 
#    0.000    0.000    0.000    0.000    0.000    0.000 
#
# Total GULP energy -89161.374042 kJ/mol
# GULP energy per Si atom -5572.585878 kJ/mol
# Density = 1.882222 g / cm^3
# Si number density = 18.865162 Si / 1000 Ang^3
#
#
#
# Elastic Constant Matrix: (Units=GPa)
#
#
# Indices 1 2 3 4 5 6 
#
# 1 81.3904 51.2106 37.7176 -4.1293 -15.8943 3.9072
# 2 51.2106 131.1653 49.2862 -10.7704 -18.1250 7.6452
# 3 37.7176 49.2862 115.6373 -2.1533 -9.3838 -7.9640
# 4 -4.1293 -10.7704 -2.1533 30.2360 -3.1452 -5.5234
# 5 -15.8943 -18.1250 -9.3838 -3.1452 31.5219 2.2015
# 6 3.9072 7.6452 -7.9640 -5.5234 2.2015 32.7666
#
#
#
# Elastic Compliance Matrix: (Units=1/GPa)
#
#
# Indices 1 2 3 4 5 6 
#
# 1 0.018193 -0.004808 -0.003569 0.000700 0.005568 -0.002171
# 2 -0.004808 0.011651 -0.003210 0.003179 0.003821 -0.002646
# 3 -0.003569 -0.003210 0.011406 -0.000152 -0.000542 0.003958
# 4 0.000700 0.003179 -0.000152 0.035725 0.005365 0.004799
# 5 0.005568 0.003821 -0.000542 0.005365 0.037332 -0.003291
# 6 -0.002171 -0.002646 0.003958 0.004799 -0.003291 0.033387
#
#
# Mechanical properties :
#
#
# Convention : Reuss Voigt Hill
#
# Bulk Modulus (GPa) = 55.32923 67.18018 61.25470
# Shear Modulus (GPa) = 28.26533 31.57017 29.91775
#
# Velocity S-wave (km/s) = 3.87496 4.09524 3.98662
# Velocity P-wave (km/s) = 7.02943 7.61901 7.33015
#
# Compressibility (1/GPa) = 0.01807363
#
# Stress axis : x y z
#
# Youngs Moduli (GPa) = 54.96614 85.83021 87.67320
#
# Poissons Ratio (x) = 0.41271 0.31293
# Poissons Ratio (y) = 0.26430 0.28146
# Poissons Ratio (z) = 0.19619 0.27555
#
# Static dielectric constant tensor:
#      x y z
#    x 1.683420 0.005370 -0.045280 
#    y 0.005370 1.706880 0.020980 
#    z -0.045280 0.020980 1.679320 
# 
# From -- ./inp_files/314468.got.cif
#   From: 2010.05.17/outbox.cif.g08.bks.cpg/sg2_158_cif.got.tgz:314468.got - 2010.06.03 11:33:40.
