data_PCOD9096811
_publ_section_title
;
Structure prediction by ZEFSAII (Michael W. Deem and Ramdas Pophale) SiO2 
 PCOD9096811
Probable space group: P -1
;
_chemical_formula_sum "Si O2"
_cell_formula_units_Z 16
_cell_length_a 14.395217
_cell_length_b 8.019115
_cell_length_c 14.316730
_cell_angle_alpha 68.204527
_cell_angle_beta 32.938310
_cell_angle_gamma 90.272990
_cell_volume 650.233870
_symmetry_space_group_name_H-M "P -1"
_symmetry_group_IT_number 2
_symmetry_cell_setting 'triclinic'
loop_
_space_group_symop_operation_xyz
x,y,z
-x,-y,-z
loop_
_atom_site_type_symbol
_atom_site_label
_atom_site_fract_x
_atom_site_fract_y
_atom_site_fract_z
Si Si1 0.383194 0.143408 0.114337
Si Si2 0.807024 0.469746 0.901866
Si Si3 0.275811 0.878593 0.083311
Si Si4 0.345760 0.360258 0.267284
Si Si5 0.103225 0.975774 0.038479
Si Si6 0.661384 0.699110 0.393664
Si Si7 0.101551 0.921519 0.671541
Si Si8 0.530498 0.141759 0.354484
O O1 0.282430 0.228953 0.248590
O O2 0.236513 0.961063 0.195035
O O3 0.486720 0.053683 0.108846
O O4 0.591621 0.390034 0.842434
O O5 0.577308 0.417574 0.085450
O O6 0.747194 0.301506 0.076012
O O7 0.863464 0.384068 0.782674
O O8 0.974226 0.727745 0.741793
O O9 0.253757 0.994850 0.989379
O O10 0.171017 0.165748 0.526378
O O11 0.032178 0.123593 0.111960
O O12 0.227292 0.081186 0.814695
O O13 0.867174 0.733846 0.260421
O O14 0.500000 0.500000 0.500000
O O15 0.520545 0.694105 0.595469
O O16 0.324244 0.964461 0.498967
O O17 0.500000 0.000000 0.500000
#
# Coordination Sequence:
#
# PCOD9096811 Si02
#       8
#     2   2   2   2   2   2   2   2
#     4   9  19  38  62  84 115 153 192 240 288 340
#     4  10  20  36  58  83 114 151 191 235 282 338
#     4  10  20  36  58  86 118 150 185 239 294 332
#     4   9  19  39  61  81 110 153 195 232 282 341
#     4  10  21  37  56  84 116 145 189 235 279 343
#     4  10  21  37  59  83 110 149 189 231 284 336
#     4  10  21  37  58  82 112 153 193 232 285 343
#     4  10  21  36  56  84 113 148 191 233 286 342
#
# _framework density 24.606532000000001
#
# number of rings (size 3 to 8) (size 9 to 14) (size 15 to 20)
#    0.000    2.250    0.000    2.250    0.000    3.500 
#    0.000   16.250    0.000    0.000    0.000    0.000 
#    0.000    0.000    0.000    0.000    0.000    0.000 
#
# Total GULP energy -89255.219031 kJ/mol
# GULP energy per Si atom -5578.451189 kJ/mol
# Density = 2.455053 g / cm^3
# Si number density = 24.606532 Si / 1000 Ang^3
#
#
#
# Elastic Constant Matrix: (Units=GPa)
#
#
# Indices 1 2 3 4 5 6 
#
# 1 156.5649 32.5453 29.6532 -10.2634 -4.7204 19.0598
# 2 32.5453 116.1094 32.7387 -11.3527 -13.2646 47.6728
# 3 29.6532 32.7387 60.8632 -9.0586 0.7254 12.8287
# 4 -10.2634 -11.3527 -9.0586 25.3817 9.6629 -3.3843
# 5 -4.7204 -13.2646 0.7254 9.6629 34.5883 -8.3587
# 6 19.0598 47.6728 12.8287 -3.3843 -8.3587 53.2238
#
#
#
# Elastic Compliance Matrix: (Units=1/GPa)
#
#
# Indices 1 2 3 4 5 6 
#
# 1 0.007288 -0.000564 -0.002744 0.001502 0.000094 -0.001333
# 2 -0.000564 0.015747 -0.005330 0.002352 0.002499 -0.012076
# 3 -0.002744 -0.005330 0.021516 0.005918 -0.004464 0.000246
# 4 0.001502 0.002352 0.005918 0.047746 -0.013103 -0.003092
# 5 0.000094 0.002499 -0.004464 -0.013103 0.034454 0.003382
# 6 -0.001333 -0.012076 0.000246 -0.003092 0.003382 0.030358
#
#
# Mechanical properties :
#
#
# Convention : Reuss Voigt Hill
#
# Bulk Modulus (GPa) = 36.66357 58.15687 47.41022
# Shear Modulus (GPa) = 27.25144 38.54544 32.89844
#
# Velocity S-wave (km/s) = 3.33150 3.96216 3.66044
# Velocity P-wave (km/s) = 5.45260 6.67965 6.09707
#
# Compressibility (1/GPa) = 0.02727503
#
# Stress axis : x y z
#
# Youngs Moduli (GPa) = 137.21917 63.50296 46.47649
#
# Poissons Ratio (x) = 0.03583 0.12752
# Poissons Ratio (y) = 0.07743 0.24772
# Poissons Ratio (z) = 0.37650 0.33847
#
# Static dielectric constant tensor:
#      x y z
#    x 2.046240 -0.067500 0.027150 
#    y -0.067500 2.008800 0.010960 
#    z 0.027150 0.010960 1.997850 
# 
# From -- ./inp_files/207243.got.cif
#   From: 2010.05.17/outbox.cif.g08.bks.cpg/sg2_104_cif.got.tgz:207243.got - 2010.06.03 11:33:40.
