data_PCOD9096564
_publ_section_title
;
Structure prediction by ZEFSAII (Michael W. Deem and Ramdas Pophale) SiO2 
 PCOD9096564
Probable space group: P -1
;
_chemical_formula_sum "Si O2"
_cell_formula_units_Z 12
_cell_length_a 6.204851
_cell_length_b 14.764808
_cell_length_c 9.357999
_cell_angle_alpha 100.509263
_cell_angle_beta 52.317807
_cell_angle_gamma 124.770660
_cell_volume 538.817908
_symmetry_space_group_name_H-M "P -1"
_symmetry_group_IT_number 2
_symmetry_cell_setting 'triclinic'
loop_
_space_group_symop_operation_xyz
x,y,z
-x,-y,-z
loop_
_atom_site_type_symbol
_atom_site_label
_atom_site_fract_x
_atom_site_fract_y
_atom_site_fract_z
Si Si1 0.743789 0.659459 0.041145
Si Si2 0.635042 0.813461 0.320765
Si Si3 0.401187 0.063155 0.860471
Si Si4 0.703381 0.943524 0.782438
Si Si5 0.601060 0.439087 0.142212
Si Si6 0.470753 0.728216 0.671174
O O1 0.750897 0.753035 0.156230
O O2 0.556718 0.539729 0.168872
O O3 0.556191 0.636051 0.959285
O O4 0.114818 0.696137 0.864519
O O5 0.439678 0.843195 0.300984
O O6 0.460909 0.736018 0.507575
O O7 0.946480 0.935901 0.290286
O O8 0.492113 0.974402 0.783601
O O9 0.485087 0.105957 0.002426
O O10 0.000000 0.000000 0.000000
O O11 0.736850 0.853622 0.665353
O O12 0.466843 0.359865 0.313487
O O13 0.000000 0.500000 0.000000
#
# Coordination Sequence:
#
# PCOD9096564 Si02
#       6
#     2   2   2   2   2   2
#     4  10  21  41  62  84 116 151 193 241 290 342
#     4  11  23  36  59  91 119 153 193 235 284 342
#     4   9  18  33  53  78 111 155 194 228 275 329
#     4  10  20  36  56  84 123 159 190 229 282 343
#     4   9  21  42  64  83 112 153 192 242 297 342
#     4  11  22  37  60  89 119 153 193 236 285 341
#
# _framework density 22.270975
#
# number of rings (size 3 to 8) (size 9 to 14) (size 15 to 20)
#    0.000    2.000    0.000    4.500    0.000    5.333 
#    0.000    7.500    0.000    0.000    0.000    0.000 
#    0.000    0.000    0.000    0.000    0.000    0.000 
#
# Total GULP energy -67011.847792 kJ/mol
# GULP energy per Si atom -5584.320649 kJ/mol
# Density = 2.222029 g / cm^3
# Si number density = 22.270975 Si / 1000 Ang^3
#
#
#
# Elastic Constant Matrix: (Units=GPa)
#
#
# Indices 1 2 3 4 5 6 
#
# 1 101.3411 28.4684 36.4530 -15.5681 38.8120 -21.6725
# 2 28.4684 75.3632 34.0698 -6.5914 16.9110 2.3353
# 3 36.4530 34.0698 77.8237 -16.0189 40.9195 -19.8300
# 4 -15.5681 -6.5914 -16.0189 13.4344 -10.6409 13.3879
# 5 38.8120 16.9110 40.9195 -10.6409 44.8241 -19.4807
# 6 -21.6725 2.3353 -19.8300 13.3879 -19.4807 34.2040
#
#
#
# Elastic Compliance Matrix: (Units=1/GPa)
#
#
# Indices 1 2 3 4 5 6 
#
# 1 0.016501 -0.004011 0.002908 0.008910 -0.012538 0.001787
# 2 -0.004011 0.019294 -0.008392 0.005975 0.000619 -0.010710
# 3 0.002908 -0.008392 0.031257 0.017631 -0.023621 0.000183
# 4 0.008910 0.005975 0.017631 0.148402 -0.012440 -0.049712
# 5 -0.012538 0.000619 -0.023621 -0.012440 0.058788 0.016670
# 6 0.001787 -0.010710 0.000183 -0.049712 0.016670 0.060158
#
#
# Mechanical properties :
#
#
# Convention : Reuss Voigt Hill
#
# Bulk Modulus (GPa) = 20.80630 50.27893 35.54262
# Shear Modulus (GPa) = 13.53515 28.86164 21.19839
#
# Velocity S-wave (km/s) = 2.46793 3.60381 3.08854
# Velocity P-wave (km/s) = 4.18133 6.31994 5.35841
#
# Compressibility (1/GPa) = 0.04806237
#
# Stress axis : x y z
#
# Youngs Moduli (GPa) = 60.60283 51.83042 31.99286
#
# Poissons Ratio (x) = 0.20788 -0.09305
# Poissons Ratio (y) = 0.24306 0.26849
# Poissons Ratio (z) = -0.17626 0.43498
#
# Static dielectric constant tensor:
#      x y z
#    x 1.838090 0.003690 0.031850 
#    y 0.003690 1.852080 -0.072600 
#    z 0.031850 -0.072600 1.859520 
# 
# From -- ./inp_files/21795.got.cif
#   From: 2010.05.17/outbox.cif.g08.bks.cpg/sg2_11_cif.got.tgz:21795.got - 2010.06.03 11:33:40.
