data_PCOD9096316
_publ_section_title
;
Structure prediction by ZEFSAII (Michael W. Deem and Ramdas Pophale) SiO2 
 PCOD9096316
Probable space group: P -1
;
_chemical_formula_sum "Si O2"
_cell_formula_units_Z 14
_cell_length_a 9.782058
_cell_length_b 18.332053
_cell_length_c 9.201938
_cell_angle_alpha 125.764744
_cell_angle_beta 75.181431
_cell_angle_gamma 59.598262
_cell_volume 710.914586
_symmetry_space_group_name_H-M "P -1"
_symmetry_group_IT_number 2
_symmetry_cell_setting 'triclinic'
loop_
_space_group_symop_operation_xyz
x,y,z
-x,-y,-z
loop_
_atom_site_type_symbol
_atom_site_label
_atom_site_fract_x
_atom_site_fract_y
_atom_site_fract_z
Si Si1 0.555454 0.215561 0.356782
Si Si2 0.774203 0.366196 0.850907
Si Si3 0.870758 0.116575 0.533327
Si Si4 0.711839 0.591712 0.046768
Si Si5 0.095391 0.485025 0.610377
Si Si6 0.772539 0.380256 0.216097
Si Si7 0.988660 0.103381 0.999738
O O1 0.378043 0.325851 0.674672
O O2 0.370804 0.298618 0.367863
O O3 0.725483 0.215834 0.283853
O O4 0.765346 0.027768 0.114885
O O5 0.929763 0.190866 0.581667
O O6 0.500000 0.500000 0.000000
O O7 0.858269 0.418761 0.828331
O O8 0.751963 0.386175 0.054502
O O9 0.558785 0.277712 0.813388
O O10 0.000000 0.000000 0.500000
O O11 0.958624 0.009837 0.250339
O O12 0.888303 0.565809 0.881091
O O13 0.138080 0.569007 0.700751
O O14 0.000000 0.500000 0.500000
O O15 0.500000 0.500000 0.500000
O O16 0.961090 0.204913 0.026826
#
# Coordination Sequence:
#
# PCOD9096316 Si02
#       7
#     2   2   2   2   2   2   2
#     4  10  21  42  67  91 130 171 210 270 323 381
#     4  10  21  36  65  98 126 168 214 267 313 384
#     4  10  20  35  65  98 132 163 211 269 316 384
#     4  10  22  42  62  93 132 172 214 261 331 382
#     4  12  27  42  65  96 134 175 216 271 330 391
#     4  12  23  41  68  96 128 172 226 268 317 393
#     4  10  21  40  68  98 125 164 226 268 324 377
#
# _framework density 19.692941999999999
#
# number of rings (size 3 to 8) (size 9 to 14) (size 15 to 20)
#    0.000    1.429    4.286    0.429    6.000    0.000 
#    0.000    5.000    0.000    0.000    0.000    0.000 
#    0.000    0.000    0.000    0.000    0.000    0.000 
#
# Total GULP energy -78132.884546 kJ/mol
# GULP energy per Si atom -5580.920325 kJ/mol
# Density = 1.964812 g / cm^3
# Si number density = 19.692942 Si / 1000 Ang^3
#
#
#
# Elastic Constant Matrix: (Units=GPa)
#
#
# Indices 1 2 3 4 5 6 
#
# 1 120.0269 73.0835 51.2315 -4.0006 6.2207 10.6856
# 2 73.0835 176.2560 47.7711 20.4098 6.0022 -7.2366
# 3 51.2315 47.7711 71.5358 5.4248 4.0400 10.6217
# 4 -4.0006 20.4098 5.4248 32.7989 4.5210 -2.3758
# 5 6.2207 6.0022 4.0400 4.5210 28.9597 0.4394
# 6 10.6856 -7.2366 10.6217 -2.3758 0.4394 50.2428
#
#
#
# Elastic Compliance Matrix: (Units=1/GPa)
#
#
# Indices 1 2 3 4 5 6 
#
# 1 0.015058 -0.004938 -0.007548 0.006304 -0.002112 -0.002001
# 2 -0.004938 0.009179 -0.002571 -0.005749 0.000374 0.002641
# 3 -0.007548 -0.002571 0.021885 -0.003148 -0.000354 -0.003537
# 4 0.006304 -0.005749 -0.003148 0.036114 -0.005365 0.000251
# 5 -0.002112 0.000374 -0.000354 -0.005365 0.035793 0.000011
# 6 -0.002001 0.002641 -0.003537 0.000251 0.000011 0.021469
#
#
# Mechanical properties :
#
#
# Convention : Reuss Voigt Hill
#
# Bulk Modulus (GPa) = 62.46451 79.11009 70.78730
# Shear Modulus (GPa) = 28.58003 35.44912 32.01458
#
# Velocity S-wave (km/s) = 3.81370 4.24735 4.03636
# Velocity P-wave (km/s) = 7.15406 8.01950 7.59911
#
# Compressibility (1/GPa) = 0.01600909
#
# Stress axis : x y z
#
# Youngs Moduli (GPa) = 66.41165 108.94120 45.69344
#
# Poissons Ratio (x) = 0.53796 0.34488
# Poissons Ratio (y) = 0.32795 0.11746
# Poissons Ratio (z) = 0.50126 0.28004
#
# Static dielectric constant tensor:
#      x y z
#    x 1.702400 -0.015180 0.002350 
#    y -0.015180 1.740920 0.023190 
#    z 0.002350 0.023190 1.708100 
# 
# From -- ./inp_files/218579.got.cif
#   From: 2010.05.17/outbox.cif.g08.bks.cpg/sg2_110_cif.got.tgz:218579.got - 2010.06.03 11:33:40.
