data_PCOD9096449
_publ_section_title
;
Structure prediction by ZEFSAII (Michael W. Deem and Ramdas Pophale) SiO2 
 PCOD9096449
Probable space group: P -1
;
_chemical_formula_sum "Si O2"
_cell_formula_units_Z 14
_cell_length_a 18.175317
_cell_length_b 21.230162
_cell_length_c 8.859086
_cell_angle_alpha 138.921883
_cell_angle_beta 128.729344
_cell_angle_gamma 19.726787
_cell_volume 701.783760
_symmetry_space_group_name_H-M "P -1"
_symmetry_group_IT_number 2
_symmetry_cell_setting 'triclinic'
loop_
_space_group_symop_operation_xyz
x,y,z
-x,-y,-z
loop_
_atom_site_type_symbol
_atom_site_label
_atom_site_fract_x
_atom_site_fract_y
_atom_site_fract_z
Si Si1 0.448350 0.436369 0.655980
Si Si2 0.126909 0.555856 0.399278
Si Si3 0.404266 0.228349 0.882096
Si Si4 0.834938 0.125393 0.371060
Si Si5 0.740969 0.063177 0.899622
Si Si6 0.143047 0.322353 0.501114
Si Si7 0.194076 0.865959 0.171523
O O1 0.325483 0.449683 0.498814
O O2 0.577918 0.360301 0.538676
O O3 0.641828 0.243077 0.685545
O O4 0.269894 0.684359 0.929140
O O5 0.055139 0.544746 0.411022
O O6 0.216438 0.422517 0.122484
O O7 0.892970 0.838740 0.608952
O O8 0.494638 0.243614 0.952543
O O9 0.279209 0.277869 0.688272
O O10 0.644122 0.952576 0.753265
O O11 0.844738 0.012179 0.095710
O O12 0.000000 0.000000 0.500000
O O13 0.927267 0.113110 0.339042
O O14 0.748245 0.138496 0.919408
O O15 0.000000 0.500000 0.500000
#
# Coordination Sequence:
#
# PCOD9096449 Si02
#       7
#     2   2   2   2   2   2   2
#     4  10  21  37  58  85 122 166 202 249 299 354
#     4  11  22  40  64  89 124 158 201 253 314 363
#     4  10  23  45  65  94 128 155 200 259 314 369
#     4  10  20  36  55  80 120 164 205 244 291 347
#     4  11  22  38  61  90 124 164 206 251 301 361
#     4  10  24  45  70  93 120 157 202 257 315 381
#     4  10  22  37  56  85 126 164 206 247 294 355
#
# _framework density 19.949164
#
# number of rings (size 3 to 8) (size 9 to 14) (size 15 to 20)
#    0.000    1.714    2.857    0.857    2.000    2.286 
#    2.571    0.000    0.000    0.000    0.000    0.000 
#    0.000    0.000    0.000    0.000    0.000    0.000 
#
# Total GULP energy -77976.699608 kJ/mol
# GULP energy per Si atom -5569.764258 kJ/mol
# Density = 1.990376 g / cm^3
# Si number density = 19.949164 Si / 1000 Ang^3
#
#
#
# Elastic Constant Matrix: (Units=GPa)
#
#
# Indices 1 2 3 4 5 6 
#
# 1 124.4284 42.9202 6.0606 -8.2879 -7.7111 -18.1853
# 2 42.9202 63.3191 8.1309 3.3342 0.2507 1.2397
# 3 6.0606 8.1309 46.3012 -4.0222 -13.3459 -0.5949
# 4 -8.2879 3.3342 -4.0222 13.6701 -17.9400 -6.3053
# 5 -7.7111 0.2507 -13.3459 -17.9400 28.6461 -0.2369
# 6 -18.1853 1.2397 -0.5949 -6.3053 -0.2369 31.3750
#
#
#
# Elastic Compliance Matrix: (Units=1/GPa)
#
#
# Indices 1 2 3 4 5 6 
#
# 1 0.004882 -0.000430 -0.009285 -0.029185 -0.021313 -0.003355
# 2 -0.000430 0.013223 0.007391 0.032310 0.023497 0.006039
# 3 -0.009285 0.007391 0.011093 -0.040993 -0.023183 -0.013877
# 4 -0.029185 0.032310 -0.040993 -0.114581 -0.099349 -0.042747
# 5 -0.021313 0.023497 -0.023183 -0.099349 -0.044335 -0.034022
# 6 -0.003355 0.006039 -0.013877 -0.042747 -0.034022 0.020579
#
#
# Mechanical properties :
#
#
# Convention : Reuss Voigt Hill
#
# Bulk Modulus (GPa) = 40.73231 38.69690 39.71461
# Shear Modulus (GPa) = -51.91715 26.53405 -12.69155
#
# Velocity S-wave (km/s) = -5.10698 3.65099 -2.52503
# Velocity P-wave (km/s) = 3.78320 6.10023 3.38380
#
# Compressibility (1/GPa) = 0.02455053
#
# Stress axis : x y z
#
# Youngs Moduli (GPa) = 204.82187 75.62659 90.14400
#
# Poissons Ratio (x) = 0.03254 0.83700
# Poissons Ratio (y) = 0.08812 -0.66629
# Poissons Ratio (z) = 1.90181 -0.55899
#
# Static dielectric constant tensor:
#      x y z
#    x 1.725570 -0.003760 -0.002060 
#    y -0.003760 1.726300 0.012130 
#    z -0.002060 0.012130 1.729020 
# 
# From -- ./inp_files/335400.got.cif
#   From: 2010.05.17/outbox.cif.g08.bks.cpg/sg2_168_cif.got.tgz:335400.got - 2010.06.03 11:33:40.
