data_PCOD9096346
_publ_section_title
;
Structure prediction by ZEFSAII (Michael W. Deem and Ramdas Pophale) SiO2 
 PCOD9096346
Probable space group: P -1
;
_chemical_formula_sum "Si O2"
_cell_formula_units_Z 16
_cell_length_a 14.825985
_cell_length_b 7.110426
_cell_length_c 7.740870
_cell_angle_alpha 122.097535
_cell_angle_beta 71.521617
_cell_angle_gamma 107.118797
_cell_volume 647.554299
_symmetry_space_group_name_H-M "P -1"
_symmetry_group_IT_number 2
_symmetry_cell_setting 'triclinic'
loop_
_space_group_symop_operation_xyz
x,y,z
-x,-y,-z
loop_
_atom_site_type_symbol
_atom_site_label
_atom_site_fract_x
_atom_site_fract_y
_atom_site_fract_z
Si Si1 0.396861 0.854852 0.455399
Si Si2 0.149824 0.279033 0.256030
Si Si3 0.208162 0.010810 0.779060
Si Si4 0.060059 0.550245 0.209082
Si Si5 0.399439 0.972284 0.144168
Si Si6 0.319458 0.406477 0.483743
Si Si7 0.976218 0.875090 0.216941
Si Si8 0.230541 0.696035 0.911017
O O1 0.392434 0.805047 0.229517
O O2 0.378326 0.629538 0.469956
O O3 0.500000 0.000000 0.500000
O O4 0.309612 0.989666 0.621656
O O5 0.066068 0.070092 0.237504
O O6 0.226372 0.325759 0.382621
O O7 0.986976 0.726135 0.308669
O O8 0.204792 0.211580 0.016770
O O9 0.278494 0.480405 0.725688
O O10 0.123234 0.030550 0.704135
O O11 0.190123 0.789903 0.805620
O O12 0.100208 0.494495 0.342103
O O13 0.150538 0.648292 0.081629
O O14 0.978794 0.690525 0.972588
O O15 0.382552 0.209986 0.348162
O O16 0.315009 0.884219 0.019862
O O17 0.500000 0.000000 0.000000
#
# Coordination Sequence:
#
# PCOD9096346 Si02
#       8
#     2   2   2   2   2   2   2   2
#     4  11  27  48  72 107 141 177 236 285 349 425
#     4  11  21  41  68  98 141 185 230 281 345 410
#     4  10  20  41  69  97 145 182 222 296 340 400
#     4  10  20  35  67  98 134 186 234 275 349 406
#     4  12  26  48  74 102 138 178 235 295 349 415
#     4  11  26  46  73 103 138 189 228 286 360 407
#     4  10  21  36  67 101 139 186 233 282 345 406
#     4  11  23  43  69 101 140 179 238 286 337 422
#
# _framework density 24.708349999999999
#
# number of rings (size 3 to 8) (size 9 to 14) (size 15 to 20)
#    0.000    1.250    2.500    3.750    5.250    2.500 
#    0.000    3.125    5.500    1.500    0.000    0.000 
#    0.000    0.000    0.000    0.000    0.000    0.000 
#
# Total GULP energy -89688.909957 kJ/mol
# GULP energy per Si atom -5605.556872 kJ/mol
# Density = 2.465211 g / cm^3
# Si number density = 24.708350 Si / 1000 Ang^3
#
#
#
# Elastic Constant Matrix: (Units=GPa)
#
#
# Indices 1 2 3 4 5 6 
#
# 1 128.5750 52.7674 27.1566 0.6627 -19.3506 23.1593
# 2 52.7674 109.9671 16.0028 0.5188 -5.5620 3.1892
# 3 27.1566 16.0028 83.5560 5.7750 -22.5541 1.8806
# 4 0.6627 0.5188 5.7750 30.9385 -6.9513 -2.1632
# 5 -19.3506 -5.5620 -22.5541 -6.9513 35.0917 -4.3014
# 6 23.1593 3.1892 1.8806 -2.1632 -4.3014 46.4181
#
#
#
# Elastic Compliance Matrix: (Units=1/GPa)
#
#
# Indices 1 2 3 4 5 6 
#
# 1 0.011713 -0.005027 -0.001670 0.000719 0.004116 -0.005016
# 2 -0.005027 0.011531 -0.000981 -0.000103 -0.001396 0.001621
# 3 -0.001670 -0.000981 0.015040 -0.000756 0.008569 0.001050
# 4 0.000719 -0.000103 -0.000756 0.034131 0.006889 0.001908
# 5 0.004116 -0.001396 0.008569 0.006889 0.037602 0.001500
# 6 -0.005016 0.001621 0.001050 0.001908 0.001500 0.024120
#
#
# Mechanical properties :
#
#
# Convention : Reuss Voigt Hill
#
# Bulk Modulus (GPa) = 43.61280 57.10574 50.35927
# Shear Modulus (GPa) = 31.81981 37.56777 34.69379
#
# Velocity S-wave (km/s) = 3.59251 3.90352 3.75124
# Velocity P-wave (km/s) = 5.90741 6.59384 6.26004
#
# Compressibility (1/GPa) = 0.02292905
#
# Stress axis : x y z
#
# Youngs Moduli (GPa) = 85.37846 86.71964 66.48798
#
# Poissons Ratio (x) = 0.43594 0.11101
# Poissons Ratio (y) = 0.42920 0.06523
# Poissons Ratio (z) = 0.14255 0.08507
#
# Static dielectric constant tensor:
#      x y z
#    x 1.955170 -0.063360 0.016660 
#    y -0.063360 1.985000 -0.004230 
#    z 0.016660 -0.004230 1.985960 
# 
# From -- ./inp_files/290590.got.cif
#   From: 2010.05.17/outbox.cif.g08.bks.cpg/sg2_146_cif.got.tgz:290590.got - 2010.06.03 11:33:40.
