data_PCOD9096013
_publ_section_title
;
Structure prediction by ZEFSAII (Michael W. Deem and Ramdas Pophale) SiO2 
 PCOD9096013
Probable space group: P -1
;
_chemical_formula_sum "Si O2"
_cell_formula_units_Z 14
_cell_length_a 5.027232
_cell_length_b 17.706976
_cell_length_c 6.915788
_cell_angle_alpha 66.456617
_cell_angle_beta 72.730502
_cell_angle_gamma 90.152610
_cell_volume 533.740896
_symmetry_space_group_name_H-M "P -1"
_symmetry_group_IT_number 2
_symmetry_cell_setting 'triclinic'
loop_
_space_group_symop_operation_xyz
x,y,z
-x,-y,-z
loop_
_atom_site_type_symbol
_atom_site_label
_atom_site_fract_x
_atom_site_fract_y
_atom_site_fract_z
Si Si1 0.955293 0.134586 0.856263
Si Si2 0.743715 0.588233 0.124339
Si Si3 0.196313 0.560987 0.540268
Si Si4 0.605022 0.987990 0.209090
Si Si5 0.100337 0.704402 0.210892
Si Si6 0.236514 0.839651 0.542718
Si Si7 0.377361 0.254947 0.183599
O O1 0.090456 0.222991 0.815461
O O2 0.780567 0.162767 0.684164
O O3 0.165800 0.075317 0.788731
O O4 0.769306 0.079989 0.112210
O O5 0.493432 0.582237 0.344596
O O6 0.785150 0.490832 0.214146
O O7 0.004520 0.642586 0.117745
O O8 0.669624 0.647114 0.906353
O O9 0.082501 0.648812 0.464149
O O10 0.000000 0.500000 0.500000
O O11 0.356460 0.938518 0.439443
O O12 0.500000 0.000000 0.000000
O O13 0.409430 0.746783 0.040311
O O14 0.451043 0.781942 0.643507
O O15 0.920612 0.803695 0.711517
#
# Coordination Sequence:
#
# PCOD9096013 Si02
#       7
#     2   2   2   2   2   2   2
#     4  10  21  39  63  87 115 155 204 249 287 353
#     4   9  17  32  57  87 120 154 193 238 293 348
#     4   8  16  31  53  86 117 156 191 240 286 349
#     4   9  20  38  62  81 114 159 206 235 295 354
#     4  10  20  35  61  93 120 147 201 253 292 339
#     4  11  21  40  61  84 119 162 201 235 299 359
#     4  11  21  37  60  89 121 156 198 242 297 354
#
# _framework density 26.229956000000001
#
# number of rings (size 3 to 8) (size 9 to 14) (size 15 to 20)
#    0.000    2.286    2.857    0.000    0.000    4.571 
#    0.000    1.429    0.000    1.714    0.000    0.000 
#    0.000    0.000    0.000    0.000    0.000    0.000 
#
# Total GULP energy -78091.366792 kJ/mol
# GULP energy per Si atom -5577.954771 kJ/mol
# Density = 2.617026 g / cm^3
# Si number density = 26.229956 Si / 1000 Ang^3
#
#
#
# Elastic Constant Matrix: (Units=GPa)
#
#
# Indices 1 2 3 4 5 6 
#
# 1 148.8151 16.4696 83.2375 -23.3768 -1.9677 -6.0399
# 2 16.4696 83.6733 4.2647 -58.0968 9.8038 -19.4229
# 3 83.2375 4.2647 395.1791 -6.6147 -8.7647 11.6574
# 4 -23.3768 -58.0968 -6.6147 69.0724 -13.1928 12.6552
# 5 -1.9677 9.8038 -8.7647 -13.1928 69.5091 -19.8513
# 6 -6.0399 -19.4229 11.6574 12.6552 -19.8513 23.8865
#
#
#
# Elastic Compliance Matrix: (Units=1/GPa)
#
#
# Indices 1 2 3 4 5 6 
#
# 1 0.008267 0.001661 -0.001772 0.003649 0.001503 0.003622
# 2 0.001661 0.033820 -0.000702 0.026558 0.005615 0.018859
# 3 -0.001772 -0.000702 0.002968 -0.000520 -0.000395 -0.002521
# 4 0.003649 0.026558 -0.000520 0.037704 0.005568 0.007423
# 5 0.001503 0.005615 -0.000395 0.005568 0.020021 0.018828
# 6 0.003622 0.018859 -0.002521 0.007423 0.018828 0.071060
#
#
# Mechanical properties :
#
#
# Convention : Reuss Voigt Hill
#
# Bulk Modulus (GPa) = 23.02550 92.84571 57.93560
# Shear Modulus (GPa) = 26.32389 67.40664 46.86527
#
# Velocity S-wave (km/s) = 3.17137 5.07485 4.23153
# Velocity P-wave (km/s) = 4.71248 8.35539 6.78307
#
# Compressibility (1/GPa) = 0.04343011
#
# Stress axis : x y z
#
# Youngs Moduli (GPa) = 120.96401 29.56847 336.91219
#
# Poissons Ratio (x) = -0.04913 0.59688
# Poissons Ratio (y) = -0.20097 0.23657
# Poissons Ratio (z) = 0.21430 0.02076
#
# Static dielectric constant tensor:
#      x y z
#    x 2.170590 0.056880 0.018190 
#    y 0.056880 2.358720 0.002560 
#    z 0.018190 0.002560 2.096110 
# 
# From -- ./inp_files/104230.got.cif
#   From: 2010.05.17/outbox.cif.g08.bks.cpg/sg2_53_cif.got.tgz:104230.got - 2010.06.03 11:33:40.
