data_PCOD9096333
_publ_section_title
;
Structure prediction by ZEFSAII (Michael W. Deem and Ramdas Pophale) SiO2 
 PCOD9096333
Probable space group: P -1
;
_chemical_formula_sum "Si O2"
_cell_formula_units_Z 14
_cell_length_a 8.378614
_cell_length_b 5.025204
_cell_length_c 14.932533
_cell_angle_alpha 64.435916
_cell_angle_beta 68.164304
_cell_angle_gamma 83.419846
_cell_volume 525.688979
_symmetry_space_group_name_H-M "P -1"
_symmetry_group_IT_number 2
_symmetry_cell_setting 'triclinic'
loop_
_space_group_symop_operation_xyz
x,y,z
-x,-y,-z
loop_
_atom_site_type_symbol
_atom_site_label
_atom_site_fract_x
_atom_site_fract_y
_atom_site_fract_z
Si Si1 0.048330 0.301092 0.896396
Si Si2 0.777516 0.309823 0.502304
Si Si3 0.624566 0.357366 0.173075
Si Si4 0.778163 0.859233 0.305845
Si Si5 0.129080 0.197948 0.223606
Si Si6 0.546362 0.048067 0.880389
Si Si7 0.805724 0.671614 0.606554
O O1 0.897173 0.505597 0.869422
O O2 0.147314 0.230464 0.793545
O O3 0.818456 0.496445 0.102142
O O4 0.000000 0.000000 0.000000
O O5 0.716903 0.564102 0.412985
O O6 0.734859 0.400258 0.600068
O O7 0.986713 0.328571 0.448959
O O8 0.731562 0.970964 0.539448
O O9 0.517576 0.635549 0.180346
O O10 0.640070 0.101214 0.280763
O O11 0.552729 0.203431 0.121376
O O12 0.942620 0.024832 0.296985
O O13 0.206108 0.287431 0.290541
O O14 0.254256 0.993846 0.173884
O O15 0.500000 0.000000 0.000000
#
# Coordination Sequence:
#
# PCOD9096333 Si02
#       7
#     2   2   2   2   2   2   2
#     4  11  26  45  73 105 141 182 238 297 348 412
#     4  10  20  35  67 104 140 174 217 288 357 417
#     4  11  27  49  70  97 140 190 231 288 353 417
#     4  11  23  43  73 106 140 177 236 286 355 410
#     4  11  26  42  72 108 140 183 236 296 343 414
#     4  12  29  49  71  97 141 194 243 283 350 415
#     4  10  20  36  63 105 144 169 220 289 360 402
#
# _framework density 26.631713999999999
#
# number of rings (size 3 to 8) (size 9 to 14) (size 15 to 20)
#    0.000    1.143    2.857    3.000    8.000    1.143 
#    0.000    2.143    0.000    5.143    0.000    0.000 
#    0.000    0.000    0.000    0.000    0.000    0.000 
#
# Total GULP energy -78602.572778 kJ/mol
# GULP energy per Si atom -5614.469484 kJ/mol
# Density = 2.657110 g / cm^3
# Si number density = 26.631714 Si / 1000 Ang^3
#
#
#
# Elastic Constant Matrix: (Units=GPa)
#
#
# Indices 1 2 3 4 5 6 
#
# 1 65.0900 34.7509 32.9178 -5.6779 2.7569 2.3348
# 2 34.7509 200.6130 60.4249 -16.7563 16.3102 -26.2353
# 3 32.9178 60.4249 126.3402 -0.6936 15.8700 -26.2315
# 4 -5.6779 -16.7563 -0.6936 61.4212 -7.5992 15.3129
# 5 2.7569 16.3102 15.8700 -7.5992 20.5621 -3.2929
# 6 2.3348 -26.2353 -26.2315 15.3129 -3.2929 64.6495
#
#
#
# Elastic Compliance Matrix: (Units=1/GPa)
#
#
# Indices 1 2 3 4 5 6 
#
# 1 0.019548 -0.002440 -0.005254 0.002594 0.003647 -0.004257
# 2 -0.002440 0.006446 -0.001728 0.000734 -0.002911 0.001680
# 3 -0.005254 -0.001728 0.012009 -0.002916 -0.007523 0.004668
# 4 0.002594 0.000734 -0.002916 0.018878 0.007486 -0.005069
# 5 0.003647 -0.002911 -0.007523 0.007486 0.058521 -0.003158
# 6 -0.004257 0.001680 0.004668 -0.005069 -0.003158 0.019238
#
#
# Mechanical properties :
#
#
# Convention : Reuss Voigt Hill
#
# Bulk Modulus (GPa) = 52.19798 72.02559 62.11178
# Shear Modulus (GPa) = 31.27555 46.92322 39.09939
#
# Velocity S-wave (km/s) = 3.43063 4.20209 3.83580
# Velocity P-wave (km/s) = 5.94431 7.11668 6.55675
#
# Compressibility (1/GPa) = 0.01915783
#
# Stress axis : x y z
#
# Youngs Moduli (GPa) = 51.15733 155.14000 83.27112
#
# Poissons Ratio (x) = 0.37856 0.43748
# Poissons Ratio (y) = 0.12483 0.14393
# Poissons Ratio (z) = 0.26876 0.26815
#
# Static dielectric constant tensor:
#      x y z
#    x 2.118070 -0.022660 -0.062890 
#    y -0.022660 2.030480 0.003260 
#    z -0.062890 0.003260 2.123460 
# 
# From -- ./inp_files/486784.got.cif
#   From: 2010.05.17/outbox.cif.g08.bks.cpg/sg2_244_cif.got.tgz:486784.got - 2010.06.03 11:33:40.
