data_PCOD9096021
_publ_section_title
;
Structure prediction by ZEFSAII (Michael W. Deem and Ramdas Pophale) SiO2 
 PCOD9096021
Probable space group: P -1
;
_chemical_formula_sum "Si O2"
_cell_formula_units_Z 14
_cell_length_a 22.167928
_cell_length_b 9.315816
_cell_length_c 11.686657
_cell_angle_alpha 35.062958
_cell_angle_beta 25.358870
_cell_angle_gamma 48.387488
_cell_volume 565.107379
_symmetry_space_group_name_H-M "P -1"
_symmetry_group_IT_number 2
_symmetry_cell_setting 'triclinic'
loop_
_space_group_symop_operation_xyz
x,y,z
-x,-y,-z
loop_
_atom_site_type_symbol
_atom_site_label
_atom_site_fract_x
_atom_site_fract_y
_atom_site_fract_z
Si Si1 0.753800 0.757825 0.807654
Si Si2 0.939008 0.437648 0.772357
Si Si3 0.174663 0.889147 0.207890
Si Si4 0.760389 0.865160 0.466779
Si Si5 0.352165 0.585702 0.205648
Si Si6 0.465448 0.967560 0.945604
Si Si7 0.995719 0.198304 0.210690
O O1 0.795781 0.536063 0.950194
O O2 0.730798 0.713590 0.738992
O O3 0.897905 0.018612 0.396833
O O4 0.617584 0.816597 0.065761
O O5 0.000000 0.500000 0.500000
O O6 0.059601 0.627657 0.522327
O O7 0.893417 0.131777 0.071765
O O8 0.327286 0.822301 0.014552
O O9 0.109503 0.915261 0.426192
O O10 0.146101 0.122966 0.029211
O O11 0.765717 0.669803 0.482115
O O12 0.617926 0.969537 0.624508
O O13 0.500000 0.500000 0.000000
O O14 0.354024 0.699243 0.257034
O O15 0.500000 0.000000 0.000000
O O16 0.000000 0.500000 0.000000
#
# Coordination Sequence:
#
# PCOD9096021 Si02
#       7
#     2   2   2   2   2   2   2
#     4  10  20  39  63  92 128 161 218 272 316 386
#     4  11  24  39  60  93 132 172 217 264 321 392
#     4  10  21  37  59  91 130 162 213 264 314 379
#     4  10  22  39  66  90 129 178 210 259 334 380
#     4  10  20  38  65  93 130 171 213 266 322 388
#     4   9  19  39  67  93 123 169 218 270 323 389
#     4  10  20  35  61  93 127 165 205 264 328 376
#
# _framework density 24.774052999999999
#
# number of rings (size 3 to 8) (size 9 to 14) (size 15 to 20)
#    0.000    2.000    1.429    1.714    0.000    5.143 
#    0.000    0.000    6.286   11.143    0.000    0.000 
#    0.000    0.000    0.000    0.000    0.000    0.000 
#
# Total GULP energy -78051.748025 kJ/mol
# GULP energy per Si atom -5575.124859 kJ/mol
# Density = 2.471767 g / cm^3
# Si number density = 24.774053 Si / 1000 Ang^3
#
#
#
# Elastic Constant Matrix: (Units=GPa)
#
#
# Indices 1 2 3 4 5 6 
#
# 1 130.0739 74.3702 22.6753 -5.2750 -21.0691 2.4945
# 2 74.3702 183.2200 28.4627 -6.1342 -15.1317 -31.4032
# 3 22.6753 28.4627 34.7178 -23.2067 -6.7504 -6.7363
# 4 -5.2750 -6.1342 -23.2067 44.8268 5.5691 -19.8844
# 5 -21.0691 -15.1317 -6.7504 5.5691 27.2359 4.0393
# 6 2.4945 -31.4032 -6.7363 -19.8844 4.0393 84.5554
#
#
#
# Elastic Compliance Matrix: (Units=1/GPa)
#
#
# Indices 1 2 3 4 5 6 
#
# 1 0.012537 -0.004143 -0.008482 -0.006345 0.007247 -0.004422
# 2 -0.004143 0.008159 -0.003224 0.000267 0.000036 0.002957
# 3 -0.008482 -0.003224 0.064702 0.038215 -0.002102 0.013295
# 4 -0.006345 0.000267 0.038215 0.049082 -0.007584 0.015235
# 5 0.007247 0.000036 -0.002102 -0.007584 0.044003 -0.004254
# 6 -0.004422 0.002957 0.013295 0.015235 -0.004254 0.017900
#
#
# Mechanical properties :
#
#
# Convention : Reuss Voigt Hill
#
# Bulk Modulus (GPa) = 18.62185 66.55869 42.59027
# Shear Modulus (GPa) = 20.32680 46.15719 33.24200
#
# Velocity S-wave (km/s) = 2.86752 4.32108 3.66704
# Velocity P-wave (km/s) = 4.30076 7.19863 5.92945
#
# Compressibility (1/GPa) = 0.05370035
#
# Stress axis : x y z
#
# Youngs Moduli (GPa) = 79.76570 122.56240 15.45555
#
# Poissons Ratio (x) = 0.50778 0.13109
# Poissons Ratio (y) = 0.33047 0.04983
# Poissons Ratio (z) = 0.67653 0.39515
#
# Static dielectric constant tensor:
#      x y z
#    x 2.159590 0.047690 -0.080290 
#    y 0.047690 2.141040 0.032290 
#    z -0.080290 0.032290 2.005170 
# 
# From -- ./inp_files/469126.got.cif
#   From: 2010.05.17/outbox.cif.g08.bks.cpg/sg2_235_cif.got.tgz:469126.got - 2010.06.03 11:33:40.
