data_PCOD9096368
_publ_section_title
;
Structure prediction by ZEFSAII (Michael W. Deem and Ramdas Pophale) SiO2 
 PCOD9096368
Probable space group: P -1
;
_chemical_formula_sum "Si O2"
_cell_formula_units_Z 14
_cell_length_a 26.026705
_cell_length_b 5.342284
_cell_length_c 10.269402
_cell_angle_alpha 103.824846
_cell_angle_beta 36.552709
_cell_angle_gamma 119.839360
_cell_volume 701.029557
_symmetry_space_group_name_H-M "P -1"
_symmetry_group_IT_number 2
_symmetry_cell_setting 'triclinic'
loop_
_space_group_symop_operation_xyz
x,y,z
-x,-y,-z
loop_
_atom_site_type_symbol
_atom_site_label
_atom_site_fract_x
_atom_site_fract_y
_atom_site_fract_z
Si Si1 0.556245 0.917178 0.981755
Si Si2 0.808811 0.580471 0.183825
Si Si3 0.893806 0.252359 0.123890
Si Si4 0.330970 0.611742 0.804581
Si Si5 0.723554 0.806428 0.592475
Si Si6 0.479712 0.290593 0.691979
Si Si7 0.685386 0.552915 0.907415
O O1 0.654620 0.234231 0.868315
O O2 0.609696 0.738768 0.802704
O O3 0.500000 0.000000 0.000000
O O4 0.497853 0.786747 0.220020
O O5 0.861602 0.400944 0.096665
O O6 0.742487 0.450957 0.173420
O O7 0.739345 0.573105 0.445404
O O8 0.887494 0.944066 0.053323
O O9 0.806566 0.121058 0.396273
O O10 0.000000 0.500000 0.000000
O O11 0.415640 0.536709 0.577688
O O12 0.399251 0.968639 0.748031
O O13 0.273921 0.427041 0.028087
O O14 0.742385 0.791309 0.705677
O O15 0.421046 0.463352 0.855124
#
# Coordination Sequence:
#
# PCOD9096368 Si02
#       7
#     2   2   2   2   2   2   2
#     4  10  21  32  52  82 121 158 209 246 291 347
#     4  10  23  37  68  91 120 153 201 252 305 361
#     4  10  22  41  65  95 119 148 197 257 317 362
#     4  10  21  36  54  82 120 161 210 239 296 350
#     4   9  22  35  59  85 115 159 195 246 305 351
#     4   9  21  33  52  77 118 171 202 248 281 345
#     4  10  20  36  50  80 115 164 200 243 295 342
#
# _framework density 19.970627
#
# number of rings (size 3 to 8) (size 9 to 14) (size 15 to 20)
#    0.857    1.429    0.000    1.714    8.000    1.143 
#    0.000    0.000    0.000    1.714    0.000    0.000 
#    0.000    0.000    0.000    0.000    0.000    0.000 
#
# Total GULP energy -78054.822694 kJ/mol
# GULP energy per Si atom -5575.344478 kJ/mol
# Density = 1.992517 g / cm^3
# Si number density = 19.970627 Si / 1000 Ang^3
#
#
#
# Elastic Constant Matrix: (Units=GPa)
#
#
# Indices 1 2 3 4 5 6 
#
# 1 140.2482 26.2726 47.2550 -15.2332 43.4949 8.9724
# 2 26.2726 61.0375 13.8956 -6.5611 14.5399 3.0307
# 3 47.2550 13.8956 45.2955 -4.5646 23.9612 10.4000
# 4 -15.2332 -6.5611 -4.5646 21.4360 0.1144 -1.6607
# 5 43.4949 14.5399 23.9612 0.1144 29.2826 -1.5452
# 6 8.9724 3.0307 10.4000 -1.6607 -1.5452 33.0633
#
#
#
# Elastic Compliance Matrix: (Units=1/GPa)
#
#
# Indices 1 2 3 4 5 6 
#
# 1 0.016574 0.000308 -0.003858 0.010874 -0.021857 -0.003788
# 2 0.000308 0.019450 0.000463 0.006157 -0.010633 -0.002200
# 3 -0.003858 0.000463 0.049021 0.006809 -0.035469 -0.015731
# 4 0.010874 0.006157 0.006809 0.057541 -0.025214 -0.003945
# 5 -0.021857 -0.010633 -0.035469 -0.025214 0.102155 0.021570
# 6 -0.003788 -0.002200 -0.015731 -0.003945 0.021570 0.037233
#
#
# Mechanical properties :
#
#
# Convention : Reuss Voigt Hill
#
# Bulk Modulus (GPa) = 12.67911 46.82529 29.75220
# Shear Modulus (GPa) = 15.90133 27.36691 21.63412
#
# Velocity S-wave (km/s) = 2.82483 3.70585 3.29492
# Velocity P-wave (km/s) = 4.12337 6.46600 5.42270
#
# Compressibility (1/GPa) = 0.07886988
#
# Stress axis : x y z
#
# Youngs Moduli (GPa) = 60.33392 51.41510 20.39944
#
# Poissons Ratio (x) = -0.01582 0.07870
# Poissons Ratio (y) = -0.01856 -0.00944
# Poissons Ratio (z) = 0.23276 -0.02379
#
# Static dielectric constant tensor:
#      x y z
#    x 1.702370 -0.040350 0.029640 
#    y -0.040350 1.778690 0.012510 
#    z 0.029640 0.012510 1.718270 
# 
# From -- ./inp_files/35738.got.cif
#   From: 2010.05.17/outbox.cif.g08.bks.cpg/sg2_18_cif.got.tgz:35738.got - 2010.06.03 11:33:40.
