data_PCOD9096499
_publ_section_title
;
Structure prediction by ZEFSAII (Michael W. Deem and Ramdas Pophale) SiO2 
 PCOD9096499
Probable space group: P -1
;
_chemical_formula_sum "Si O2"
_cell_formula_units_Z 16
_cell_length_a 8.690616
_cell_length_b 12.005856
_cell_length_c 7.453269
_cell_angle_alpha 106.258264
_cell_angle_beta 114.286880
_cell_angle_gamma 74.044109
_cell_volume 669.054256
_symmetry_space_group_name_H-M "P -1"
_symmetry_group_IT_number 2
_symmetry_cell_setting 'triclinic'
loop_
_space_group_symop_operation_xyz
x,y,z
-x,-y,-z
loop_
_atom_site_type_symbol
_atom_site_label
_atom_site_fract_x
_atom_site_fract_y
_atom_site_fract_z
Si Si1 0.237168 0.176654 0.581479
Si Si2 0.888761 0.274954 0.241278
Si Si3 0.935486 0.538112 0.689434
Si Si4 0.455229 0.943261 0.682081
Si Si5 0.218640 0.663427 0.382754
Si Si6 0.574168 0.681922 0.469249
Si Si7 0.008282 0.101895 0.699593
Si Si8 0.251176 0.945195 0.960388
O O1 0.338998 0.042826 0.548179
O O2 0.352820 0.276562 0.664511
O O3 0.073804 0.210813 0.385485
O O4 0.156242 0.171560 0.735686
O O5 0.783497 0.324774 0.393552
O O6 0.790409 0.180432 0.065390
O O7 0.936670 0.371310 0.170490
O O8 0.916333 0.424879 0.746195
O O9 0.739555 0.606920 0.610267
O O10 0.000000 0.500000 0.500000
O O11 0.519674 0.811156 0.589102
O O12 0.345161 0.932864 0.804780
O O13 0.618818 0.001041 0.833453
O O14 0.407940 0.622472 0.375518
O O15 0.155291 0.795833 0.338316
O O16 0.000000 0.000000 0.500000
O O17 0.074285 0.035674 0.880461
#
# Coordination Sequence:
#
# PCOD9096499 Si02
#       8
#     2   2   2   2   2   2   2   2
#     4   9  18  30  48  75 107 137 166 205 257 306
#     4   9  16  32  54  75 104 136 174 209 248 309
#     4   9  20  33  50  77 100 134 177 223 256 298
#     4  10  20  30  49  82 112 137 166 210 260 312
#     4  10  17  30  53  79  99 132 174 218 255 294
#     4  11  19  31  51  77 110 132 171 221 256 302
#     4  10  16  30  55  75 102 135 173 210 255 310
#     4  10  18  32  52  80 109 140 168 201 266 315
#
# _framework density 23.914353999999999
#
# number of rings (size 3 to 8) (size 9 to 14) (size 15 to 20)
#    0.000    2.250    3.750    2.250    0.000    0.000 
#    0.000    2.500    0.000    0.750    6.500   10.500 
#    0.000    0.000    0.000    0.000    0.000    0.000 
#
# Total GULP energy -89300.906109 kJ/mol
# GULP energy per Si atom -5581.306632 kJ/mol
# Density = 2.385992 g / cm^3
# Si number density = 23.914354 Si / 1000 Ang^3
#
#
#
# Elastic Constant Matrix: (Units=GPa)
#
#
# Indices 1 2 3 4 5 6 
#
# 1 132.0647 36.3154 28.6467 4.3360 14.7077 29.6831
# 2 36.3154 100.2305 8.0661 7.4385 7.1753 21.1436
# 3 28.6467 8.0661 32.9223 0.0625 -0.9971 16.8009
# 4 4.3360 7.4385 0.0625 15.5503 12.8322 10.4251
# 5 14.7077 7.1753 -0.9971 12.8322 28.9055 7.8246
# 6 29.6831 21.1436 16.8009 10.4251 7.8246 57.6515
#
#
#
# Elastic Compliance Matrix: (Units=1/GPa)
#
#
# Indices 1 2 3 4 5 6 
#
# 1 0.011278 -0.002828 -0.008076 0.005908 -0.007261 -0.002499
# 2 -0.002828 0.011680 0.000923 -0.003940 0.001003 -0.002520
# 3 -0.008076 0.000923 0.042466 0.002659 0.006863 -0.009968
# 4 0.005908 -0.003940 0.002659 0.116167 -0.048978 -0.016730
# 5 -0.007261 0.001003 0.006863 -0.048978 0.059436 0.002161
# 6 -0.002499 -0.002520 -0.009968 -0.016730 0.002161 0.025193
#
#
# Mechanical properties :
#
#
# Convention : Reuss Voigt Hill
#
# Bulk Modulus (GPa) = 21.99719 45.69709 33.84714
# Shear Modulus (GPa) = 16.59278 33.23407 24.91343
#
# Velocity S-wave (km/s) = 2.63695 3.73193 3.23116
# Velocity P-wave (km/s) = 4.29995 6.14165 5.30139
#
# Compressibility (1/GPa) = 0.04546036
#
# Stress axis : x y z
#
# Youngs Moduli (GPa) = 88.66975 85.62005 23.54851
#
# Poissons Ratio (x) = 0.24211 0.19019
# Poissons Ratio (y) = 0.25073 -0.02173
# Poissons Ratio (z) = 0.71613 -0.07901
#
# Static dielectric constant tensor:
#      x y z
#    x 2.054660 -0.007420 -0.026330 
#    y -0.007420 1.985670 0.012790 
#    z -0.026330 0.012790 1.924970 
# 
# From -- ./inp_files/181796.got.cif
#   From: 2010.05.17/outbox.cif.g08.bks.cpg/sg2_91_cif.got.tgz:181796.got - 2010.06.03 11:33:40.
