data_PCOD9096142
_publ_section_title
;
Structure prediction by ZEFSAII (Michael W. Deem and Ramdas Pophale) SiO2 
 PCOD9096142
Probable space group: P -1
;
_chemical_formula_sum "Si O2"
_cell_formula_units_Z 16
_cell_length_a 19.685737
_cell_length_b 21.453157
_cell_length_c 9.910412
_cell_angle_alpha 145.849858
_cell_angle_beta 149.590058
_cell_angle_gamma 19.670418
_cell_volume 710.183746
_symmetry_space_group_name_H-M "P -1"
_symmetry_group_IT_number 2
_symmetry_cell_setting 'triclinic'
loop_
_space_group_symop_operation_xyz
x,y,z
-x,-y,-z
loop_
_atom_site_type_symbol
_atom_site_label
_atom_site_fract_x
_atom_site_fract_y
_atom_site_fract_z
Si Si1 0.651303 0.532726 0.257581
Si Si2 0.694049 0.707111 0.974380
Si Si3 0.192931 0.326243 0.189614
Si Si4 0.538922 0.009400 0.428275
Si Si5 0.581989 0.270126 0.297427
Si Si6 0.126583 0.053185 0.993910
Si Si7 0.713885 0.434048 0.890635
Si Si8 0.829012 0.181700 0.944231
O O1 0.780160 0.561535 0.529813
O O2 0.804490 0.328571 0.203520
O O3 0.595212 0.538474 0.016941
O O4 0.424561 0.690784 0.238850
O O5 0.927996 0.485131 0.997468
O O6 0.672237 0.822252 0.248399
O O7 0.692133 0.759014 0.913781
O O8 0.494520 0.754590 0.753934
O O9 0.322206 0.175584 0.259694
O O10 0.500000 0.000000 0.500000
O O11 0.686132 0.023877 0.721459
O O12 0.767006 0.084644 0.192728
O O13 0.649875 0.351207 0.589842
O O14 0.368744 0.425466 0.110019
O O15 0.980139 0.254126 0.049198
O O16 0.944788 0.103189 0.855731
O O17 0.000000 0.000000 0.000000
#
# Coordination Sequence:
#
# PCOD9096142 Si02
#       8
#     2   2   2   2   2   2   2   2
#     4  10  22  40  67  94 129 171 218 275 325 390
#     4  11  26  44  70  97 133 182 222 276 344 392
#     4  11  26  47  68  98 137 174 229 281 331 406
#     4  12  25  45  71  98 133 175 226 283 337 394
#     4  11  23  41  65  95 134 174 214 272 333 397
#     4  11  23  42  64  98 129 168 223 273 331 396
#     4  10  23  41  64  95 136 167 220 274 326 397
#     4  10  20  35  62  93 126 163 207 260 327 384
#
# _framework density 22.52938
#
# number of rings (size 3 to 8) (size 9 to 14) (size 15 to 20)
#    0.000    1.250    1.250    4.500    7.000    0.500 
#    0.000    0.000    0.000    0.000    0.000    0.000 
#    0.000    0.000    0.000    0.000    0.000    0.000 
#
# Total GULP energy -89409.123354 kJ/mol
# GULP energy per Si atom -5588.070210 kJ/mol
# Density = 2.247810 g / cm^3
# Si number density = 22.529380 Si / 1000 Ang^3
#
#
#
# Elastic Constant Matrix: (Units=GPa)
#
#
# Indices 1 2 3 4 5 6 
#
# 1 124.7631 62.7562 19.1433 7.2032 -28.0092 -6.9098
# 2 62.7562 107.3247 12.7325 1.6374 -20.5754 -2.2499
# 3 19.1433 12.7325 59.8965 16.4521 -19.8313 -13.9709
# 4 7.2032 1.6374 16.4521 29.3305 0.1197 -10.5749
# 5 -28.0092 -20.5754 -19.8313 0.1197 40.3059 -6.1333
# 6 -6.9098 -2.2499 -13.9709 -10.5749 -6.1333 42.0485
#
#
#
# Elastic Compliance Matrix: (Units=1/GPa)
#
#
# Indices 1 2 3 4 5 6 
#
# 1 0.012731 -0.006219 0.000470 -0.002253 0.006254 0.002261
# 2 -0.006219 0.013443 -0.000296 0.001007 0.002423 0.000206
# 3 0.000470 -0.000296 0.026631 -0.012229 0.014525 0.007953
# 4 -0.002253 0.001007 -0.012229 0.043509 -0.006340 0.005638
# 5 0.006254 0.002423 0.014525 -0.006340 0.039094 0.010091
# 6 0.002261 0.000206 0.007953 0.005638 0.010091 0.029697
#
#
# Mechanical properties :
#
#
# Convention : Reuss Voigt Hill
#
# Bulk Modulus (GPa) = 24.56147 53.47205 39.01676
# Shear Modulus (GPa) = 26.20996 35.49379 30.85188
#
# Velocity S-wave (km/s) = 3.41452 3.97349 3.70456
# Velocity P-wave (km/s) = 5.14499 6.69608 5.97111
#
# Compressibility (1/GPa) = 0.04071418
#
# Stress axis : x y z
#
# Youngs Moduli (GPa) = 78.55103 74.39038 37.54959
#
# Poissons Ratio (x) = 0.46263 -0.01766
# Poissons Ratio (y) = 0.48851 0.01113
# Poissons Ratio (z) = -0.03694 0.02205
#
# Static dielectric constant tensor:
#      x y z
#    x 1.873430 0.020680 -0.023990 
#    y 0.020680 1.874070 -0.051580 
#    z -0.023990 -0.051580 1.842240 
# 
# From -- ./inp_files/338223.got.cif
#   From: 2010.05.17/outbox.cif.g08.bks.cpg/sg2_170_cif.got.tgz:338223.got - 2010.06.03 11:33:40.
