data_PCOD9096020
_publ_section_title
;
Structure prediction by ZEFSAII (Michael W. Deem and Ramdas Pophale) SiO2 
 PCOD9096020
Probable space group: P -1
;
_chemical_formula_sum "Si O2"
_cell_formula_units_Z 16
_cell_length_a 11.846384
_cell_length_b 14.797864
_cell_length_c 14.604800
_cell_angle_alpha 49.622261
_cell_angle_beta 30.838590
_cell_angle_gamma 40.420009
_cell_volume 850.831008
_symmetry_space_group_name_H-M "P -1"
_symmetry_group_IT_number 2
_symmetry_cell_setting 'triclinic'
loop_
_space_group_symop_operation_xyz
x,y,z
-x,-y,-z
loop_
_atom_site_type_symbol
_atom_site_label
_atom_site_fract_x
_atom_site_fract_y
_atom_site_fract_z
Si Si1 0.952820 0.825470 0.459896
Si Si2 0.837522 0.434062 0.624990
Si Si3 0.275858 0.702342 0.836196
Si Si4 0.739546 0.018691 0.312877
Si Si5 0.232085 0.104190 0.012475
Si Si6 0.222515 0.938135 0.306709
Si Si7 0.698326 0.333991 0.955571
Si Si8 0.377895 0.920979 0.848933
O O1 0.664978 0.896291 0.655925
O O2 0.038588 0.669031 0.477893
O O3 0.167931 0.827179 0.370722
O O4 0.926942 0.914324 0.328677
O O5 0.540418 0.555560 0.734995
O O6 0.860137 0.335509 0.757665
O O7 0.000000 0.500000 0.500000
O O8 0.336208 0.825827 0.709619
O O9 0.033513 0.747975 0.910525
O O10 0.175752 0.709765 0.004236
O O11 0.781048 0.004969 0.182898
O O12 0.500000 0.000000 0.500000
O O13 0.200526 0.040198 0.171437
O O14 0.488705 0.113315 0.826138
O O15 0.257315 0.009736 0.967482
O O16 0.000000 0.000000 0.500000
O O17 0.500000 0.500000 0.000000
O O18 0.596403 0.230556 0.070212
#
# Coordination Sequence:
#
# PCOD9096020 Si02
#       8
#     2   2   2   2   2   2   2   2
#     4  11  20  37  63  92 124 167 206 256 315 370
#     4  11  22  38  59  91 131 169 199 246 316 392
#     4  10  21  38  55  89 127 163 202 251 310 376
#     4   9  18  32  57  93 125 154 198 254 313 375
#     4  11  23  39  65  92 121 167 211 269 317 356
#     4  11  23  43  63  92 121 162 220 270 311 359
#     4   9  19  34  53  84 128 164 195 238 310 383
#     4  10  20  35  61  93 126 157 206 259 316 382
#
# _framework density 18.805145
#
# number of rings (size 3 to 8) (size 9 to 14) (size 15 to 20)
#    0.000    1.750    2.500    3.750    1.750    1.000 
#    2.250    0.625    0.000    0.750    0.000    0.000 
#    0.000    0.000    0.000    0.000    0.000    0.000 
#
# Total GULP energy -89093.173386 kJ/mol
# GULP energy per Si atom -5568.323337 kJ/mol
# Density = 1.876234 g / cm^3
# Si number density = 18.805145 Si / 1000 Ang^3
#
#
#
# Elastic Constant Matrix: (Units=GPa)
#
#
# Indices 1 2 3 4 5 6 
#
# 1 79.9254 26.1249 28.4704 -1.4843 -11.3724 0.8856
# 2 26.1249 72.0324 24.2625 -1.8211 4.4376 -0.3372
# 3 28.4704 24.2625 123.2654 -4.7984 -4.2599 -4.1104
# 4 -1.4843 -1.8211 -4.7984 33.6226 4.6299 -2.5155
# 5 -11.3724 4.4376 -4.2599 4.6299 31.2473 0.3530
# 6 0.8856 -0.3372 -4.1104 -2.5155 0.3530 27.0036
#
#
#
# Elastic Compliance Matrix: (Units=1/GPa)
#
#
# Indices 1 2 3 4 5 6 
#
# 1 0.016083 -0.005415 -0.002500 -0.000911 0.006430 -0.001145
# 2 -0.005415 0.016912 -0.002197 0.001044 -0.004829 0.000215
# 3 -0.002500 -0.002197 0.009235 0.001140 0.000475 0.001560
# 4 -0.000911 0.001044 0.001140 0.030836 -0.004929 0.003153
# 5 0.006430 -0.004829 0.000475 -0.004929 0.035836 -0.001127
# 6 -0.001145 0.000215 0.001560 0.003153 -0.001127 0.037618
#
#
# Mechanical properties :
#
#
# Convention : Reuss Voigt Hill
#
# Bulk Modulus (GPa) = 45.44477 48.10430 46.77454
# Shear Modulus (GPa) = 28.72237 31.46572 30.09405
#
# Velocity S-wave (km/s) = 3.91240 4.09498 4.00473
# Velocity P-wave (km/s) = 6.68040 6.92780 6.80522
#
# Compressibility (1/GPa) = 0.02200473
#
# Stress axis : x y z
#
# Youngs Moduli (GPa) = 62.17754 59.13089 108.28022
#
# Poissons Ratio (x) = 0.32022 0.27072
# Poissons Ratio (y) = 0.33671 0.23790
# Poissons Ratio (z) = 0.15546 0.12991
#
# Static dielectric constant tensor:
#      x y z
#    x 1.541560 -0.030260 0.045750 
#    y -0.030260 1.669790 0.027590 
#    z 0.045750 0.027590 1.701850 
# 
# From -- ./inp_files/273245.got.cif
#   From: 2010.05.17/outbox.cif.g08.bks.cpg/sg2_137_cif.got.tgz:273245.got - 2010.06.03 11:33:40.
