data_PCOD9096277
_publ_section_title
;
Structure prediction by ZEFSAII (Michael W. Deem and Ramdas Pophale) SiO2 
 PCOD9096277
Probable space group: P -1
;
_chemical_formula_sum "Si O2"
_cell_formula_units_Z 16
_cell_length_a 8.907705
_cell_length_b 17.538314
_cell_length_c 21.492266
_cell_angle_alpha 149.775911
_cell_angle_beta 32.014825
_cell_angle_gamma 147.178327
_cell_volume 819.802227
_symmetry_space_group_name_H-M "P -1"
_symmetry_group_IT_number 2
_symmetry_cell_setting 'triclinic'
loop_
_space_group_symop_operation_xyz
x,y,z
-x,-y,-z
loop_
_atom_site_type_symbol
_atom_site_label
_atom_site_fract_x
_atom_site_fract_y
_atom_site_fract_z
Si Si1 0.658350 0.901786 0.527166
Si Si2 0.398233 0.771773 0.198017
Si Si3 0.668148 0.413267 0.021344
Si Si4 0.177456 0.551636 0.778559
Si Si5 0.714313 0.430043 0.503824
Si Si6 0.876454 0.719665 0.077928
Si Si7 0.587402 0.844107 0.369231
Si Si8 0.096348 0.474422 0.277719
O O1 0.485074 0.752442 0.528944
O O2 0.667168 0.839795 0.410502
O O3 0.531502 0.044833 0.674026
O O4 0.000000 0.000000 0.500000
O O5 0.683311 0.738161 0.100916
O O6 0.082980 0.629433 0.236198
O O7 0.369045 0.750367 0.118527
O O8 0.689110 0.542076 0.050034
O O9 0.353885 0.402908 0.156601
O O10 0.000000 0.500000 0.000000
O O11 0.499742 0.532825 0.652330
O O12 0.071977 0.585705 0.771572
O O13 0.169809 0.692603 0.928471
O O14 0.000000 0.500000 0.500000
O O15 0.848342 0.434931 0.391575
O O16 0.853285 0.841202 0.226163
O O17 0.287926 0.673123 0.343502
O O18 0.500000 0.000000 0.500000
#
# Coordination Sequence:
#
# PCOD9096277 Si02
#       8
#     2   2   2   2   2   2   2   2
#     4  12  25  41  63  94 132 168 217 268 322 383
#     4  11  19  39  65  93 125 159 217 273 313 370
#     4  10  21  33  62 100 130 159 212 269 322 375
#     4  11  20  41  65  92 124 167 221 263 315 394
#     4  12  27  42  61  94 135 176 212 266 331 379
#     4  10  20  35  64  95 120 162 213 270 320 370
#     4  11  21  37  64  96 128 159 210 268 322 371
#     4  11  22  41  63  92 130 173 217 256 321 397
#
# _framework density 19.516902999999999
#
# number of rings (size 3 to 8) (size 9 to 14) (size 15 to 20)
#    0.000    1.000    7.500    1.125    7.000    0.000 
#    0.000    0.625    0.000    3.000    0.000    0.000 
#    0.000    0.000    0.000    0.000    0.000    0.000 
#
# Total GULP energy -89167.718572 kJ/mol
# GULP energy per Si atom -5572.982411 kJ/mol
# Density = 1.947248 g / cm^3
# Si number density = 19.516903 Si / 1000 Ang^3
#
#
#
# Elastic Constant Matrix: (Units=GPa)
#
#
# Indices 1 2 3 4 5 6 
#
# 1 68.8430 27.0738 64.8993 -7.0575 -1.3125 1.0387
# 2 27.0738 54.3456 35.1190 -11.6177 2.7948 -1.2375
# 3 64.8993 35.1190 178.8067 -21.8443 8.7727 0.8537
# 4 -7.0575 -11.6177 -21.8443 30.5792 5.4735 1.4674
# 5 -1.3125 2.7948 8.7727 5.4735 37.9231 -4.4127
# 6 1.0387 -1.2375 0.8537 1.4674 -4.4127 21.4260
#
#
#
# Elastic Compliance Matrix: (Units=1/GPa)
#
#
# Indices 1 2 3 4 5 6 
#
# 1 0.025171 -0.008293 -0.008168 -0.003858 0.003893 -0.000308
# 2 -0.008293 0.024813 -0.000819 0.007412 -0.002907 0.000761
# 3 -0.008168 -0.000819 0.009527 0.005253 -0.003309 -0.001072
# 4 -0.003858 0.007412 0.005253 0.040030 -0.008139 -0.004012
# 5 0.003893 -0.002907 -0.003309 -0.008139 0.029402 0.006388
# 6 -0.000308 0.000761 -0.001072 -0.004012 0.006388 0.048364
#
#
# Mechanical properties :
#
#
# Convention : Reuss Voigt Hill
#
# Bulk Modulus (GPa) = 40.07898 61.79773 50.93836
# Shear Modulus (GPa) = 22.70836 29.64588 26.17712
#
# Velocity S-wave (km/s) = 3.41475 3.90164 3.66629
# Velocity P-wave (km/s) = 6.01061 7.21315 6.63916
#
# Compressibility (1/GPa) = 0.02495073
#
# Stress axis : x y z
#
# Youngs Moduli (GPa) = 39.72885 40.30192 104.96093
#
# Poissons Ratio (x) = 0.33423 0.85731
# Poissons Ratio (y) = 0.32948 0.08594
# Poissons Ratio (z) = 0.32450 0.03300
#
# Static dielectric constant tensor:
#      x y z
#    x 1.698700 0.001410 0.008910 
#    y 0.001410 1.670270 0.038820 
#    z 0.008910 0.038820 1.967330 
# 
# From -- ./inp_files/282630.got.cif
#   From: 2010.05.17/outbox.cif.g08.bks.cpg/sg2_142_cif.got.tgz:282630.got - 2010.06.03 11:33:40.
