data_PCOD9096393
_publ_section_title
;
Structure prediction by ZEFSAII (Michael W. Deem and Ramdas Pophale) SiO2 
 PCOD9096393
Probable space group: P -1
;
_chemical_formula_sum "Si O2"
_cell_formula_units_Z 16
_cell_length_a 12.585261
_cell_length_b 5.136482
_cell_length_c 13.694183
_cell_angle_alpha 62.027933
_cell_angle_beta 50.398198
_cell_angle_gamma 62.772123
_cell_volume 585.816108
_symmetry_space_group_name_H-M "P -1"
_symmetry_group_IT_number 2
_symmetry_cell_setting 'triclinic'
loop_
_space_group_symop_operation_xyz
x,y,z
-x,-y,-z
loop_
_atom_site_type_symbol
_atom_site_label
_atom_site_fract_x
_atom_site_fract_y
_atom_site_fract_z
Si Si1 0.973155 0.432042 0.352927
Si Si2 0.891803 0.833208 0.141394
Si Si3 0.465230 0.359108 0.931877
Si Si4 0.257411 0.622552 0.183161
Si Si5 0.200715 0.033027 0.514678
Si Si6 0.638530 0.258886 0.335224
Si Si7 0.506070 0.029561 0.690362
Si Si8 0.277242 0.137709 0.947741
O O1 0.922514 0.120488 0.425660
O O2 0.127687 0.463359 0.292759
O O3 0.955401 0.583919 0.228509
O O4 0.867059 0.646629 0.452364
O O5 0.772240 0.079482 0.223521
O O6 0.825956 0.716967 0.104044
O O7 0.000000 0.000000 0.000000
O O8 0.624454 0.381876 0.801644
O O9 0.349981 0.381725 0.910135
O O10 0.370248 0.475153 0.061399
O O11 0.500000 0.000000 0.000000
O O12 0.208262 0.960449 0.101711
O O13 0.290918 0.830364 0.583806
O O14 0.330182 0.031669 0.366423
O O15 0.562929 0.611590 0.333948
O O16 0.519589 0.122125 0.370919
O O17 0.410514 0.917621 0.849869
#
# Coordination Sequence:
#
# PCOD9096393 Si02
#       8
#     2   2   2   2   2   2   2   2
#     4  11  24  38  61  88 127 165 196 238 298 369
#     4  10  20  36  53  91 132 159 188 235 306 366
#     4   9  21  38  63  86 113 152 201 251 302 351
#     4  10  21  40  60  91 115 154 199 248 302 364
#     4  11  22  39  56  85 119 167 208 241 289 346
#     4  10  21  36  56  84 116 171 209 240 284 339
#     4  11  22  37  60  83 121 159 211 253 281 343
#     4  10  21  35  60  89 119 156 195 248 303 344
#
# _framework density 27.312327
#
# number of rings (size 3 to 8) (size 9 to 14) (size 15 to 20)
#    0.000    1.750    1.250    3.750    7.000    0.000 
#    0.000    4.375    0.000    1.500    0.000    0.000 
#    0.000    0.000    0.000    0.000    0.000    0.000 
#
# Total GULP energy -89393.791695 kJ/mol
# GULP energy per Si atom -5587.111981 kJ/mol
# Density = 2.725016 g / cm^3
# Si number density = 27.312327 Si / 1000 Ang^3
#
#
#
# Elastic Constant Matrix: (Units=GPa)
#
#
# Indices 1 2 3 4 5 6 
#
# 1 139.2576 9.5115 17.0575 -6.9974 -24.1547 10.7215
# 2 9.5115 82.4386 -4.6807 -6.8507 -2.2528 18.6033
# 3 17.0575 -4.6807 92.2485 -9.9743 -30.5873 14.3968
# 4 -6.9974 -6.8507 -9.9743 26.9273 6.8342 -15.7828
# 5 -24.1547 -2.2528 -30.5873 6.8342 46.9123 -9.2891
# 6 10.7215 18.6033 14.3968 -15.7828 -9.2891 45.4910
#
#
#
# Elastic Compliance Matrix: (Units=1/GPa)
#
#
# Indices 1 2 3 4 5 6 
#
# 1 0.007972 -0.000634 -0.000085 0.000544 0.003816 -0.000625
# 2 -0.000634 0.013669 0.001882 0.000536 0.000334 -0.005782
# 3 -0.000085 0.001882 0.014473 0.001929 0.008629 -0.002899
# 4 0.000544 0.000536 0.001929 0.047559 -0.002384 0.015056
# 5 0.003816 0.000334 0.008629 -0.002384 0.029556 0.001441
# 6 -0.000625 -0.005782 -0.002899 0.015056 0.001441 0.030929
#
#
# Mechanical properties :
#
#
# Convention : Reuss Voigt Hill
#
# Bulk Modulus (GPa) = 26.01437 39.74679 32.88058
# Shear Modulus (GPa) = 32.33207 43.33654 37.83430
#
# Velocity S-wave (km/s) = 3.44436 3.98766 3.72593
# Velocity P-wave (km/s) = 5.03623 5.98216 5.52946
#
# Compressibility (1/GPa) = 0.03844030
#
# Stress axis : x y z
#
# Youngs Moduli (GPa) = 125.43951 73.16025 69.09208
#
# Poissons Ratio (x) = 0.04639 0.00584
# Poissons Ratio (y) = 0.07954 -0.13002
# Poissons Ratio (z) = 0.01061 -0.13767
#
# Static dielectric constant tensor:
#      x y z
#    x 1.128790 -0.930890 -0.192700 
#    y -0.930890 1.418050 -0.303810 
#    z -0.192700 -0.303810 2.276960 
# 
# From -- ./inp_files/109122.got.cif
#   From: 2010.05.17/outbox.cif.g08.bks.cpg/sg2_55_cif.got.tgz:109122.got - 2010.06.03 11:33:40.
