data_PCOD9096558
_publ_section_title
;
Structure prediction by ZEFSAII (Michael W. Deem and Ramdas Pophale) SiO2 
 PCOD9096558
Probable space group: P -1
;
_chemical_formula_sum "Si O2"
_cell_formula_units_Z 16
_cell_length_a 16.572104
_cell_length_b 18.743040
_cell_length_c 11.801736
_cell_angle_alpha 37.583808
_cell_angle_beta 26.125317
_cell_angle_gamma 27.079494
_cell_volume 734.368553
_symmetry_space_group_name_H-M "P -1"
_symmetry_group_IT_number 2
_symmetry_cell_setting 'triclinic'
loop_
_space_group_symop_operation_xyz
x,y,z
-x,-y,-z
loop_
_atom_site_type_symbol
_atom_site_label
_atom_site_fract_x
_atom_site_fract_y
_atom_site_fract_z
Si Si1 0.638193 0.062276 0.220949
Si Si2 0.404286 0.248582 0.859799
Si Si3 0.174008 0.746278 0.677630
Si Si4 0.849246 0.499503 0.969317
Si Si5 0.818309 0.260763 0.049254
Si Si6 0.407698 0.247788 0.585306
Si Si7 0.381060 0.000174 0.928178
Si Si8 0.725727 0.571136 0.781919
O O1 0.482826 0.244513 0.225746
O O2 0.500000 0.000000 0.500000
O O3 0.633234 0.069558 0.080074
O O4 0.919288 0.912265 0.095538
O O5 0.632488 0.237589 0.617905
O O6 0.390297 0.249050 0.742984
O O7 0.177320 0.398746 0.023992
O O8 0.451212 0.110318 0.041264
O O9 0.168237 0.740280 0.829310
O O10 0.226746 0.592524 0.766532
O O11 0.894682 0.885424 0.819111
O O12 0.700002 0.579853 0.940766
O O13 0.131646 0.383097 0.721711
O O14 0.598997 0.265874 0.290302
O O15 0.744197 0.426128 0.900311
O O16 0.470284 0.090717 0.665651
O O17 0.000000 0.500000 0.500000
#
# Coordination Sequence:
#
# PCOD9096558 Si02
#       8
#     2   2   2   2   2   2   2   2
#     4  11  21  39  67  88 109 148 202 251 291 331
#     4  11  18  33  55  86 115 148 201 228 278 351
#     4   8  18  32  56  79 113 154 186 241 287 325
#     4  10  20  36  56  84 117 151 192 237 285 348
#     4   9  20  39  58  86 121 150 190 240 289 349
#     4  10  22  38  55  79 129 162 173 225 304 355
#     4  10  20  36  56  84 117 151 192 237 285 348
#     4  11  21  39  67  88 109 148 202 251 291 331
#
# _framework density 21.787426
#
# number of rings (size 3 to 8) (size 9 to 14) (size 15 to 20)
#    0.000    2.000    2.500    2.250    0.000    0.000 
#    2.250    1.250    0.000    0.000    0.000    0.000 
#    0.000    0.000    0.000    0.000    0.000    0.000 
#
# Total GULP energy -89151.650416 kJ/mol
# GULP energy per Si atom -5571.978151 kJ/mol
# Density = 2.173784 g / cm^3
# Si number density = 21.787426 Si / 1000 Ang^3
#
#
#
# Elastic Constant Matrix: (Units=GPa)
#
#
# Indices 1 2 3 4 5 6 
#
# 1 71.8935 27.5263 -4.7197 -3.0805 0.3789 2.4322
# 2 27.5263 168.9693 52.1147 -9.4953 -12.3499 11.0503
# 3 -4.7197 52.1147 94.2523 -4.9954 -21.9624 5.2883
# 4 -3.0805 -9.4953 -4.9954 12.8074 4.7566 5.1520
# 5 0.3789 -12.3499 -21.9624 4.7566 35.2509 -2.3333
# 6 2.4322 11.0503 5.2883 5.1520 -2.3333 22.2096
#
#
#
# Elastic Compliance Matrix: (Units=1/GPa)
#
#
# Indices 1 2 3 4 5 6 
#
# 1 0.015455 -0.003083 0.002712 0.003140 -0.000082 -0.001541
# 2 -0.003083 0.008311 -0.004412 0.005684 -0.000846 -0.004154
# 3 0.002712 -0.004412 0.015069 0.000865 0.007625 -0.001089
# 4 0.003140 0.005684 0.000865 0.099278 -0.012736 -0.027746
# 5 -0.000082 -0.000846 0.007625 -0.012736 0.034888 0.005234
# 6 -0.001541 -0.004154 -0.001089 -0.027746 0.005234 0.054507
#
#
# Mechanical properties :
#
#
# Convention : Reuss Voigt Hill
#
# Bulk Modulus (GPa) = 34.16630 53.88419 44.02524
# Shear Modulus (GPa) = 20.25689 31.39983 25.82836
#
# Velocity S-wave (km/s) = 3.05249 3.80042 3.44680
# Velocity P-wave (km/s) = 5.30465 6.63649 6.00759
#
# Compressibility (1/GPa) = 0.02926861
#
# Stress axis : x y z
#
# Youngs Moduli (GPa) = 64.70366 120.32749 66.36122
#
# Poissons Ratio (x) = 0.37098 -0.18000
# Poissons Ratio (y) = 0.19949 0.29281
# Poissons Ratio (z) = -0.17550 0.53094
#
# Static dielectric constant tensor:
#      x y z
#    x 1.769970 0.020790 0.022390 
#    y 0.020790 1.908790 0.008690 
#    z 0.022390 0.008690 1.766540 
# 
# From -- ./inp_files/180348.got.cif
#   From: 2010.05.17/outbox.cif.g08.bks.cpg/sg2_91_cif.got.tgz:180348.got - 2010.06.03 11:33:40.
