data_PCOD9096200
_publ_section_title
;
Structure prediction by ZEFSAII (Michael W. Deem and Ramdas Pophale) SiO2 
 PCOD9096200
Probable space group: P -1
;
_chemical_formula_sum "Si O2"
_cell_formula_units_Z 12
_cell_length_a 21.985342
_cell_length_b 10.044908
_cell_length_c 10.110793
_cell_angle_alpha 42.566168
_cell_angle_beta 148.605950
_cell_angle_gamma 157.388630
_cell_volume 432.172458
_symmetry_space_group_name_H-M "P -1"
_symmetry_group_IT_number 2
_symmetry_cell_setting 'triclinic'
loop_
_space_group_symop_operation_xyz
x,y,z
-x,-y,-z
loop_
_atom_site_type_symbol
_atom_site_label
_atom_site_fract_x
_atom_site_fract_y
_atom_site_fract_z
Si Si1 0.326423 0.113804 0.795532
Si Si2 0.195252 0.488510 0.400959
Si Si3 0.110447 0.150630 0.236985
Si Si4 0.446021 0.655028 0.290321
Si Si5 0.682445 0.353201 0.206617
Si Si6 0.367076 0.108944 0.161697
O O1 0.151499 0.984160 0.483186
O O2 0.537742 0.551657 0.860705
O O3 0.434670 0.064426 0.990660
O O4 0.248675 0.988649 0.892651
O O5 0.061671 0.217050 0.226438
O O6 0.170892 0.398225 0.576051
O O7 0.422487 0.707791 0.630853
O O8 0.229777 0.770439 0.242613
O O9 0.343206 0.549745 0.319664
O O10 0.000000 0.000000 0.000000
O O11 0.500000 0.500000 0.500000
O O12 0.657333 0.082629 0.349518
O O13 0.292518 0.502952 0.992856
#
# Coordination Sequence:
#
# PCOD9096200 Si02
#       6
#     2   2   2   2   2   2
#     4   9  15  29  52  85 108 141 187 238 284 328
#     4   9  17  32  53  84 110 145 195 239 276 334
#     4  11  22  37  56  83 122 158 190 233 287 347
#     4  11  22  38  59  90 120 148 185 244 295 337
#     4  10  20  35  63  90 113 144 198 243 289 330
#     4   8  14  25  52  82 111 128 188 251 280 305
#
# _framework density 27.766691999999999
#
# number of rings (size 3 to 8) (size 9 to 14) (size 15 to 20)
#    0.000    2.333    1.667    5.000    0.000    0.000 
#    0.000    4.167    0.000    1.000    0.000    0.000 
#    0.000    0.000    0.000    0.000    0.000    0.000 
#
# Total GULP energy -67001.099468 kJ/mol
# GULP energy per Si atom -5583.424956 kJ/mol
# Density = 2.770349 g / cm^3
# Si number density = 27.766692 Si / 1000 Ang^3
#
#
#
# Elastic Constant Matrix: (Units=GPa)
#
#
# Indices 1 2 3 4 5 6 
#
# 1 82.3878 28.1371 50.0983 -4.8179 -46.1536 -6.2687
# 2 28.1371 97.5585 49.1208 -29.6388 -20.4339 -19.9711
# 3 50.0983 49.1208 185.9319 -13.0870 -51.1217 -1.0270
# 4 -4.8179 -29.6388 -13.0870 55.6592 2.8023 -9.2745
# 5 -46.1536 -20.4339 -51.1217 2.8023 79.4704 -4.3602
# 6 -6.2687 -19.9711 -1.0270 -9.2745 -4.3602 34.1182
#
#
#
# Elastic Compliance Matrix: (Units=1/GPa)
#
#
# Indices 1 2 3 4 5 6 
#
# 1 0.019919 -0.001553 -0.002146 0.000576 0.009994 0.004120
# 2 -0.001553 0.019253 -0.003099 0.011661 0.002432 0.014372
# 3 -0.002146 -0.003099 0.007466 -0.000512 0.002680 -0.001780
# 4 0.000576 0.011661 -0.000512 0.026369 0.002867 0.014451
# 5 0.009994 0.002432 0.002680 0.002867 0.021010 0.006805
# 6 0.004120 0.014372 -0.001780 0.014451 0.006805 0.043224
#
#
# Mechanical properties :
#
#
# Convention : Reuss Voigt Hill
#
# Bulk Modulus (GPa) = 30.26331 68.95451 49.60891
# Shear Modulus (GPa) = 30.89292 49.75104 40.32198
#
# Velocity S-wave (km/s) = 3.33917 4.23750 3.81487
# Velocity P-wave (km/s) = 5.07834 6.98780 6.10815
#
# Compressibility (1/GPa) = 0.03304331
#
# Stress axis : x y z
#
# Youngs Moduli (GPa) = 50.20411 51.94056 133.93661
#
# Poissons Ratio (x) = 0.08065 0.28736
# Poissons Ratio (y) = 0.07795 0.41507
# Poissons Ratio (z) = 0.10771 0.16096
#
# Static dielectric constant tensor:
#      x y z
#    x 2.213030 0.001010 0.035320 
#    y 0.001010 2.336710 0.081460 
#    z 0.035320 0.081460 2.254200 
# 
# From -- ./inp_files/477586.got.cif
#   From: 2010.05.17/outbox.cif.g08.bks.cpg/sg2_239_cif.got.tgz:477586.got - 2010.06.03 11:33:40.
