data_PCOD9096688
_publ_section_title
;
Structure prediction by ZEFSAII (Michael W. Deem and Ramdas Pophale) SiO2 
 PCOD9096688
Probable space group: P -1
;
_chemical_formula_sum "Si O2"
_cell_formula_units_Z 10
_cell_length_a 15.096367
_cell_length_b 13.283870
_cell_length_c 9.260123
_cell_angle_alpha 138.602717
_cell_angle_beta 41.231113
_cell_angle_gamma 160.266132
_cell_volume 405.751923
_symmetry_space_group_name_H-M "P -1"
_symmetry_group_IT_number 2
_symmetry_cell_setting 'triclinic'
loop_
_space_group_symop_operation_xyz
x,y,z
-x,-y,-z
loop_
_atom_site_type_symbol
_atom_site_label
_atom_site_fract_x
_atom_site_fract_y
_atom_site_fract_z
Si Si1 0.758592 0.360229 0.584755
Si Si2 0.186747 0.680140 0.823235
Si Si3 0.053313 0.129086 0.419081
Si Si4 0.491970 0.235059 0.333595
Si Si5 0.128898 0.357682 0.972273
O O1 0.839607 0.465391 0.433463
O O2 0.000000 0.500000 0.500000
O O3 0.500000 0.000000 0.500000
O O4 0.742528 0.471774 0.847501
O O5 0.463138 0.887436 0.779994
O O6 0.000000 0.500000 0.000000
O O7 0.104284 0.756748 0.926920
O O8 0.810516 0.010404 0.575420
O O9 0.000204 0.935750 0.171013
O O10 0.000000 0.000000 0.500000
O O11 0.346200 0.487918 0.464697
O O12 0.641145 0.400303 0.173231
#
# Coordination Sequence:
#
# PCOD9096688 Si02
#       5
#     2   2   2   2   2
#     4  10  22  38  58  87 119 154 195 240 292 349
#     4   9  20  39  61  88 118 152 197 248 292 339
#     4  10  20  36  57  85 116 154 193 233 287 354
#     4  10  21  36  58  87 117 149 193 243 289 338
#     4   9  19  37  60  83 114 157 196 234 285 352
#
# _framework density 24.645600000000002
#
# number of rings (size 3 to 8) (size 9 to 14) (size 15 to 20)
#    0.000    2.400    0.000    2.400    0.000   14.400 
#    0.000   17.000    0.000    0.000    0.000    0.000 
#    0.000    0.000    0.000    0.000    0.000    0.000 
#
# Total GULP energy -55745.960485 kJ/mol
# GULP energy per Si atom -5574.596048 kJ/mol
# Density = 2.458951 g / cm^3
# Si number density = 24.645600 Si / 1000 Ang^3
#
#
#
# Elastic Constant Matrix: (Units=GPa)
#
#
# Indices 1 2 3 4 5 6 
#
# 1 103.5921 41.5376 41.4246 -9.5131 10.4884 26.8829
# 2 41.5376 140.6931 52.3172 14.3160 -0.1669 13.9982
# 3 41.4246 52.3172 168.7841 38.1495 35.0262 1.3499
# 4 -9.5131 14.3160 38.1495 49.5673 14.7168 -2.0814
# 5 10.4884 -0.1669 35.0262 14.7168 40.1164 1.3204
# 6 26.8829 13.9982 1.3499 -2.0814 1.3204 37.5042
#
#
#
# Elastic Compliance Matrix: (Units=1/GPa)
#
#
# Indices 1 2 3 4 5 6 
#
# 1 0.015965 -0.003064 -0.003927 0.007516 -0.003199 -0.009629
# 2 -0.003064 0.009302 -0.002317 -0.002714 0.003907 -0.001480
# 3 -0.003927 -0.002317 0.010136 -0.006055 -0.005716 0.003180
# 4 0.007516 -0.002714 -0.006055 0.029133 -0.007302 -0.002283
# 5 -0.003199 0.003907 -0.005716 -0.007302 0.033468 -0.000543
# 6 -0.009629 -0.001480 0.003180 -0.002283 -0.000543 0.033896
#
#
# Mechanical properties :
#
#
# Convention : Reuss Voigt Hill
#
# Bulk Modulus (GPa) = 59.56663 75.95867 67.76265
# Shear Modulus (GPa) = 32.02861 43.95690 37.99276
#
# Velocity S-wave (km/s) = 3.60886 4.22780 3.93053
# Velocity P-wave (km/s) = 6.44879 7.39728 6.93926
#
# Compressibility (1/GPa) = 0.01678792
#
# Stress axis : x y z
#
# Youngs Moduli (GPa) = 62.63764 107.50620 98.65872
#
# Poissons Ratio (x) = 0.32938 0.38740
# Poissons Ratio (y) = 0.19191 0.22858
# Poissons Ratio (z) = 0.24595 0.24908
#
# Static dielectric constant tensor:
#      x y z
#    x 1.981630 -0.080880 -0.020430 
#    y -0.080880 2.066550 0.091760 
#    z -0.020430 0.091760 2.139520 
# 
# From -- ./inp_files/20156.got.cif
#   From: 2010.05.17/outbox.cif.g08.bks.cpg/sg2_11_cif.got.tgz:20156.got - 2010.06.03 11:33:40.
