data_PCOD9096693
_publ_section_title
;
Structure prediction by ZEFSAII (Michael W. Deem and Ramdas Pophale) SiO2 
 PCOD9096693
Probable space group: P -1
;
_chemical_formula_sum "Si O2"
_cell_formula_units_Z 16
_cell_length_a 18.641070
_cell_length_b 12.428395
_cell_length_c 22.662224
_cell_angle_alpha 31.301469
_cell_angle_beta 16.211660
_cell_angle_gamma 26.696424
_cell_volume 658.296192
_symmetry_space_group_name_H-M "P -1"
_symmetry_group_IT_number 2
_symmetry_cell_setting 'triclinic'
loop_
_space_group_symop_operation_xyz
x,y,z
-x,-y,-z
loop_
_atom_site_type_symbol
_atom_site_label
_atom_site_fract_x
_atom_site_fract_y
_atom_site_fract_z
Si Si1 0.429158 0.784829 0.587241
Si Si2 0.141940 0.751946 0.230176
Si Si3 0.683318 0.839121 0.790529
Si Si4 0.754068 0.610371 0.093058
Si Si5 0.283190 0.278640 0.055205
Si Si6 0.398905 0.697681 0.775961
Si Si7 0.302141 0.020418 0.804665
Si Si8 0.805762 0.740165 0.616802
O O1 0.387961 0.557740 0.719384
O O2 0.537531 0.758251 0.582095
O O3 0.644390 0.801779 0.361625
O O4 0.108655 0.019354 0.715329
O O5 0.186470 0.511482 0.277002
O O6 0.003313 0.759899 0.400273
O O7 0.442237 0.759318 0.000540
O O8 0.846181 0.718110 0.779664
O O9 0.883277 0.778389 0.603309
O O10 0.492064 0.121347 0.821424
O O11 0.890607 0.615387 0.918509
O O12 0.000000 0.500000 0.000000
O O13 0.445750 0.434095 0.862252
O O14 0.500000 0.000000 0.000000
O O15 0.454217 0.778644 0.757544
O O16 0.044564 0.873289 0.964261
O O17 0.475399 0.951909 0.761002
#
# Coordination Sequence:
#
# PCOD9096693 Si02
#       8
#     2   2   2   2   2   2   2   2
#     4  10  20  37  58  84 114 154 195 243 295 344
#     4  10  20  36  57  85 120 154 193 245 294 347
#     4  11  20  38  61  83 117 159 194 241 297 347
#     4  10  20  38  63  87 114 158 200 243 293 349
#     4   9  21  37  59  88 117 153 200 238 292 352
#     4  10  20  37  59  82 119 152 190 240 295 351
#     4  10  21  35  56  89 115 149 196 243 288 349
#     4  10  22  35  56  89 118 152 202 240 288 359
#
# _framework density 24.305167999999998
#
# number of rings (size 3 to 8) (size 9 to 14) (size 15 to 20)
#    0.000    2.000    1.250    2.250    1.750    2.000 
#    0.000   10.000    0.000    7.500    0.000    0.000 
#    0.000    0.000    0.000    0.000    0.000    0.000 
#
# Total GULP energy -89525.010311 kJ/mol
# GULP energy per Si atom -5595.313144 kJ/mol
# Density = 2.424985 g / cm^3
# Si number density = 24.305168 Si / 1000 Ang^3
#
#
#
# Elastic Constant Matrix: (Units=GPa)
#
#
# Indices 1 2 3 4 5 6 
#
# 1 156.9579 42.8606 25.1717 -1.0182 48.7209 -9.7734
# 2 42.8606 112.3598 21.5016 -25.7868 14.6893 -3.7574
# 3 25.1717 21.5016 53.1094 -5.4618 22.5834 -1.6956
# 4 -1.0182 -25.7868 -5.4618 36.4494 -7.3010 -7.2332
# 5 48.7209 14.6893 22.5834 -7.3010 41.0179 2.2417
# 6 -9.7734 -3.7574 -1.6956 -7.2332 2.2417 38.5229
#
#
#
# Elastic Compliance Matrix: (Units=1/GPa)
#
#
# Indices 1 2 3 4 5 6 
#
# 1 0.011810 -0.003896 0.001797 -0.004543 -0.014578 0.002691
# 2 -0.003896 0.012883 -0.003950 0.009501 0.003789 0.001658
# 3 0.001797 -0.003950 0.026036 -0.001574 -0.015434 0.001819
# 4 -0.004543 0.009501 -0.001574 0.036822 0.009081 0.006090
# 5 -0.014578 0.003789 -0.015434 0.009081 0.050739 -0.005256
# 6 0.002691 0.001658 0.001819 0.006090 -0.005256 0.028332
#
#
# Mechanical properties :
#
#
# Convention : Reuss Voigt Hill
#
# Bulk Modulus (GPa) = 25.88620 55.72165 40.80392
# Shear Modulus (GPa) = 26.09650 38.72426 32.41038
#
# Velocity S-wave (km/s) = 3.28029 3.99589 3.65564
# Velocity P-wave (km/s) = 5.00207 6.65320 5.88582
#
# Compressibility (1/GPa) = 0.03863063
#
# Stress axis : x y z
#
# Youngs Moduli (GPa) = 84.67538 77.62422 38.40853
#
# Poissons Ratio (x) = 0.30240 -0.06903
# Poissons Ratio (y) = 0.32987 0.15173
# Poissons Ratio (z) = -0.15219 0.30665
#
# Static dielectric constant tensor:
#      x y z
#    x 1.981890 0.001450 -0.012240 
#    y 0.001450 1.937600 0.037700 
#    z -0.012240 0.037700 1.943220 
# 
# From -- ./inp_files/189371.got.cif
#   From: 2010.05.17/outbox.cif.g08.bks.cpg/sg2_95_cif.got.tgz:189371.got - 2010.06.03 11:33:40.
