data_PCOD9096412
_publ_section_title
;
Structure prediction by ZEFSAII (Michael W. Deem and Ramdas Pophale) SiO2 
 PCOD9096412
Probable space group: P -1
;
_chemical_formula_sum "Si O2"
_cell_formula_units_Z 16
_cell_length_a 7.967759
_cell_length_b 12.153432
_cell_length_c 12.823452
_cell_angle_alpha 49.744165
_cell_angle_beta 131.635739
_cell_angle_gamma 104.423088
_cell_volume 671.979440
_symmetry_space_group_name_H-M "P -1"
_symmetry_group_IT_number 2
_symmetry_cell_setting 'triclinic'
loop_
_space_group_symop_operation_xyz
x,y,z
-x,-y,-z
loop_
_atom_site_type_symbol
_atom_site_label
_atom_site_fract_x
_atom_site_fract_y
_atom_site_fract_z
Si Si1 0.340797 0.329701 0.751967
Si Si2 0.790790 0.116500 0.562772
Si Si3 0.415529 0.616786 0.544136
Si Si4 0.720044 0.056485 0.017333
Si Si5 0.031189 0.316022 0.429618
Si Si6 0.274016 0.140278 0.038484
Si Si7 0.240870 0.036905 0.549458
Si Si8 0.119181 0.600043 0.224586
O O1 0.312490 0.506381 0.639746
O O2 0.189248 0.310249 0.601695
O O3 0.269695 0.255709 0.870098
O O4 0.610332 0.232991 0.891030
O O5 0.628939 0.219730 0.522065
O O6 0.724339 0.993257 0.540830
O O7 0.045520 0.029213 0.771068
O O8 0.829815 0.243188 0.421993
O O9 0.270908 0.628898 0.368786
O O10 0.682921 0.512023 0.698701
O O11 0.759589 0.005082 0.945448
O O12 0.500000 0.000000 0.000000
O O13 0.967690 0.486851 0.259072
O O14 0.192969 0.201013 0.481243
O O15 0.070912 0.234752 0.975505
O O16 0.531464 0.080359 0.231040
O O17 0.000000 0.000000 0.500000
#
# Coordination Sequence:
#
# PCOD9096412 Si02
#       8
#     2   2   2   2   2   2   2   2
#     4  10  17  31  57  83 107 135 177 228 269 316
#     4  11  19  35  56  81 111 141 174 220 276 319
#     4  10  21  36  52  81 112 142 180 225 267 308
#     4  10  16  30  54  84 103 131 177 223 262 314
#     4  10  17  33  55  82 107 140 177 219 275 317
#     4  11  18  34  57  85 106 140 181 218 271 318
#     4  10  21  34  55  86 113 136 173 228 272 318
#     4  10  21  35  55  79 110 143 184 224 259 317
#
# _framework density 23.81025
#
# number of rings (size 3 to 8) (size 9 to 14) (size 15 to 20)
#    0.000    1.750    5.000    3.000    0.000    2.000 
#    0.000   10.000    0.000    0.000    0.000    0.000 
#    0.000    0.000    0.000    0.000    0.000    0.000 
#
# Total GULP energy -89369.810024 kJ/mol
# GULP energy per Si atom -5585.613127 kJ/mol
# Density = 2.375606 g / cm^3
# Si number density = 23.810250 Si / 1000 Ang^3
#
#
#
# Elastic Constant Matrix: (Units=GPa)
#
#
# Indices 1 2 3 4 5 6 
#
# 1 73.3580 25.0723 9.5829 -4.2182 23.5774 -18.3397
# 2 25.0723 126.9064 61.9891 -17.6197 11.4062 -39.0320
# 3 9.5829 61.9891 66.5374 -9.1254 20.3510 -17.1747
# 4 -4.2182 -17.6197 -9.1254 40.1340 -12.6439 6.6703
# 5 23.5774 11.4062 20.3510 -12.6439 31.1884 -16.5205
# 6 -18.3397 -39.0320 -17.1747 6.6703 -16.5205 39.4693
#
#
#
# Elastic Compliance Matrix: (Units=1/GPa)
#
#
# Indices 1 2 3 4 5 6 
#
# 1 0.022707 -0.010660 0.012737 -0.007106 -0.026831 -0.004479
# 2 -0.010660 0.030474 -0.029215 0.012228 0.033979 0.024627
# 3 0.012737 -0.029215 0.047608 -0.011613 -0.044808 -0.019049
# 4 -0.007106 0.012228 -0.011613 0.033905 0.027197 0.009391
# 5 -0.026831 0.033979 -0.044808 0.027197 0.101013 0.039322
# 6 -0.004479 0.024627 -0.019049 0.009391 0.039322 0.054192
#
#
# Mechanical properties :
#
#
# Convention : Reuss Voigt Hill
#
# Bulk Modulus (GPa) = 21.49937 51.12114 36.31026
# Shear Modulus (GPa) = 13.90129 33.50217 23.70173
#
# Velocity S-wave (km/s) = 2.41889 3.75513 3.15849
# Velocity P-wave (km/s) = 4.10493 6.34966 5.34643
#
# Compressibility (1/GPa) = 0.04651298
#
# Stress axis : x y z
#
# Youngs Moduli (GPa) = 44.03974 32.81438 21.00493
#
# Poissons Ratio (x) = 0.34981 -0.26755
# Poissons Ratio (y) = 0.46947 0.61366
# Poissons Ratio (z) = -0.56095 0.95867
#
# Static dielectric constant tensor:
#      x y z
#    x 2.102030 0.017830 -0.004350 
#    y 0.017830 1.935410 -0.037900 
#    z -0.004350 -0.037900 1.856040 
# 
# From -- ./inp_files/215852.got.cif
#   From: 2010.05.17/outbox.cif.g08.bks.cpg/sg2_108_cif.got.tgz:215852.got - 2010.06.03 11:33:40.
