data_PCOD9096777
_publ_section_title
;
Structure prediction by ZEFSAII (Michael W. Deem and Ramdas Pophale) SiO2 
 PCOD9096777
Probable space group: P -1
;
_chemical_formula_sum "Si O2"
_cell_formula_units_Z 16
_cell_length_a 7.718708
_cell_length_b 14.505263
_cell_length_c 6.439478
_cell_angle_alpha 106.138707
_cell_angle_beta 108.243372
_cell_angle_gamma 74.251574
_cell_volume 644.176521
_symmetry_space_group_name_H-M "P -1"
_symmetry_group_IT_number 2
_symmetry_cell_setting 'triclinic'
loop_
_space_group_symop_operation_xyz
x,y,z
-x,-y,-z
loop_
_atom_site_type_symbol
_atom_site_label
_atom_site_fract_x
_atom_site_fract_y
_atom_site_fract_z
Si Si1 0.859449 0.337040 0.138253
Si Si2 0.863713 0.990385 0.637979
Si Si3 0.744463 0.444436 0.773787
Si Si4 0.776115 0.758839 0.030759
Si Si5 0.116406 0.378979 0.636606
Si Si6 0.572397 0.634294 0.592302
Si Si7 0.322648 0.011937 0.802562
Si Si8 0.860616 0.135877 0.100440
O O1 0.020037 0.282775 0.010401
O O2 0.971185 0.363083 0.392417
O O3 0.748126 0.422475 0.007285
O O4 0.764248 0.248147 0.114841
O O5 0.673006 0.000898 0.450104
O O6 0.864125 0.078514 0.850566
O O7 0.000000 0.000000 0.500000
O O8 0.932358 0.890392 0.732820
O O9 0.623095 0.548839 0.730120
O O10 0.635068 0.366574 0.572427
O O11 0.955629 0.441422 0.766838
O O12 0.632593 0.726568 0.789423
O O13 0.780401 0.706457 0.223883
O O14 0.763414 0.873359 0.127419
O O15 0.285203 0.400388 0.569522
O O16 0.500000 0.000000 0.000000
O O17 0.236301 0.926201 0.818603
#
# Coordination Sequence:
#
# PCOD9096777 Si02
#       8
#     2   2   2   2   2   2   2   2
#     4  10  21  38  63  91 118 155 207 251 299 363
#     4   9  18  34  56  77 104 144 193 237 285 342
#     4  10  23  41  63  94 123 158 205 251 301 367
#     4  10  22  40  60  87 121 158 202 253 303 362
#     4  10  22  39  65  91 124 164 200 248 308 360
#     4  10  23  42  63  90 127 160 199 253 307 363
#     4  11  24  37  55  86 121 157 199 247 302 358
#     4  10  20  36  58  81 111 153 195 243 292 347
#
# _framework density 24.837914000000001
#
# number of rings (size 3 to 8) (size 9 to 14) (size 15 to 20)
#    0.000    2.000    0.000    3.375    0.000   14.000 
#    0.000    2.500    0.000    0.000    0.000    0.000 
#    0.000    0.000    0.000    0.000    0.000    0.000 
#
# Total GULP energy -89216.842409 kJ/mol
# GULP energy per Si atom -5576.052651 kJ/mol
# Density = 2.478138 g / cm^3
# Si number density = 24.837914 Si / 1000 Ang^3
#
#
#
# Elastic Constant Matrix: (Units=GPa)
#
#
# Indices 1 2 3 4 5 6 
#
# 1 87.1951 12.7375 34.3504 -6.2774 2.7055 16.8017
# 2 12.7375 70.8590 48.9571 -14.6147 -6.8930 21.1399
# 3 34.3504 48.9571 172.0600 -25.5006 6.1703 5.7550
# 4 -6.2774 -14.6147 -25.5006 25.6523 1.5505 6.3941
# 5 2.7055 -6.8930 6.1703 1.5505 24.8445 0.2740
# 6 16.8017 21.1399 5.7550 6.3941 0.2740 22.6937
#
#
#
# Elastic Compliance Matrix: (Units=1/GPa)
#
#
# Indices 1 2 3 4 5 6 
#
# 1 0.016647 0.008366 -0.003352 0.011034 0.000899 -0.022388
# 2 0.008366 0.039307 -0.007321 0.028787 0.010559 -0.049191
# 3 -0.003352 -0.007321 0.008863 0.002469 -0.004092 0.006408
# 4 0.011034 0.028787 0.002469 0.074525 0.002146 -0.056635
# 5 0.000899 0.010559 -0.004092 0.002146 0.044081 -0.010601
# 6 -0.022388 -0.049191 0.006408 -0.056635 -0.010601 0.120924
#
#
# Mechanical properties :
#
#
# Convention : Reuss Voigt Hill
#
# Bulk Modulus (GPa) = 16.61073 58.02267 37.31670
# Shear Modulus (GPa) = 15.19618 30.24270 22.71944
#
# Velocity S-wave (km/s) = 2.47617 3.49320 3.02770
# Velocity P-wave (km/s) = 3.85712 6.29930 5.22296
#
# Compressibility (1/GPa) = 0.06020205
#
# Stress axis : x y z
#
# Youngs Moduli (GPa) = 60.06952 25.44065 112.83357
#
# Poissons Ratio (x) = -0.21283 0.37821
# Poissons Ratio (y) = -0.50253 0.82609
# Poissons Ratio (z) = 0.20135 0.18626
#
# Static dielectric constant tensor:
#      x y z
#    x 0.765100 0.404550 -0.876760 
#    y 0.404550 1.911200 0.280400 
#    z -0.876760 0.280400 1.368050 
# 
# From -- ./inp_files/39479.got.cif
#   From: 2010.05.17/outbox.cif.g08.bks.cpg/sg2_20_cif.got.tgz:39479.got - 2010.06.03 11:33:40.
