data_PCOD9096919
_publ_section_title
;
Structure prediction by ZEFSAII (Michael W. Deem and Ramdas Pophale) SiO2 
 PCOD9096919
Probable space group: P -1
;
_chemical_formula_sum "Si O2"
_cell_formula_units_Z 16
_cell_length_a 21.009859
_cell_length_b 10.114051
_cell_length_c 5.182050
_cell_angle_alpha 95.284238
_cell_angle_beta 129.396497
_cell_angle_gamma 77.965334
_cell_volume 831.062304
_symmetry_space_group_name_H-M "P -1"
_symmetry_group_IT_number 2
_symmetry_cell_setting 'triclinic'
loop_
_space_group_symop_operation_xyz
x,y,z
-x,-y,-z
loop_
_atom_site_type_symbol
_atom_site_label
_atom_site_fract_x
_atom_site_fract_y
_atom_site_fract_z
Si Si1 0.303964 0.038238 0.811629
Si Si2 0.807595 0.514984 0.743498
Si Si3 0.506828 0.616508 0.337257
Si Si4 0.173102 0.303275 0.671201
Si Si5 0.009486 0.588936 0.789522
Si Si6 0.358484 0.594901 0.621047
Si Si7 0.649279 0.131806 0.576085
Si Si8 0.471919 0.124807 0.258634
O O1 0.229675 0.157477 0.735168
O O2 0.294086 0.947365 0.520728
O O3 0.380209 0.111501 0.930536
O O4 0.328733 0.941594 0.106858
O O5 0.811393 0.599457 0.507078
O O6 0.727454 0.445087 0.525079
O O7 0.806557 0.620618 0.999919
O O8 0.893198 0.400338 0.961164
O O9 0.500000 0.500000 0.500000
O O10 0.578741 0.545008 0.315566
O O11 0.534744 0.739483 0.571047
O O12 0.415540 0.657402 0.982366
O O13 0.073910 0.295447 0.412041
O O14 0.000000 0.500000 0.500000
O O15 0.000000 0.500000 0.000000
O O16 0.343229 0.711052 0.383984
O O17 0.550166 0.126461 0.270083
O O18 0.500000 0.000000 0.500000
#
# Coordination Sequence:
#
# PCOD9096919 Si02
#       8
#     2   2   2   2   2   2   2   2
#     4  11  23  36  59  80 108 148 195 234 278 335
#     4  10  21  34  60  87 112 148 182 228 288 348
#     4  11  23  39  55  81 114 153 188 240 285 325
#     4  10  20  36  58  88 116 138 184 239 287 334
#     4   8  16  33  54  83 115 141 173 227 290 338
#     4  11  24  36  58  78 117 150 193 230 282 344
#     4  11  23  39  53  79 110 154 189 233 280 327
#     4  10  21  38  57  76 109 147 193 233 278 330
#
# _framework density 19.252468
#
# number of rings (size 3 to 8) (size 9 to 14) (size 15 to 20)
#    0.000    1.750    1.250    3.375    3.500    2.000 
#    0.000    0.000    0.000    1.500    0.000    0.000 
#    0.000    0.000    0.000    0.000    0.000    0.000 
#
# Total GULP energy -89234.553979 kJ/mol
# GULP energy per Si atom -5577.159624 kJ/mol
# Density = 1.920865 g / cm^3
# Si number density = 19.252468 Si / 1000 Ang^3
#
#
#
# Elastic Constant Matrix: (Units=GPa)
#
#
# Indices 1 2 3 4 5 6 
#
# 1 106.3721 28.2248 37.7108 -3.6988 14.3313 -9.2316
# 2 28.2248 88.4602 14.0808 -3.4713 6.2371 -9.6175
# 3 37.7108 14.0808 53.3849 -3.8140 2.5448 4.2912
# 4 -3.6988 -3.4713 -3.8140 22.3464 -6.9309 -1.6567
# 5 14.3313 6.2371 2.5448 -6.9309 51.1696 -2.2128
# 6 -9.2316 -9.6175 4.2912 -1.6567 -2.2128 36.0816
#
#
#
# Elastic Compliance Matrix: (Units=1/GPa)
#
#
# Indices 1 2 3 4 5 6 
#
# 1 0.014168 -0.002364 -0.009577 -0.000320 -0.003077 0.003930
# 2 -0.002364 0.012768 -0.001822 0.001356 -0.000488 0.003047
# 3 -0.009577 -0.001822 0.026565 0.002759 0.001703 -0.005864
# 4 -0.000320 0.001356 0.002759 0.047530 0.006334 0.002522
# 5 -0.003077 -0.000488 0.001703 0.006334 0.021258 0.000475
# 6 0.003930 0.003047 -0.005864 0.002522 0.000475 0.030375
#
#
# Mechanical properties :
#
#
# Convention : Reuss Voigt Hill
#
# Bulk Modulus (GPa) = 38.50014 45.36112 41.93063
# Shear Modulus (GPa) = 26.47628 33.13292 29.80460
#
# Velocity S-wave (km/s) = 3.71241 4.15296 3.93885
# Velocity P-wave (km/s) = 6.19814 6.82704 6.52017
#
# Compressibility (1/GPa) = 0.02597393
#
# Stress axis : x y z
#
# Youngs Moduli (GPa) = 70.58180 78.32125 37.64389
#
# Poissons Ratio (x) = 0.18519 0.36050
# Poissons Ratio (y) = 0.16689 0.06860
# Poissons Ratio (z) = 0.67594 0.14272
#
# Static dielectric constant tensor:
#      x y z
#    x 1.714940 -0.041430 -0.002930 
#    y -0.041430 1.657300 -0.011700 
#    z -0.002930 -0.011700 1.723180 
# 
# From -- ./inp_files/53956.got.cif
#   From: 2010.05.17/outbox.cif.g08.bks.cpg/sg2_27_cif.got.tgz:53956.got - 2010.06.03 11:33:40.
