data_PCOD9096139
_publ_section_title
;
Structure prediction by ZEFSAII (Michael W. Deem and Ramdas Pophale) SiO2 
 PCOD9096139
Probable space group: P -1
;
_chemical_formula_sum "Si O2"
_cell_formula_units_Z 16
_cell_length_a 13.430439
_cell_length_b 20.230187
_cell_length_c 9.512123
_cell_angle_alpha 43.653772
_cell_angle_beta 43.559759
_cell_angle_gamma 26.231330
_cell_volume 763.921905
_symmetry_space_group_name_H-M "P -1"
_symmetry_group_IT_number 2
_symmetry_cell_setting 'triclinic'
loop_
_space_group_symop_operation_xyz
x,y,z
-x,-y,-z
loop_
_atom_site_type_symbol
_atom_site_label
_atom_site_fract_x
_atom_site_fract_y
_atom_site_fract_z
Si Si1 0.459150 0.134679 0.351711
Si Si2 0.660360 0.787862 0.053011
Si Si3 0.747577 0.081833 0.903312
Si Si4 0.711149 0.535347 0.735247
Si Si5 0.029973 0.476880 0.274735
Si Si6 0.206884 0.728920 0.891296
Si Si7 0.945088 0.122891 0.460326
Si Si8 0.570340 0.042748 0.687574
O O1 0.205093 0.304421 0.307897
O O2 0.500000 0.000000 0.500000
O O3 0.486312 0.135550 0.489456
O O4 0.639594 0.105252 0.124647
O O5 0.452173 0.830901 0.143508
O O6 0.900304 0.606947 0.090043
O O7 0.616414 0.844908 0.171004
O O8 0.623040 0.903568 0.824923
O O9 0.828469 0.147482 0.685887
O O10 0.968805 0.899011 0.929141
O O11 0.816734 0.532083 0.769715
O O12 0.431133 0.673805 0.795624
O O13 0.831161 0.528885 0.492781
O O14 0.781452 0.386710 0.893597
O O15 0.197489 0.737848 0.716523
O O16 0.189404 0.041283 0.373033
O O17 0.000000 0.000000 0.500000
#
# Coordination Sequence:
#
# PCOD9096139 Si02
#       8
#     2   2   2   2   2   2   2   2
#     4  12  26  44  61  93 134 173 211 260 326 386
#     4  11  22  40  69  97 121 166 220 271 309 369
#     4  11  23  40  64  92 131 169 211 255 321 385
#     4  10  21  37  63  97 128 160 205 277 318 366
#     4  11  24  37  65  93 128 163 220 261 317 371
#     4  10  20  39  64  94 130 161 209 263 326 368
#     4  10  20  35  62  93 120 157 215 262 305 367
#     4  11  22  39  68  94 127 165 213 263 318 371
#
# _framework density 20.944548000000001
#
# number of rings (size 3 to 8) (size 9 to 14) (size 15 to 20)
#    0.000    1.250    3.750    3.750    7.000    1.000 
#    0.000    0.000    0.000    1.500    0.000    0.000 
#    0.000    0.000    0.000    0.000    0.000    0.000 
#
# Total GULP energy -89361.012730 kJ/mol
# GULP energy per Si atom -5585.063296 kJ/mol
# Density = 2.089688 g / cm^3
# Si number density = 20.944548 Si / 1000 Ang^3
#
#
#
# Elastic Constant Matrix: (Units=GPa)
#
#
# Indices 1 2 3 4 5 6 
#
# 1 43.9390 18.8113 -4.8102 -3.5307 -4.9955 -15.6834
# 2 18.8113 113.7145 21.7689 -16.8099 6.6457 -20.5003
# 3 -4.8102 21.7689 103.7967 -3.3741 14.2447 -2.4827
# 4 -3.5307 -16.8099 -3.3741 30.3357 -2.4722 5.6669
# 5 -4.9955 6.6457 14.2447 -2.4722 39.2668 -1.4883
# 6 -15.6834 -20.5003 -2.4827 5.6669 -1.4883 27.2993
#
#
#
# Elastic Compliance Matrix: (Units=1/GPa)
#
#
# Indices 1 2 3 4 5 6 
#
# 1 0.030221 -0.002815 0.001770 -0.000438 0.004248 0.015731
# 2 -0.002815 0.011445 -0.002102 0.004619 -0.001023 0.005772
# 3 0.001770 -0.002102 0.010608 -0.000091 -0.003264 0.000244
# 4 -0.000438 0.004619 -0.000091 0.036368 0.001323 -0.004269
# 5 0.004248 -0.001023 -0.003264 0.001323 0.027546 0.002602
# 6 0.015731 0.005772 0.000244 -0.004269 0.002602 0.051053
#
#
# Mechanical properties :
#
#
# Convention : Reuss Voigt Hill
#
# Bulk Modulus (GPa) = 21.74906 36.99891 29.37399
# Shear Modulus (GPa) = 26.47434 34.42570 30.45002
#
# Velocity S-wave (km/s) = 3.55916 4.05860 3.81706
# Velocity P-wave (km/s) = 5.22464 6.29814 5.78634
#
# Compressibility (1/GPa) = 0.04597899
#
# Stress axis : x y z
#
# Youngs Moduli (GPa) = 33.09002 87.37286 94.26914
#
# Poissons Ratio (x) = 0.24597 -0.16686
# Poissons Ratio (y) = 0.09315 0.19818
# Poissons Ratio (z) = -0.05857 0.18368
#
# Static dielectric constant tensor:
#      x y z
#    x 1.712480 0.035510 0.011490 
#    y 0.035510 1.764630 -0.000070 
#    z 0.011490 -0.000070 1.795070 
# 
# From -- ./inp_files/278954.got.cif
#   From: 2010.05.17/outbox.cif.g08.bks.cpg/sg2_140_cif.got.tgz:278954.got - 2010.06.03 11:33:40.
