data_PCOD9096716
_publ_section_title
;
Structure prediction by ZEFSAII (Michael W. Deem and Ramdas Pophale) SiO2 
 PCOD9096716
Probable space group: P -1
;
_chemical_formula_sum "Si O2"
_cell_formula_units_Z 16
_cell_length_a 7.500369
_cell_length_b 14.320288
_cell_length_c 12.826901
_cell_angle_alpha 109.637869
_cell_angle_beta 34.727577
_cell_angle_gamma 97.719662
_cell_volume 712.880256
_symmetry_space_group_name_H-M "P -1"
_symmetry_group_IT_number 2
_symmetry_cell_setting 'triclinic'
loop_
_space_group_symop_operation_xyz
x,y,z
-x,-y,-z
loop_
_atom_site_type_symbol
_atom_site_label
_atom_site_fract_x
_atom_site_fract_y
_atom_site_fract_z
Si Si1 0.735050 0.922950 0.487708
Si Si2 0.938595 0.071939 0.301860
Si Si3 0.214502 0.236027 0.320440
Si Si4 0.854528 0.498368 0.951835
Si Si5 0.664004 0.028765 0.107694
Si Si6 0.665927 0.574206 0.725288
Si Si7 0.297371 0.604048 0.694400
Si Si8 0.801236 0.698344 0.422881
O O1 0.400675 0.924512 0.588519
O O2 0.610691 0.976041 0.678093
O O3 0.877072 0.801938 0.386952
O O4 0.955747 0.981157 0.342207
O O5 0.955639 0.176331 0.387423
O O6 0.233195 0.044435 0.068013
O O7 0.530924 0.145205 0.170123
O O8 0.280617 0.314621 0.232265
O O9 0.095617 0.303428 0.506372
O O10 0.936959 0.590924 0.880904
O O11 0.036184 0.395066 0.764550
O O12 0.497144 0.485210 0.135810
O O13 0.000000 0.500000 0.000000
O O14 0.000000 0.000000 0.000000
O O15 0.434445 0.599390 0.744286
O O16 0.000000 0.500000 0.500000
O O17 0.500000 0.500000 0.500000
O O18 0.419150 0.694547 0.613714
#
# Coordination Sequence:
#
# PCOD9096716 Si02
#       8
#     2   2   2   2   2   2   2   2
#     4   9  20  36  58  84 118 157 197 247 291 360
#     4  10  20  36  57  87 121 156 198 241 302 366
#     4  10  21  36  56  85 119 160 192 245 311 350
#     4   9  18  34  58  84 106 155 204 240 297 357
#     4   9  19  37  58  83 119 152 198 246 290 352
#     4  10  21  36  56  83 120 149 193 253 295 351
#     4   8  16  34  56  76 105 148 193 238 286 345
#     4   9  18  34  56  84 115 151 201 251 299 356
#
# _framework density 22.444161999999999
#
# number of rings (size 3 to 8) (size 9 to 14) (size 15 to 20)
#    0.000    2.750    0.000    0.375    1.750    5.000 
#    2.250    5.625    8.250    0.000    0.000    0.000 
#    0.000    0.000    0.000    0.000    0.000    0.000 
#
# Total GULP energy -89091.166265 kJ/mol
# GULP energy per Si atom -5568.197892 kJ/mol
# Density = 2.239308 g / cm^3
# Si number density = 22.444162 Si / 1000 Ang^3
#
#
#
# Elastic Constant Matrix: (Units=GPa)
#
#
# Indices 1 2 3 4 5 6 
#
# 1 68.0844 20.5193 14.7950 1.0572 7.0760 16.9306
# 2 20.5193 110.6537 29.0999 -35.6776 13.0896 13.2932
# 3 14.7950 29.0999 94.4119 -19.0340 19.2919 10.5427
# 4 1.0572 -35.6776 -19.0340 37.0493 5.0120 -0.7228
# 5 7.0760 13.0896 19.2919 5.0120 33.0309 10.6458
# 6 16.9306 13.2932 10.5427 -0.7228 10.6458 32.2043
#
#
#
# Elastic Compliance Matrix: (Units=1/GPa)
#
#
# Indices 1 2 3 4 5 6 
#
# 1 0.018318 -0.004118 -0.002532 -0.006324 0.002777 -0.008161
# 2 -0.004118 0.016364 0.001016 0.017482 -0.008270 -0.001796
# 3 -0.002532 0.001016 0.014740 0.009946 -0.009837 -0.000439
# 4 -0.006324 0.017482 0.009946 0.051744 -0.019367 0.000416
# 5 0.002777 -0.008270 -0.009837 -0.019367 0.044897 -0.010102
# 6 -0.008161 -0.001796 -0.000439 0.000416 -0.010102 0.039576
#
#
# Mechanical properties :
#
#
# Convention : Reuss Voigt Hill
#
# Bulk Modulus (GPa) = 26.20956 44.66427 35.43691
# Shear Modulus (GPa) = 23.85217 34.37261 29.11239
#
# Velocity S-wave (km/s) = 3.26350 3.91765 3.60544
# Velocity P-wave (km/s) = 5.08956 6.35668 5.75808
#
# Compressibility (1/GPa) = 0.03815402
#
# Stress axis : x y z
#
# Youngs Moduli (GPa) = 54.59089 61.10920 67.84474
#
# Poissons Ratio (x) = 0.25164 0.17180
# Poissons Ratio (y) = 0.22480 -0.06896
# Poissons Ratio (z) = 0.13824 -0.06211
#
# Static dielectric constant tensor:
#      x y z
#    x 1.926760 -0.021870 -0.017860 
#    y -0.021870 1.889440 -0.053260 
#    z -0.017860 -0.053260 1.847130 
# 
# From -- ./inp_files/505440.got.cif
#   From: 2010.05.17/outbox.cif.g08.bks.cpg/sg2_253_cif.got.tgz:505440.got - 2010.06.03 11:33:40.
