data_PCOD9096911
_publ_section_title
;
Structure prediction by ZEFSAII (Michael W. Deem and Ramdas Pophale) SiO2 
 PCOD9096911
Probable space group: P -1
;
_chemical_formula_sum "Si O2"
_cell_formula_units_Z 13
_cell_length_a 7.262874
_cell_length_b 17.622563
_cell_length_c 6.942630
_cell_angle_alpha 40.973696
_cell_angle_beta 118.729369
_cell_angle_gamma 113.536125
_cell_volume 509.908709
_symmetry_space_group_name_H-M "P -1"
_symmetry_group_IT_number 2
_symmetry_cell_setting 'triclinic'
loop_
_space_group_symop_operation_xyz
x,y,z
-x,-y,-z
loop_
_atom_site_type_symbol
_atom_site_label
_atom_site_fract_x
_atom_site_fract_y
_atom_site_fract_z
Si Si1 0.523094 0.634971 0.192987
Si Si2 0.674600 0.873975 0.315757
Si Si3 0.275695 0.740164 0.183393
Si Si4 0.287141 0.579161 0.835356
Si Si5 0.888662 0.889665 0.761573
Si Si6 0.136963 0.332267 0.389954
Si Si7 0.000000 0.000000 0.000000
O O1 0.500000 0.500000 0.500000
O O2 0.346059 0.707988 0.066439
O O3 0.733954 0.679084 0.323902
O O4 0.490541 0.628041 0.962352
O O5 0.455551 0.827672 0.200600
O O6 0.843162 0.781653 0.506921
O O7 0.682192 0.871337 0.557080
O O8 0.783273 0.988894 0.051444
O O9 0.288766 0.620907 0.538677
O O10 0.050230 0.789550 0.002043
O O11 0.094709 0.640144 0.720930
O O12 0.238502 0.443633 0.111953
O O13 0.000000 0.000000 0.500000
O O14 0.871028 0.929524 0.895253
#
# Coordination Sequence:
#
# PCOD9096911 Si02
#       7
#     2   2   2   2   2   2   1
#     4   9  20  37  57  88 126 161 198 239 287 351
#     4  10  22  40  61  87 119 154 197 249 302 354
#     4  11  23  38  63  93 119 158 205 240 294 364
#     4  10  20  36  58  87 125 162 196 240 289 351
#     4  10  23  43  63  86 117 154 202 257 304 352
#     4   9  19  37  58  86 124 160 197 240 293 354
#     4  10  22  42  62  82 114 152 196 254 306 348
#
# _framework density 25.494759999999999
#
# number of rings (size 3 to 8) (size 9 to 14) (size 15 to 20)
#    0.000    2.154    0.000    1.846    0.000   12.923 
#    0.000   16.154    0.000    0.000    0.000    0.000 
#    0.000    0.000    0.000    0.000    0.000    0.000 
#
# Total GULP energy -72445.173430 kJ/mol
# GULP energy per Si atom -5572.705648 kJ/mol
# Density = 2.543673 g / cm^3
# Si number density = 25.494760 Si / 1000 Ang^3
#
#
#
# Elastic Constant Matrix: (Units=GPa)
#
#
# Indices 1 2 3 4 5 6 
#
# 1 73.2991 18.8954 24.3366 6.3469 -1.8409 -17.4615
# 2 18.8954 63.3242 5.1223 25.7726 -0.8113 -22.6484
# 3 24.3366 5.1223 70.2815 22.3313 1.0876 -13.8765
# 4 6.3469 25.7726 22.3313 53.9740 1.0840 -5.7857
# 5 -1.8409 -0.8113 1.0876 1.0840 26.6800 -11.9861
# 6 -17.4615 -22.6484 -13.8765 -5.7857 -11.9861 51.0789
#
#
#
# Elastic Compliance Matrix: (Units=1/GPa)
#
#
# Indices 1 2 3 4 5 6 
#
# 1 0.017446 -0.004794 -0.006077 0.003036 0.002593 0.003140
# 2 -0.004794 0.026477 0.006242 -0.013531 0.006015 0.011676
# 3 -0.006077 0.006242 0.020114 -0.010041 0.001803 0.005440
# 4 0.003036 -0.013531 -0.010041 0.028288 -0.003305 -0.005261
# 5 0.002593 0.006015 0.001803 -0.003305 0.044213 0.014044
# 6 0.003140 0.011676 0.005440 -0.005261 0.014044 0.030006
#
#
# Mechanical properties :
#
#
# Convention : Reuss Voigt Hill
#
# Bulk Modulus (GPa) = 18.25458 33.73482 25.99470
# Shear Modulus (GPa) = 25.76491 36.91663 31.34077
#
# Velocity S-wave (km/s) = 3.18244 3.80940 3.50994
# Velocity P-wave (km/s) = 4.54748 5.71047 5.16183
#
# Compressibility (1/GPa) = 0.05478079
#
# Stress axis : x y z
#
# Youngs Moduli (GPa) = 57.31881 37.76832 49.71544
#
# Poissons Ratio (x) = 0.18105 0.30210
# Poissons Ratio (y) = 0.27477 -0.31031
# Poissons Ratio (z) = 0.34831 -0.23574
#
# Static dielectric constant tensor:
#      x y z
#    x 2.018630 0.023330 -0.054070 
#    y 0.023330 2.136760 0.014680 
#    z -0.054070 0.014680 2.115630 
# 
# From -- ./inp_files/41493.got.cif
#   From: 2010.05.17/outbox.cif.g08.bks.cpg/sg2_21_cif.got.tgz:41493.got - 2010.06.03 11:33:40.
