data_PCOD9096743
_publ_section_title
;
Structure prediction by ZEFSAII (Michael W. Deem and Ramdas Pophale) SiO2 
 PCOD9096743
Probable space group: P -1
;
_chemical_formula_sum "Si O2"
_cell_formula_units_Z 16
_cell_length_a 10.994139
_cell_length_b 8.995714
_cell_length_c 9.028076
_cell_angle_alpha 110.937653
_cell_angle_beta 105.302130
_cell_angle_gamma 100.769645
_cell_volume 764.174997
_symmetry_space_group_name_H-M "P -1"
_symmetry_group_IT_number 2
_symmetry_cell_setting 'triclinic'
loop_
_space_group_symop_operation_xyz
x,y,z
-x,-y,-z
loop_
_atom_site_type_symbol
_atom_site_label
_atom_site_fract_x
_atom_site_fract_y
_atom_site_fract_z
Si Si1 0.348553 0.439673 0.369898
Si Si2 0.863762 0.157620 0.223082
Si Si3 0.705065 0.840814 0.243851
Si Si4 0.432791 0.418595 0.098534
Si Si5 0.493443 0.990206 0.318184
Si Si6 0.219344 0.032657 0.174367
Si Si7 0.337766 0.677087 0.684250
Si Si8 0.091329 0.112403 0.439976
O O1 0.500000 0.500000 0.500000
O O2 0.372336 0.510024 0.235620
O O3 0.282362 0.238112 0.263755
O O4 0.278832 0.527464 0.495034
O O5 0.777618 0.284751 0.243544
O O6 0.010709 0.215327 0.361067
O O7 0.787400 0.020542 0.271439
O O8 0.855956 0.061092 0.029365
O O9 0.775071 0.792468 0.392252
O O10 0.560951 0.852406 0.242190
O O11 0.691827 0.725493 0.057014
O O12 0.546425 0.356626 0.191401
O O13 0.500000 0.500000 0.000000
O O14 0.344850 0.965464 0.209642
O O15 0.583014 0.162404 0.332478
O O16 0.500000 0.000000 0.500000
O O17 0.131793 0.003302 0.285442
O O18 0.000000 0.000000 0.500000
#
# Coordination Sequence:
#
# PCOD9096743 Si02
#       8
#     2   2   2   2   2   2   2   2
#     4  10  21  38  58  88 123 159 193 237 305 375
#     4  10  21  41  59  85 117 160 201 254 283 344
#     4  10  20  36  57  91 122 150 198 249 301 350
#     4  11  22  34  60  90 125 157 193 246 304 369
#     4  11  20  31  60  93 119 152 190 250 306 357
#     4  12  20  38  65  88 120 156 203 246 303 354
#     4  10  22  40  57  89 130 154 196 244 305 364
#     4  10  23  38  59  88 119 159 207 250 292 350
#
# _framework density 20.937612999999999
#
# number of rings (size 3 to 8) (size 9 to 14) (size 15 to 20)
#    0.000    1.500    5.000    1.125    5.250    2.000 
#    0.000    0.625    0.000    0.750    0.000    0.000 
#    0.000    0.000    0.000    0.000    0.000    0.000 
#
# Total GULP energy -89123.308190 kJ/mol
# GULP energy per Si atom -5570.206762 kJ/mol
# Density = 2.088996 g / cm^3
# Si number density = 20.937613 Si / 1000 Ang^3
#
#
#
# Elastic Constant Matrix: (Units=GPa)
#
#
# Indices 1 2 3 4 5 6 
#
# 1 90.4924 18.6776 50.1984 -4.8050 -12.8901 -10.8837
# 2 18.6776 43.5795 42.9404 -9.0398 -0.5274 5.0686
# 3 50.1984 42.9404 167.3875 -13.9960 -19.6202 -24.3256
# 4 -4.8050 -9.0398 -13.9960 29.7364 -4.7957 -5.1976
# 5 -12.8901 -0.5274 -19.6202 -4.7957 35.9605 -9.6581
# 6 -10.8837 5.0686 -24.3256 -5.1976 -9.6581 24.5317
#
#
#
# Elastic Compliance Matrix: (Units=1/GPa)
#
#
# Indices 1 2 3 4 5 6 
#
# 1 0.015900 -0.009325 0.001872 0.005418 0.011770 0.016618
# 2 -0.009325 0.052598 -0.022441 -0.009822 -0.029846 -0.051088
# 3 0.001872 -0.022441 0.020628 0.013671 0.023661 0.038133
# 4 0.005418 -0.009822 0.013671 0.048929 0.026164 0.038656
# 5 0.011770 -0.029846 0.023661 0.026164 0.065794 0.066297
# 6 0.016618 -0.051088 0.038133 0.038656 0.066297 0.130796
#
#
# Mechanical properties :
#
#
# Convention : Reuss Voigt Hill
#
# Bulk Modulus (GPa) = 34.08602 58.34357 46.21479
# Shear Modulus (GPa) = 12.36972 30.68857 21.52914
#
# Velocity S-wave (km/s) = 2.43325 3.83262 3.21012
# Velocity P-wave (km/s) = 4.92031 6.89284 5.98835
#
# Compressibility (1/GPa) = 0.02933754
#
# Stress axis : x y z
#
# Youngs Moduli (GPa) = 62.89264 19.01209 48.47820
#
# Poissons Ratio (x) = 0.17729 -0.09073
# Poissons Ratio (y) = 0.58649 1.08788
# Poissons Ratio (z) = -0.11771 0.42664
#
# Static dielectric constant tensor:
#      x y z
#    x 1.752130 -0.132950 -0.041620 
#    y -0.132950 1.576750 -0.053000 
#    z -0.041620 -0.053000 1.759310 
# 
# From -- ./inp_files/240638.got.cif
#   From: 2010.05.17/outbox.cif.g08.bks.cpg/sg2_121_cif.got.tgz:240638.got - 2010.06.03 11:33:40.
