data_PCOD9096834
_publ_section_title
;
Structure prediction by ZEFSAII (Michael W. Deem and Ramdas Pophale) SiO2 
 PCOD9096834
Probable space group: P -1
;
_chemical_formula_sum "Si O2"
_cell_formula_units_Z 15
_cell_length_a 11.062006
_cell_length_b 21.624225
_cell_length_c 17.375926
_cell_angle_alpha 158.022759
_cell_angle_beta 32.503321
_cell_angle_gamma 136.127605
_cell_volume 796.212020
_symmetry_space_group_name_H-M "P -1"
_symmetry_group_IT_number 2
_symmetry_cell_setting 'triclinic'
loop_
_space_group_symop_operation_xyz
x,y,z
-x,-y,-z
loop_
_atom_site_type_symbol
_atom_site_label
_atom_site_fract_x
_atom_site_fract_y
_atom_site_fract_z
Si Si1 0.243400 0.973580 0.111618
Si Si2 0.355811 0.905896 0.680455
Si Si3 0.918007 0.265529 0.725643
Si Si4 0.147032 0.351175 0.853411
Si Si5 0.306879 0.655009 0.823905
Si Si6 0.000000 0.500000 0.500000
Si Si7 0.527496 0.747330 0.966886
Si Si8 0.967205 0.131725 0.051388
O O1 0.247909 0.821743 0.993807
O O2 0.160797 0.918678 0.011065
O O3 0.064602 0.147502 0.443496
O O4 0.500000 0.000000 0.000000
O O5 0.608085 0.763121 0.373480
O O6 0.201598 0.842844 0.753328
O O7 0.397065 0.082095 0.892072
O O8 0.197967 0.971506 0.765131
O O9 0.078618 0.254982 0.704144
O O10 0.836670 0.466115 0.975461
O O11 0.688173 0.211840 0.809784
O O12 0.931813 0.383608 0.066222
O O13 0.500000 0.500000 0.500000
O O14 0.424549 0.692868 0.882371
O O15 0.749146 0.594203 0.700544
O O16 0.025539 0.312154 0.223063
#
# Coordination Sequence:
#
# PCOD9096834 Si02
#       8
#     2   2   2   2   2   1   2   2
#     4  12  23  38  59  87 120 151 188 243 295 338
#     4  10  20  38  60  83 111 149 194 237 282 348
#     4  10  21  36  58  85 115 151 195 239 286 342
#     4  10  20  37  58  82 115 156 195 235 285 343
#     4  11  22  35  55  85 118 150 193 241 288 340
#     4  10  20  38  60  82 114 154 194 232 278 344
#     4  10  20  36  58  84 113 153 196 236 286 342
#     4  10  22  38  60  87 116 152 195 235 286 345
#
# _framework density 18.839203999999999
#
# number of rings (size 3 to 8) (size 9 to 14) (size 15 to 20)
#    0.000    1.600    0.000    5.600    0.000    4.267 
#    0.000    9.333    0.000    0.000    0.000    0.000 
#    0.000    0.000    0.000    0.000    0.000    0.000 
#
# Total GULP energy -83507.778955 kJ/mol
# GULP energy per Si atom -5567.185264 kJ/mol
# Density = 1.879633 g / cm^3
# Si number density = 18.839204 Si / 1000 Ang^3
#
#
#
# Elastic Constant Matrix: (Units=GPa)
#
#
# Indices 1 2 3 4 5 6 
#
# 1 116.9312 10.0433 47.6187 -7.6814 -15.0356 7.9673
# 2 10.0433 25.7502 -8.9651 -4.4540 -3.9477 -1.0146
# 3 47.6187 -8.9651 74.4925 -6.8139 -17.1722 -3.2573
# 4 -7.6814 -4.4540 -6.8139 20.4035 2.1500 2.5327
# 5 -15.0356 -3.9477 -17.1722 2.1500 34.5901 -3.1513
# 6 7.9673 -1.0146 -3.2573 2.5327 -3.1513 13.8478
#
#
#
# Elastic Compliance Matrix: (Units=1/GPa)
#
#
# Indices 1 2 3 4 5 6 
#
# 1 0.014899 -0.010406 -0.011613 0.001213 -0.001707 -0.012677
# 2 -0.010406 0.052820 0.017038 0.010398 0.010628 0.014381
# 3 -0.011613 0.017038 0.026651 0.005097 0.011252 0.015827
# 4 0.001213 0.010398 0.005097 0.054512 0.000064 -0.008693
# 5 -0.001707 0.010628 0.011252 0.000064 0.036112 0.012614
# 6 -0.012677 0.014381 0.015827 -0.008693 0.012614 0.088744
#
#
# Mechanical properties :
#
#
# Convention : Reuss Voigt Hill
#
# Bulk Modulus (GPa) = 11.84720 34.95196 23.39958
# Shear Modulus (GPa) = 16.03411 25.00007 20.51709
#
# Velocity S-wave (km/s) = 2.92053 3.64679 3.30368
# Velocity P-wave (km/s) = 4.20416 6.02703 5.19615
#
# Compressibility (1/GPa) = 0.08440815
#
# Stress axis : x y z
#
# Youngs Moduli (GPa) = 67.11835 18.93237 37.52259
#
# Poissons Ratio (x) = 0.19700 0.43576
# Poissons Ratio (y) = 0.69841 -0.63932
# Poissons Ratio (z) = 0.77946 -0.32258
#
# Static dielectric constant tensor:
#      x y z
#    x 1.638230 0.009970 -0.014140 
#    y 0.009970 1.670990 0.002080 
#    z -0.014140 0.002080 1.653800 
# 
# From -- ./inp_files/158860.got.cif
#   From: 2010.05.17/outbox.cif.g08.bks.cpg/sg2_80_cif.got.tgz:158860.got - 2010.06.03 11:33:40.
