data_PCOD9096056
_publ_section_title
;
Structure prediction by ZEFSAII (Michael W. Deem and Ramdas Pophale) SiO2 
 PCOD9096056
Probable space group: P -1
;
_chemical_formula_sum "Si O2"
_cell_formula_units_Z 16
_cell_length_a 15.945936
_cell_length_b 10.156307
_cell_length_c 9.696697
_cell_angle_alpha 114.737193
_cell_angle_beta 35.972703
_cell_angle_gamma 112.403836
_cell_volume 835.144390
_symmetry_space_group_name_H-M "P -1"
_symmetry_group_IT_number 2
_symmetry_cell_setting 'triclinic'
loop_
_space_group_symop_operation_xyz
x,y,z
-x,-y,-z
loop_
_atom_site_type_symbol
_atom_site_label
_atom_site_fract_x
_atom_site_fract_y
_atom_site_fract_z
Si Si1 0.024120 0.674950 0.869250
Si Si2 0.172423 0.163538 0.386316
Si Si3 0.165641 0.598339 0.924874
Si Si4 0.255695 0.808459 0.419742
Si Si5 0.412525 0.404785 0.462611
Si Si6 0.843580 0.170652 0.753446
Si Si7 0.213160 0.137997 0.650595
Si Si8 0.467077 0.348985 0.056268
O O1 0.085180 0.673773 0.942647
O O2 0.150182 0.703259 0.605881
O O3 0.938672 0.517197 0.902032
O O4 0.913320 0.799899 0.065204
O O5 0.173822 0.154728 0.547793
O O6 0.305759 0.275778 0.217464
O O7 0.015891 0.198551 0.557635
O O8 0.194213 0.999173 0.236532
O O9 0.275256 0.497552 0.662149
O O10 0.228089 0.720741 0.000088
O O11 0.202298 0.804069 0.330783
O O12 0.242028 0.972273 0.563065
O O13 0.416148 0.760928 0.190444
O O14 0.500000 0.500000 0.500000
O O15 0.352621 0.249097 0.533245
O O16 0.484496 0.380513 0.210263
O O17 0.500000 0.500000 0.000000
#
# Coordination Sequence:
#
# PCOD9096056 Si02
#       8
#     2   2   2   2   2   2   2   2
#     4  10  20  36  57  85 114 150 193 234 287 344
#     4   9  20  39  61  85 118 156 191 235 292 347
#     4  10  20  35  62  80 110 158 193 231 287 343
#     4  11  23  36  60  90 114 153 192 242 294 336
#     4  10  21  38  58  84 114 149 196 238 278 345
#     4  10  20  37  62  91 111 148 202 246 279 330
#     4   9  19  38  61  82 113 153 194 239 283 342
#     4  11  24  41  58  83 124 157 186 235 301 356
#
# _framework density 19.158363999999999
#
# number of rings (size 3 to 8) (size 9 to 14) (size 15 to 20)
#    0.000    2.000    1.250    1.875    3.500    6.000 
#    4.500    0.000    0.000    3.000    0.000    0.000 
#    0.000    0.000    0.000    0.000    0.000    0.000 
#
# Total GULP energy -89301.734606 kJ/mol
# GULP energy per Si atom -5581.358413 kJ/mol
# Density = 1.911476 g / cm^3
# Si number density = 19.158364 Si / 1000 Ang^3
#
#
#
# Elastic Constant Matrix: (Units=GPa)
#
#
# Indices 1 2 3 4 5 6 
#
# 1 36.9796 25.0551 -8.4481 -0.8412 -14.0474 11.2070
# 2 25.0551 74.2339 26.0459 5.9341 -2.1562 1.9534
# 3 -8.4481 26.0459 65.5988 -0.3822 -3.9283 -3.8082
# 4 -0.8412 5.9341 -0.3822 26.7701 10.7506 0.6695
# 5 -14.0474 -2.1562 -3.9283 10.7506 20.4129 7.5264
# 6 11.2070 1.9534 -3.8082 0.6695 7.5264 28.3475
#
#
#
# Elastic Compliance Matrix: (Units=1/GPa)
#
#
# Indices 1 2 3 4 5 6 
#
# 1 0.321703 -0.119703 0.098035 -0.098405 0.352031 -0.196906
# 2 -0.119703 0.060919 -0.042921 0.031168 -0.126502 0.070211
# 3 0.098035 -0.042921 0.047906 -0.028880 0.108562 -0.057505
# 4 -0.098405 0.031168 -0.028880 0.080329 -0.137137 0.067389
# 5 0.352031 -0.126502 0.108562 -0.137137 0.457290 -0.234045
# 6 -0.196906 0.070211 -0.057505 0.067389 -0.234045 0.161107
#
#
# Mechanical properties :
#
#
# Convention : Reuss Voigt Hill
#
# Bulk Modulus (GPa) = 3.31843 29.12421 16.22132
# Shear Modulus (GPa) = 3.67949 24.05008 13.86479
#
# Velocity S-wave (km/s) = 1.38735 3.54691 2.69307
# Velocity P-wave (km/s) = 2.07417 5.65764 4.26093
#
# Compressibility (1/GPa) = 0.30134753
#
# Stress axis : x y z
#
# Youngs Moduli (GPa) = 3.10846 16.41536 20.87433
#
# Poissons Ratio (x) = 1.96497 -2.04641
# Poissons Ratio (y) = 0.37209 0.89595
# Poissons Ratio (z) = -0.30474 0.70457
#
# Static dielectric constant tensor:
#      x y z
#    x 1.669270 0.012650 -0.034630 
#    y 0.012650 1.670620 0.017220 
#    z -0.034630 0.017220 1.671940 
# 
# From -- ./inp_files/299081.got.cif
#   From: 2010.05.17/outbox.cif.g08.bks.cpg/sg2_150_cif.got.tgz:299081.got - 2010.06.03 11:33:40.
