data_PCOD9096197
_publ_section_title
;
Structure prediction by ZEFSAII (Michael W. Deem and Ramdas Pophale) SiO2 
 PCOD9096197
Probable space group: P -1
;
_chemical_formula_sum "Si O2"
_cell_formula_units_Z 16
_cell_length_a 14.637677
_cell_length_b 10.912201
_cell_length_c 8.947855
_cell_angle_alpha 29.093446
_cell_angle_beta 76.858331
_cell_angle_gamma 79.887282
_cell_volume 675.939436
_symmetry_space_group_name_H-M "P -1"
_symmetry_group_IT_number 2
_symmetry_cell_setting 'triclinic'
loop_
_space_group_symop_operation_xyz
x,y,z
-x,-y,-z
loop_
_atom_site_type_symbol
_atom_site_label
_atom_site_fract_x
_atom_site_fract_y
_atom_site_fract_z
Si Si1 0.332148 0.862348 0.524082
Si Si2 0.021947 0.728025 0.632470
Si Si3 0.545762 0.724757 0.945712
Si Si4 0.092415 0.842399 0.168898
Si Si5 0.371128 0.442019 0.196789
Si Si6 0.846201 0.870134 0.662460
Si Si7 0.721545 0.495562 0.294799
Si Si8 0.204335 0.374191 0.550470
O O1 0.287204 0.787799 0.460653
O O2 0.434676 0.987722 0.320919
O O3 0.252225 0.022173 0.458751
O O4 0.341714 0.640382 0.871908
O O5 0.066478 0.695800 0.489362
O O6 0.915497 0.819217 0.555027
O O7 0.089374 0.938517 0.464558
O O8 0.000000 0.500000 0.000000
O O9 0.575703 0.739514 0.742355
O O10 0.446338 0.578664 0.135503
O O11 0.624162 0.599721 0.154630
O O12 0.132798 0.608546 0.305644
O O13 0.163827 0.087373 0.897919
O O14 0.000000 0.000000 0.000000
O O15 0.278673 0.355687 0.409729
O O16 0.808986 0.630100 0.028997
O O17 0.738853 0.538000 0.415135
#
# Coordination Sequence:
#
# PCOD9096197 Si02
#       8
#     2   2   2   2   2   2   2   2
#     4  10  20  37  66  96 131 175 231 288 348 412
#     4  11  23  39  65  94 128 178 242 295 344 412
#     4   9  21  42  68 100 136 174 237 292 350 411
#     4  12  29  48  69 102 150 189 235 296 365 428
#     4  10  23  41  67 100 137 182 229 290 354 435
#     4  10  20  35  63  89 125 169 229 285 340 405
#     4  10  21  41  64 100 134 179 226 292 345 419
#     4  12  27  47  72 101 145 192 234 288 367 429
#
# _framework density 23.670760000000001
#
# number of rings (size 3 to 8) (size 9 to 14) (size 15 to 20)
#    0.000    1.500    1.250    3.000    7.000    3.500 
#    0.000    0.625    0.000    0.000    0.000    0.000 
#    0.000    0.000    0.000    0.000    0.000    0.000 
#
# Total GULP energy -89179.272560 kJ/mol
# GULP energy per Si atom -5573.704535 kJ/mol
# Density = 2.361688 g / cm^3
# Si number density = 23.670760 Si / 1000 Ang^3
#
#
#
# Elastic Constant Matrix: (Units=GPa)
#
#
# Indices 1 2 3 4 5 6 
#
# 1 84.3228 -0.8121 20.8227 -4.4377 0.1460 7.4622
# 2 -0.8121 42.1932 14.1805 -8.0506 -13.7851 -5.3913
# 3 20.8227 14.1805 68.8779 -12.8115 -9.3369 4.1248
# 4 -4.4377 -8.0506 -12.8115 24.4019 2.9680 -7.6238
# 5 0.1460 -13.7851 -9.3369 2.9680 37.0636 -6.4178
# 6 7.4622 -5.3913 4.1248 -7.6238 -6.4178 31.4377
#
#
#
# Elastic Compliance Matrix: (Units=1/GPa)
#
#
# Indices 1 2 3 4 5 6 
#
# 1 0.013135 0.000865 -0.004197 -0.000231 -0.001241 -0.002728
# 2 0.000865 0.032451 -0.003961 0.010734 0.012105 0.010954
# 3 -0.004197 -0.003961 0.018299 0.007287 0.002607 0.000215
# 4 -0.000231 0.010734 0.007287 0.052324 0.004145 0.014474
# 5 -0.001241 0.012105 0.002607 0.004145 0.033523 0.009877
# 6 -0.002728 0.010954 0.000215 0.014474 0.009877 0.039833
#
#
# Mechanical properties :
#
#
# Convention : Reuss Voigt Hill
#
# Bulk Modulus (GPa) = 20.28409 29.30844 24.79626
# Shear Modulus (GPa) = 22.66716 29.32748 25.99732
#
# Velocity S-wave (km/s) = 3.09787 3.52373 3.31764
# Velocity P-wave (km/s) = 4.62424 5.38183 5.01736
#
# Compressibility (1/GPa) = 0.04929973
#
# Stress axis : x y z
#
# Youngs Moduli (GPa) = 76.13048 30.81565 54.64882
#
# Poissons Ratio (x) = -0.02666 0.22935
# Poissons Ratio (y) = -0.06587 0.21647
# Poissons Ratio (z) = 0.31951 0.12206
#
# Static dielectric constant tensor:
#      x y z
#    x 2.001460 -0.063590 0.042410 
#    y -0.063590 2.032760 -0.123940 
#    z 0.042410 -0.123940 1.948520 
# 
# From -- ./inp_files/134968.got.cif
#   From: 2010.05.17/outbox.cif.g08.bks.cpg/sg2_68_cif.got.tgz:134968.got - 2010.06.03 11:33:40.
