data_PCOD9096060
_publ_section_title
;
Structure prediction by ZEFSAII (Michael W. Deem and Ramdas Pophale) SiO2 
 PCOD9096060
Probable space group: P -1
;
_chemical_formula_sum "Si O2"
_cell_formula_units_Z 16
_cell_length_a 15.638707
_cell_length_b 16.995480
_cell_length_c 5.170682
_cell_angle_alpha 69.458059
_cell_angle_beta 74.785577
_cell_angle_gamma 26.817783
_cell_volume 576.399164
_symmetry_space_group_name_H-M "P -1"
_symmetry_group_IT_number 2
_symmetry_cell_setting 'triclinic'
loop_
_space_group_symop_operation_xyz
x,y,z
-x,-y,-z
loop_
_atom_site_type_symbol
_atom_site_label
_atom_site_fract_x
_atom_site_fract_y
_atom_site_fract_z
Si Si1 0.138868 0.052323 0.085181
Si Si2 0.626436 0.990738 0.205462
Si Si3 0.316627 0.480876 0.581951
Si Si4 0.372613 0.334139 0.199173
Si Si5 0.963989 0.408236 0.175258
Si Si6 0.820824 0.082189 0.302531
Si Si7 0.210607 0.727662 0.644638
Si Si8 0.270681 0.246622 0.841988
O O1 0.226007 0.946272 0.406719
O O2 0.203579 0.090886 0.922584
O O3 0.197366 0.942042 0.933032
O O4 0.912475 0.228511 0.113378
O O5 0.516111 0.135958 0.345698
O O6 0.699862 0.833842 0.344301
O O7 0.464203 0.116862 0.967994
O O8 0.372356 0.400744 0.351340
O O9 0.094375 0.634445 0.621196
O O10 0.333328 0.562832 0.560818
O O11 0.422548 0.338454 0.884235
O O12 0.162247 0.479137 0.118446
O O13 0.868407 0.556754 0.271009
O O14 0.171405 0.263344 0.098916
O O15 0.717376 0.255536 0.260094
O O16 0.049597 0.902724 0.378459
#
# Coordination Sequence:
#
# PCOD9096060 Si02
#       8
#     2   2   2   2   2   2   2   2
#     4  10  20  36  58  86 121 149 187 239 295 343
#     4  10  20  35  62  81 126 156 196 231 302 342
#     4  10  20  35  62  81 118 154 191 241 289 339
#     4   9  22  37  57  84 117 159 195 233 284 345
#     4   8  18  36  61  85 121 146 206 239 291 327
#     4   9  21  34  59  93 118 144 190 251 281 349
#     4   9  20  34  62  92 116 146 197 239 293 334
#     4   9  17  37  60  89 115 157 197 248 281 346
#
# _framework density 27.758541000000001
#
# number of rings (size 3 to 8) (size 9 to 14) (size 15 to 20)
#    1.500    1.250    0.000    1.125    1.750    1.000 
#    0.000    6.250    8.250    4.500    0.000    0.000 
#    0.000    0.000    0.000    0.000    0.000    0.000 
#
# Total GULP energy -89476.958534 kJ/mol
# GULP energy per Si atom -5592.309908 kJ/mol
# Density = 2.769536 g / cm^3
# Si number density = 27.758541 Si / 1000 Ang^3
#
#
#
# Elastic Constant Matrix: (Units=GPa)
#
#
# Indices 1 2 3 4 5 6 
#
# 1 117.5169 50.3167 34.3282 16.4723 19.3570 37.1038
# 2 50.3167 129.5087 49.3546 32.7675 26.7281 46.4643
# 3 34.3282 49.3546 128.3180 32.0944 26.1469 11.0235
# 4 16.4723 32.7675 32.0944 33.4741 15.2097 18.9185
# 5 19.3570 26.7281 26.1469 15.2097 31.8064 15.4873
# 6 37.1038 46.4643 11.0235 18.9185 15.4873 67.6290
#
#
#
# Elastic Compliance Matrix: (Units=1/GPa)
#
#
# Indices 1 2 3 4 5 6 
#
# 1 0.011523 -0.002115 -0.001849 0.001813 -0.002376 -0.004530
# 2 -0.002115 0.013288 -0.002100 -0.005608 -0.002838 -0.005408
# 3 -0.001849 -0.002100 0.011839 -0.008492 -0.004722 0.003984
# 4 0.001813 -0.005608 -0.008492 0.051753 -0.010326 -0.007871
# 5 -0.002376 -0.002838 -0.004722 -0.010326 0.045837 -0.003585
# 6 -0.004530 -0.005408 0.003984 -0.007871 -0.003585 0.023361
#
#
# Mechanical properties :
#
#
# Convention : Reuss Voigt Hill
#
# Bulk Modulus (GPa) = 40.77893 71.48252 56.13073
# Shear Modulus (GPa) = 28.10511 42.67151 35.38831
#
# Velocity S-wave (km/s) = 3.18541 3.92502 3.57439
# Velocity P-wave (km/s) = 5.31522 6.80797 6.10737
#
# Compressibility (1/GPa) = 0.02452247
#
# Stress axis : x y z
#
# Youngs Moduli (GPa) = 86.78414 75.25355 84.46359
#
# Poissons Ratio (x) = 0.15917 0.15619
# Poissons Ratio (y) = 0.18356 0.17735
# Poissons Ratio (z) = 0.16049 0.15801
#
# Static dielectric constant tensor:
#      x y z
#    x 2.196930 -0.072720 -0.055520 
#    y -0.072720 2.248550 0.013200 
#    z -0.055520 0.013200 2.146550 
# 
# From -- ./inp_files/98122.got.cif
#   From: 2010.05.17/outbox.cif.g08.bks.cpg/sg2_50_cif.got.tgz:98122.got - 2010.06.03 11:33:40.
