data_PCOD9096652
_publ_section_title
;
Structure prediction by ZEFSAII (Michael W. Deem and Ramdas Pophale) SiO2 
 PCOD9096652
Probable space group: P -1
;
_chemical_formula_sum "Si O2"
_cell_formula_units_Z 16
_cell_length_a 14.463813
_cell_length_b 7.896885
_cell_length_c 27.567826
_cell_angle_alpha 36.220801
_cell_angle_beta 159.260578
_cell_angle_gamma 140.706896
_cell_volume 656.022575
_symmetry_space_group_name_H-M "P -1"
_symmetry_group_IT_number 2
_symmetry_cell_setting 'triclinic'
loop_
_space_group_symop_operation_xyz
x,y,z
-x,-y,-z
loop_
_atom_site_type_symbol
_atom_site_label
_atom_site_fract_x
_atom_site_fract_y
_atom_site_fract_z
Si Si1 0.123130 0.664442 0.924850
Si Si2 0.716157 0.980363 0.827133
Si Si3 0.451047 0.182549 0.837188
Si Si4 0.212781 0.632774 0.787787
Si Si5 0.784542 0.609533 0.054126
Si Si6 0.664850 0.778114 0.493157
Si Si7 0.921866 0.313126 0.553244
Si Si8 0.422253 0.580159 0.259962
O O1 0.322595 0.884609 0.999643
O O2 0.129502 0.663796 0.870247
O O3 0.237078 0.355065 0.066362
O O4 0.825380 0.649202 0.798966
O O5 0.513736 0.052011 0.669538
O O6 0.621904 0.150710 0.788920
O O7 0.999549 0.138548 0.914848
O O8 0.574007 0.361156 0.809676
O O9 0.209608 0.305459 0.718739
O O10 0.309576 0.917415 0.799979
O O11 0.473594 0.600016 0.892882
O O12 0.924749 0.677553 0.617063
O O13 0.183845 0.402870 0.870040
O O14 0.500000 0.500000 0.500000
O O15 0.777470 0.006964 0.536193
O O16 0.701025 0.471965 0.435050
O O17 0.000000 0.500000 0.500000
#
# Coordination Sequence:
#
# PCOD9096652 Si02
#       8
#     2   2   2   2   2   2   2   2
#     4  11  22  36  60  90 119 149 198 246 291 351
#     4  11  21  37  62  87 119 150 199 244 293 351
#     4  10  20  36  57  82 121 154 192 236 297 345
#     4  10  21  39  60  81 117 158 192 240 292 355
#     4  10  21  38  58  86 116 152 198 239 295 342
#     4  11  22  40  62  87 119 158 201 241 296 355
#     4   9  20  38  59  85 117 156 196 242 291 347
#     4  10  20  37  58  91 119 153 193 245 298 344
#
# _framework density 24.389405
#
# number of rings (size 3 to 8) (size 9 to 14) (size 15 to 20)
#    0.000    1.750    1.250    4.875    0.000    2.500 
#    0.000    7.500    0.000    0.000    0.000    0.000 
#    0.000    0.000    0.000    0.000    0.000    0.000 
#
# Total GULP energy -89312.193772 kJ/mol
# GULP energy per Si atom -5582.012111 kJ/mol
# Density = 2.433389 g / cm^3
# Si number density = 24.389405 Si / 1000 Ang^3
#
#
#
# Elastic Constant Matrix: (Units=GPa)
#
#
# Indices 1 2 3 4 5 6 
#
# 1 84.0184 25.1166 53.4951 9.1832 25.9748 9.0512
# 2 25.1166 68.7429 9.4296 17.4061 12.9207 13.5078
# 3 53.4951 9.4296 124.8319 18.7043 35.8487 9.6714
# 4 9.1832 17.4061 18.7043 29.4727 0.3903 -2.4224
# 5 25.9748 12.9207 35.8487 0.3903 50.1206 6.1100
# 6 9.0512 13.5078 9.6714 -2.4224 6.1100 23.3632
#
#
#
# Elastic Compliance Matrix: (Units=1/GPa)
#
#
# Indices 1 2 3 4 5 6 
#
# 1 0.018918 -0.005869 -0.007039 0.002086 -0.003280 0.000051
# 2 -0.005869 0.024179 0.006029 -0.017398 -0.005596 -0.014542
# 3 -0.007039 0.006029 0.014965 -0.011262 -0.007781 -0.006087
# 4 0.002086 -0.017398 -0.011262 0.051976 0.008988 0.016952
# 5 -0.003280 -0.005596 -0.007781 0.008988 0.028440 0.001221
# 6 0.000051 -0.014542 -0.006087 0.016952 0.001221 0.055148
#
#
# Mechanical properties :
#
#
# Convention : Reuss Voigt Hill
#
# Bulk Modulus (GPa) = 22.57035 50.40840 36.48938
# Shear Modulus (GPa) = 22.50711 33.22812 27.86761
#
# Velocity S-wave (km/s) = 3.04110 3.69507 3.38392
# Velocity P-wave (km/s) = 4.64815 6.23841 5.50105
#
# Compressibility (1/GPa) = 0.04430591
#
# Stress axis : x y z
#
# Youngs Moduli (GPa) = 52.85845 41.35863 66.82233
#
# Poissons Ratio (x) = 0.24271 0.47034
# Poissons Ratio (y) = 0.31020 -0.40287
# Poissons Ratio (z) = 0.37205 -0.24935
#
# Static dielectric constant tensor:
#      x y z
#    x 1.984280 0.001930 -0.014290 
#    y 0.001930 2.030970 -0.086440 
#    z -0.014290 -0.086440 2.014710 
# 
# From -- ./inp_files/307260.got.cif
#   From: 2010.05.17/outbox.cif.g08.bks.cpg/sg2_154_cif.got.tgz:307260.got - 2010.06.03 11:33:40.
