data_PCOD9096497
_publ_section_title
;
Structure prediction by ZEFSAII (Michael W. Deem and Ramdas Pophale) SiO2 
 PCOD9096497
Probable space group: P -1
;
_chemical_formula_sum "Si O2"
_cell_formula_units_Z 16
_cell_length_a 14.165912
_cell_length_b 14.025702
_cell_length_c 11.507711
_cell_angle_alpha 32.897568
_cell_angle_beta 53.304433
_cell_angle_gamma 37.720270
_cell_volume 744.355561
_symmetry_space_group_name_H-M "P -1"
_symmetry_group_IT_number 2
_symmetry_cell_setting 'triclinic'
loop_
_space_group_symop_operation_xyz
x,y,z
-x,-y,-z
loop_
_atom_site_type_symbol
_atom_site_label
_atom_site_fract_x
_atom_site_fract_y
_atom_site_fract_z
Si Si1 0.568606 0.679996 0.229098
Si Si2 0.512825 0.055399 0.741096
Si Si3 0.883704 0.270839 0.082900
Si Si4 0.234409 0.851512 0.334180
Si Si5 0.043939 0.755670 0.188381
Si Si6 0.989246 0.517214 0.851536
Si Si7 0.175030 0.321669 0.687500
Si Si8 0.776060 0.033292 0.512550
O O1 0.548268 0.773061 0.278728
O O2 0.392402 0.775207 0.235799
O O3 0.704950 0.401567 0.416746
O O4 0.604084 0.802627 0.990431
O O5 0.357837 0.134715 0.715842
O O6 0.618050 0.079393 0.563768
O O7 0.780882 0.223590 0.266437
O O8 0.879771 0.463222 0.949440
O O9 0.068517 0.023879 0.213103
O O10 0.842132 0.337444 0.911157
O O11 0.203561 0.977671 0.351199
O O12 0.910178 0.756409 0.233831
O O13 0.113248 0.570276 0.431078
O O14 0.000000 0.000000 0.000000
O O15 0.135852 0.350086 0.825633
O O16 0.912705 0.781763 0.613136
O O17 0.000000 0.500000 0.000000
#
# Coordination Sequence:
#
# PCOD9096497 Si02
#       8
#     2   2   2   2   2   2   2   2
#     4   9  20  34  58  84 130 167 206 248 304 376
#     4  10  22  38  58  87 128 168 203 248 314 370
#     4  11  23  39  62  92 129 163 212 254 310 365
#     4  10  20  36  55  94 126 166 207 251 305 379
#     4  10  22  42  68  91 116 161 218 269 298 346
#     4  11  23  37  64  92 129 164 197 254 320 368
#     4  10  23  43  66  94 121 159 217 256 302 370
#     4  11  24  36  55  96 132 165 199 245 316 387
#
# _framework density 21.495103
#
# number of rings (size 3 to 8) (size 9 to 14) (size 15 to 20)
#    0.000    1.750    1.250    2.625    8.750    0.000 
#    2.250    0.625    0.000   10.500    0.000    0.000 
#    0.000    0.000    0.000    0.000    0.000    0.000 
#
# Total GULP energy -89312.153118 kJ/mol
# GULP energy per Si atom -5582.009570 kJ/mol
# Density = 2.144618 g / cm^3
# Si number density = 21.495103 Si / 1000 Ang^3
#
#
#
# Elastic Constant Matrix: (Units=GPa)
#
#
# Indices 1 2 3 4 5 6 
#
# 1 30.5449 12.8100 31.8556 9.7906 -7.0692 5.0966
# 2 12.8100 54.6128 16.5663 -0.8294 -1.4936 8.7201
# 3 31.8556 16.5663 117.9927 7.8140 -22.7839 11.9642
# 4 9.7906 -0.8294 7.8140 48.4504 4.8971 -10.5567
# 5 -7.0692 -1.4936 -22.7839 4.8971 32.9653 -1.3208
# 6 5.0966 8.7201 11.9642 -10.5567 -1.3208 35.9455
#
#
#
# Elastic Compliance Matrix: (Units=1/GPa)
#
#
# Indices 1 2 3 4 5 6 
#
# 1 0.053061 -0.008366 -0.011050 -0.010599 0.004746 -0.004754
# 2 -0.008366 0.021012 -0.000820 0.001662 -0.001785 -0.003215
# 3 -0.011050 -0.000820 0.013249 -0.001206 0.006819 -0.002748
# 4 -0.010599 0.001662 -0.001206 0.025571 -0.006478 0.008772
# 5 0.004746 -0.001785 0.006819 -0.006478 0.036825 -0.003059
# 6 -0.004754 -0.003215 -0.002748 0.008772 -0.003059 0.032652
#
#
# Mechanical properties :
#
#
# Convention : Reuss Voigt Hill
#
# Bulk Modulus (GPa) = 21.34542 36.17934 28.76238
# Shear Modulus (GPa) = 20.96811 32.93349 26.95080
#
# Velocity S-wave (km/s) = 3.12666 3.91850 3.54476
# Velocity P-wave (km/s) = 4.79443 6.11072 5.49215
#
# Compressibility (1/GPa) = 0.04684847
#
# Stress axis : x y z
#
# Youngs Moduli (GPa) = 18.84635 47.59261 75.47882
#
# Poissons Ratio (x) = 0.39816 0.83406
# Poissons Ratio (y) = 0.15767 0.06190
# Poissons Ratio (z) = 0.20826 0.03903
#
# Static dielectric constant tensor:
#      x y z
#    x 1.830260 -0.031630 -0.006290 
#    y -0.031630 1.793740 0.000510 
#    z -0.006290 0.000510 1.807260 
# 
# From -- ./inp_files/454337.got.cif
#   From: 2010.05.17/outbox.cif.g08.bks.cpg/sg2_228_cif.got.tgz:454337.got - 2010.06.03 11:33:40.
