data_PCOD9096065
_publ_section_title
;
Structure prediction by ZEFSAII (Michael W. Deem and Ramdas Pophale) SiO2 
 PCOD9096065
Probable space group: P -1
;
_chemical_formula_sum "Si O2"
_cell_formula_units_Z 16
_cell_length_a 11.011222
_cell_length_b 7.626260
_cell_length_c 13.558862
_cell_angle_alpha 74.482907
_cell_angle_beta 132.754147
_cell_angle_gamma 74.591084
_cell_volume 624.131608
_symmetry_space_group_name_H-M "P -1"
_symmetry_group_IT_number 2
_symmetry_cell_setting 'triclinic'
loop_
_space_group_symop_operation_xyz
x,y,z
-x,-y,-z
loop_
_atom_site_type_symbol
_atom_site_label
_atom_site_fract_x
_atom_site_fract_y
_atom_site_fract_z
Si Si1 0.078710 0.187332 0.159364
Si Si2 0.563251 0.197688 0.119208
Si Si3 0.019413 0.460145 0.676745
Si Si4 0.517450 0.251467 0.491369
Si Si5 0.590921 0.540594 0.390036
Si Si6 0.448701 0.181629 0.838540
Si Si7 0.990385 0.373446 0.881428
Si Si8 0.857978 0.265403 0.205112
O O1 0.958660 0.460834 0.074359
O O2 0.963015 0.132057 0.179904
O O3 0.321623 0.027413 0.358072
O O4 0.057430 0.184816 0.030592
O O5 0.780947 0.160220 0.252035
O O6 0.532078 0.023645 0.178746
O O7 0.560649 0.137314 0.011889
O O8 0.362386 0.470823 0.979970
O O9 0.809325 0.502855 0.521331
O O10 0.087732 0.299316 0.837113
O O11 0.200812 0.348838 0.712062
O O12 0.992783 0.685915 0.667999
O O13 0.616113 0.307857 0.450293
O O14 0.538597 0.321285 0.603175
O O15 0.265381 0.439938 0.303408
O O16 0.489864 0.690546 0.213941
#
# Coordination Sequence:
#
# PCOD9096065 Si02
#       8
#     2   2   2   2   2   2   2   2
#     4  10  20  35  64  88 113 164 198 235 304 361
#     4   9  20  36  57  87 118 149 194 256 293 344
#     4   9  19  38  57  79 121 153 189 250 291 343
#     4  10  22  39  57  87 124 155 195 253 289 348
#     4  10  22  38  56  82 123 154 194 249 297 345
#     4  10  20  35  62  84 110 160 197 237 304 358
#     4   9  20  38  59  89 123 153 196 248 294 350
#     4   9  19  37  56  82 124 147 196 250 290 347
#
# _framework density 25.635622000000001
#
# number of rings (size 3 to 8) (size 9 to 14) (size 15 to 20)
#    0.000    2.500    0.000    0.750    3.500    5.000 
#    0.000    6.250    0.000    0.000    0.000    0.000 
#    0.000    0.000    0.000    0.000    0.000    0.000 
#
# Total GULP energy -89182.271677 kJ/mol
# GULP energy per Si atom -5573.891980 kJ/mol
# Density = 2.557727 g / cm^3
# Si number density = 25.635622 Si / 1000 Ang^3
#
#
#
# Elastic Constant Matrix: (Units=GPa)
#
#
# Indices 1 2 3 4 5 6 
#
# 1 105.0558 11.1211 29.2046 -10.1346 -8.3931 0.3466
# 2 11.1211 23.8907 0.4491 -10.2721 0.7877 4.3288
# 3 29.2046 0.4491 72.3911 -9.1140 -6.4423 -0.9840
# 4 -10.1346 -10.2721 -9.1140 25.0998 11.8914 3.1838
# 5 -8.3931 0.7877 -6.4423 11.8914 34.4868 0.9023
# 6 0.3466 4.3288 -0.9840 3.1838 0.9023 22.4195
#
#
#
# Elastic Compliance Matrix: (Units=1/GPa)
#
#
# Indices 1 2 3 4 5 6 
#
# 1 0.011486 -0.005645 -0.004445 -0.000427 0.002223 0.000688
# 2 -0.005645 0.061758 0.004665 0.032750 -0.012793 -0.015768
# 3 -0.004445 0.004665 0.016333 0.006307 -0.000286 -0.000999
# 4 -0.000427 0.032750 0.006307 0.068009 -0.022737 -0.014783
# 5 0.002223 -0.012793 -0.000286 -0.022737 0.037508 0.004142
# 6 0.000688 -0.015768 -0.000999 -0.014783 0.004142 0.049527
#
#
# Mechanical properties :
#
#
# Convention : Reuss Voigt Hill
#
# Bulk Modulus (GPa) = 12.70235 31.43189 22.06712
# Shear Modulus (GPa) = 17.74848 27.10540 22.42694
#
# Velocity S-wave (km/s) = 2.63408 3.25519 2.96097
# Velocity P-wave (km/s) = 3.77053 5.13965 4.50738
#
# Compressibility (1/GPa) = 0.07872560
#
# Stress axis : x y z
#
# Youngs Moduli (GPa) = 87.06064 16.19234 61.22442
#
# Poissons Ratio (x) = 0.09141 0.27217
# Poissons Ratio (y) = 0.49146 -0.28559
# Poissons Ratio (z) = 0.38702 -0.07553
#
# Static dielectric constant tensor:
#      x y z
#    x 2.082180 0.056780 -0.018150 
#    y 0.056780 2.159820 -0.042860 
#    z -0.018150 -0.042860 2.100000 
# 
# From -- ./inp_files/298890.got.cif
#   From: 2010.05.17/outbox.cif.g08.bks.cpg/sg2_150_cif.got.tgz:298890.got - 2010.06.03 11:33:40.
