data_PCOD9096492
_publ_section_title
;
Structure prediction by ZEFSAII (Michael W. Deem and Ramdas Pophale) SiO2 
 PCOD9096492
Probable space group: P -1
;
_chemical_formula_sum "Si O2"
_cell_formula_units_Z 14
_cell_length_a 11.369242
_cell_length_b 9.375958
_cell_length_c 18.889078
_cell_angle_alpha 142.222161
_cell_angle_beta 138.699022
_cell_angle_gamma 68.837390
_cell_volume 665.678705
_symmetry_space_group_name_H-M "P -1"
_symmetry_group_IT_number 2
_symmetry_cell_setting 'triclinic'
loop_
_space_group_symop_operation_xyz
x,y,z
-x,-y,-z
loop_
_atom_site_type_symbol
_atom_site_label
_atom_site_fract_x
_atom_site_fract_y
_atom_site_fract_z
Si Si1 0.410807 0.611105 0.846981
Si Si2 0.330227 0.176331 0.827857
Si Si3 0.892999 0.354368 0.162222
Si Si4 0.247947 0.317152 0.388164
Si Si5 0.212597 0.003664 0.560042
Si Si6 0.758461 0.384539 0.371653
Si Si7 0.395462 0.051711 0.254941
O O1 0.270824 0.658909 0.858842
O O2 0.401683 0.714133 0.806158
O O3 0.280530 0.271277 0.648265
O O4 0.640284 0.741987 0.042923
O O5 0.161766 0.053811 0.637726
O O6 0.322932 0.888187 0.722529
O O7 0.500000 0.500000 0.000000
O O8 0.045911 0.281620 0.241180
O O9 0.046368 0.681209 0.334362
O O10 0.769434 0.158220 0.962194
O O11 0.222562 0.363156 0.476776
O O12 0.280673 0.080848 0.282857
O O13 0.461115 0.628771 0.586172
O O14 0.441073 0.033058 0.685330
O O15 0.000000 0.500000 0.500000
#
# Coordination Sequence:
#
# PCOD9096492 Si02
#       7
#     2   2   2   2   2   2   2
#     4  11  21  33  59  87 122 154 189 245 308 358
#     4  10  20  37  59  85 120 155 200 237 296 359
#     4  11  18  34  59  87 117 151 206 248 300 343
#     4  10  21  37  56  86 118 157 203 246 293 350
#     4  10  20  36  55  90 117 152 202 248 292 349
#     4  12  21  38  56  90 128 152 190 250 309 359
#     4  10  20  36  60  83 116 158 208 249 280 352
#
# _framework density 21.031165999999999
#
# number of rings (size 3 to 8) (size 9 to 14) (size 15 to 20)
#    0.000    1.429    5.714    1.286    0.000    1.143 
#    0.000    0.714    0.000    0.857    0.000    0.000 
#    0.000    0.000    0.000    0.000    0.000    0.000 
#
# Total GULP energy -77944.281978 kJ/mol
# GULP energy per Si atom -5567.448713 kJ/mol
# Density = 2.098330 g / cm^3
# Si number density = 21.031166 Si / 1000 Ang^3
#
#
#
# Elastic Constant Matrix: (Units=GPa)
#
#
# Indices 1 2 3 4 5 6 
#
# 1 86.1785 6.5275 28.2826 -4.4758 -26.7955 -0.9517
# 2 6.5275 89.7213 21.1092 -2.5545 -4.9614 18.8717
# 3 28.2826 21.1092 127.5995 -15.7858 -7.9647 1.4504
# 4 -4.4758 -2.5545 -15.7858 32.6614 3.2625 -7.3873
# 5 -26.7955 -4.9614 -7.9647 3.2625 24.2915 -2.5865
# 6 -0.9517 18.8717 1.4504 -7.3873 -2.5865 20.2943
#
#
#
# Elastic Compliance Matrix: (Units=1/GPa)
#
#
# Indices 1 2 3 4 5 6 
#
# 1 0.018945 -0.000437 -0.002899 0.000064 0.020287 0.004111
# 2 -0.000437 0.014846 -0.002595 -0.003575 0.000596 -0.014866
# 3 -0.002899 -0.002595 0.009403 0.004767 -0.000942 0.003220
# 4 0.000064 -0.003575 0.004767 0.036494 -0.002297 0.015978
# 5 0.020287 0.000596 -0.000942 -0.002297 0.064502 0.007849
# 6 0.004111 -0.014866 0.003220 0.015978 0.007849 0.069877
#
#
# Mechanical properties :
#
#
# Convention : Reuss Voigt Hill
#
# Bulk Modulus (GPa) = 31.91741 46.14866 39.03304
# Shear Modulus (GPa) = 21.15286 31.95476 26.55381
#
# Velocity S-wave (km/s) = 3.17485 3.90218 3.55715
# Velocity P-wave (km/s) = 5.35246 6.50333 5.95576
#
# Compressibility (1/GPa) = 0.03133086
#
# Stress axis : x y z
#
# Youngs Moduli (GPa) = 52.78403 67.35834 106.34552
#
# Poissons Ratio (x) = 0.02945 0.30834
# Poissons Ratio (y) = 0.02308 0.27599
# Poissons Ratio (z) = 0.15304 0.17481
#
# Static dielectric constant tensor:
#      x y z
#    x 1.873590 -0.059700 0.039180 
#    y -0.059700 1.768820 -0.048370 
#    z 0.039180 -0.048370 1.810640 
# 
# From -- ./inp_files/566284.got.cif
#   From: 2010.05.17/outbox.cif.g08.bks.cpg/sg2_284_cif.got.tgz:566284.got - 2010.06.03 11:33:40.
