data_PCOD9096032
_publ_section_title
;
Structure prediction by ZEFSAII (Michael W. Deem and Ramdas Pophale) SiO2 
 PCOD9096032
Probable space group: P -1
;
_chemical_formula_sum "Si O2"
_cell_formula_units_Z 16
_cell_length_a 14.745875
_cell_length_b 14.001535
_cell_length_c 6.760392
_cell_angle_alpha 125.714107
_cell_angle_beta 101.551467
_cell_angle_gamma 43.299796
_cell_volume 711.211600
_symmetry_space_group_name_H-M "P -1"
_symmetry_group_IT_number 2
_symmetry_cell_setting 'triclinic'
loop_
_space_group_symop_operation_xyz
x,y,z
-x,-y,-z
loop_
_atom_site_type_symbol
_atom_site_label
_atom_site_fract_x
_atom_site_fract_y
_atom_site_fract_z
Si Si1 0.072976 0.772112 0.767030
Si Si2 0.894806 0.077912 0.362814
Si Si3 0.980073 0.599762 0.920248
Si Si4 0.641783 0.431158 0.174071
Si Si5 0.466873 0.717077 0.095643
Si Si6 0.261582 0.981244 0.656528
Si Si7 0.522833 0.756441 0.759315
Si Si8 0.184537 0.414890 0.445523
O O1 0.191680 0.703080 0.890094
O O2 0.091552 0.616289 0.567253
O O3 0.110591 0.794872 0.603109
O O4 0.932872 0.954320 0.041109
O O5 0.760432 0.137790 0.465730
O O6 0.000000 0.000000 0.500000
O O7 0.874331 0.637904 0.764079
O O8 0.133309 0.461688 0.707559
O O9 0.893989 0.804885 0.172386
O O10 0.000000 0.500000 0.000000
O O11 0.586069 0.542056 0.079555
O O12 0.564462 0.586045 0.492265
O O13 0.613051 0.322514 0.063285
O O14 0.355590 0.899140 0.400386
O O15 0.524495 0.742356 0.977571
O O16 0.363839 0.933276 0.815576
O O17 0.648055 0.718880 0.683146
#
# Coordination Sequence:
#
# PCOD9096032 Si02
#       8
#     2   2   2   2   2   2   2   2
#     4  10  21  38  61  91 130 165 212 264 314 383
#     4  11  23  36  60  97 135 173 207 260 322 388
#     4  11  26  47  70  91 127 171 225 279 327 386
#     4   9  19  35  57  94 131 172 214 248 317 393
#     4  10  20  35  61  94 131 174 203 260 323 387
#     4  11  24  42  63 100 133 167 221 271 321 392
#     4  10  22  40  67  92 132 166 217 269 324 388
#     4  10  24  45  68  95 121 176 219 272 328 387
#
# _framework density 22.496822000000002
#
# number of rings (size 3 to 8) (size 9 to 14) (size 15 to 20)
#    0.000    1.750    1.250    1.875    1.750   13.500 
#    0.000    1.250    0.000    0.000    0.000    0.000 
#    0.000    0.000    0.000    0.000    0.000    0.000 
#
# Total GULP energy -89317.423608 kJ/mol
# GULP energy per Si atom -5582.338975 kJ/mol
# Density = 2.244562 g / cm^3
# Si number density = 22.496822 Si / 1000 Ang^3
#
#
#
# Elastic Constant Matrix: (Units=GPa)
#
#
# Indices 1 2 3 4 5 6 
#
# 1 90.5117 19.5431 25.4556 -19.5969 -25.5207 1.9260
# 2 19.5431 44.3646 37.2121 -11.4983 -25.6763 10.6870
# 3 25.4556 37.2121 64.7870 -19.6548 -24.9381 6.9651
# 4 -19.5969 -11.4983 -19.6548 18.9263 14.1583 -2.7396
# 5 -25.5207 -25.6763 -24.9381 14.1583 40.7192 -6.3809
# 6 1.9260 10.6870 6.9651 -2.7396 -6.3809 31.6428
#
#
#
# Elastic Compliance Matrix: (Units=1/GPa)
#
#
# Indices 1 2 3 4 5 6 
#
# 1 0.015163 -0.001087 -0.000102 0.011386 0.005026 0.001466
# 2 -0.001087 0.057195 -0.026540 -0.011525 0.021561 -0.010059
# 3 -0.000102 -0.026540 0.036928 0.024107 -0.002175 0.002490
# 4 0.011386 -0.011525 0.024107 0.097017 -0.018705 0.002521
# 5 0.005026 0.021561 -0.002175 -0.018705 0.046580 0.000664
# 6 0.001466 -0.010059 0.002490 0.002521 0.000664 0.034715
#
#
# Mechanical properties :
#
#
# Convention : Reuss Voigt Hill
#
# Bulk Modulus (GPa) = 18.57776 40.45387 29.51581
# Shear Modulus (GPa) = 13.85045 26.08782 19.96914
#
# Velocity S-wave (km/s) = 2.48395 3.40902 2.98257
# Velocity P-wave (km/s) = 4.06233 5.78932 5.00094
#
# Compressibility (1/GPa) = 0.05382781
#
# Stress axis : x y z
#
# Youngs Moduli (GPa) = 65.95036 17.48396 27.07992
#
# Poissons Ratio (x) = 0.01901 0.00276
# Poissons Ratio (y) = 0.07170 0.71870
# Poissons Ratio (z) = 0.00672 0.46402
#
# Static dielectric constant tensor:
#      x y z
#    x 1.838220 -0.028300 -0.040410 
#    y -0.028300 1.868610 0.057690 
#    z -0.040410 0.057690 1.946550 
# 
# From -- ./inp_files/95322.got.cif
#   From: 2010.05.17/outbox.cif.g08.bks.cpg/sg2_48_cif.got.tgz:95322.got - 2010.06.03 11:33:40.
