data_PCOD9096530
_publ_section_title
;
Structure prediction by ZEFSAII (Michael W. Deem and Ramdas Pophale) SiO2 
 PCOD9096530
Probable space group: P -1
;
_chemical_formula_sum "Si O2"
_cell_formula_units_Z 14
_cell_length_a 17.268981
_cell_length_b 8.403289
_cell_length_c 11.931592
_cell_angle_alpha 73.471461
_cell_angle_beta 138.079637
_cell_angle_gamma 137.414914
_cell_volume 636.260575
_symmetry_space_group_name_H-M "P -1"
_symmetry_group_IT_number 2
_symmetry_cell_setting 'triclinic'
loop_
_space_group_symop_operation_xyz
x,y,z
-x,-y,-z
loop_
_atom_site_type_symbol
_atom_site_label
_atom_site_fract_x
_atom_site_fract_y
_atom_site_fract_z
Si Si1 0.959261 0.736837 0.095539
Si Si2 0.753327 0.549799 0.375997
Si Si3 0.661856 0.039041 0.196134
Si Si4 0.559992 0.578077 0.892759
Si Si5 0.666645 0.656331 0.739695
Si Si6 0.061918 0.552039 0.374710
Si Si7 0.946810 0.864062 0.307380
O O1 0.001633 0.596922 0.196992
O O2 0.976725 0.833542 0.221558
O O3 0.132747 0.009309 0.147285
O O4 0.745870 0.558640 0.857536
O O5 0.529602 0.355655 0.170356
O O6 0.820175 0.472584 0.534484
O O7 0.848756 0.626851 0.340913
O O8 0.856860 0.832338 0.485617
O O9 0.775005 0.184029 0.411267
O O10 0.850015 0.270290 0.266686
O O11 0.549861 0.728209 0.139023
O O12 0.500000 0.000000 0.000000
O O13 0.581812 0.612452 0.776256
O O14 0.782562 0.816625 0.134483
O O15 0.500000 0.500000 0.500000
#
# Coordination Sequence:
#
# PCOD9096530 Si02
#       7
#     2   2   2   2   2   2   2
#     4  10  21  38  59  82 109 142 192 241 274 323
#     4  11  21  34  55  82 121 154 176 219 280 346
#     4  11  21  35  57  83 115 150 188 235 278 325
#     4  11  22  37  58  84 113 149 190 228 276 336
#     4  10  20  37  62  82 102 143 195 240 277 321
#     4  11  22  35  53  85 117 146 184 230 285 333
#     4  10  20  36  56  82 113 150 188 224 272 333
#
# _framework density 22.003564999999998
#
# number of rings (size 3 to 8) (size 9 to 14) (size 15 to 20)
#    0.000    1.429    0.000    9.000    0.000    1.143 
#    0.000    0.714    0.000   12.000    0.000    0.000 
#    0.000    0.000    0.000    0.000    0.000    0.000 
#
# Total GULP energy -78143.253771 kJ/mol
# GULP energy per Si atom -5581.660984 kJ/mol
# Density = 2.195348 g / cm^3
# Si number density = 22.003565 Si / 1000 Ang^3
#
#
#
# Elastic Constant Matrix: (Units=GPa)
#
#
# Indices 1 2 3 4 5 6 
#
# 1 78.0871 40.0809 30.8862 -17.8753 26.8275 5.7067
# 2 40.0809 72.3105 26.1016 -33.2174 14.5446 8.6163
# 3 30.8862 26.1016 124.1202 -29.6281 10.0524 0.2839
# 4 -17.8753 -33.2174 -29.6281 43.9198 -7.0757 4.6521
# 5 26.8275 14.5446 10.0524 -7.0757 38.1891 -11.2461
# 6 5.7067 8.6163 0.2839 4.6521 -11.2461 26.6931
#
#
#
# Elastic Compliance Matrix: (Units=1/GPa)
#
#
# Indices 1 2 3 4 5 6 
#
# 1 0.024298 -0.007915 -0.002994 0.000304 -0.015976 -0.009391
# 2 -0.007915 0.030710 0.001178 0.021263 -0.006875 -0.014836
# 3 -0.002994 0.001178 0.010142 0.006609 -0.000097 -0.001041
# 4 0.000304 0.021263 0.006609 0.044165 -0.007074 -0.017677
# 5 -0.015976 -0.006875 -0.000097 -0.007074 0.046538 0.026475
# 6 -0.009391 -0.014836 -0.001041 -0.017677 0.026475 0.058506
#
#
# Mechanical properties :
#
#
# Convention : Reuss Voigt Hill
#
# Bulk Modulus (GPa) = 21.88799 52.07280 36.98040
# Shear Modulus (GPa) = 20.07639 33.59034 26.83336
#
# Velocity S-wave (km/s) = 3.02390 3.91139 3.49592
# Velocity P-wave (km/s) = 4.70755 6.64196 5.75659
#
# Compressibility (1/GPa) = 0.04568715
#
# Stress axis : x y z
#
# Youngs Moduli (GPa) = 41.15640 32.56302 98.60263
#
# Poissons Ratio (x) = 0.25774 0.29520
# Poissons Ratio (y) = 0.32576 -0.11615
# Poissons Ratio (z) = 0.12321 -0.03836
#
# Static dielectric constant tensor:
#      x y z
#    x 1.914720 -0.080090 0.029140 
#    y -0.080090 1.875600 -0.012660 
#    z 0.029140 -0.012660 1.850890 
# 
# From -- ./inp_files/272453.got.cif
#   From: 2010.05.17/outbox.cif.g08.bks.cpg/sg2_137_cif.got.tgz:272453.got - 2010.06.03 11:33:40.
