data_PCOD9096169
_publ_section_title
;
Structure prediction by ZEFSAII (Michael W. Deem and Ramdas Pophale) SiO2 
 PCOD9096169
Probable space group: P -1
;
_chemical_formula_sum "Si O2"
_cell_formula_units_Z 12
_cell_length_a 5.905677
_cell_length_b 11.572913
_cell_length_c 14.565620
_cell_angle_alpha 38.194093
_cell_angle_beta 107.261510
_cell_angle_gamma 127.923836
_cell_volume 448.743211
_symmetry_space_group_name_H-M "P -1"
_symmetry_group_IT_number 2
_symmetry_cell_setting 'triclinic'
loop_
_space_group_symop_operation_xyz
x,y,z
-x,-y,-z
loop_
_atom_site_type_symbol
_atom_site_label
_atom_site_fract_x
_atom_site_fract_y
_atom_site_fract_z
Si Si1 0.858188 0.508697 0.885650
Si Si2 0.613421 0.320881 0.534915
Si Si3 0.928085 0.125814 0.752136
Si Si4 0.104530 0.660727 0.634354
Si Si5 0.443208 0.190263 0.887825
Si Si6 0.879908 0.934715 0.678352
O O1 0.532209 0.264628 0.959512
O O2 0.115321 0.599477 0.779674
O O3 0.795613 0.695907 0.774062
O O4 0.000000 0.500000 0.000000
O O5 0.787981 0.590984 0.425598
O O6 0.742910 0.364048 0.418257
O O7 0.250591 0.133051 0.599378
O O8 0.687811 0.176773 0.696798
O O9 0.122382 0.107730 0.861979
O O10 0.802168 0.929081 0.779023
O O11 0.728658 0.446086 0.714596
O O12 0.212592 0.929627 0.473939
O O13 0.500000 0.000000 0.000000
#
# Coordination Sequence:
#
# PCOD9096169 Si02
#       6
#     2   2   2   2   2   2
#     4  10  22  40  64  87 121 171 204 247 312 367
#     4  10  20  35  63 101 122 148 209 261 300 360
#     4  10  21  35  63  95 121 156 203 250 303 362
#     4   9  22  37  63  96 118 160 208 249 306 360
#     4  10  21  40  63  86 125 167 202 248 306 365
#     4  11  20  39  68  91 127 158 198 259 312 362
#
# _framework density 26.741351999999999
#
# number of rings (size 3 to 8) (size 9 to 14) (size 15 to 20)
#    1.000    1.000    1.667    2.000    4.667    0.667 
#    0.000    2.500    3.667   12.000    0.000    0.000 
#    0.000    0.000    0.000    0.000    0.000    0.000 
#
# Total GULP energy -67068.620669 kJ/mol
# GULP energy per Si atom -5589.051722 kJ/mol
# Density = 2.668049 g / cm^3
# Si number density = 26.741352 Si / 1000 Ang^3
#
#
#
# Elastic Constant Matrix: (Units=GPa)
#
#
# Indices 1 2 3 4 5 6 
#
# 1 77.8629 25.1799 27.3249 20.8689 19.5321 24.5051
# 2 25.1799 153.7302 42.0870 10.2163 29.4265 -5.7930
# 3 27.3249 42.0870 119.5469 39.6992 24.5547 2.1480
# 4 20.8689 10.2163 39.6992 63.7586 -9.4626 5.1538
# 5 19.5321 29.4265 24.5547 -9.4626 41.8847 15.2379
# 6 24.5051 -5.7930 2.1480 5.1538 15.2379 48.5682
#
#
#
# Elastic Compliance Matrix: (Units=1/GPa)
#
#
# Indices 1 2 3 4 5 6 
#
# 1 0.018942 -0.001688 -0.000299 -0.006094 -0.006252 -0.007137
# 2 -0.001688 0.008532 -0.000783 -0.001648 -0.006634 0.004160
# 3 -0.000299 -0.000783 0.014826 -0.011162 -0.012121 0.004389
# 4 -0.006094 -0.001648 -0.011162 0.028150 0.018923 -0.005552
# 5 -0.006252 -0.006634 -0.012121 0.018923 0.047985 -0.014164
# 6 -0.007137 0.004160 0.004389 -0.005552 -0.014164 0.029525
#
#
# Mechanical properties :
#
#
# Convention : Reuss Voigt Hill
#
# Bulk Modulus (GPa) = 27.20301 60.03594 43.61948
# Shear Modulus (GPa) = 30.16535 47.94552 39.05543
#
# Velocity S-wave (km/s) = 3.36228 4.23890 3.82578
# Velocity P-wave (km/s) = 5.02672 6.81594 5.98853
#
# Compressibility (1/GPa) = 0.03676064
#
# Stress axis : x y z
#
# Youngs Moduli (GPa) = 52.79338 117.20901 67.44801
#
# Poissons Ratio (x) = 0.19782 0.02017
# Poissons Ratio (y) = 0.08910 0.05279
# Poissons Ratio (z) = 0.01579 0.09174
#
# Static dielectric constant tensor:
#      x y z
#    x 2.163220 0.011950 -0.093550 
#    y 0.011950 2.097170 0.082390 
#    z -0.093550 0.082390 2.205880 
# 
# From -- ./inp_files/481431.got.cif
#   From: 2010.05.17/outbox.cif.g08.bks.cpg/sg2_241_cif.got.tgz:481431.got - 2010.06.03 11:33:40.
