data_PCOD9096445
_publ_section_title
;
Structure prediction by ZEFSAII (Michael W. Deem and Ramdas Pophale) SiO2 
 PCOD9096445
Probable space group: P -1
;
_chemical_formula_sum "Si O2"
_cell_formula_units_Z 16
_cell_length_a 14.817597
_cell_length_b 14.558424
_cell_length_c 14.525137
_cell_angle_alpha 137.294206
_cell_angle_beta 28.052616
_cell_angle_gamma 145.380544
_cell_volume 836.737320
_symmetry_space_group_name_H-M "P -1"
_symmetry_group_IT_number 2
_symmetry_cell_setting 'triclinic'
loop_
_space_group_symop_operation_xyz
x,y,z
-x,-y,-z
loop_
_atom_site_type_symbol
_atom_site_label
_atom_site_fract_x
_atom_site_fract_y
_atom_site_fract_z
Si Si1 0.116596 0.609469 0.886144
Si Si2 0.993137 0.901311 0.611105
Si Si3 0.728315 0.514617 0.841568
Si Si4 0.927360 0.317625 0.507767
Si Si5 0.398899 0.083038 0.264603
Si Si6 0.770812 0.550825 0.495580
Si Si7 0.284101 0.459126 0.914383
Si Si8 0.458406 0.157923 0.052756
O O1 0.357639 0.765851 0.812256
O O2 0.163455 0.513888 0.696833
O O3 0.000000 0.500000 0.000000
O O4 0.937517 0.642613 0.024218
O O5 0.186582 0.054419 0.494080
O O6 0.103359 0.848091 0.551417
O O7 0.870879 0.741859 0.536911
O O8 0.773185 0.902665 0.840776
O O9 0.722032 0.346880 0.717279
O O10 0.940622 0.632815 0.671094
O O11 0.500000 0.500000 0.000000
O O12 0.761821 0.572058 0.959034
O O13 0.105748 0.446169 0.518624
O O14 0.377791 0.101590 0.188888
O O15 0.408106 0.925026 0.156761
O O16 0.499887 0.453705 0.684242
O O17 0.375652 0.649301 0.959668
#
# Coordination Sequence:
#
# PCOD9096445 Si02
#       8
#     2   2   2   2   2   2   2   2
#     4  12  24  37  52  80 120 155 185 223 284 342
#     4   9  19  38  56  79 111 141 187 241 268 326
#     4  11  17  30  59  91 113 139 181 236 294 323
#     4   9  19  31  57  89 110 138 181 237 284 329
#     4  11  22  33  56  79 108 155 190 228 279 330
#     4   9  20  37  56  79 113 145 181 233 276 324
#     4  11  20  38  57  84 117 146 186 238 274 336
#     4  10  20  36  55  80 107 145 200 236 269 317
#
# _framework density 19.121891999999999
#
# number of rings (size 3 to 8) (size 9 to 14) (size 15 to 20)
#    0.750    1.000    3.750    1.875    1.750    1.500 
#    0.000    0.000    0.000    0.750    0.000    5.250 
#    0.000    0.000    0.000    0.000    0.000    0.000 
#
# Total GULP energy -89189.727937 kJ/mol
# GULP energy per Si atom -5574.357996 kJ/mol
# Density = 1.907837 g / cm^3
# Si number density = 19.121892 Si / 1000 Ang^3
#
#
#
# Elastic Constant Matrix: (Units=GPa)
#
#
# Indices 1 2 3 4 5 6 
#
# 1 92.3143 1.4701 36.9008 -6.8134 -2.4848 -6.1662
# 2 1.4701 19.3766 -0.6420 -12.5804 -1.3596 0.4228
# 3 36.9008 -0.6420 99.5816 -13.0683 -3.4860 1.9064
# 4 -6.8134 -12.5804 -13.0683 23.4727 -4.5339 -6.5624
# 5 -2.4848 -1.3596 -3.4860 -4.5339 41.5203 -6.8568
# 6 -6.1662 0.4228 1.9064 -6.5624 -6.8568 17.3234
#
#
#
# Elastic Compliance Matrix: (Units=1/GPa)
#
#
# Indices 1 2 3 4 5 6 
#
# 1 0.013581 0.002556 -0.004333 0.005752 0.002554 0.008439
# 2 0.002556 0.097443 0.008824 0.069662 0.016741 0.030576
# 3 -0.004333 0.008824 0.013355 0.012174 0.002898 0.002532
# 4 0.005752 0.069662 0.012174 0.106460 0.023291 0.048556
# 5 0.002554 0.016741 0.002898 0.023291 0.031092 0.021311
# 6 0.008439 0.030576 0.002532 0.048556 0.021311 0.086533
#
#
# Mechanical properties :
#
#
# Convention : Reuss Voigt Hill
#
# Bulk Modulus (GPa) = 7.22171 31.85892 19.54031
# Shear Modulus (GPa) = 13.13956 28.03284 20.58620
#
# Velocity S-wave (km/s) = 2.62419 3.83300 3.28468
# Velocity P-wave (km/s) = 3.60093 6.02381 4.96251
#
# Compressibility (1/GPa) = 0.13847133
#
# Stress axis : x y z
#
# Youngs Moduli (GPa) = 73.63234 10.26240 74.87637
#
# Poissons Ratio (x) = -0.02623 0.32447
# Poissons Ratio (y) = -0.18817 -0.66069
# Poissons Ratio (z) = 0.31908 -0.09055
#
# Static dielectric constant tensor:
#      x y z
#    x 1.692910 -0.026270 -0.051980 
#    y -0.026270 1.657900 0.006480 
#    z -0.051980 0.006480 1.695570 
# 
# From -- ./inp_files/533820.got.cif
#   From: 2010.05.17/outbox.cif.g08.bks.cpg/sg2_267_cif.got.tgz:533820.got - 2010.06.03 11:33:40.
