data_PCOD9096906
_publ_section_title
;
Structure prediction by ZEFSAII (Michael W. Deem and Ramdas Pophale) SiO2 
 PCOD9096906
Probable space group: P -1
;
_chemical_formula_sum "Si O2"
_cell_formula_units_Z 12
_cell_length_a 13.017618
_cell_length_b 9.462997
_cell_length_c 9.207231
_cell_angle_alpha 44.827831
_cell_angle_beta 53.366344
_cell_angle_gamma 51.250529
_cell_volume 599.030398
_symmetry_space_group_name_H-M "P -1"
_symmetry_group_IT_number 2
_symmetry_cell_setting 'triclinic'
loop_
_space_group_symop_operation_xyz
x,y,z
-x,-y,-z
loop_
_atom_site_type_symbol
_atom_site_label
_atom_site_fract_x
_atom_site_fract_y
_atom_site_fract_z
Si Si1 0.518982 0.339749 0.466348
Si Si2 0.623930 0.942549 0.322820
Si Si3 0.785016 0.090637 0.573623
Si Si4 0.987069 0.334633 0.247505
Si Si5 0.139554 0.451031 0.504102
Si Si6 0.658217 0.308689 0.831228
O O1 0.500000 0.500000 0.500000
O O2 0.411927 0.216494 0.644472
O O3 0.668503 0.164971 0.495087
O O4 0.478405 0.493684 0.247540
O O5 0.764226 0.797931 0.387370
O O6 0.500000 0.000000 0.500000
O O7 0.632708 0.146413 0.083791
O O8 0.720619 0.180475 0.721434
O O9 0.897014 0.198659 0.365476
O O10 0.866683 0.837880 0.702528
O O11 0.907225 0.467348 0.354366
O O12 0.000000 0.500000 0.000000
O O13 0.234795 0.584989 0.278159
O O14 0.000000 0.500000 0.500000
#
# Coordination Sequence:
#
# PCOD9096906 Si02
#       6
#     2   2   2   2   2   2
#     4   9  20  37  59  88 115 152 202 250 296 356
#     4  11  24  40  62  88 123 165 203 245 308 366
#     4   9  19  35  59  88 116 151 201 242 302 360
#     4  10  20  36  58  87 121 155 196 253 298 355
#     4  10  23  41  60  89 124 160 205 247 305 368
#     4   9  20  41  62  84 127 156 195 258 302 353
#
# _framework density 20.032371999999999
#
# number of rings (size 3 to 8) (size 9 to 14) (size 15 to 20)
#    0.000    2.333    0.000    2.000    2.333    7.333 
#    3.000    0.000    0.000    0.000    0.000    0.000 
#    0.000    0.000    0.000    0.000    0.000    0.000 
#
# Total GULP energy -66968.947813 kJ/mol
# GULP energy per Si atom -5580.745651 kJ/mol
# Density = 1.998678 g / cm^3
# Si number density = 20.032372 Si / 1000 Ang^3
#
#
#
# Elastic Constant Matrix: (Units=GPa)
#
#
# Indices 1 2 3 4 5 6 
#
# 1 152.7749 33.7929 71.1617 -20.2223 14.6438 -36.1199
# 2 33.7929 75.6310 45.3217 -16.2619 14.2299 -28.3756
# 3 71.1617 45.3217 207.4552 -31.0300 10.4974 -21.6845
# 4 -20.2223 -16.2619 -31.0300 24.3176 -9.6210 9.2811
# 5 14.6438 14.2299 10.4974 -9.6210 11.4562 -16.2479
# 6 -36.1199 -28.3756 -21.6845 9.2811 -16.2479 44.9908
#
#
#
# Elastic Compliance Matrix: (Units=1/GPa)
#
#
# Indices 1 2 3 4 5 6 
#
# 1 0.009322 -0.000178 -0.002089 0.003386 0.002254 0.006480
# 2 -0.000178 0.020031 -0.002550 0.003706 -0.008849 0.007301
# 3 -0.002089 -0.002550 0.007069 0.008360 0.008421 0.001438
# 4 0.003386 0.003706 0.008360 0.081730 0.084088 0.022592
# 5 0.002254 -0.008849 0.008421 0.084088 0.274915 0.082223
# 6 0.006480 0.007301 0.001438 0.022592 0.082223 0.057761
#
#
# Mechanical properties :
#
#
# Convention : Reuss Voigt Hill
#
# Bulk Modulus (GPa) = 37.33033 81.82377 59.57705
# Shear Modulus (GPa) = 10.65210 35.19191 22.92201
#
# Velocity S-wave (km/s) = 2.30846 4.19591 3.38634
# Velocity P-wave (km/s) = 5.07748 8.02550 6.71526
#
# Compressibility (1/GPa) = 0.02678787
#
# Stress axis : x y z
#
# Youngs Moduli (GPa) = 107.26909 49.92357 141.46991
#
# Poissons Ratio (x) = 0.00889 0.29554
# Poissons Ratio (y) = 0.01911 0.36070
# Poissons Ratio (z) = 0.22409 0.12729
#
# Static dielectric constant tensor:
#      x y z
#    x 1.732350 -0.000390 -0.003060 
#    y -0.000390 1.764950 -0.010040 
#    z -0.003060 -0.010040 1.661620 
# 
# From -- ./inp_files/34049.got.cif
#   From: 2010.05.17/outbox.cif.g08.bks.cpg/sg2_18_cif.got.tgz:34049.got - 2010.06.03 11:33:40.
