data_PCOD9096766
_publ_section_title
;
Structure prediction by ZEFSAII (Michael W. Deem and Ramdas Pophale) SiO2 
 PCOD9096766
Probable space group: P -1
;
_chemical_formula_sum "Si O2"
_cell_formula_units_Z 16
_cell_length_a 11.834452
_cell_length_b 9.865189
_cell_length_c 10.857043
_cell_angle_alpha 61.260928
_cell_angle_beta 81.778927
_cell_angle_gamma 37.414874
_cell_volume 603.567404
_symmetry_space_group_name_H-M "P -1"
_symmetry_group_IT_number 2
_symmetry_cell_setting 'triclinic'
loop_
_space_group_symop_operation_xyz
x,y,z
-x,-y,-z
loop_
_atom_site_type_symbol
_atom_site_label
_atom_site_fract_x
_atom_site_fract_y
_atom_site_fract_z
Si Si1 0.692621 0.540068 0.841400
Si Si2 0.393655 0.512252 0.354702
Si Si3 0.129130 0.137228 0.870531
Si Si4 0.128954 0.480144 0.667442
Si Si5 0.072475 0.052653 0.667705
Si Si6 0.725265 0.023489 0.820412
Si Si7 0.806156 0.419616 0.146024
Si Si8 0.465472 0.956659 0.352071
O O1 0.601751 0.507936 0.785721
O O2 0.939041 0.253353 0.903580
O O3 0.617797 0.790232 0.690263
O O4 0.666732 0.575857 0.976193
O O5 0.160537 0.729838 0.343082
O O6 0.534364 0.210348 0.509499
O O7 0.415162 0.666100 0.323077
O O8 0.048381 0.401406 0.740849
O O9 0.186742 0.996617 0.792999
O O10 0.282485 0.981834 0.028934
O O11 0.959823 0.789368 0.505377
O O12 0.236352 0.428323 0.795200
O O13 0.300611 0.271701 0.625726
O O14 0.175406 0.778569 0.728109
O O15 0.961602 0.789663 0.842108
O O16 0.661194 0.941224 0.796888
#
# Coordination Sequence:
#
# PCOD9096766 Si02
#       8
#     2   2   2   2   2   2   2   2
#     4  10  20  36  58  80 103 136 179 222 260 304
#     4   9  19  36  57  80 104 135 178 222 262 305
#     4  10  20  36  58  80 103 136 179 222 260 304
#     4  11  22  35  53  79 112 143 170 210 264 319
#     4   9  19  36  57  80 104 135 178 222 262 305
#     4  10  20  36  58  80 103 136 179 222 260 304
#     4  10  20  36  58  80 103 136 179 222 260 304
#     4  11  22  35  53  79 112 143 170 210 264 319
#
# _framework density 26.509053999999999
#
# number of rings (size 3 to 8) (size 9 to 14) (size 15 to 20)
#    0.000    2.000    0.000    3.750    0.000    7.000 
#    0.000    3.750    0.000    3.000    0.000    0.000 
#    0.000    0.000    0.000    0.000    0.000    0.000 
#
# Total GULP energy -89568.707330 kJ/mol
# GULP energy per Si atom -5598.044208 kJ/mol
# Density = 2.644872 g / cm^3
# Si number density = 26.509054 Si / 1000 Ang^3
#
#
#
# Elastic Constant Matrix: (Units=GPa)
#
#
# Indices 1 2 3 4 5 6 
#
# 1 62.6708 28.0829 -1.8989 -1.9080 -6.4987 17.6009
# 2 28.0829 79.9380 -7.5884 6.1000 -5.6028 13.3286
# 3 -1.8989 -7.5884 63.4857 2.2568 -11.6061 -5.4139
# 4 -1.9080 6.1000 2.2568 33.9193 14.3424 -2.3170
# 5 -6.4987 -5.6028 -11.6061 14.3424 28.7873 2.1624
# 6 17.6009 13.3286 -5.4139 -2.3170 2.1624 51.0745
#
#
#
# Elastic Compliance Matrix: (Units=1/GPa)
#
#
# Indices 1 2 3 4 5 6 
#
# 1 0.020675 -0.006053 0.000104 0.000231 0.003843 -0.005686
# 2 -0.006053 0.016231 0.002925 -0.006271 0.006276 -0.002390
# 3 0.000104 0.002925 0.018415 -0.006457 0.011206 0.000385
# 4 0.000231 -0.006271 -0.006457 0.041845 -0.024907 0.003825
# 5 0.003843 0.006276 0.011206 -0.024907 0.054144 -0.005196
# 6 -0.005686 -0.002390 0.000385 0.003825 -0.005196 0.022597
#
#
# Mechanical properties :
#
#
# Convention : Reuss Voigt Hill
#
# Bulk Modulus (GPa) = 20.29506 27.03176 23.66341
# Shear Modulus (GPa) = 25.46109 35.25616 30.35862
#
# Velocity S-wave (km/s) = 3.10250 3.65083 3.38778
# Velocity P-wave (km/s) = 4.52842 5.29062 4.92429
#
# Compressibility (1/GPa) = 0.04927306
#
# Stress axis : x y z
#
# Youngs Moduli (GPa) = 48.36852 61.61103 54.30273
#
# Poissons Ratio (x) = 0.37296 -0.00566
# Poissons Ratio (y) = 0.29280 -0.15886
# Poissons Ratio (z) = -0.00504 -0.18024
#
# Static dielectric constant tensor:
#      x y z
#    x 2.011690 -0.068100 0.031540 
#    y -0.068100 2.018910 -0.003870 
#    z 0.031540 -0.003870 2.142520 
# 
# From -- ./inp_files/257011.got.cif
#   From: 2010.05.17/outbox.cif.g08.bks.cpg/sg2_129_cif.got.tgz:257011.got - 2010.06.03 11:33:40.
