data_PCOD9096389
_publ_section_title
;
Structure prediction by ZEFSAII (Michael W. Deem and Ramdas Pophale) SiO2 
 PCOD9096389
Probable space group: P -1
;
_chemical_formula_sum "Si O2"
_cell_formula_units_Z 16
_cell_length_a 17.764688
_cell_length_b 14.180391
_cell_length_c 7.781783
_cell_angle_alpha 101.036747
_cell_angle_beta 132.556418
_cell_angle_gamma 40.932542
_cell_volume 709.038325
_symmetry_space_group_name_H-M "P -1"
_symmetry_group_IT_number 2
_symmetry_cell_setting 'triclinic'
loop_
_space_group_symop_operation_xyz
x,y,z
-x,-y,-z
loop_
_atom_site_type_symbol
_atom_site_label
_atom_site_fract_x
_atom_site_fract_y
_atom_site_fract_z
Si Si1 0.253019 0.869131 0.813893
Si Si2 0.908349 0.801249 0.389168
Si Si3 0.936384 0.247355 0.076955
Si Si4 0.196345 0.741766 0.457583
Si Si5 0.614320 0.393096 0.817897
Si Si6 0.736491 0.802230 0.849850
Si Si7 0.696373 0.547458 0.298973
Si Si8 0.874335 0.484128 0.872403
O O1 0.137269 0.880899 0.529636
O O2 0.134766 0.063461 0.729564
O O3 0.326990 0.757275 0.064571
O O4 0.455232 0.738362 0.975970
O O5 0.881296 0.852787 0.565919
O O6 0.140692 0.572360 0.642947
O O7 0.773694 0.832950 0.091384
O O8 0.938422 0.171722 0.891134
O O9 0.813366 0.293077 0.053314
O O10 0.824511 0.430180 0.885818
O O11 0.432479 0.576358 0.721683
O O12 0.231649 0.612942 0.564346
O O13 0.500000 0.500000 0.500000
O O14 0.818167 0.626622 0.933462
O O15 0.500000 0.000000 0.500000
O O16 0.892757 0.713084 0.909737
O O17 0.742822 0.588169 0.531067
#
# Coordination Sequence:
#
# PCOD9096389 Si02
#       8
#     2   2   2   2   2   2   2   2
#     4  11  20  34  56  83 118 162 194 224 272 325
#     4  11  23  35  58  87 112 149 195 235 280 339
#     4  10  20  36  53  85 121 147 192 238 276 333
#     4   9  18  32  53  77 115 161 192 224 269 326
#     4   9  18  33  56  84 116 154 194 231 273 328
#     4  10  21  41  64  85 104 140 193 238 293 358
#     4   9  18  36  56  80 112 148 191 230 271 336
#     4   9  20  39  63  82 111 147 177 238 302 334
#
# _framework density 22.565774000000001
#
# number of rings (size 3 to 8) (size 9 to 14) (size 15 to 20)
#    0.000    2.250    0.000    4.500    0.000    3.000 
#    0.000    9.375    0.000    2.250    0.000    0.000 
#    0.000    0.000    0.000    0.000    0.000    0.000 
#
# Total GULP energy -89079.544524 kJ/mol
# GULP energy per Si atom -5567.471533 kJ/mol
# Density = 2.251441 g / cm^3
# Si number density = 22.565774 Si / 1000 Ang^3
#
#
#
# Elastic Constant Matrix: (Units=GPa)
#
#
# Indices 1 2 3 4 5 6 
#
# 1 33.1385 12.4036 3.4878 -3.1999 -2.5352 -0.1586
# 2 12.4036 113.8582 54.6110 20.5907 1.2916 4.7492
# 3 3.4878 54.6110 124.9316 26.8683 -6.8952 -11.8676
# 4 -3.1999 20.5907 26.8683 46.2130 -4.6681 8.4736
# 5 -2.5352 1.2916 -6.8952 -4.6681 30.9552 -3.6719
# 6 -0.1586 4.7492 -11.8676 8.4736 -3.6719 27.2066
#
#
#
# Elastic Compliance Matrix: (Units=1/GPa)
#
#
# Indices 1 2 3 4 5 6 
#
# 1 0.032552 -0.004571 0.000371 0.004392 0.003634 0.000272
# 2 -0.004571 0.012499 -0.005421 -0.002249 -0.002949 -0.004271
# 3 0.000371 -0.005421 0.012732 -0.006268 0.003202 0.008887
# 4 0.004392 -0.002249 -0.006268 0.028819 0.002098 -0.011009
# 5 0.003634 -0.002949 0.003202 0.002098 0.034458 0.005930
# 6 0.000272 -0.004271 0.008887 -0.011009 0.005930 0.045608
#
#
# Mechanical properties :
#
#
# Convention : Reuss Voigt Hill
#
# Bulk Modulus (GPa) = 25.94589 45.88145 35.91367
# Shear Modulus (GPa) = 25.15618 34.30333 29.72976
#
# Velocity S-wave (km/s) = 3.34247 3.90314 3.63364
# Velocity P-wave (km/s) = 5.13995 6.37880 5.79259
#
# Compressibility (1/GPa) = 0.03854175
#
# Stress axis : x y z
#
# Youngs Moduli (GPa) = 30.72040 80.00510 78.53927
#
# Poissons Ratio (x) = 0.36571 -0.02916
# Poissons Ratio (y) = 0.14042 0.42576
# Poissons Ratio (z) = -0.01140 0.43371
#
# Static dielectric constant tensor:
#      x y z
#    x 2.389270 -0.240410 0.093930 
#    y -0.240410 1.923780 0.022510 
#    z 0.093930 0.022510 1.933960 
# 
# From -- ./inp_files/347009.got.cif
#   From: 2010.05.17/outbox.cif.g08.bks.cpg/sg2_174_cif.got.tgz:347009.got - 2010.06.03 11:33:40.
