data_PCOD9096028
_publ_section_title
;
Structure prediction by ZEFSAII (Michael W. Deem and Ramdas Pophale) SiO2 
 PCOD9096028
Probable space group: P -1
;
_chemical_formula_sum "Si O2"
_cell_formula_units_Z 16
_cell_length_a 12.258096
_cell_length_b 15.553161
_cell_length_c 14.653304
_cell_angle_alpha 39.663334
_cell_angle_beta 134.160740
_cell_angle_gamma 153.182606
_cell_volume 804.007932
_symmetry_space_group_name_H-M "P -1"
_symmetry_group_IT_number 2
_symmetry_cell_setting 'triclinic'
loop_
_space_group_symop_operation_xyz
x,y,z
-x,-y,-z
loop_
_atom_site_type_symbol
_atom_site_label
_atom_site_fract_x
_atom_site_fract_y
_atom_site_fract_z
Si Si1 0.468274 0.615354 0.827071
Si Si2 0.337065 0.755096 0.118912
Si Si3 0.684967 0.510298 0.567470
Si Si4 0.940406 0.044478 0.518804
Si Si5 0.474100 0.657786 0.117060
Si Si6 0.540435 0.408834 0.369140
Si Si7 0.844732 0.541122 0.073684
Si Si8 0.996039 0.958138 0.816085
O O1 0.383484 0.535191 0.738334
O O2 0.266989 0.560779 0.808429
O O3 0.746804 0.857325 0.785812
O O4 0.500000 0.500000 0.000000
O O5 0.418431 0.703515 0.284955
O O6 0.358905 0.684049 0.097573
O O7 0.068015 0.609628 0.111197
O O8 0.500000 0.000000 0.000000
O O9 0.500000 0.500000 0.500000
O O10 0.714763 0.527638 0.461043
O O11 0.930997 0.722497 0.589025
O O12 0.651504 0.843056 0.524568
O O13 0.036946 0.034808 0.673925
O O14 0.000000 0.000000 0.500000
O O15 0.395698 0.450633 0.261871
O O16 0.381624 0.627380 0.988282
O O17 0.763301 0.854053 0.138683
O O18 0.940589 0.761072 0.945647
#
# Coordination Sequence:
#
# PCOD9096028 Si02
#       8
#     2   2   2   2   2   2   2   2
#     4   9  19  39  62  93 130 169 211 271 306 375
#     4  12  26  43  63  94 138 168 208 267 325 392
#     4  12  23  39  63  95 125 167 217 260 321 384
#     4  11  19  32  58  91 123 157 201 260 317 368
#     4  12  20  38  64  95 126 168 206 266 321 377
#     4  11  21  37  64  96 127 158 218 272 309 366
#     4  11  23  42  59  89 136 172 211 256 328 382
#     4  10  20  35  61  94 124 159 213 265 306 366
#
# _framework density 19.900300999999999
#
# number of rings (size 3 to 8) (size 9 to 14) (size 15 to 20)
#    0.000    1.000    8.750    0.375    0.000    0.500 
#    2.250    0.625    0.000    3.000    0.000    0.000 
#    0.000    0.000    0.000    0.000    0.000    0.000 
#
# Total GULP energy -89168.916610 kJ/mol
# GULP energy per Si atom -5573.057288 kJ/mol
# Density = 1.985501 g / cm^3
# Si number density = 19.900301 Si / 1000 Ang^3
#
#
#
# Elastic Constant Matrix: (Units=GPa)
#
#
# Indices 1 2 3 4 5 6 
#
# 1 104.1751 46.6296 36.0284 -6.4199 -23.0689 -3.3710
# 2 46.6296 110.9811 24.9493 0.5809 -13.4895 -7.5279
# 3 36.0284 24.9493 82.1229 -5.2765 -15.9048 -10.7828
# 4 -6.4199 0.5809 -5.2765 23.5487 -6.6764 -6.7560
# 5 -23.0689 -13.4895 -15.9048 -6.6764 36.4100 7.4261
# 6 -3.3710 -7.5279 -10.7828 -6.7560 7.4261 30.8506
#
#
#
# Elastic Compliance Matrix: (Units=1/GPa)
#
#
# Indices 1 2 3 4 5 6 
#
# 1 0.014782 -0.004653 -0.003517 0.005026 0.007315 -0.001409
# 2 -0.004653 0.011380 -0.001278 -0.001365 0.000156 0.001485
# 3 -0.003517 -0.001278 0.015917 0.005266 0.004195 0.005010
# 4 0.005026 -0.001365 0.005266 0.051515 0.012309 0.010375
# 5 0.007315 0.000156 0.004195 0.012309 0.037046 -0.003918
# 6 -0.001409 0.001485 0.005010 0.010375 -0.003918 0.037589
#
#
# Mechanical properties :
#
#
# Convention : Reuss Voigt Hill
#
# Bulk Modulus (GPa) = 43.13697 56.94374 50.04036
# Shear Modulus (GPa) = 25.66031 30.80663 28.23347
#
# Velocity S-wave (km/s) = 3.59478 3.93879 3.77071
# Velocity P-wave (km/s) = 6.24127 7.02582 6.64513
#
# Compressibility (1/GPa) = 0.02318197
#
# Stress axis : x y z
#
# Youngs Moduli (GPa) = 67.64883 87.87485 62.82669
#
# Poissons Ratio (x) = 0.40889 0.22096
# Poissons Ratio (y) = 0.31477 0.08032
# Poissons Ratio (z) = 0.23792 0.11234
#
# Static dielectric constant tensor:
#      x y z
#    x 1.740900 0.022790 -0.019080 
#    y 0.022790 1.764750 -0.018950 
#    z -0.019080 -0.018950 1.755640 
# 
# From -- ./inp_files/521468.got.cif
#   From: 2010.05.17/outbox.cif.g08.bks.cpg/sg2_261_cif.got.tgz:521468.got - 2010.06.03 11:33:40.
