data_PCOD9096324
_publ_section_title
;
Structure prediction by ZEFSAII (Michael W. Deem and Ramdas Pophale) SiO2 
 PCOD9096324
Probable space group: P -1
;
_chemical_formula_sum "Si O2"
_cell_formula_units_Z 16
_cell_length_a 15.534727
_cell_length_b 6.965964
_cell_length_c 8.618578
_cell_angle_alpha 93.246582
_cell_angle_beta 87.819470
_cell_angle_gamma 138.287685
_cell_volume 619.570734
_symmetry_space_group_name_H-M "P -1"
_symmetry_group_IT_number 2
_symmetry_cell_setting 'triclinic'
loop_
_space_group_symop_operation_xyz
x,y,z
-x,-y,-z
loop_
_atom_site_type_symbol
_atom_site_label
_atom_site_fract_x
_atom_site_fract_y
_atom_site_fract_z
Si Si1 0.089212 0.396636 0.390596
Si Si2 0.587511 0.405367 0.404473
Si Si3 0.235400 0.724651 0.902360
Si Si4 0.987963 0.205939 0.044037
Si Si5 0.589454 0.325913 0.058791
Si Si6 0.161507 0.068241 0.425347
Si Si7 0.663511 0.081489 0.429508
Si Si8 0.723588 0.862348 0.903378
O O1 0.044006 0.348418 0.215574
O O2 0.126458 0.232636 0.397230
O O3 0.217040 0.721444 0.450439
O O4 0.968825 0.232345 0.506078
O O5 0.553098 0.366402 0.224593
O O6 0.719064 0.732503 0.454077
O O7 0.621783 0.236421 0.420862
O O8 0.463721 0.236072 0.513981
O O9 0.278947 0.575599 0.910459
O O10 0.284227 0.883077 0.742022
O O11 0.081607 0.465081 0.925028
O O12 0.303510 0.963721 0.042910
O O13 0.000000 0.000000 0.000000
O O14 0.839731 0.011832 0.023227
O O15 0.614032 0.523991 0.933620
O O16 0.500000 0.000000 0.000000
O O17 0.215400 0.069117 0.264217
#
# Coordination Sequence:
#
# PCOD9096324 Si02
#       8
#     2   2   2   2   2   2   2   2
#     4  10  20  35  66  92 127 171 219 265 326 385
#     4   9  20  37  64  93 128 168 217 264 325 388
#     4  11  25  44  66  98 133 170 218 270 327 393
#     4  12  22  40  67  98 131 169 217 270 326 390
#     4  11  25  43  70  94 130 175 221 267 325 387
#     4  10  20  36  61  98 126 171 217 266 322 392
#     4   9  20  38  62  93 128 171 213 267 323 391
#     4  12  25  43  68  97 134 172 217 271 329 387
#
# _framework density 25.824331000000001
#
# number of rings (size 3 to 8) (size 9 to 14) (size 15 to 20)
#    0.000    1.500    2.500    1.875   12.250    0.500 
#    0.000    4.375    0.000    0.000    0.000    0.000 
#    0.000    0.000    0.000    0.000    0.000    0.000 
#
# Total GULP energy -89727.705298 kJ/mol
# GULP energy per Si atom -5607.981581 kJ/mol
# Density = 2.576555 g / cm^3
# Si number density = 25.824331 Si / 1000 Ang^3
#
#
#
# Elastic Constant Matrix: (Units=GPa)
#
#
# Indices 1 2 3 4 5 6 
#
# 1 77.2710 21.5654 28.1300 -14.5107 -3.0880 -1.3652
# 2 21.5654 161.2780 61.8524 -16.4828 -7.4673 1.8159
# 3 28.1300 61.8524 180.1805 -10.0666 -18.8875 12.3574
# 4 -14.5107 -16.4828 -10.0666 42.9866 11.8386 1.7543
# 5 -3.0880 -7.4673 -18.8875 11.8386 36.8863 5.5909
# 6 -1.3652 1.8159 12.3574 1.7543 5.5909 46.5347
#
#
#
# Elastic Compliance Matrix: (Units=1/GPa)
#
#
# Indices 1 2 3 4 5 6 
#
# 1 0.014711 -0.000819 -0.001995 0.004578 -0.001578 0.001010
# 2 -0.000819 0.007411 -0.002371 0.002139 -0.000514 0.000298
# 3 -0.001995 -0.002371 0.007166 -0.000810 0.003627 -0.002274
# 4 0.004578 0.002139 -0.000810 0.027785 -0.008553 0.000246
# 5 -0.001578 -0.000514 0.003627 -0.008553 0.032164 -0.004531
# 6 0.001010 0.000298 -0.002274 0.000246 -0.004531 0.022646
#
#
# Mechanical properties :
#
#
# Convention : Reuss Voigt Hill
#
# Bulk Modulus (GPa) = 52.85605 71.31391 62.08498
# Shear Modulus (GPa) = 38.89337 45.76030 42.32683
#
# Velocity S-wave (km/s) = 3.88503 4.21406 4.05288
# Velocity P-wave (km/s) = 6.37468 7.16608 6.78193
#
# Compressibility (1/GPa) = 0.01891931
#
# Stress axis : x y z
#
# Youngs Moduli (GPa) = 67.97844 134.93978 139.54412
#
# Poissons Ratio (x) = 0.11047 0.27832
# Poissons Ratio (y) = 0.05565 0.33085
# Poissons Ratio (z) = 0.13558 0.31993
#
# Static dielectric constant tensor:
#      x y z
#    x 2.125290 -0.040970 -0.024980 
#    y -0.040970 2.023610 0.024320 
#    z -0.024980 0.024320 1.960150 
# 
# From -- ./inp_files/342820.got.cif
#   From: 2010.05.17/outbox.cif.g08.bks.cpg/sg2_172_cif.got.tgz:342820.got - 2010.06.03 11:33:40.
