data_PCOD9096355
_publ_section_title
;
Structure prediction by ZEFSAII (Michael W. Deem and Ramdas Pophale) SiO2 
 PCOD9096355
Probable space group: P -1
;
_chemical_formula_sum "Si O2"
_cell_formula_units_Z 14
_cell_length_a 9.550120
_cell_length_b 15.866697
_cell_length_c 13.406947
_cell_angle_alpha 26.032032
_cell_angle_beta 46.526079
_cell_angle_gamma 60.636541
_cell_volume 592.571298
_symmetry_space_group_name_H-M "P -1"
_symmetry_group_IT_number 2
_symmetry_cell_setting 'triclinic'
loop_
_space_group_symop_operation_xyz
x,y,z
-x,-y,-z
loop_
_atom_site_type_symbol
_atom_site_label
_atom_site_fract_x
_atom_site_fract_y
_atom_site_fract_z
Si Si1 0.428350 0.594333 0.262378
Si Si2 0.202878 0.501495 0.271204
Si Si3 0.067524 0.291761 0.900228
Si Si4 0.600637 0.421947 0.188697
Si Si5 0.909573 0.042242 0.892520
Si Si6 0.431425 0.926110 0.289459
Si Si7 0.952649 0.445708 0.196651
O O1 0.251640 0.566214 0.294150
O O2 0.288202 0.449927 0.572724
O O3 0.578761 0.509355 0.217373
O O4 0.552991 0.838278 0.964840
O O5 0.401806 0.442949 0.211530
O O6 0.140894 0.676872 0.067343
O O7 0.000057 0.289947 0.577433
O O8 0.084903 0.373294 0.917427
O O9 0.032823 0.066713 0.113642
O O10 0.589631 0.190726 0.467815
O O11 0.818985 0.549865 0.890233
O O12 0.659173 0.948269 0.118816
O O13 0.000000 0.000000 0.000000
O O14 0.243363 0.777282 0.469194
O O15 0.000000 0.500000 0.000000
#
# Coordination Sequence:
#
# PCOD9096355 Si02
#       7
#     2   2   2   2   2   2   2
#     4  10  20  35  68  98 120 158 200 264 317 357
#     4  10  21  35  65  99 127 145 206 258 321 362
#     4  12  22  38  66  97 123 163 205 257 312 364
#     4   9  21  41  61  88 130 165 199 253 308 365
#     4  12  19  36  66 100 126 151 195 268 316 360
#     4  11  20  38  65  89 127 164 204 252 308 359
#     4  10  26  47  59  84 131 175 213 246 294 376
#
# _framework density 23.625848999999999
#
# number of rings (size 3 to 8) (size 9 to 14) (size 15 to 20)
#    0.857    0.571    5.714    1.286    0.000    2.286 
#    0.000    3.571    0.000    0.000    0.000    0.000 
#    0.000    0.000    0.000    0.000    0.000    0.000 
#
# Total GULP energy -78091.201671 kJ/mol
# GULP energy per Si atom -5577.942977 kJ/mol
# Density = 2.357208 g / cm^3
# Si number density = 23.625849 Si / 1000 Ang^3
#
#
#
# Elastic Constant Matrix: (Units=GPa)
#
#
# Indices 1 2 3 4 5 6 
#
# 1 50.9006 11.2010 17.2170 8.4586 -20.3754 -2.0818
# 2 11.2010 128.9832 30.3853 -9.0979 -7.3163 19.2565
# 3 17.2170 30.3853 70.8250 -10.8191 -34.6118 -11.7661
# 4 8.4586 -9.0979 -10.8191 43.6602 -3.0905 -3.3274
# 5 -20.3754 -7.3163 -34.6118 -3.0905 38.5839 3.4726
# 6 -2.0818 19.2565 -11.7661 -3.3274 3.4726 37.7955
#
#
#
# Elastic Compliance Matrix: (Units=1/GPa)
#
#
# Indices 1 2 3 4 5 6 
#
# 1 0.026055 -0.002144 0.000775 -0.004252 0.013604 0.001145
# 2 -0.002144 0.010654 -0.008227 -0.000396 -0.005840 -0.007606
# 3 0.000775 -0.008227 0.036645 0.010477 0.031329 0.013686
# 4 -0.004252 -0.000396 0.010477 0.027233 0.008825 0.004816
# 5 0.013604 -0.005840 0.031329 0.008825 0.060018 0.008740
# 6 0.001145 -0.007606 0.013686 0.004816 0.008740 0.034278
#
#
# Mechanical properties :
#
#
# Convention : Reuss Voigt Hill
#
# Bulk Modulus (GPa) = 18.46367 40.92393 29.69380
# Shear Modulus (GPa) = 21.53976 36.80165 29.17070
#
# Velocity S-wave (km/s) = 3.02272 3.95103 3.51763
# Velocity P-wave (km/s) = 4.47375 6.17847 5.39388
#
# Compressibility (1/GPa) = 0.05416040
#
# Stress axis : x y z
#
# Youngs Moduli (GPa) = 38.38029 93.86546 27.28903
#
# Poissons Ratio (x) = 0.20128 -0.02115
# Poissons Ratio (y) = 0.08230 0.22451
# Poissons Ratio (z) = -0.02975 0.77224
#
# Static dielectric constant tensor:
#      x y z
#    x 2.064600 0.014960 0.038660 
#    y 0.014960 1.913450 0.013420 
#    z 0.038660 0.013420 1.955100 
# 
# From -- ./inp_files/522101.got.cif
#   From: 2010.05.17/outbox.cif.g08.bks.cpg/sg2_262_cif.got.tgz:522101.got - 2010.06.03 11:33:40.
