data_PCOD9096064
_publ_section_title
;
Structure prediction by ZEFSAII (Michael W. Deem and Ramdas Pophale) SiO2 
 PCOD9096064
Probable space group: P -1
;
_chemical_formula_sum "Si O2"
_cell_formula_units_Z 16
_cell_length_a 7.806119
_cell_length_b 13.814179
_cell_length_c 5.574906
_cell_angle_alpha 76.832274
_cell_angle_beta 101.783465
_cell_angle_gamma 94.810822
_cell_volume 572.588591
_symmetry_space_group_name_H-M "P -1"
_symmetry_group_IT_number 2
_symmetry_cell_setting 'triclinic'
loop_
_space_group_symop_operation_xyz
x,y,z
-x,-y,-z
loop_
_atom_site_type_symbol
_atom_site_label
_atom_site_fract_x
_atom_site_fract_y
_atom_site_fract_z
Si Si1 0.156912 0.814659 0.011038
Si Si2 0.184146 0.589470 0.259640
Si Si3 0.578726 0.958729 0.295256
Si Si4 0.077779 0.290012 0.381347
Si Si5 0.460121 0.281528 0.514045
Si Si6 0.507107 0.770343 0.943389
Si Si7 0.140085 0.121845 0.857407
Si Si8 0.828068 0.473505 0.216432
O O1 0.203047 0.709938 0.215403
O O2 0.336031 0.835442 0.906998
O O3 0.057679 0.897796 0.085459
O O4 0.009769 0.781600 0.799315
O O5 0.973124 0.564264 0.202580
O O6 0.263408 0.536326 0.545355
O O7 0.253974 0.543753 0.057681
O O8 0.534969 0.839514 0.380838
O O9 0.784735 0.951124 0.283562
O O10 0.500000 0.000000 0.500000
O O11 0.500000 0.000000 0.000000
O O12 0.274075 0.320364 0.354853
O O13 0.101112 0.225027 0.658367
O O14 0.954807 0.380115 0.321717
O O15 0.471080 0.306834 0.785639
O O16 0.553152 0.288723 0.279474
O O17 0.688696 0.840675 0.949729
#
# Coordination Sequence:
#
# PCOD9096064 Si02
#       8
#     2   2   2   2   2   2   2   2
#     4  11  20  34  60  83 110 149 190 228 273 327
#     4   9  18  28  47  79 108 138 187 221 273 327
#     4  10  20  35  62  84 109 148 182 221 274 334
#     4   9  18  32  58  79 111 142 195 226 273 326
#     4  10  21  38  55  84 113 143 185 228 276 326
#     4  10  22  35  56  83 118 141 180 238 271 319
#     4  10  21  37  56  86 110 142 191 223 278 328
#     4   9  16  29  47  77 107 142 178 231 272 317
#
# _framework density 27.943276000000001
#
# number of rings (size 3 to 8) (size 9 to 14) (size 15 to 20)
#    0.000    2.500    2.500    1.500    3.500    0.000 
#    0.000    0.000    0.000   14.250    0.000    0.000 
#    0.000    0.000    0.000    0.000    0.000    0.000 
#
# Total GULP energy -89090.045010 kJ/mol
# GULP energy per Si atom -5568.127813 kJ/mol
# Density = 2.787968 g / cm^3
# Si number density = 27.943276 Si / 1000 Ang^3
#
#
#
# Elastic Constant Matrix: (Units=GPa)
#
#
# Indices 1 2 3 4 5 6 
#
# 1 101.1694 -9.6325 24.5003 6.5564 -26.2409 -16.7923
# 2 -9.6325 39.3088 15.7712 -5.1493 -9.1721 -1.7434
# 3 24.5003 15.7712 179.7366 22.2079 -28.3028 5.2293
# 4 6.5564 -5.1493 22.2079 44.3582 -9.9846 3.0430
# 5 -26.2409 -9.1721 -28.3028 -9.9846 37.4613 2.0119
# 6 -16.7923 -1.7434 5.2293 3.0430 2.0119 29.8840
#
#
#
# Elastic Compliance Matrix: (Units=1/GPa)
#
#
# Indices 1 2 3 4 5 6 
#
# 1 0.015138 0.007415 -0.001331 0.001267 0.011306 0.008282
# 2 0.007415 0.032384 -0.002848 0.006544 0.012444 0.005050
# 3 -0.001331 -0.002848 0.006856 -0.002770 0.002921 -0.002029
# 4 0.001267 0.006544 -0.002770 0.026299 0.007493 -0.001604
# 5 0.011306 0.012444 0.002921 0.007493 0.041704 0.002998
# 6 0.008282 0.005050 -0.002029 -0.001604 0.002998 0.038727
#
#
# Mechanical properties :
#
#
# Convention : Reuss Voigt Hill
#
# Bulk Modulus (GPa) = 16.43398 42.38809 29.41103
# Shear Modulus (GPa) = 28.58430 41.64576 35.11503
#
# Velocity S-wave (km/s) = 3.20181 3.86472 3.54878
# Velocity P-wave (km/s) = 4.42298 5.92596 5.22875
#
# Compressibility (1/GPa) = 0.06084952
#
# Stress axis : x y z
#
# Youngs Moduli (GPa) = 66.05934 30.87922 145.85146
#
# Poissons Ratio (x) = -0.22897 0.19415
# Poissons Ratio (y) = -0.48983 0.41543
# Poissons Ratio (z) = 0.08794 0.08795
#
# Static dielectric constant tensor:
#      x y z
#    x 2.515420 0.058140 -0.096170 
#    y 0.058140 2.247330 0.074050 
#    z -0.096170 0.074050 2.361020 
# 
# From -- ./inp_files/47549.got.cif
#   From: 2010.05.17/outbox.cif.g08.bks.cpg/sg2_24_cif.got.tgz:47549.got - 2010.06.03 11:33:40.
