data_PCOD9096011
_publ_section_title
;
Structure prediction by ZEFSAII (Michael W. Deem and Ramdas Pophale) SiO2 
 PCOD9096011
Probable space group: P -1
;
_chemical_formula_sum "Si O2"
_cell_formula_units_Z 16
_cell_length_a 5.091388
_cell_length_b 9.929482
_cell_length_c 15.675979
_cell_angle_alpha 72.877765
_cell_angle_beta 75.233082
_cell_angle_gamma 69.922312
_cell_volume 700.822714
_symmetry_space_group_name_H-M "P -1"
_symmetry_group_IT_number 2
_symmetry_cell_setting 'triclinic'
loop_
_space_group_symop_operation_xyz
x,y,z
-x,-y,-z
loop_
_atom_site_type_symbol
_atom_site_label
_atom_site_fract_x
_atom_site_fract_y
_atom_site_fract_z
Si Si1 0.907579 0.347948 0.356111
Si Si2 0.904327 0.232473 0.195725
Si Si3 0.002161 0.647388 0.338901
Si Si4 0.479656 0.065733 0.233089
Si Si5 0.363239 0.719929 0.447508
Si Si6 0.195846 0.112523 0.033728
Si Si7 0.336167 0.031623 0.420527
Si Si8 0.071111 0.150233 0.854143
O O1 0.035390 0.481981 0.336338
O O2 0.661913 0.354553 0.445178
O O3 0.829976 0.343082 0.262491
O O4 0.140506 0.196952 0.393438
O O5 0.143445 0.101808 0.247654
O O6 0.111758 0.231601 0.096127
O O7 0.622877 0.198888 0.188811
O O8 0.684266 0.697630 0.395180
O O9 0.044059 0.739077 0.234163
O O10 0.205939 0.662487 0.395559
O O11 0.569558 0.015781 0.330080
O O12 0.607858 0.932954 0.184295
O O13 0.212770 0.895253 0.439308
O O14 0.068693 0.202074 0.941852
O O15 0.049556 0.989583 0.099680
O O16 0.500000 0.000000 0.000000
O O17 0.500000 0.000000 0.500000
#
# Coordination Sequence:
#
# PCOD9096011 Si02
#       8
#     2   2   2   2   2   2   2   2
#     4  11  26  45  66 101 143 186 224 285 347 398
#     4  10  22  38  64  94 131 170 220 276 342 393
#     4  12  28  45  69 100 143 184 229 278 343 413
#     4  10  20  35  61  92 127 164 216 276 322 387
#     4  12  26  45  71  98 137 190 238 276 323 410
#     4  10  20  38  69  99 127 170 227 288 334 406
#     4  11  23  41  68 101 135 178 237 281 329 389
#     4  10  22  38  64  98 133 167 227 277 339 396
#
# _framework density 22.830307999999999
#
# number of rings (size 3 to 8) (size 9 to 14) (size 15 to 20)
#    0.000    1.250    2.500    2.625    8.750    4.000 
#    0.000    0.625    0.000    0.750    0.000    0.000 
#    0.000    0.000    0.000    0.000    0.000    0.000 
#
# Total GULP energy -89079.100455 kJ/mol
# GULP energy per Si atom -5567.443778 kJ/mol
# Density = 2.277835 g / cm^3
# Si number density = 22.830308 Si / 1000 Ang^3
#
#
#
# Elastic Constant Matrix: (Units=GPa)
#
#
# Indices 1 2 3 4 5 6 
#
# 1 76.7558 12.5937 25.6649 4.2969 4.3330 2.2070
# 2 12.5937 93.3575 35.4709 3.3514 7.3878 9.1394
# 3 25.6649 35.4709 187.1727 32.8488 7.2713 0.3174
# 4 4.2969 3.3514 32.8488 27.1221 13.1536 6.2925
# 5 4.3330 7.3878 7.2713 13.1536 31.8618 2.0307
# 6 2.2070 9.1394 0.3174 6.2925 2.0307 16.4369
#
#
#
# Elastic Compliance Matrix: (Units=1/GPa)
#
#
# Indices 1 2 3 4 5 6 
#
# 1 0.013882 -0.000893 -0.001923 0.001475 -0.001744 -0.001680
# 2 -0.000893 0.013122 -0.003388 0.006897 -0.004409 -0.009207
# 3 -0.001923 -0.003388 0.008326 -0.012792 0.004021 0.006381
# 4 0.001475 0.006897 -0.012792 0.070345 -0.026170 -0.027483
# 5 -0.001744 -0.004409 0.004021 -0.026170 0.042057 0.007430
# 6 -0.001680 -0.009207 0.006381 -0.027483 0.007430 0.075663
#
#
# Mechanical properties :
#
#
# Convention : Reuss Voigt Hill
#
# Bulk Modulus (GPa) = 43.62326 56.08278 49.85302
# Shear Modulus (GPa) = 20.53874 33.98793 27.26333
#
# Velocity S-wave (km/s) = 3.00263 3.86258 3.45943
# Velocity P-wave (km/s) = 5.58302 6.67166 6.15147
#
# Compressibility (1/GPa) = 0.02292355
#
# Stress axis : x y z
#
# Youngs Moduli (GPa) = 72.03664 76.20957 120.10267
#
# Poissons Ratio (x) = 0.06803 0.23091
# Poissons Ratio (y) = 0.06430 0.40689
# Poissons Ratio (z) = 0.13850 0.25819
#
# Static dielectric constant tensor:
#      x y z
#    x 1.925250 -0.018600 -0.020420 
#    y -0.018600 1.931750 0.071430 
#    z -0.020420 0.071430 2.022570 
# 
# From -- ./inp_files/480411.got.cif
#   From: 2010.05.17/outbox.cif.g08.bks.cpg/sg2_241_cif.got.tgz:480411.got - 2010.06.03 11:33:40.
