data_PCOD9096223
_publ_section_title
;
Structure prediction by ZEFSAII (Michael W. Deem and Ramdas Pophale) SiO2 
 PCOD9096223
Probable space group: P -1
;
_chemical_formula_sum "Si O2"
_cell_formula_units_Z 15
_cell_length_a 12.904226
_cell_length_b 7.222686
_cell_length_c 7.686163
_cell_angle_alpha 126.957196
_cell_angle_beta 80.509789
_cell_angle_gamma 102.266681
_cell_volume 558.741740
_symmetry_space_group_name_H-M "P -1"
_symmetry_group_IT_number 2
_symmetry_cell_setting 'triclinic'
loop_
_space_group_symop_operation_xyz
x,y,z
-x,-y,-z
loop_
_atom_site_type_symbol
_atom_site_label
_atom_site_fract_x
_atom_site_fract_y
_atom_site_fract_z
Si Si1 0.930611 0.212241 0.138961
Si Si2 0.764900 0.871410 0.403014
Si Si3 0.426590 0.755618 0.613236
Si Si4 0.548041 0.731662 0.212190
Si Si5 0.128998 0.424880 0.035703
Si Si6 0.500000 0.000000 0.000000
Si Si7 0.749844 0.090287 0.877007
Si Si8 0.788361 0.388657 0.541649
O O1 0.895145 0.353270 0.392379
O O2 0.006163 0.402140 0.110994
O O3 0.816789 0.086891 0.031476
O O4 0.000000 0.000000 0.000000
O O5 0.660313 0.724896 0.267666
O O6 0.771777 0.892824 0.620092
O O7 0.755211 0.135200 0.497766
O O8 0.858435 0.778257 0.220381
O O9 0.471503 0.763946 0.412361
O O10 0.497147 0.729425 0.745276
O O11 0.311596 0.607407 0.555600
O O12 0.438221 0.049499 0.809497
O O13 0.500000 0.500000 0.000000
O O14 0.189267 0.663448 0.073690
O O15 0.189996 0.424030 0.205385
O O16 0.625828 0.084457 0.938020
#
# Coordination Sequence:
#
# PCOD9096223 Si02
#       8
#     2   2   2   2   2   1   2   2
#     4  12  24  47  72 101 136 177 228 287 336 394
#     4  10  21  41  64  98 133 178 224 276 336 400
#     4  10  21  38  63  91 133 177 211 273 337 396
#     4  10  20  35  63  94 128 174 224 266 327 405
#     4  11  24  44  71  98 134 180 229 275 340 406
#     4  12  22  44  68  94 142 174 216 278 344 396
#     4  11  26  46  70  98 140 181 222 281 343 405
#     4  10  21  42  67  97 134 175 227 277 336 398
#
# _framework density 26.846034
#
# number of rings (size 3 to 8) (size 9 to 14) (size 15 to 20)
#    0.000    1.333    4.000    1.600    3.733    0.533 
#    4.800    2.667    0.000    0.000    0.000    0.000 
#    0.000    0.000    0.000    0.000    0.000    0.000 
#
# Total GULP energy -83722.756764 kJ/mol
# GULP energy per Si atom -5581.517118 kJ/mol
# Density = 2.678493 g / cm^3
# Si number density = 26.846034 Si / 1000 Ang^3
#
#
#
# Elastic Constant Matrix: (Units=GPa)
#
#
# Indices 1 2 3 4 5 6 
#
# 1 119.1552 9.8191 26.0296 -7.4816 13.3420 37.6559
# 2 9.8191 111.0588 28.6042 13.1908 -0.4393 20.7496
# 3 26.0296 28.6042 168.3916 -14.6339 6.3065 21.3258
# 4 -7.4816 13.1908 -14.6339 35.2411 14.0500 -3.9385
# 5 13.3420 -0.4393 6.3065 14.0500 49.0164 -0.8534
# 6 37.6559 20.7496 21.3258 -3.9385 -0.8534 42.5639
#
#
#
# Elastic Compliance Matrix: (Units=1/GPa)
#
#
# Indices 1 2 3 4 5 6 
#
# 1 0.012590 0.000684 -0.000237 0.002820 -0.004393 -0.011180
# 2 0.000684 0.011240 -0.001907 -0.006223 0.001845 -0.005668
# 3 -0.000237 -0.001907 0.006996 0.004174 -0.002084 -0.002021
# 4 0.002820 -0.006223 0.004174 0.038117 -0.012256 0.001729
# 5 -0.004393 0.001845 -0.002084 -0.012256 0.025454 0.003408
# 6 -0.011180 -0.005668 -0.002021 0.001729 0.003408 0.037390
#
#
# Mechanical properties :
#
#
# Convention : Reuss Voigt Hill
#
# Bulk Modulus (GPa) = 35.83320 58.61237 47.22279
# Shear Modulus (GPa) = 34.72016 47.64113 41.18064
#
# Velocity S-wave (km/s) = 3.60016 4.21718 3.92082
# Velocity P-wave (km/s) = 5.53698 6.75226 6.17459
#
# Compressibility (1/GPa) = 0.02790708
#
# Stress axis : x y z
#
# Youngs Moduli (GPa) = 79.42774 88.96473 142.94105
#
# Poissons Ratio (x) = -0.06089 0.03385
# Poissons Ratio (y) = -0.05436 0.27262
# Poissons Ratio (z) = 0.01881 0.16967
#
# Static dielectric constant tensor:
#      x y z
#    x 2.550280 -0.505850 0.480980 
#    y -0.505850 2.637250 -0.475950 
#    z 0.480980 -0.475950 2.782730 
# 
# From -- ./inp_files/241386.got.cif
#   From: 2010.05.17/outbox.cif.g08.bks.cpg/sg2_121_cif.got.tgz:241386.got - 2010.06.03 11:33:40.
