data_PCOD9096479
_publ_section_title
;
Structure prediction by ZEFSAII (Michael W. Deem and Ramdas Pophale) SiO2 
 PCOD9096479
Probable space group: P -1
;
_chemical_formula_sum "Si O2"
_cell_formula_units_Z 16
_cell_length_a 9.220815
_cell_length_b 8.536891
_cell_length_c 16.173520
_cell_angle_alpha 86.992890
_cell_angle_beta 131.809227
_cell_angle_gamma 63.309252
_cell_volume 719.795041
_symmetry_space_group_name_H-M "P -1"
_symmetry_group_IT_number 2
_symmetry_cell_setting 'triclinic'
loop_
_space_group_symop_operation_xyz
x,y,z
-x,-y,-z
loop_
_atom_site_type_symbol
_atom_site_label
_atom_site_fract_x
_atom_site_fract_y
_atom_site_fract_z
Si Si1 0.205261 0.377022 0.229157
Si Si2 0.667947 0.291189 0.014581
Si Si3 0.209696 0.315025 0.815050
Si Si4 0.424469 0.715323 0.479830
Si Si5 0.145983 0.981262 0.761548
Si Si6 0.051553 0.599110 0.588549
Si Si7 0.496979 0.047577 0.595196
Si Si8 0.525147 0.571962 0.808869
O O1 0.395307 0.327752 0.376338
O O2 0.291461 0.430079 0.182325
O O3 0.928368 0.563276 0.155059
O O4 0.284826 0.152306 0.263235
O O5 0.495463 0.230159 0.929699
O O6 0.698443 0.371635 0.939861
O O7 0.500000 0.500000 0.000000
O O8 0.875015 0.112354 0.160360
O O9 0.076650 0.487134 0.686909
O O10 0.195012 0.138141 0.796389
O O11 0.500000 0.500000 0.500000
O O12 0.468695 0.785239 0.408955
O O13 0.130061 0.883878 0.388879
O O14 0.363102 0.784130 0.794762
O O15 0.305488 0.575260 0.683416
O O16 0.000000 0.500000 0.500000
O O17 0.788413 0.836220 0.484459
O O18 0.500000 0.000000 0.500000
#
# Coordination Sequence:
#
# PCOD9096479 Si02
#       8
#     2   2   2   2   2   2   2   2
#     4  11  23  38  61  94 133 161 204 257 321 375
#     4   9  22  44  68  87 120 170 216 258 309 368
#     4  11  22  41  65  92 125 167 210 259 312 376
#     4  11  21  36  63  95 127 165 205 250 318 378
#     4  11  22  40  68  91 124 167 216 255 311 374
#     4  11  23  37  59  90 133 168 208 257 311 378
#     4  10  20  36  55  85 127 168 202 242 316 376
#     4  10  24  40  62  95 127 165 211 262 312 368
#
# _framework density 22.228551
#
# number of rings (size 3 to 8) (size 9 to 14) (size 15 to 20)
#    0.000    1.500    3.750    1.875    8.750    1.000 
#    0.000    3.125    0.000    0.000    0.000    0.000 
#    0.000    0.000    0.000    0.000    0.000    0.000 
#
# Total GULP energy -89314.429393 kJ/mol
# GULP energy per Si atom -5582.151837 kJ/mol
# Density = 2.217796 g / cm^3
# Si number density = 22.228551 Si / 1000 Ang^3
#
#
#
# Elastic Constant Matrix: (Units=GPa)
#
#
# Indices 1 2 3 4 5 6 
#
# 1 115.3188 22.7314 13.7925 -7.3739 -33.7141 9.1688
# 2 22.7314 68.8642 7.7012 -10.3186 -1.0040 17.6894
# 3 13.7925 7.7012 36.9931 -6.5798 -7.9598 0.2626
# 4 -7.3739 -10.3186 -6.5798 23.7511 5.0079 -4.1621
# 5 -33.7141 -1.0040 -7.9598 5.0079 25.0432 -5.5489
# 6 9.1688 17.6894 0.2626 -4.1621 -5.5489 39.3498
#
#
#
# Elastic Compliance Matrix: (Units=1/GPa)
#
#
# Indices 1 2 3 4 5 6 
#
# 1 0.015982 -0.005633 -0.000425 -0.001927 0.021916 0.001698
# 2 -0.005633 0.019739 -0.003103 0.006819 -0.010997 -0.008370
# 3 -0.000425 -0.003103 0.030687 0.005754 0.008596 0.003110
# 4 -0.001927 0.006819 0.005754 0.048340 -0.009923 0.001059
# 5 0.021916 -0.010997 0.008596 -0.009923 0.075798 0.009419
# 6 0.001698 -0.008370 0.003110 0.001059 0.009419 0.030199
#
#
# Mechanical properties :
#
#
# Convention : Reuss Voigt Hill
#
# Bulk Modulus (GPa) = 20.79600 34.40292 27.59946
# Shear Modulus (GPa) = 19.60043 29.42555 24.51299
#
# Velocity S-wave (km/s) = 2.97268 3.64232 3.32440
# Velocity P-wave (km/s) = 4.59981 5.76187 5.21332
#
# Compressibility (1/GPa) = 0.04808617
#
# Stress axis : x y z
#
# Youngs Moduli (GPa) = 62.57051 50.66054 32.58665
#
# Poissons Ratio (x) = 0.28539 0.01385
# Poissons Ratio (y) = 0.35248 0.10111
# Poissons Ratio (z) = 0.02659 0.15719
#
# Static dielectric constant tensor:
#      x y z
#    x 1.843620 -0.002850 0.025220 
#    y -0.002850 1.808460 0.045040 
#    z 0.025220 0.045040 1.826910 
# 
# From -- ./inp_files/186955.got.cif
#   From: 2010.05.17/outbox.cif.g08.bks.cpg/sg2_94_cif.got.tgz:186955.got - 2010.06.03 11:33:40.
