data_PCOD9096106
_publ_section_title
;
Structure prediction by ZEFSAII (Michael W. Deem and Ramdas Pophale) SiO2 
 PCOD9096106
Probable space group: P -1
;
_chemical_formula_sum "Si O2"
_cell_formula_units_Z 16
_cell_length_a 9.077451
_cell_length_b 23.774204
_cell_length_c 9.360547
_cell_angle_alpha 49.055602
_cell_angle_beta 117.283221
_cell_angle_gamma 147.348476
_cell_volume 801.348492
_symmetry_space_group_name_H-M "P -1"
_symmetry_group_IT_number 2
_symmetry_cell_setting 'triclinic'
loop_
_space_group_symop_operation_xyz
x,y,z
-x,-y,-z
loop_
_atom_site_type_symbol
_atom_site_label
_atom_site_fract_x
_atom_site_fract_y
_atom_site_fract_z
Si Si1 0.619708 0.448611 0.513287
Si Si2 0.752212 0.494517 0.189971
Si Si3 0.314152 0.255392 0.946774
Si Si4 0.934891 0.660933 0.524012
Si Si5 0.743883 0.073889 0.871944
Si Si6 0.762269 0.305854 0.132907
Si Si7 0.780515 0.682895 0.933728
Si Si8 0.391516 0.905235 0.730562
O O1 0.739448 0.458823 0.403446
O O2 0.489921 0.341684 0.741782
O O3 0.843271 0.577828 0.486953
O O4 0.351548 0.405279 0.432510
O O5 0.462334 0.373815 0.181361
O O6 0.773880 0.591635 0.064218
O O7 0.007875 0.569953 0.072234
O O8 0.002087 0.123232 0.975909
O O9 0.491783 0.259515 0.105250
O O10 0.280784 0.314229 0.937569
O O11 0.129347 0.800580 0.331666
O O12 0.083386 0.664907 0.703539
O O13 0.609722 0.984719 0.824999
O O14 0.500000 0.000000 0.000000
O O15 0.659247 0.194021 0.193613
O O16 0.088419 0.821145 0.794999
O O17 0.500000 0.000000 0.500000
#
# Coordination Sequence:
#
# PCOD9096106 Si02
#       8
#     2   2   2   2   2   2   2   2
#     4  10  20  35  62  89 121 156 203 247 293 353
#     4  10  20  35  62  89 121 156 203 247 293 353
#     4  11  24  40  60  90 125 158 195 249 311 357
#     4  10  20  37  61  90 118 160 203 245 289 360
#     4  11  22  40  66  89 116 159 207 248 289 354
#     4  11  24  40  60  90 125 158 195 249 311 357
#     4  10  20  37  61  90 118 160 203 245 289 360
#     4  11  22  40  66  89 116 159 207 248 289 354
#
# _framework density 19.966345
#
# number of rings (size 3 to 8) (size 9 to 14) (size 15 to 20)
#    0.000    1.500    2.500    5.250    3.500    3.000 
#    0.000    2.500    0.000    0.000    0.000    0.000 
#    0.000    0.000    0.000    0.000    0.000    0.000 
#
# Total GULP energy -89414.432895 kJ/mol
# GULP energy per Si atom -5588.402056 kJ/mol
# Density = 1.992090 g / cm^3
# Si number density = 19.966345 Si / 1000 Ang^3
#
#
#
# Elastic Constant Matrix: (Units=GPa)
#
#
# Indices 1 2 3 4 5 6 
#
# 1 37.2868 33.4922 25.1090 13.1625 0.0615 20.9025
# 2 33.4922 153.0510 41.7188 21.5994 -1.6394 15.6079
# 3 25.1090 41.7188 81.5025 8.0053 -18.2347 18.4613
# 4 13.1625 21.5994 8.0053 42.2743 5.2259 1.1004
# 5 0.0615 -1.6394 -18.2347 5.2259 26.3646 7.6507
# 6 20.9025 15.6079 18.4613 1.1004 7.6507 30.7915
#
#
#
# Elastic Compliance Matrix: (Units=1/GPa)
#
#
# Indices 1 2 3 4 5 6 
#
# 1 0.062597 -0.006509 -0.002362 -0.016242 0.012748 -0.040365
# 2 -0.006509 0.008838 -0.003468 -0.001619 -0.002280 0.002642
# 3 -0.002362 -0.003468 0.023675 -0.004236 0.021666 -0.016065
# 4 -0.016242 -0.001619 -0.004236 0.031652 -0.014132 0.016766
# 5 0.012748 -0.002280 0.021666 -0.014132 0.066110 -0.036409
# 6 -0.040365 0.002642 -0.016065 0.016766 -0.036409 0.076618
#
#
# Mechanical properties :
#
#
# Convention : Reuss Voigt Hill
#
# Bulk Modulus (GPa) = 14.19829 52.49781 33.34805
# Shear Modulus (GPa) = 15.74081 31.32077 23.53079
#
# Velocity S-wave (km/s) = 2.81083 3.96495 3.43669
# Velocity P-wave (km/s) = 4.20249 6.87832 5.69966
#
# Compressibility (1/GPa) = 0.07043103
#
# Stress axis : x y z
#
# Youngs Moduli (GPa) = 15.97514 113.14550 42.23904
#
# Poissons Ratio (x) = 0.73648 0.09977
# Poissons Ratio (y) = 0.10398 0.14650
# Poissons Ratio (z) = 0.03774 0.39242
#
# Static dielectric constant tensor:
#      x y z
#    x 1.703580 0.012140 -0.008020 
#    y 0.012140 1.697830 0.013910 
#    z -0.008020 0.013910 1.719310 
# 
# From -- ./inp_files/224128.got.cif
#   From: 2010.05.17/outbox.cif.g08.bks.cpg/sg2_113_cif.got.tgz:224128.got - 2010.06.03 11:33:40.
