data_PCOD9096135
_publ_section_title
;
Structure prediction by ZEFSAII (Michael W. Deem and Ramdas Pophale) SiO2 
 PCOD9096135
Probable space group: P -1
;
_chemical_formula_sum "Si O2"
_cell_formula_units_Z 16
_cell_length_a 8.139516
_cell_length_b 13.864626
_cell_length_c 11.351518
_cell_angle_alpha 128.766775
_cell_angle_beta 127.404921
_cell_angle_gamma 53.122054
_cell_volume 741.804899
_symmetry_space_group_name_H-M "P -1"
_symmetry_group_IT_number 2
_symmetry_cell_setting 'triclinic'
loop_
_space_group_symop_operation_xyz
x,y,z
-x,-y,-z
loop_
_atom_site_type_symbol
_atom_site_label
_atom_site_fract_x
_atom_site_fract_y
_atom_site_fract_z
Si Si1 0.202181 0.875740 0.652827
Si Si2 0.298402 0.207489 0.243704
Si Si3 0.331235 0.720266 0.134171
Si Si4 0.513946 0.876262 0.496105
Si Si5 0.302293 0.334372 0.924807
Si Si6 0.827265 0.905970 0.347391
Si Si7 0.935031 0.976192 0.082715
Si Si8 0.028138 0.408020 0.098919
O O1 0.457716 0.795781 0.684120
O O2 0.040392 0.834941 0.465436
O O3 0.147853 0.033693 0.721121
O O4 0.137810 0.890000 0.771610
O O5 0.302042 0.176590 0.361576
O O6 0.125088 0.339964 0.212853
O O7 0.253130 0.088797 0.064417
O O8 0.493085 0.752775 0.322571
O O9 0.475728 0.657515 0.032282
O O10 0.156617 0.864489 0.140141
O O11 0.176966 0.642888 0.057160
O O12 0.500000 0.000000 0.500000
O O13 0.295638 0.954515 0.535571
O O14 0.316970 0.184629 0.795448
O O15 0.094412 0.435125 0.839643
O O16 0.218989 0.366224 0.048714
O O17 0.000000 0.000000 0.000000
#
# Coordination Sequence:
#
# PCOD9096135 Si02
#       8
#     2   2   2   2   2   2   2   2
#     4  10  21  35  58  90 126 157 192 247 325 366
#     4  10  23  37  59  85 128 161 196 259 308 354
#     4  11  22  40  66  88 126 161 206 254 309 369
#     4  11  20  37  61  97 121 160 197 249 320 379
#     4  11  23  41  70  85 120 171 215 254 296 366
#     4  10  20  35  62  92 119 156 203 249 303 379
#     4  11  22  33  54  93 127 153 192 247 313 380
#     4  10  25  45  61  91 121 165 222 252 297 358
#
# _framework density 21.569013999999999
#
# number of rings (size 3 to 8) (size 9 to 14) (size 15 to 20)
#    0.000    1.500    2.500    3.000    7.000    0.000 
#    0.000    1.250    0.000    0.000    0.000    0.000 
#    0.000    0.000    0.000    0.000    0.000    0.000 
#
# Total GULP energy -89117.420780 kJ/mol
# GULP energy per Si atom -5569.838799 kJ/mol
# Density = 2.151992 g / cm^3
# Si number density = 21.569014 Si / 1000 Ang^3
#
#
#
# Elastic Constant Matrix: (Units=GPa)
#
#
# Indices 1 2 3 4 5 6 
#
# 1 89.4920 1.0991 7.8288 -1.8980 -15.8137 -5.6387
# 2 1.0991 62.2584 10.7848 -14.0271 -5.6525 12.2974
# 3 7.8288 10.7848 59.1346 -21.4301 -3.6842 5.8861
# 4 -1.8980 -14.0271 -21.4301 29.2017 -0.0137 -4.6165
# 5 -15.8137 -5.6525 -3.6842 -0.0137 25.2979 -5.0826
# 6 -5.6387 12.2974 5.8861 -4.6165 -5.0826 25.7582
#
#
#
# Elastic Compliance Matrix: (Units=1/GPa)
#
#
# Indices 1 2 3 4 5 6 
#
# 1 0.013248 -0.000041 -0.001487 0.000570 0.009092 0.005155
# 2 -0.000041 0.019646 0.000459 0.008608 0.002956 -0.007367
# 3 -0.001487 0.000459 0.023575 0.017037 0.002121 -0.002460
# 4 0.000570 0.008608 0.017037 0.051294 0.005261 0.002353
# 5 0.009092 0.002956 0.002121 0.005261 0.048308 0.010569
# 6 0.005155 -0.007367 -0.002460 0.002353 0.010569 0.046538
#
#
# Mechanical properties :
#
#
# Convention : Reuss Voigt Hill
#
# Bulk Modulus (GPa) = 18.40504 27.81227 23.10866
# Shear Modulus (GPa) = 22.43599 28.79638 25.61619
#
# Velocity S-wave (km/s) = 3.22871 3.65784 3.44995
# Velocity P-wave (km/s) = 4.73825 5.54637 5.15816
#
# Compressibility (1/GPa) = 0.05433293
#
# Stress axis : x y z
#
# Youngs Moduli (GPa) = 75.48167 50.90023 42.41834
#
# Poissons Ratio (x) = 0.00208 0.06307
# Poissons Ratio (y) = 0.00308 -0.01949
# Poissons Ratio (z) = 0.11222 -0.02339
#
# Static dielectric constant tensor:
#      x y z
#    x 2.010580 0.084040 -0.082770 
#    y 0.084040 1.816040 -0.085190 
#    z -0.082770 -0.085190 1.951590 
# 
# From -- ./inp_files/186665.got.cif
#   From: 2010.05.17/outbox.cif.g08.bks.cpg/sg2_94_cif.got.tgz:186665.got - 2010.06.03 11:33:40.
