data_PCOD9096461
_publ_section_title
;
Structure prediction by ZEFSAII (Michael W. Deem and Ramdas Pophale) SiO2 
 PCOD9096461
Probable space group: P -1
;
_chemical_formula_sum "Si O2"
_cell_formula_units_Z 16
_cell_length_a 16.123889
_cell_length_b 16.793121
_cell_length_c 7.966818
_cell_angle_alpha 51.392521
_cell_angle_beta 54.455916
_cell_angle_gamma 23.872513
_cell_volume 681.816391
_symmetry_space_group_name_H-M "P -1"
_symmetry_group_IT_number 2
_symmetry_cell_setting 'triclinic'
loop_
_space_group_symop_operation_xyz
x,y,z
-x,-y,-z
loop_
_atom_site_type_symbol
_atom_site_label
_atom_site_fract_x
_atom_site_fract_y
_atom_site_fract_z
Si Si1 0.801090 0.905518 0.221715
Si Si2 0.419850 0.585669 0.723437
Si Si3 0.850537 0.523819 0.449745
Si Si4 0.767004 0.163052 0.050059
Si Si5 0.638668 0.582638 0.376173
Si Si6 0.662816 0.733624 0.728906
Si Si7 0.343308 0.216961 0.970319
Si Si8 0.128899 0.654439 0.892578
O O1 0.948675 0.705903 0.419635
O O2 0.772962 0.038736 0.168325
O O3 0.579775 0.047829 0.282210
O O4 0.915395 0.827238 0.012507
O O5 0.341052 0.713737 0.811318
O O6 0.493487 0.612806 0.480861
O O7 0.238130 0.667235 0.781087
O O8 0.625087 0.343957 0.843017
O O9 0.702154 0.557023 0.524817
O O10 0.763247 0.665841 0.519479
O O11 0.830755 0.609549 0.192574
O O12 0.000000 0.000000 0.000000
O O13 0.543974 0.770127 0.175088
O O14 0.847155 0.384883 0.282955
O O15 0.726979 0.737791 0.816145
O O16 0.731492 0.556558 0.914189
O O17 0.500000 0.000000 0.000000
#
# Coordination Sequence:
#
# PCOD9096461 Si02
#       8
#     2   2   2   2   2   2   2   2
#     4  11  20  37  60  90 123 164 203 241 299 354
#     4  11  20  33  54  82 121 160 204 242 292 350
#     4   9  21  39  64  89 120 159 199 253 300 356
#     4  11  21  31  54  85 121 162 205 244 285 354
#     4   9  20  37  57  82 116 158 197 249 298 352
#     4  10  20  40  64  90 123 160 198 247 301 364
#     4   9  21  42  66  90 118 156 200 252 316 365
#     4  10  20  36  55  82 127 163 195 247 292 347
#
# _framework density 23.466729000000001
#
# number of rings (size 3 to 8) (size 9 to 14) (size 15 to 20)
#    0.750    1.250    2.500    1.875    3.500    0.500 
#    2.250    3.750    0.000    7.500    0.000    0.000 
#    0.000    0.000    0.000    0.000    0.000    0.000 
#
# Total GULP energy -89337.473203 kJ/mol
# GULP energy per Si atom -5583.592075 kJ/mol
# Density = 2.341332 g / cm^3
# Si number density = 23.466729 Si / 1000 Ang^3
#
#
#
# Elastic Constant Matrix: (Units=GPa)
#
#
# Indices 1 2 3 4 5 6 
#
# 1 97.0668 64.2873 47.0890 4.8813 8.9662 18.5206
# 2 64.2873 145.4847 39.9329 -8.0064 4.9351 8.7869
# 3 47.0890 39.9329 87.0260 12.0078 11.7603 12.7298
# 4 4.8813 -8.0064 12.0078 20.0261 4.0119 2.3808
# 5 8.9662 4.9351 11.7603 4.0119 41.4751 4.3578
# 6 18.5206 8.7869 12.7298 2.3808 4.3578 50.2509
#
#
#
# Elastic Compliance Matrix: (Units=1/GPa)
#
#
# Indices 1 2 3 4 5 6 
#
# 1 0.018383 -0.006383 -0.005935 -0.002836 -0.000842 -0.003948
# 2 -0.006383 0.010767 -0.002619 0.007328 0.000050 0.000782
# 3 -0.005935 -0.002619 0.017725 -0.009612 -0.002377 -0.001183
# 4 -0.002836 0.007328 -0.009612 0.060023 -0.003302 -0.000359
# 5 -0.000842 0.000050 -0.002377 -0.003302 0.025400 -0.001142
# 6 -0.003948 0.000782 -0.001183 -0.000359 -0.001142 0.021634
#
#
# Mechanical properties :
#
#
# Convention : Reuss Voigt Hill
#
# Bulk Modulus (GPa) = 58.82385 70.24398 64.53391
# Shear Modulus (GPa) = 26.38886 34.23497 30.31192
#
# Velocity S-wave (km/s) = 3.35703 3.82366 3.59792
# Velocity P-wave (km/s) = 6.33621 7.03508 6.69477
#
# Compressibility (1/GPa) = 0.01699991
#
# Stress axis : x y z
#
# Youngs Moduli (GPa) = 54.39943 92.87305 56.41859
#
# Poissons Ratio (x) = 0.59280 0.33485
# Poissons Ratio (y) = 0.34723 0.14778
# Poissons Ratio (z) = 0.32287 0.24326
#
# Static dielectric constant tensor:
#      x y z
#    x 1.953190 -0.014110 -0.018140 
#    y -0.014110 1.849740 0.043080 
#    z -0.018140 0.043080 1.968000 
# 
# From -- ./inp_files/336474.got.cif
#   From: 2010.05.17/outbox.cif.g08.bks.cpg/sg2_169_cif.got.tgz:336474.got - 2010.06.03 11:33:40.
