data_PCOD9096323
_publ_section_title
;
Structure prediction by ZEFSAII (Michael W. Deem and Ramdas Pophale) SiO2 
 PCOD9096323
Probable space group: P -1
;
_chemical_formula_sum "Si O2"
_cell_formula_units_Z 14
_cell_length_a 13.610167
_cell_length_b 6.655325
_cell_length_c 12.067700
_cell_angle_alpha 44.792662
_cell_angle_beta 122.437603
_cell_angle_gamma 107.725927
_cell_volume 644.615719
_symmetry_space_group_name_H-M "P -1"
_symmetry_group_IT_number 2
_symmetry_cell_setting 'triclinic'
loop_
_space_group_symop_operation_xyz
x,y,z
-x,-y,-z
loop_
_atom_site_type_symbol
_atom_site_label
_atom_site_fract_x
_atom_site_fract_y
_atom_site_fract_z
Si Si1 0.427340 0.691640 0.970251
Si Si2 0.486693 0.790368 0.473412
Si Si3 0.322242 0.719896 0.239916
Si Si4 0.196885 0.668282 0.949885
Si Si5 0.115023 0.151064 0.001563
Si Si6 0.367639 0.342879 0.709955
Si Si7 0.880990 0.697615 0.314397
O O1 0.305730 0.573961 0.971003
O O2 0.379904 0.025314 0.789526
O O3 0.500000 0.500000 0.000000
O O4 0.520152 0.674326 0.133880
O O5 0.427602 0.891745 0.281025
O O6 0.610811 0.604161 0.596452
O O7 0.394427 0.584919 0.545444
O O8 0.500000 0.000000 0.500000
O O9 0.266556 0.734220 0.078083
O O10 0.216135 0.882736 0.181764
O O11 0.123293 0.402064 0.998459
O O12 0.120628 0.977141 0.764882
O O13 0.122048 0.281320 0.830124
O O14 0.000000 0.000000 0.000000
O O15 0.241842 0.396914 0.675325
O O16 0.000000 0.500000 0.500000
#
# Coordination Sequence:
#
# PCOD9096323 Si02
#       7
#     2   2   2   2   2   2   2
#     4  10  20  35  66  92 123 165 207 270 330 388
#     4  11  23  40  64 100 136 170 212 269 331 393
#     4  10  23  40  63  93 134 169 214 267 318 391
#     4  10  21  43  67  94 127 170 220 270 330 386
#     4  11  25  44  69  94 128 176 225 271 326 397
#     4  10  22  39  61  97 128 162 218 264 328 395
#     4  10  24  44  65  94 134 169 221 280 320 391
#
# _framework density 21.718364000000001
#
# number of rings (size 3 to 8) (size 9 to 14) (size 15 to 20)
#    0.000    1.714    1.429    1.714    6.000    4.000 
#    2.571    0.000    0.000    0.000    0.000    0.000 
#    0.000    0.000    0.000    0.000    0.000    0.000 
#
# Total GULP energy -77956.454938 kJ/mol
# GULP energy per Si atom -5568.318210 kJ/mol
# Density = 2.166893 g / cm^3
# Si number density = 21.718364 Si / 1000 Ang^3
#
#
#
# Elastic Constant Matrix: (Units=GPa)
#
#
# Indices 1 2 3 4 5 6 
#
# 1 85.0998 24.7909 49.3431 -11.3786 24.0004 12.0481
# 2 24.7909 140.1311 45.7271 -6.9771 12.4332 -9.5207
# 3 49.3431 45.7271 106.2087 -5.4226 39.3661 -0.3178
# 4 -11.3786 -6.9771 -5.4226 25.2741 -8.0541 4.0105
# 5 24.0004 12.4332 39.3661 -8.0541 47.6045 -6.0130
# 6 12.0481 -9.5207 -0.3178 4.0105 -6.0130 33.2619
#
#
#
# Elastic Compliance Matrix: (Units=1/GPa)
#
#
# Indices 1 2 3 4 5 6 
#
# 1 0.019256 -0.001127 -0.006726 0.007126 -0.003771 -0.008903
# 2 -0.001127 0.008707 -0.003956 0.001246 0.002168 0.003105
# 3 -0.006726 -0.003956 0.018245 -0.003795 -0.011319 -0.000110
# 4 0.007126 0.001246 -0.003795 0.045282 0.006044 -0.006628
# 5 -0.003771 0.002168 -0.011319 0.006044 0.033637 0.007230
# 6 -0.008903 0.003105 -0.000110 -0.006628 0.007230 0.036283
#
#
# Mechanical properties :
#
#
# Convention : Reuss Voigt Hill
#
# Bulk Modulus (GPa) = 44.26854 63.46244 53.86549
# Shear Modulus (GPa) = 25.96631 35.33333 30.64982
#
# Velocity S-wave (km/s) = 3.46148 4.03784 3.76072
# Velocity P-wave (km/s) = 6.03350 7.14304 6.61158
#
# Compressibility (1/GPa) = 0.02258941
#
# Stress axis : x y z
#
# Youngs Moduli (GPa) = 51.93265 114.84977 54.81065
#
# Poissons Ratio (x) = 0.12947 0.36865
# Poissons Ratio (y) = 0.05855 0.21682
# Poissons Ratio (z) = 0.34929 0.45432
#
# Static dielectric constant tensor:
#      x y z
#    x 1.860580 -0.009560 -0.104960 
#    y -0.009560 1.973010 0.184800 
#    z -0.104960 0.184800 2.111960 
# 
# From -- ./inp_files/440853.got.cif
#   From: 2010.05.17/outbox.cif.g08.bks.cpg/sg2_221_cif.got.tgz:440853.got - 2010.06.03 11:33:40.
