data_PCOD9096593
_publ_section_title
;
Structure prediction by ZEFSAII (Michael W. Deem and Ramdas Pophale) SiO2 
 PCOD9096593
Probable space group: P -1
;
_chemical_formula_sum "Si O2"
_cell_formula_units_Z 16
_cell_length_a 8.064440
_cell_length_b 11.818212
_cell_length_c 18.094713
_cell_angle_alpha 37.324382
_cell_angle_beta 87.319025
_cell_angle_gamma 60.449365
_cell_volume 687.437051
_symmetry_space_group_name_H-M "P -1"
_symmetry_group_IT_number 2
_symmetry_cell_setting 'triclinic'
loop_
_space_group_symop_operation_xyz
x,y,z
-x,-y,-z
loop_
_atom_site_type_symbol
_atom_site_label
_atom_site_fract_x
_atom_site_fract_y
_atom_site_fract_z
Si Si1 0.675213 0.186533 0.629734
Si Si2 0.606731 0.290518 0.406658
Si Si3 0.663556 0.806114 0.280437
Si Si4 0.591686 0.629623 0.028773
Si Si5 0.939006 0.833579 0.378645
Si Si6 0.097049 0.656259 0.686740
Si Si7 0.396083 0.394950 0.132278
Si Si8 0.261441 0.339536 0.309970
O O1 0.500000 0.500000 0.500000
O O2 0.621582 0.211781 0.531092
O O3 0.570236 0.094334 0.722044
O O4 0.945449 0.060838 0.697664
O O5 0.679384 0.443114 0.313515
O O6 0.342821 0.454612 0.292353
O O7 0.837968 0.994548 0.512944
O O8 0.849985 0.477882 0.427729
O O9 0.837507 0.797833 0.330896
O O10 0.534882 0.071493 0.095010
O O11 0.814694 0.405519 0.197861
O O12 0.407792 0.604820 0.042438
O O13 0.665672 0.586518 0.962449
O O14 0.686754 0.083332 0.299721
O O15 0.999016 0.536656 0.728260
O O16 0.245436 0.403784 0.190397
O O17 0.500000 0.000000 0.500000
#
# Coordination Sequence:
#
# PCOD9096593 Si02
#       8
#     2   2   2   2   2   2   2   2
#     4  10  21  36  60  89 112 150 206 250 288 348
#     4  10  21  37  57  84 125 149 200 251 295 354
#     4   9  20  37  56  87 118 156 195 241 298 358
#     4  10  20  36  56  88 131 152 195 248 309 353
#     4   9  19  36  58  81 118 155 196 242 291 343
#     4  10  21  36  56  88 119 164 188 241 311 355
#     4  10  20  37  57  91 125 156 194 255 301 348
#     4  10  22  35  56  89 118 156 202 241 296 362
#
# _framework density 23.274857999999998
#
# number of rings (size 3 to 8) (size 9 to 14) (size 15 to 20)
#    0.000    2.250    1.250    0.750   10.500    0.500 
#    6.750    0.000    0.000    3.000    0.000   26.250 
#    0.000    0.000    0.000    0.000    0.000    0.000 
#
# Total GULP energy -89176.203352 kJ/mol
# GULP energy per Si atom -5573.512710 kJ/mol
# Density = 2.322188 g / cm^3
# Si number density = 23.274858 Si / 1000 Ang^3
#
#
#
# Elastic Constant Matrix: (Units=GPa)
#
#
# Indices 1 2 3 4 5 6 
#
# 1 148.2454 8.8343 20.0707 13.5095 1.7142 7.7553
# 2 8.8343 21.3885 12.5052 4.9154 -1.2311 0.9118
# 3 20.0707 12.5052 79.5048 2.1431 -12.7727 3.5880
# 4 13.5095 4.9154 2.1431 31.4224 4.8369 3.2466
# 5 1.7142 -1.2311 -12.7727 4.8369 30.1066 10.3595
# 6 7.7553 0.9118 3.5880 3.2466 10.3595 25.2632
#
#
#
# Elastic Compliance Matrix: (Units=1/GPa)
#
#
# Indices 1 2 3 4 5 6 
#
# 1 0.007364 -0.001495 -0.001504 -0.002642 -0.000146 -0.001594
# 2 -0.001495 0.053630 -0.007912 -0.007252 -0.000131 0.000633
# 3 -0.001504 -0.007912 0.015713 0.000067 0.008070 -0.004802
# 4 -0.002642 -0.007252 0.000067 0.035038 -0.005313 -0.001261
# 5 -0.000146 -0.000131 0.008070 -0.005313 0.043821 -0.018383
# 6 -0.001594 0.000633 -0.004802 -0.001261 -0.018383 0.048432
#
#
# Mechanical properties :
#
#
# Convention : Reuss Voigt Hill
#
# Bulk Modulus (GPa) = 18.22013 36.88437 27.55225
# Shear Modulus (GPa) = 20.48195 31.20700 25.84447
#
# Velocity S-wave (km/s) = 2.96970 3.66567 3.33589
# Velocity P-wave (km/s) = 4.42765 5.81360 5.16730
#
# Compressibility (1/GPa) = 0.05488435
#
# Stress axis : x y z
#
# Youngs Moduli (GPa) = 135.79221 18.64635 63.63964
#
# Poissons Ratio (x) = 0.02789 0.09572
# Poissons Ratio (y) = 0.20307 0.50352
# Poissons Ratio (z) = 0.20424 0.14753
#
# Static dielectric constant tensor:
#      x y z
#    x 1.999150 0.020800 -0.052620 
#    y 0.020800 1.883050 -0.000440 
#    z -0.052620 -0.000440 1.957810 
# 
# From -- ./inp_files/590232.got.cif
#   From: 2010.05.17/outbox.cif.g08.bks.cpg/sg2_296_cif.got.tgz:590232.got - 2010.06.03 11:33:40.
