data_PCOD9096602
_publ_section_title
;
Structure prediction by ZEFSAII (Michael W. Deem and Ramdas Pophale) SiO2 
 PCOD9096602
Probable space group: P -1
;
_chemical_formula_sum "Si O2"
_cell_formula_units_Z 15
_cell_length_a 8.498092
_cell_length_b 16.701221
_cell_length_c 13.298040
_cell_angle_alpha 33.034880
_cell_angle_beta 136.545052
_cell_angle_gamma 143.573874
_cell_volume 603.204159
_symmetry_space_group_name_H-M "P -1"
_symmetry_group_IT_number 2
_symmetry_cell_setting 'triclinic'
loop_
_space_group_symop_operation_xyz
x,y,z
-x,-y,-z
loop_
_atom_site_type_symbol
_atom_site_label
_atom_site_fract_x
_atom_site_fract_y
_atom_site_fract_z
Si Si1 0.984644 0.658597 0.751457
Si Si2 0.000000 0.000000 0.500000
Si Si3 0.758636 0.894052 0.079206
Si Si4 0.741118 0.852293 0.333389
Si Si5 0.464520 0.988427 0.613450
Si Si6 0.863316 0.282210 0.036778
Si Si7 0.011364 0.710780 0.360297
Si Si8 0.898569 0.351565 0.756571
O O1 0.858431 0.729228 0.539667
O O2 0.891967 0.464916 0.889877
O O3 0.307887 0.780604 0.773329
O O4 0.945937 0.721532 0.780094
O O5 0.185808 0.035257 0.651480
O O6 0.254183 0.037517 0.503916
O O7 0.843162 0.956125 0.167607
O O8 0.458711 0.854876 0.966574
O O9 0.743412 0.710530 0.262811
O O10 0.000000 0.000000 0.000000
O O11 0.422316 0.739163 0.294399
O O12 0.740296 0.118628 0.656887
O O13 0.500000 0.000000 0.500000
O O14 0.971010 0.311868 0.941524
O O15 0.033695 0.709218 0.251446
O O16 0.015928 0.552725 0.578813
#
# Coordination Sequence:
#
# PCOD9096602 Si02
#       8
#     2   1   2   2   2   2   2   2
#     4  10  21  37  64  87 124 159 208 250 311 380
#     4  10  20  36  56  90 124 152 208 248 316 364
#     4  11  23  40  62  92 123 162 210 257 313 372
#     4  10  20  40  62  88 120 161 206 255 307 374
#     4  11  21  36  60  91 122 163 205 260 309 369
#     4  10  21  39  60  89 122 164 200 253 315 375
#     4  11  21  37  61  89 124 155 212 253 306 379
#     4  10  21  38  63  90 120 162 203 256 310 368
#
# _framework density 24.867201999999999
#
# number of rings (size 3 to 8) (size 9 to 14) (size 15 to 20)
#    0.000    1.600    1.333    4.800    0.000    2.133 
#    4.800    2.000    0.000    4.800    0.000    0.000 
#    0.000    0.000    0.000    0.000    0.000    0.000 
#
# Total GULP energy -83571.110096 kJ/mol
# GULP energy per Si atom -5571.407340 kJ/mol
# Density = 2.481060 g / cm^3
# Si number density = 24.867202 Si / 1000 Ang^3
#
#
#
# Elastic Constant Matrix: (Units=GPa)
#
#
# Indices 1 2 3 4 5 6 
#
# 1 128.5597 37.5917 44.6440 16.7742 -20.2681 -17.0995
# 2 37.5917 117.7970 40.0867 14.6221 -18.1310 -8.9306
# 3 44.6440 40.0867 117.2658 38.5203 -35.1186 -4.4679
# 4 16.7742 14.6221 38.5203 43.7829 -5.4602 -10.1339
# 5 -20.2681 -18.1310 -35.1186 -5.4602 53.8839 18.1538
# 6 -17.0995 -8.9306 -4.4679 -10.1339 18.1538 35.4724
#
#
#
# Elastic Compliance Matrix: (Units=1/GPa)
#
#
# Indices 1 2 3 4 5 6 
#
# 1 0.009888 -0.001851 -0.003339 0.000709 -0.000463 0.004320
# 2 -0.001851 0.010118 -0.002377 -0.000278 0.000847 0.000843
# 3 -0.003339 -0.002377 0.019007 -0.015558 0.012314 -0.010560
# 4 0.000709 -0.000278 -0.015558 0.038430 -0.011120 0.014982
# 5 -0.000463 0.000847 0.012314 -0.011120 0.031561 -0.017788
# 6 0.004320 0.000843 -0.010560 0.014982 -0.017788 0.042539
#
#
# Mechanical properties :
#
#
# Convention : Reuss Voigt Hill
#
# Bulk Modulus (GPa) = 41.87718 67.58526 54.73122
# Shear Modulus (GPa) = 28.63101 42.71452 35.67276
#
# Velocity S-wave (km/s) = 3.39685 4.14902 3.79163
# Velocity P-wave (km/s) = 5.67993 7.08449 6.42073
#
# Compressibility (1/GPa) = 0.02387935
#
# Stress axis : x y z
#
# Youngs Moduli (GPa) = 101.13040 98.83855 52.61145
#
# Poissons Ratio (x) = 0.18297 0.17566
# Poissons Ratio (y) = 0.18721 0.12505
# Poissons Ratio (z) = 0.33766 0.23492
#
# Static dielectric constant tensor:
#      x y z
#    x 2.025000 -0.081460 0.029680 
#    y -0.081460 2.007130 -0.060630 
#    z 0.029680 -0.060630 2.223040 
# 
# From -- ./inp_files/395544.got.cif
#   From: 2010.05.17/outbox.cif.g08.bks.cpg/sg2_198_cif.got.tgz:395544.got - 2010.06.03 11:33:40.
