data_PCOD9096853
_publ_section_title
;
Structure prediction by ZEFSAII (Michael W. Deem and Ramdas Pophale) SiO2 
 PCOD9096853
Probable space group: P -1
;
_chemical_formula_sum "Si O2"
_cell_formula_units_Z 14
_cell_length_a 17.748719
_cell_length_b 7.663005
_cell_length_c 12.562705
_cell_angle_alpha 48.884759
_cell_angle_beta 150.020594
_cell_angle_gamma 143.555636
_cell_volume 502.735754
_symmetry_space_group_name_H-M "P -1"
_symmetry_group_IT_number 2
_symmetry_cell_setting 'triclinic'
loop_
_space_group_symop_operation_xyz
x,y,z
-x,-y,-z
loop_
_atom_site_type_symbol
_atom_site_label
_atom_site_fract_x
_atom_site_fract_y
_atom_site_fract_z
Si Si1 0.326865 0.183491 0.025458
Si Si2 0.798166 0.853731 0.749791
Si Si3 0.313896 0.594696 0.732485
Si Si4 0.587850 0.242133 0.627937
Si Si5 0.576657 0.214183 0.906665
Si Si6 0.099599 0.787374 0.701324
Si Si7 0.738510 0.755880 0.478481
O O1 0.272265 0.406641 0.864617
O O2 0.176832 0.963058 0.836346
O O3 0.551762 0.427342 0.171378
O O4 0.347509 0.965952 0.205754
O O5 0.685838 0.496198 0.740311
O O6 0.638026 0.882597 0.590581
O O7 0.833271 0.938164 0.632526
O O8 0.000000 0.000000 0.000000
O O9 0.452575 0.946134 0.777008
O O10 0.122180 0.461031 0.489433
O O11 0.705658 0.454872 0.583313
O O12 0.484597 0.374020 0.738729
O O13 0.500000 0.000000 0.000000
O O14 0.797169 0.360202 0.117709
O O15 0.165539 0.023649 0.591766
#
# Coordination Sequence:
#
# PCOD9096853 Si02
#       7
#     2   2   2   2   2   2   2
#     4  10  21  39  58  81 116 154 191 236 280 328
#     4   9  18  34  54  82 111 149 187 225 279 342
#     4  10  21  36  58  84 113 153 200 225 275 351
#     4   9  20  37  55  81 116 149 184 235 283 338
#     4   9  19  36  55  83 117 143 178 237 291 323
#     4  10  20  36  58  85 113 148 190 237 283 329
#     4   9  19  37  54  85 116 143 180 237 294 327
#
# _framework density 27.847632000000001
#
# number of rings (size 3 to 8) (size 9 to 14) (size 15 to 20)
#    0.857    1.714    0.000    2.143    0.000    4.571 
#    7.714    0.714    0.000   13.714    0.000    0.000 
#    0.000    0.000    0.000    0.000    0.000    0.000 
#
# Total GULP energy -77966.246873 kJ/mol
# GULP energy per Si atom -5569.017634 kJ/mol
# Density = 2.778425 g / cm^3
# Si number density = 27.847632 Si / 1000 Ang^3
#
#
#
# Elastic Constant Matrix: (Units=GPa)
#
#
# Indices 1 2 3 4 5 6 
#
# 1 57.3589 20.7162 24.8927 2.2256 -17.7581 -6.1560
# 2 20.7162 161.3201 64.9529 -26.4701 -1.1456 0.2564
# 3 24.8927 64.9529 241.6712 23.3964 2.6258 2.7197
# 4 2.2256 -26.4701 23.3964 67.5949 1.4211 -5.4647
# 5 -17.7581 -1.1456 2.6258 1.4211 37.2200 -4.2469
# 6 -6.1560 0.2564 2.7197 -5.4647 -4.2469 33.4878
#
#
#
# Elastic Compliance Matrix: (Units=1/GPa)
#
#
# Indices 1 2 3 4 5 6 
#
# 1 0.023458 -0.002292 -0.001921 -0.000781 0.011957 0.005875
# 2 -0.002292 0.008097 -0.002330 0.004092 -0.000805 0.000272
# 3 -0.001921 -0.002330 0.005260 -0.002753 -0.001413 -0.001391
# 4 -0.000781 0.004092 -0.002753 0.017615 -0.000397 0.002873
# 5 0.011957 -0.000805 -0.001413 -0.000397 0.033403 0.006490
# 6 0.005875 0.000272 -0.001391 0.002873 0.006490 0.032344
#
#
# Mechanical properties :
#
#
# Convention : Reuss Voigt Hill
#
# Bulk Modulus (GPa) = 42.14341 75.71930 58.93136
# Shear Modulus (GPa) = 35.41778 50.97977 43.19877
#
# Velocity S-wave (km/s) = 3.57016 4.28327 3.94287
# Velocity P-wave (km/s) = 5.67108 7.19107 6.47583
#
# Compressibility (1/GPa) = 0.02372850
#
# Stress axis : x y z
#
# Youngs Moduli (GPa) = 42.62932 123.50694 190.13131
#
# Poissons Ratio (x) = 0.28304 0.36518
# Poissons Ratio (y) = 0.09769 0.44310
# Poissons Ratio (z) = 0.08188 0.28783
#
# Static dielectric constant tensor:
#      x y z
#    x 2.540080 0.019800 -0.167990 
#    y 0.019800 2.262840 -0.098670 
#    z -0.167990 -0.098670 2.230170 
# 
# From -- ./inp_files/579728.got.cif
#   From: 2010.05.17/outbox.cif.g08.bks.cpg/sg2_290_cif.got.tgz:579728.got - 2010.06.03 11:33:40.
