data_PCOD9096626
_publ_section_title
;
Structure prediction by ZEFSAII (Michael W. Deem and Ramdas Pophale) SiO2 
 PCOD9096626
Probable space group: P -1
;
_chemical_formula_sum "Si O2"
_cell_formula_units_Z 12
_cell_length_a 8.923722
_cell_length_b 8.686767
_cell_length_c 11.302273
_cell_angle_alpha 83.460520
_cell_angle_beta 44.198673
_cell_angle_gamma 67.582806
_cell_volume 547.069733
_symmetry_space_group_name_H-M "P -1"
_symmetry_group_IT_number 2
_symmetry_cell_setting 'triclinic'
loop_
_space_group_symop_operation_xyz
x,y,z
-x,-y,-z
loop_
_atom_site_type_symbol
_atom_site_label
_atom_site_fract_x
_atom_site_fract_y
_atom_site_fract_z
Si Si1 0.906242 0.834125 0.059338
Si Si2 0.567323 0.124800 0.369707
Si Si3 0.397387 0.511556 0.868295
Si Si4 0.238379 0.348062 0.329205
Si Si5 0.375688 0.371890 0.655282
Si Si6 0.121157 0.308189 0.149823
O O1 0.734762 0.748725 0.213208
O O2 0.810725 0.009951 0.172846
O O3 0.867371 0.833680 0.939902
O O4 0.166564 0.690413 0.958280
O O5 0.373331 0.216921 0.369529
O O6 0.551138 0.270230 0.459241
O O7 0.500000 0.000000 0.500000
O O8 0.592656 0.560195 0.811472
O O9 0.490433 0.427721 0.694267
O O10 0.300955 0.388839 0.998082
O O11 0.183426 0.259052 0.254818
O O12 0.000000 0.500000 0.500000
O O13 0.142304 0.534239 0.725580
#
# Coordination Sequence:
#
# PCOD9096626 Si02
#       6
#     2   2   2   2   2   2
#     4   8  17  34  60  78 108 147 181 220 274 326
#     4  10  20  36  57  80 114 146 181 223 277 326
#     4   9  19  35  60  83 108 142 189 225 264 329
#     4  12  23  34  56  87 112 144 183 229 277 316
#     4   8  15  34  59  82 105 146 183 220 269 327
#     4   9  17  36  57  84 109 141 181 229 273 318
#
# _framework density 21.935046
#
# number of rings (size 3 to 8) (size 9 to 14) (size 15 to 20)
#    0.000    2.667    1.667    2.500    0.000    2.000 
#    0.000    0.000    3.667    3.000    0.000    0.000 
#    0.000    0.000    0.000    0.000    0.000    0.000 
#
# Total GULP energy -67004.601958 kJ/mol
# GULP energy per Si atom -5583.716830 kJ/mol
# Density = 2.188512 g / cm^3
# Si number density = 21.935046 Si / 1000 Ang^3
#
#
#
# Elastic Constant Matrix: (Units=GPa)
#
#
# Indices 1 2 3 4 5 6 
#
# 1 115.5863 10.5758 54.8535 16.3618 34.2222 -0.3895
# 2 10.5758 48.8512 29.6609 -0.7271 15.7720 -2.4946
# 3 54.8535 29.6609 139.2051 32.3712 32.0677 -0.9856
# 4 16.3618 -0.7271 32.3712 42.2151 13.0721 1.7988
# 5 34.2222 15.7720 32.0677 13.0721 50.4029 -4.6802
# 6 -0.3895 -2.4946 -0.9856 1.7988 -4.6802 28.1077
#
#
#
# Elastic Compliance Matrix: (Units=1/GPa)
#
#
# Indices 1 2 3 4 5 6 
#
# 1 0.012165 0.001692 -0.003697 0.000227 -0.006581 -0.000921
# 2 0.001692 0.026290 -0.006185 0.006728 -0.007137 0.000521
# 3 -0.003697 -0.006185 0.011983 -0.007486 -0.001228 0.000095
# 4 0.000227 0.006728 -0.007486 0.031392 -0.005884 -0.002651
# 5 -0.006581 -0.007137 -0.001228 -0.005884 0.029265 0.004482
# 6 -0.000921 0.000521 0.000095 -0.002651 0.004482 0.036530
#
#
# Mechanical properties :
#
#
# Convention : Reuss Voigt Hill
#
# Bulk Modulus (GPa) = 29.36216 54.86920 42.11568
# Shear Modulus (GPa) = 28.51321 38.04865 33.28093
#
# Velocity S-wave (km/s) = 3.60931 4.16938 3.89941
# Velocity P-wave (km/s) = 5.54838 6.94600 6.28616
#
# Compressibility (1/GPa) = 0.03405744
#
# Stress axis : x y z
#
# Youngs Moduli (GPa) = 82.20595 38.03658 83.45333
#
# Poissons Ratio (x) = -0.06437 0.30854
# Poissons Ratio (y) = -0.13912 0.51619
# Poissons Ratio (z) = 0.30393 0.23527
#
# Static dielectric constant tensor:
#      x y z
#    x 1.782440 0.056850 0.014370 
#    y 0.056850 1.814520 -0.026980 
#    z 0.014370 -0.026980 1.846370 
# 
# From -- ./inp_files/423385.got.cif
#   From: 2010.05.17/outbox.cif.g08.bks.cpg/sg2_212_cif.got.tgz:423385.got - 2010.06.03 11:33:40.
