data_PCOD9096059
_publ_section_title
;
Structure prediction by ZEFSAII (Michael W. Deem and Ramdas Pophale) SiO2 
 PCOD9096059
Probable space group: P -1
;
_chemical_formula_sum "Si O2"
_cell_formula_units_Z 16
_cell_length_a 18.757342
_cell_length_b 5.674058
_cell_length_c 8.836544
_cell_angle_alpha 119.828000
_cell_angle_beta 124.340029
_cell_angle_gamma 71.267229
_cell_volume 672.597331
_symmetry_space_group_name_H-M "P -1"
_symmetry_group_IT_number 2
_symmetry_cell_setting 'triclinic'
loop_
_space_group_symop_operation_xyz
x,y,z
-x,-y,-z
loop_
_atom_site_type_symbol
_atom_site_label
_atom_site_fract_x
_atom_site_fract_y
_atom_site_fract_z
Si Si1 0.834746 0.210626 0.843642
Si Si2 0.272798 0.028971 0.125710
Si Si3 0.635310 0.007572 0.079695
Si Si4 0.065945 0.357941 0.752902
Si Si5 0.327586 0.607537 0.480075
Si Si6 0.580451 0.116548 0.549501
Si Si7 0.449719 0.234569 0.854167
Si Si8 0.036946 0.096106 0.331018
O O1 0.813259 0.070068 0.932807
O O2 0.750011 0.212226 0.637060
O O3 0.908320 0.053753 0.783665
O O4 0.860841 0.512499 0.016534
O O5 0.349990 0.828200 0.221885
O O6 0.294119 0.313034 0.317282
O O7 0.292434 0.030930 0.972629
O O8 0.653395 0.262954 0.292957
O O9 0.622522 0.764422 0.103042
O O10 0.536042 0.028050 0.904618
O O11 0.089903 0.208846 0.574870
O O12 0.009945 0.633099 0.716583
O O13 0.018635 0.136439 0.728360
O O14 0.412136 0.641477 0.486186
O O15 0.500000 0.000000 0.500000
O O16 0.599791 0.858252 0.380215
O O17 0.500000 0.500000 0.000000
#
# Coordination Sequence:
#
# PCOD9096059 Si02
#       8
#     2   2   2   2   2   2   2   2
#     4  11  25  41  65  97 135 177 211 270 337 403
#     4  11  24  39  61  90 127 172 215 267 338 401
#     4  10  22  40  55  89 117 158 220 265 325 401
#     4  10  23  44  74 108 137 179 228 274 334 397
#     4  10  25  40  56  91 128 167 214 265 333 400
#     4  10  20  38  57  85 119 155 220 273 324 390
#     4  10  20  35  62  81 113 157 208 280 333 377
#     4  10  23  44  74 108 140 174 228 281 325 402
#
# _framework density 23.78838
#
# number of rings (size 3 to 8) (size 9 to 14) (size 15 to 20)
#    0.000    1.750    1.250    1.500    5.250    2.500 
#    2.250    0.000    0.000    0.000    0.000    0.000 
#    0.000    0.000    0.000    0.000    0.000    0.000 
#
# Total GULP energy -89139.142467 kJ/mol
# GULP energy per Si atom -5571.196404 kJ/mol
# Density = 2.373424 g / cm^3
# Si number density = 23.788380 Si / 1000 Ang^3
#
#
#
# Elastic Constant Matrix: (Units=GPa)
#
#
# Indices 1 2 3 4 5 6 
#
# 1 130.5559 33.5525 53.1024 3.7437 -35.9796 34.2427
# 2 33.5525 63.2885 30.8252 14.1435 -8.6784 17.6126
# 3 53.1024 30.8252 148.0424 10.0251 -6.4175 4.6474
# 4 3.7437 14.1435 10.0251 45.3116 6.3108 9.5456
# 5 -35.9796 -8.6784 -6.4175 6.3108 34.8481 -5.9249
# 6 34.2427 17.6126 4.6474 9.5456 -5.9249 30.3763
#
#
#
# Elastic Compliance Matrix: (Units=1/GPa)
#
#
# Indices 1 2 3 4 5 6 
#
# 1 0.018677 -0.000692 -0.005464 0.001469 0.014885 -0.017375
# 2 -0.000692 0.021978 -0.003585 -0.004503 0.003324 -0.009351
# 3 -0.005464 -0.003585 0.009197 -0.001367 -0.003474 0.006583
# 4 0.001469 -0.004503 -0.001367 0.026231 -0.006010 -0.008252
# 5 0.014885 0.003324 -0.003474 -0.006010 0.044031 -0.007698
# 6 -0.017375 -0.009351 0.006583 -0.008252 -0.007698 0.058014
#
#
# Mechanical properties :
#
#
# Convention : Reuss Voigt Hill
#
# Bulk Modulus (GPa) = 32.92875 64.09410 48.51142
# Shear Modulus (GPa) = 24.06915 37.06764 30.56840
#
# Velocity S-wave (km/s) = 3.18434 3.95172 3.58860
# Velocity P-wave (km/s) = 5.23378 6.91544 6.13253
#
# Compressibility (1/GPa) = 0.03036860
#
# Stress axis : x y z
#
# Youngs Moduli (GPa) = 53.54151 45.49928 108.73532
#
# Poissons Ratio (x) = 0.03150 0.59414
# Poissons Ratio (y) = 0.03706 0.38986
# Poissons Ratio (z) = 0.29255 0.16313
#
# Static dielectric constant tensor:
#      x y z
#    x 1.849770 -0.195110 0.108720 
#    y -0.195110 1.698460 0.065480 
#    z 0.108720 0.065480 1.835300 
# 
# From -- ./inp_files/51116.got.cif
#   From: 2010.05.17/outbox.cif.g08.bks.cpg/sg2_26_cif.got.tgz:51116.got - 2010.06.03 11:33:40.
