data_PCOD9096673
_publ_section_title
;
Structure prediction by ZEFSAII (Michael W. Deem and Ramdas Pophale) SiO2 
 PCOD9096673
Probable space group: P -1
;
_chemical_formula_sum "Si O2"
_cell_formula_units_Z 14
_cell_length_a 11.609445
_cell_length_b 12.783940
_cell_length_c 5.296344
_cell_angle_alpha 115.927336
_cell_angle_beta 90.000471
_cell_angle_gamma 90.016896
_cell_volume 706.937033
_symmetry_space_group_name_H-M "P -1"
_symmetry_group_IT_number 2
_symmetry_cell_setting 'triclinic'
loop_
_space_group_symop_operation_xyz
x,y,z
-x,-y,-z
loop_
_atom_site_type_symbol
_atom_site_label
_atom_site_fract_x
_atom_site_fract_y
_atom_site_fract_z
Si Si1 0.368197 0.873727 0.776827
Si Si2 0.368113 0.126162 0.222482
Si Si3 0.369207 0.640964 0.805647
Si Si4 0.999991 0.421205 0.667377
Si Si5 0.630657 0.641100 0.806364
Si Si6 0.751231 0.330541 0.661102
Si Si7 0.248728 0.330412 0.660340
O O1 0.500083 0.882884 0.689728
O O2 0.371843 0.781843 0.910979
O O3 0.288215 0.803877 0.508024
O O4 0.329879 0.999928 0.999578
O O5 0.371971 0.218017 0.088253
O O6 0.287986 0.195971 0.490940
O O7 0.499914 0.604040 0.822109
O O8 0.325773 0.606316 0.488964
O O9 0.117001 0.347721 0.605095
O O10 0.000000 0.500000 0.500000
O O11 0.882929 0.347724 0.605218
O O12 0.000000 0.500000 0.000000
O O13 0.717995 0.377553 0.984938
O O14 0.674275 0.606471 0.489850
O O15 0.717772 0.622646 0.015985
#
# Coordination Sequence:
#
# PCOD9096673 Si02
#       7
#     2   2   2   2   2   2   2
#     4   8  16  31  57  89 120 152 180 216 277 346
#     4   8  16  31  57  89 120 152 180 216 277 346
#     4   9  17  32  58  85 119 149 177 224 284 337
#     4  12  26  44  65  79 101 153 208 244 284 335
#     4   9  17  32  58  85 119 149 177 224 284 337
#     4  10  20  36  57  84 115 146 192 240 275 331
#     4  10  20  36  57  84 115 146 192 240 275 331
#
# _framework density 19.803743000000001
#
# number of rings (size 3 to 8) (size 9 to 14) (size 15 to 20)
#    1.714    0.857    0.000    3.429    0.000    1.143 
#    0.000    5.000    0.000   30.857    0.000    0.000 
#    0.000    0.000    0.000    0.000    0.000    0.000 
#
# Total GULP energy -77996.870731 kJ/mol
# GULP energy per Si atom -5571.205052 kJ/mol
# Density = 1.975867 g / cm^3
# Si number density = 19.803743 Si / 1000 Ang^3
#
#
#
# Elastic Constant Matrix: (Units=GPa)
#
#
# Indices 1 2 3 4 5 6 
#
# 1 122.8356 7.8807 34.8618 -9.0005 -0.1406 -0.1838
# 2 7.8807 40.3127 32.1134 1.5810 -0.0187 -0.0515
# 3 34.8618 32.1134 112.3275 -4.8322 -0.0539 -0.0960
# 4 -9.0005 1.5810 -4.8322 42.2274 -0.0071 -0.0282
# 5 -0.1406 -0.0187 -0.0539 -0.0071 25.9001 -6.8825
# 6 -0.1838 -0.0515 -0.0960 -0.0282 -6.8825 16.7619
#
#
#
# Elastic Compliance Matrix: (Units=1/GPa)
#
#
# Indices 1 2 3 4 5 6 
#
# 1 0.009042 0.000455 -0.002868 0.001582 0.000075 0.000118
# 2 0.000455 0.032362 -0.009488 -0.002200 0.000020 0.000054
# 3 -0.002868 -0.009488 0.012556 0.001181 0.000009 0.000017
# 4 0.001582 -0.002200 0.001181 0.024236 0.000035 0.000073
# 5 0.000075 0.000020 0.000009 0.000035 0.043339 0.017796
# 6 0.000118 0.000054 0.000017 0.000073 0.017796 0.066968
#
#
# Mechanical properties :
#
#
# Convention : Reuss Voigt Hill
#
# Bulk Modulus (GPa) = 33.15847 47.24307 40.20077
# Shear Modulus (GPa) = 22.48637 30.35253 26.41945
#
# Velocity S-wave (km/s) = 3.37332 3.91918 3.65645
# Velocity P-wave (km/s) = 5.65263 6.66238 6.17817
#
# Compressibility (1/GPa) = 0.03015820
#
# Stress axis : x y z
#
# Youngs Moduli (GPa) = 110.59541 30.90089 79.64307
#
# Poissons Ratio (x) = -0.01407 0.22844
# Poissons Ratio (y) = -0.05037 0.75564
# Poissons Ratio (z) = 0.31722 0.29318
#
# Static dielectric constant tensor:
#      x y z
#    x 1.675570 -0.000050 0.000020 
#    y -0.000050 1.755920 0.047730 
#    z 0.000020 0.047730 1.733400 
# 
# From -- ./inp_files/75237.got.cif
#   From: 2010.05.17/outbox.cif.g08.bks.cpg/sg2_38_cif.got.tgz:75237.got - 2010.06.03 11:33:40.
