data_PCOD9096262
_publ_section_title
;
Structure prediction by ZEFSAII (Michael W. Deem and Ramdas Pophale) SiO2 
 PCOD9096262
Probable space group: P -1
;
_chemical_formula_sum "Si O2"
_cell_formula_units_Z 16
_cell_length_a 8.999642
_cell_length_b 5.318108
_cell_length_c 23.907943
_cell_angle_alpha 117.951615
_cell_angle_beta 39.592937
_cell_angle_gamma 102.457157
_cell_volume 622.313973
_symmetry_space_group_name_H-M "P -1"
_symmetry_group_IT_number 2
_symmetry_cell_setting 'triclinic'
loop_
_space_group_symop_operation_xyz
x,y,z
-x,-y,-z
loop_
_atom_site_type_symbol
_atom_site_label
_atom_site_fract_x
_atom_site_fract_y
_atom_site_fract_z
Si Si1 0.805559 0.690027 0.391624
Si Si2 0.256762 0.617192 0.120209
Si Si3 0.764196 0.224389 0.066908
Si Si4 0.431624 0.456458 0.401449
Si Si5 0.995134 0.796510 0.636496
Si Si6 0.787730 0.971060 0.914654
Si Si7 0.282843 0.959622 0.429714
Si Si8 0.491069 0.842731 0.178394
O O1 0.619235 0.549600 0.398419
O O2 0.003573 0.418637 0.333912
O O3 0.704142 0.885836 0.496714
O O4 0.887351 0.931682 0.355780
O O5 0.106434 0.374890 0.141660
O O6 0.360016 0.665522 0.155147
O O7 0.128201 0.907654 0.153615
O O8 0.500000 0.500000 0.000000
O O9 0.678348 0.582887 0.130819
O O10 0.576359 0.070543 0.135990
O O11 0.812419 0.161525 0.980535
O O12 0.000000 0.000000 0.000000
O O13 0.165822 0.598753 0.520364
O O14 0.443382 0.116554 0.362061
O O15 0.416596 0.618930 0.363980
O O16 0.737151 0.953488 0.702594
O O17 0.500000 0.000000 0.000000
O O18 0.000000 0.000000 0.500000
#
# Coordination Sequence:
#
# PCOD9096262 Si02
#       8
#     2   2   2   2   2   2   2   2
#     4  10  19  36  56  84 112 144 183 230 275 320
#     4  10  16  30  54  77  98 129 170 224 258 309
#     4  12  23  35  53  83 105 137 182 233 273 320
#     4  10  19  35  56  83 115 144 183 233 270 318
#     4  10  20  32  54  84 109 145 177 229 277 322
#     4  10  16  32  53  75 100 128 171 220 261 318
#     4  10  18  29  51  86 106 140 187 228 263 313
#     4  12  21  35  54  86 108 137 185 235 267 330
#
# _framework density 25.710495000000002
#
# number of rings (size 3 to 8) (size 9 to 14) (size 15 to 20)
#    0.000    1.500    5.000    5.250    0.000    0.000 
#    0.000    0.000    0.000    0.000   84.500    0.000 
#    0.000    0.000    0.000    0.000    0.000    0.000 
#
# Total GULP energy -89283.689887 kJ/mol
# GULP energy per Si atom -5580.230618 kJ/mol
# Density = 2.565198 g / cm^3
# Si number density = 25.710495 Si / 1000 Ang^3
#
#
#
# Elastic Constant Matrix: (Units=GPa)
#
#
# Indices 1 2 3 4 5 6 
#
# 1 77.9027 6.7662 8.8090 7.6377 -18.8834 -6.9067
# 2 6.7662 215.5762 -2.0712 29.5122 -15.5188 -27.0034
# 3 8.8090 -2.0712 59.1792 14.0361 -8.6068 -5.9000
# 4 7.6377 29.5122 14.0361 18.0016 -6.0321 -14.4810
# 5 -18.8834 -15.5188 -8.6068 -6.0321 22.4224 9.1655
# 6 -6.9067 -27.0034 -5.9000 -14.4810 9.1655 37.8391
#
#
#
# Elastic Compliance Matrix: (Units=1/GPa)
#
#
# Indices 1 2 3 4 5 6 
#
# 1 0.016513 0.001153 0.000978 -0.006458 0.014121 -0.001902
# 2 0.001153 0.006696 0.003761 -0.013596 0.003596 -0.000498
# 3 0.000978 0.003761 0.023877 -0.027214 0.007587 -0.005667
# 4 -0.006458 -0.013596 -0.027214 0.128453 -0.005161 0.035285
# 5 0.014121 0.003596 0.007587 -0.005161 0.065177 -0.011436
# 6 -0.001902 -0.000498 -0.005667 0.035285 -0.011436 0.041115
#
#
# Mechanical properties :
#
#
# Convention : Reuss Voigt Hill
#
# Bulk Modulus (GPa) = 16.98643 42.18513 29.58578
# Shear Modulus (GPa) = 17.26099 38.26288 27.76194
#
# Velocity S-wave (km/s) = 2.59387 3.86193 3.28958
# Velocity P-wave (km/s) = 3.94868 6.02739 5.09517
#
# Compressibility (1/GPa) = 0.05887054
#
# Stress axis : x y z
#
# Youngs Moduli (GPa) = 60.55809 149.33628 41.88167
#
# Poissons Ratio (x) = -0.17226 -0.04097
# Poissons Ratio (y) = -0.06985 -0.15750
# Poissons Ratio (z) = -0.05924 -0.56158
#
# Static dielectric constant tensor:
#      x y z
#    x 2.026880 -0.053830 -0.032820 
#    y -0.053830 2.313710 0.040540 
#    z -0.032820 0.040540 2.156750 
# 
# From -- ./inp_files/117162.got.cif
#   From: 2010.05.17/outbox.cif.g08.bks.cpg/sg2_59_cif.got.tgz:117162.got - 2010.06.03 11:33:40.
