data_PCOD9096793
_publ_section_title
;
Structure prediction by ZEFSAII (Michael W. Deem and Ramdas Pophale) SiO2 
 PCOD9096793
Probable space group: P -1
;
_chemical_formula_sum "Si O2"
_cell_formula_units_Z 16
_cell_length_a 17.630208
_cell_length_b 8.830062
_cell_length_c 14.188555
_cell_angle_alpha 66.698784
_cell_angle_beta 25.359654
_cell_angle_gamma 52.171191
_cell_volume 659.966346
_symmetry_space_group_name_H-M "P -1"
_symmetry_group_IT_number 2
_symmetry_cell_setting 'triclinic'
loop_
_space_group_symop_operation_xyz
x,y,z
-x,-y,-z
loop_
_atom_site_type_symbol
_atom_site_label
_atom_site_fract_x
_atom_site_fract_y
_atom_site_fract_z
Si Si1 0.600402 0.264707 0.404899
Si Si2 0.956945 0.980202 0.907192
Si Si3 0.190251 0.521278 0.696552
Si Si4 0.976548 0.464913 0.778288
Si Si5 0.120552 0.123783 0.550572
Si Si6 0.487742 0.380034 0.768816
Si Si7 0.105820 0.162061 0.335785
Si Si8 0.392476 0.688160 0.148193
O O1 0.500000 0.500000 0.500000
O O2 0.800112 0.102731 0.297032
O O3 0.351023 0.335583 0.640317
O O4 0.752360 0.140961 0.170034
O O5 0.995032 0.762958 0.898278
O O6 0.939256 0.095943 0.802349
O O7 0.360230 0.555546 0.448247
O O8 0.105534 0.448519 0.730023
O O9 0.881380 0.679434 0.775242
O O10 0.120152 0.273506 0.587688
O O11 0.750057 0.495140 0.051333
O O12 0.080275 0.198148 0.468858
O O13 0.359635 0.877124 0.345377
O O14 0.440610 0.416555 0.923885
O O15 0.866228 0.220135 0.555412
O O16 0.329398 0.909684 0.130435
O O17 0.500000 0.500000 0.000000
#
# Coordination Sequence:
#
# PCOD9096793 Si02
#       8
#     2   2   2   2   2   2   2   2
#     4   9  18  36  66  94 119 156 202 249 314 376
#     4   9  19  38  65  92 120 161 202 253 312 370
#     4  10  21  39  61  91 128 159 204 256 304 369
#     4  12  23  38  61  91 126 168 211 252 304 363
#     4  10  22  38  61  86 126 164 208 259 306 359
#     4  10  22  40  56  87 123 164 207 255 306 357
#     4  10  22  38  57  86 126 162 213 260 295 361
#     4  10  20  36  58  82 112 162 209 253 307 348
#
# _framework density 24.243658
#
# number of rings (size 3 to 8) (size 9 to 14) (size 15 to 20)
#    0.000    2.000    1.250    1.875    1.750    4.000 
#    0.000    0.625    0.000   30.750    0.000    0.000 
#    0.000    0.000    0.000    0.000    0.000    0.000 
#
# Total GULP energy -89369.586820 kJ/mol
# GULP energy per Si atom -5585.599176 kJ/mol
# Density = 2.418848 g / cm^3
# Si number density = 24.243658 Si / 1000 Ang^3
#
#
#
# Elastic Constant Matrix: (Units=GPa)
#
#
# Indices 1 2 3 4 5 6 
#
# 1 149.2497 18.2266 39.9424 14.6221 -4.3099 28.0761
# 2 18.2266 67.1274 31.7216 22.1929 -3.6847 12.5360
# 3 39.9424 31.7216 59.5422 18.3256 5.0755 5.5250
# 4 14.6221 22.1929 18.3256 38.1842 6.2243 -2.5536
# 5 -4.3099 -3.6847 5.0755 6.2243 42.8319 0.0632
# 6 28.0761 12.5360 5.5250 -2.5536 0.0632 32.0267
#
#
#
# Elastic Compliance Matrix: (Units=1/GPa)
#
#
# Indices 1 2 3 4 5 6 
#
# 1 0.010447 0.003808 -0.007181 -0.003876 0.002807 -0.009725
# 2 0.003808 0.026522 -0.012042 -0.012918 0.005988 -0.012684
# 3 -0.007181 -0.012042 0.028786 -0.002902 -0.004757 0.005821
# 4 -0.003876 -0.012918 -0.002902 0.038482 -0.006767 0.012036
# 5 0.002807 0.005988 -0.004757 -0.006767 0.025699 -0.004575
# 6 -0.009725 -0.012684 0.005821 0.012036 -0.004575 0.044679
#
#
# Mechanical properties :
#
#
# Convention : Reuss Voigt Hill
#
# Bulk Modulus (GPa) = 28.63259 50.63339 39.63299
# Shear Modulus (GPa) = 23.03238 35.01047 29.02142
#
# Velocity S-wave (km/s) = 3.08561 3.80427 3.46363
# Velocity P-wave (km/s) = 4.95284 6.34249 5.69024
#
# Compressibility (1/GPa) = 0.03492524
#
# Stress axis : x y z
#
# Youngs Moduli (GPa) = 95.72036 37.70465 34.73898
#
# Poissons Ratio (x) = -0.14360 0.24947
# Poissons Ratio (y) = -0.36455 0.41833
# Poissons Ratio (z) = 0.68740 0.45404
#
# Static dielectric constant tensor:
#      x y z
#    x 1.970660 -0.021770 -0.004170 
#    y -0.021770 1.973060 -0.021830 
#    z -0.004170 -0.021830 1.984890 
# 
# From -- ./inp_files/299649.got.cif
#   From: 2010.05.17/outbox.cif.g08.bks.cpg/sg2_150_cif.got.tgz:299649.got - 2010.06.03 11:33:40.
