data_PCOD9096156
_publ_section_title
;
Structure prediction by ZEFSAII (Michael W. Deem and Ramdas Pophale) SiO2 
 PCOD9096156
Probable space group: P -1
;
_chemical_formula_sum "Si O2"
_cell_formula_units_Z 12
_cell_length_a 9.309242
_cell_length_b 14.042125
_cell_length_c 12.402491
_cell_angle_alpha 138.427113
_cell_angle_beta 32.810543
_cell_angle_gamma 125.350422
_cell_volume 577.246613
_symmetry_space_group_name_H-M "P -1"
_symmetry_group_IT_number 2
_symmetry_cell_setting 'triclinic'
loop_
_space_group_symop_operation_xyz
x,y,z
-x,-y,-z
loop_
_atom_site_type_symbol
_atom_site_label
_atom_site_fract_x
_atom_site_fract_y
_atom_site_fract_z
Si Si1 0.772266 0.405147 0.103095
Si Si2 0.675059 0.143381 0.789405
Si Si3 0.713774 0.368550 0.364733
Si Si4 0.055640 0.163532 0.136535
Si Si5 0.938198 0.887457 0.680481
Si Si6 0.474023 0.127140 0.228913
O O1 0.804225 0.380654 0.192681
O O2 0.466604 0.488200 0.357957
O O3 0.776443 0.263877 0.904640
O O4 0.000000 0.500000 0.000000
O O5 0.844752 0.119857 0.554165
O O6 0.681364 0.993262 0.722790
O O7 0.367022 0.172593 0.969278
O O8 0.938026 0.287307 0.232512
O O9 0.497299 0.256166 0.401905
O O10 0.938844 0.182969 0.347675
O O11 0.000000 0.000000 0.000000
O O12 0.690224 0.816960 0.725953
O O13 0.773084 0.046049 0.946630
#
# Coordination Sequence:
#
# PCOD9096156 Si02
#       6
#     2   2   2   2   2   2
#     4  11  26  44  67  94 128 173 218 260 316 385
#     4  11  23  40  65  97 128 169 217 262 319 381
#     4  11  23  45  66  93 132 168 214 267 316 383
#     4  11  23  42  64  98 132 167 209 268 332 372
#     4  10  20  35  62  95 128 160 208 265 316 375
#     4  10  20  40  67  96 124 169 217 271 317 361
#
# _framework density 20.788340999999999
#
# number of rings (size 3 to 8) (size 9 to 14) (size 15 to 20)
#    0.000    1.333    3.333    4.500    0.000    6.667 
#    0.000    1.667    0.000    0.000    0.000    0.000 
#    0.000    0.000    0.000    0.000    0.000    0.000 
#
# Total GULP energy -66911.248583 kJ/mol
# GULP energy per Si atom -5575.937382 kJ/mol
# Density = 2.074103 g / cm^3
# Si number density = 20.788341 Si / 1000 Ang^3
#
#
#
# Elastic Constant Matrix: (Units=GPa)
#
#
# Indices 1 2 3 4 5 6 
#
# 1 140.8017 48.2082 29.3391 -8.7633 -6.0949 -30.5467
# 2 48.2082 131.4209 59.2490 -14.2725 9.0082 -7.5792
# 3 29.3391 59.2490 94.6627 -21.0809 18.7506 -17.4310
# 4 -8.7633 -14.2725 -21.0809 32.4542 -7.3524 8.0464
# 5 -6.0949 9.0082 18.7506 -7.3524 29.1177 3.4117
# 6 -30.5467 -7.5792 -17.4310 8.0464 3.4117 40.9258
#
#
#
# Elastic Compliance Matrix: (Units=1/GPa)
#
#
# Indices 1 2 3 4 5 6 
#
# 1 0.009764 -0.003240 -0.000330 -0.000005 0.002515 0.006338
# 2 -0.003240 0.011778 -0.006974 0.000800 0.000773 -0.003429
# 3 -0.000330 -0.006974 0.019399 0.005647 -0.009731 0.006425
# 4 -0.000005 0.000800 0.005647 0.037571 0.006229 -0.005356
# 5 0.002515 0.000773 -0.009731 0.006229 0.043285 -0.006957
# 6 0.006338 -0.003429 0.006425 -0.005356 -0.006957 0.032900
#
#
# Mechanical properties :
#
#
# Convention : Reuss Voigt Hill
#
# Bulk Modulus (GPa) = 50.37084 71.16420 60.76752
# Shear Modulus (GPa) = 27.41177 35.83881 31.62529
#
# Velocity S-wave (km/s) = 3.63521 4.15660 3.90462
# Velocity P-wave (km/s) = 6.47322 7.57255 7.04436
#
# Compressibility (1/GPa) = 0.01985276
#
# Stress axis : x y z
#
# Youngs Moduli (GPa) = 102.41649 84.90480 51.54799
#
# Poissons Ratio (x) = 0.27510 0.01703
# Poissons Ratio (y) = 0.33184 0.35949
# Poissons Ratio (z) = 0.03383 0.59211
#
# Static dielectric constant tensor:
#      x y z
#    x 1.785060 -0.016810 0.005820 
#    y -0.016810 1.800610 0.001730 
#    z 0.005820 0.001730 1.791500 
# 
# From -- ./inp_files/394671.got.cif
#   From: 2010.05.17/outbox.cif.g08.bks.cpg/sg2_198_cif.got.tgz:394671.got - 2010.06.03 11:33:40.
