data_PCOD9096390
_publ_section_title
;
Structure prediction by ZEFSAII (Michael W. Deem and Ramdas Pophale) SiO2 
 PCOD9096390
Probable space group: P -1
;
_chemical_formula_sum "Si O2"
_cell_formula_units_Z 16
_cell_length_a 19.159244
_cell_length_b 11.431309
_cell_length_c 9.800293
_cell_angle_alpha 79.349483
_cell_angle_beta 140.666669
_cell_angle_gamma 132.055677
_cell_volume 713.159935
_symmetry_space_group_name_H-M "P -1"
_symmetry_group_IT_number 2
_symmetry_cell_setting 'triclinic'
loop_
_space_group_symop_operation_xyz
x,y,z
-x,-y,-z
loop_
_atom_site_type_symbol
_atom_site_label
_atom_site_fract_x
_atom_site_fract_y
_atom_site_fract_z
Si Si1 0.465488 0.815690 0.723963
Si Si2 0.724458 0.749976 0.744826
Si Si3 0.974911 0.328122 0.586782
Si Si4 0.419265 0.808056 0.239932
Si Si5 0.292319 0.680415 0.794014
Si Si6 0.106316 0.924699 0.274995
Si Si7 0.023947 0.381613 0.073705
Si Si8 0.736399 0.979526 0.893097
O O1 0.393657 0.757307 0.784558
O O2 0.655146 0.910470 0.938526
O O3 0.264821 0.578506 0.398908
O O4 0.517854 0.995588 0.705543
O O5 0.500000 0.500000 0.500000
O O6 0.796034 0.906567 0.938177
O O7 0.887054 0.792884 0.967300
O O8 0.735550 0.836843 0.602901
O O9 0.092037 0.423258 0.598588
O O10 0.881560 0.122557 0.548675
O O11 0.801251 0.271414 0.339533
O O12 0.171871 0.555780 0.928142
O O13 0.549579 0.855295 0.537173
O O14 0.455169 0.806824 0.135080
O O15 0.088722 0.795678 0.175175
O O16 0.000000 0.500000 0.000000
O O17 0.918143 0.238235 0.082194
#
# Coordination Sequence:
#
# PCOD9096390 Si02
#       8
#     2   2   2   2   2   2   2   2
#     4  12  22  34  55  87 124 163 193 244 298 366
#     4  10  21  39  59  89 116 153 205 261 292 348
#     4   9  19  37  58  83 119 163 200 237 293 357
#     4  10  20  36  53  85 125 162 198 239 289 366
#     4   9  22  36  58  83 130 164 203 233 295 369
#     4  10  21  38  62  87 118 158 204 245 303 353
#     4  11  22  34  56  90 126 154 188 241 317 363
#     4  11  24  36  60  90 123 157 196 254 308 351
#
# _framework density 22.435359999999999
#
# number of rings (size 3 to 8) (size 9 to 14) (size 15 to 20)
#    0.750    1.000    1.250    3.750    5.250    0.000 
#    0.000    0.000    0.000    0.750    0.000    6.125 
#    0.000    0.000    0.000    0.000    0.000    0.000 
#
# Total GULP energy -89316.362937 kJ/mol
# GULP energy per Si atom -5582.272684 kJ/mol
# Density = 2.238430 g / cm^3
# Si number density = 22.435360 Si / 1000 Ang^3
#
#
#
# Elastic Constant Matrix: (Units=GPa)
#
#
# Indices 1 2 3 4 5 6 
#
# 1 120.0628 46.9297 8.5705 1.2915 15.6578 23.6922
# 2 46.9297 136.0200 26.6997 13.5187 16.5670 28.8557
# 3 8.5705 26.6997 77.7231 14.3147 4.5855 9.0390
# 4 1.2915 13.5187 14.3147 37.3387 9.8437 10.1431
# 5 15.6578 16.5670 4.5855 9.8437 27.8433 6.5906
# 6 23.6922 28.8557 9.0390 10.1431 6.5906 41.3479
#
#
#
# Elastic Compliance Matrix: (Units=1/GPa)
#
#
# Indices 1 2 3 4 5 6 
#
# 1 0.010739 -0.002495 -0.000093 0.002959 -0.004545 -0.004393
# 2 -0.002495 0.010036 -0.002362 -0.000676 -0.002891 -0.004431
# 3 -0.000093 -0.002362 0.014579 -0.004842 0.000872 -0.000437
# 4 0.002959 -0.000676 -0.004842 0.033409 -0.010701 -0.006656
# 5 -0.004545 -0.002891 0.000872 -0.010701 0.043814 0.000073
# 6 -0.004393 -0.004431 -0.000437 -0.006656 0.000073 0.031511
#
#
# Mechanical properties :
#
#
# Convention : Reuss Voigt Hill
#
# Bulk Modulus (GPa) = 39.28836 55.35620 47.32228
# Shear Modulus (GPa) = 30.77438 38.07973 34.42705
#
# Velocity S-wave (km/s) = 3.70765 4.12431 3.92152
# Velocity P-wave (km/s) = 5.98989 6.88528 6.45313
#
# Compressibility (1/GPa) = 0.02545283
#
# Stress axis : x y z
#
# Youngs Moduli (GPa) = 93.12012 99.64339 68.59204
#
# Poissons Ratio (x) = 0.24866 0.00637
# Poissons Ratio (y) = 0.23238 0.16202
# Poissons Ratio (z) = 0.00865 0.23536
#
# Static dielectric constant tensor:
#      x y z
#    x 1.914780 0.052590 -0.027050 
#    y 0.052590 1.853910 0.007560 
#    z -0.027050 0.007560 1.904580 
# 
# From -- ./inp_files/470760.got.cif
#   From: 2010.05.17/outbox.cif.g08.bks.cpg/sg2_236_cif.got.tgz:470760.got - 2010.06.03 11:33:40.
