data_PCOD9096881
_publ_section_title
;
Structure prediction by ZEFSAII (Michael W. Deem and Ramdas Pophale) SiO2 
 PCOD9096881
Probable space group: P -1
;
_chemical_formula_sum "Si O2"
_cell_formula_units_Z 16
_cell_length_a 19.836380
_cell_length_b 9.135487
_cell_length_c 12.042104
_cell_angle_alpha 118.016513
_cell_angle_beta 31.151086
_cell_angle_gamma 97.511043
_cell_volume 801.680611
_symmetry_space_group_name_H-M "P -1"
_symmetry_group_IT_number 2
_symmetry_cell_setting 'triclinic'
loop_
_space_group_symop_operation_xyz
x,y,z
-x,-y,-z
loop_
_atom_site_type_symbol
_atom_site_label
_atom_site_fract_x
_atom_site_fract_y
_atom_site_fract_z
Si Si1 0.871834 0.451745 0.241242
Si Si2 0.481215 0.975998 0.835990
Si Si3 0.532751 0.694759 0.864177
Si Si4 0.219959 0.098266 0.730896
Si Si5 0.019688 0.271359 0.278749
Si Si6 0.762564 0.188870 0.569437
Si Si7 0.944684 0.765298 0.295440
Si Si8 0.112834 0.253610 0.384299
O O1 0.714747 0.491294 0.529628
O O2 0.848872 0.666596 0.366768
O O3 0.044550 0.284170 0.993942
O O4 0.893974 0.381031 0.057240
O O5 0.496410 0.804705 0.834287
O O6 0.635694 0.889890 0.507671
O O7 0.478484 0.141491 0.977067
O O8 0.307521 0.101750 0.065708
O O9 0.408571 0.654668 0.073258
O O10 0.252485 0.896042 0.556194
O O11 0.181228 0.126428 0.925639
O O12 0.054821 0.214853 0.338541
O O13 0.883115 0.250134 0.420454
O O14 0.951242 0.508776 0.445070
O O15 0.846274 0.989782 0.462248
O O16 0.957514 0.767599 0.409681
#
# Coordination Sequence:
#
# PCOD9096881 Si02
#       8
#     2   2   2   2   2   2   2   2
#     4  10  17  30  60  89 108 136 185 231 276 319
#     4  10  18  32  57  84 108 137 189 228 271 320
#     4  10  16  30  56  88 111 131 176 243 281 307
#     4  10  20  36  59  85 112 144 181 232 272 327
#     4  11  24  39  54  78 117 155 184 212 276 337
#     4  10  21  35  57  87 112 137 181 240 280 310
#     4  10  17  33  56  84 105 139 187 229 268 312
#     4  11  22  39  57  77 111 157 187 218 260 345
#
# _framework density 19.958075000000001
#
# number of rings (size 3 to 8) (size 9 to 14) (size 15 to 20)
#    0.000    1.750    3.750    3.375    0.000    1.000 
#    0.000    8.125    0.000    0.750    0.000    0.000 
#    0.000    0.000    0.000    0.000    0.000    0.000 
#
# Total GULP energy -89314.390382 kJ/mol
# GULP energy per Si atom -5582.149399 kJ/mol
# Density = 1.991265 g / cm^3
# Si number density = 19.958075 Si / 1000 Ang^3
#
#
#
# Elastic Constant Matrix: (Units=GPa)
#
#
# Indices 1 2 3 4 5 6 
#
# 1 75.3866 14.9510 31.9559 -2.8934 15.9930 -21.0951
# 2 14.9510 40.2757 17.8876 -4.0904 8.0028 -8.6890
# 3 31.9559 17.8876 146.2939 -27.1076 11.4677 -6.6833
# 4 -2.8934 -4.0904 -27.1076 19.6519 -7.2189 -3.0723
# 5 15.9930 8.0028 11.4677 -7.2189 28.3250 -7.5872
# 6 -21.0951 -8.6890 -6.6833 -3.0723 -7.5872 26.1720
#
#
#
# Elastic Compliance Matrix: (Units=1/GPa)
#
#
# Indices 1 2 3 4 5 6 
#
# 1 0.019900 -0.002165 -0.003559 -0.002997 -0.006702 0.012118
# 2 -0.002165 0.028941 -0.001986 0.002631 -0.003715 0.006588
# 3 -0.003559 -0.001986 0.010444 0.014632 0.002494 0.001580
# 4 -0.002997 0.002631 0.014632 0.081489 0.020538 0.017714
# 5 -0.006702 -0.003715 0.002494 0.020538 0.047056 0.010054
# 6 0.012118 0.006588 0.001580 0.017714 0.010054 0.055561
#
#
# Mechanical properties :
#
#
# Convention : Reuss Voigt Hill
#
# Bulk Modulus (GPa) = 22.79702 43.50503 33.15103
# Shear Modulus (GPa) = 18.28605 27.97389 23.12997
#
# Velocity S-wave (km/s) = 3.03020 3.74790 3.40800
# Velocity P-wave (km/s) = 4.86725 6.36981 5.66854
#
# Compressibility (1/GPa) = 0.04386537
#
# Stress axis : x y z
#
# Youngs Moduli (GPa) = 50.25008 34.55257 95.75280
#
# Poissons Ratio (x) = 0.07482 0.34074
# Poissons Ratio (y) = 0.10881 0.19017
# Poissons Ratio (z) = 0.17882 0.06862
#
# Static dielectric constant tensor:
#      x y z
#    x 1.705410 -0.043270 0.007030 
#    y -0.043270 1.751040 -0.017080 
#    z 0.007030 -0.017080 1.765330 
# 
# From -- ./inp_files/469468.got.cif
#   From: 2010.05.17/outbox.cif.g08.bks.cpg/sg2_235_cif.got.tgz:469468.got - 2010.06.03 11:33:40.
