data_PCOD9096823
_publ_section_title
;
Structure prediction by ZEFSAII (Michael W. Deem and Ramdas Pophale) SiO2 
 PCOD9096823
Probable space group: P -1
;
_chemical_formula_sum "Si O2"
_cell_formula_units_Z 14
_cell_length_a 12.992621
_cell_length_b 24.815730
_cell_length_c 9.119772
_cell_angle_alpha 33.011272
_cell_angle_beta 32.996497
_cell_angle_gamma 25.870047
_cell_volume 653.689742
_symmetry_space_group_name_H-M "P -1"
_symmetry_group_IT_number 2
_symmetry_cell_setting 'triclinic'
loop_
_space_group_symop_operation_xyz
x,y,z
-x,-y,-z
loop_
_atom_site_type_symbol
_atom_site_label
_atom_site_fract_x
_atom_site_fract_y
_atom_site_fract_z
Si Si1 0.765133 0.053335 0.056140
Si Si2 0.759703 0.394317 0.742568
Si Si3 0.529375 0.668241 0.267870
Si Si4 0.078698 0.323851 0.072712
Si Si5 0.214732 0.167257 0.529575
Si Si6 0.410976 0.375673 0.046842
Si Si7 0.092736 0.359083 0.660704
O O1 0.501492 0.109370 0.324644
O O2 0.809320 0.940693 0.161390
O O3 0.691790 0.179627 0.770857
O O4 0.000000 0.000000 0.000000
O O5 0.578657 0.546476 0.561568
O O6 0.617018 0.344106 0.986106
O O7 0.011880 0.301372 0.554248
O O8 0.862656 0.379974 0.814023
O O9 0.775656 0.643501 0.081698
O O10 0.504539 0.665917 0.127122
O O11 0.181363 0.279198 0.887315
O O12 0.121053 0.211324 0.372182
O O13 0.799875 0.464618 0.075302
O O14 0.294871 0.317619 0.390209
O O15 0.000000 0.500000 0.500000
#
# Coordination Sequence:
#
# PCOD9096823 Si02
#       7
#     2   2   2   2   2   2   2
#     4  10  22  36  56  84 117 151 185 235 292 336
#     4  12  22  36  61  92 114 150 191 238 290 335
#     4  11  20  37  60  88 116 146 192 239 285 337
#     4  10  20  36  58  83 122 153 184 235 294 332
#     4  10  22  39  58  86 117 143 195 241 280 340
#     4  11  21  33  57  86 120 148 187 232 287 340
#     4  10  21  37  51  86 127 150 182 235 290 343
#
# _framework density 21.416889000000001
#
# number of rings (size 3 to 8) (size 9 to 14) (size 15 to 20)
#    0.000    1.429    4.286    3.429    2.000    2.286 
#    0.000    0.000    0.000   13.714    0.000   27.000 
#    0.000    0.000    0.000    0.000    0.000    0.000 
#
# Total GULP energy -78046.816045 kJ/mol
# GULP energy per Si atom -5574.772575 kJ/mol
# Density = 2.136814 g / cm^3
# Si number density = 21.416889 Si / 1000 Ang^3
#
#
#
# Elastic Constant Matrix: (Units=GPa)
#
#
# Indices 1 2 3 4 5 6 
#
# 1 138.3892 12.1502 36.1463 7.5363 -21.8090 -8.8084
# 2 12.1502 66.5265 23.5375 -20.3270 3.0894 -16.7256
# 3 36.1463 23.5375 48.3967 -7.4402 -4.1158 2.8107
# 4 7.5363 -20.3270 -7.4402 17.3606 -0.7883 -11.8872
# 5 -21.8090 3.0894 -4.1158 -0.7883 32.4512 12.7135
# 6 -8.8084 -16.7256 2.8107 -11.8872 12.7135 20.3558
#
#
#
# Elastic Compliance Matrix: (Units=1/GPa)
#
#
# Indices 1 2 3 4 5 6 
#
# 1 0.010199 0.003402 -0.009384 0.000685 0.002474 0.007359
# 2 0.003402 -0.009923 0.000000 -0.041537 0.018989 -0.042797
# 3 -0.009384 0.000000 0.030195 0.022150 -0.005007 0.007832
# 4 0.000685 -0.041537 0.022150 -0.036380 0.038549 -0.082213
# 5 0.002474 0.018989 -0.005007 0.038549 0.020322 0.027183
# 6 0.007359 -0.042797 0.007832 -0.082213 0.027183 -0.048924
#
#
# Mechanical properties :
#
#
# Convention : Reuss Voigt Hill
#
# Bulk Modulus (GPa) = 54.03092 44.10896 49.06994
# Shear Modulus (GPa) = -305.32497 26.13208 -139.59644
#
# Velocity S-wave (km/s) = -11.95292 3.49687 -8.08221
# Velocity P-wave (km/s) = 12.85353 6.07818 8.00840
#
# Compressibility (1/GPa) = 0.01850792
#
# Stress axis : x y z
#
# Youngs Moduli (GPa) = 98.04591 -100.77696 33.11756
#
# Poissons Ratio (x) = 0.34280 0.31076
# Poissons Ratio (y) = -0.33351 0.00000
# Poissons Ratio (z) = 0.92003 0.00001
#
# Static dielectric constant tensor:
#      x y z
#    x 1.847720 -0.001450 -0.007850 
#    y -0.001450 1.878190 0.008800 
#    z -0.007850 0.008800 1.845150 
# 
# From -- ./inp_files/271728.got.cif
#   From: 2010.05.17/outbox.cif.g08.bks.cpg/sg2_136_cif.got.tgz:271728.got - 2010.06.03 11:33:40.
