data_PCOD9096561
_publ_section_title
;
Structure prediction by ZEFSAII (Michael W. Deem and Ramdas Pophale) SiO2 
 PCOD9096561
Probable space group: P -1
;
_chemical_formula_sum "Si O2"
_cell_formula_units_Z 16
_cell_length_a 23.865593
_cell_length_b 23.437614
_cell_length_c 8.864004
_cell_angle_alpha 42.618841
_cell_angle_beta 30.502157
_cell_angle_gamma 22.474907
_cell_volume 914.412974
_symmetry_space_group_name_H-M "P -1"
_symmetry_group_IT_number 2
_symmetry_cell_setting 'triclinic'
loop_
_space_group_symop_operation_xyz
x,y,z
-x,-y,-z
loop_
_atom_site_type_symbol
_atom_site_label
_atom_site_fract_x
_atom_site_fract_y
_atom_site_fract_z
Si Si1 0.367134 0.624951 0.866185
Si Si2 0.730298 0.609070 0.940853
Si Si3 0.102801 0.844542 0.331614
Si Si4 0.978276 0.549647 0.705315
Si Si5 0.501958 0.650939 0.938092
Si Si6 0.661269 0.212296 0.618027
Si Si7 0.825021 0.380598 0.341882
Si Si8 0.076988 0.569570 0.719356
O O1 0.338021 0.698207 0.640994
O O2 0.580556 0.518693 0.656579
O O3 0.185148 0.762423 0.136627
O O4 0.399736 0.506266 0.984615
O O5 0.786977 0.645417 0.857926
O O6 0.838786 0.558231 0.629122
O O7 0.489289 0.749308 0.206779
O O8 0.827547 0.457913 0.071144
O O9 0.085753 0.768407 0.615578
O O10 0.286538 0.782533 0.093813
O O11 0.888703 0.029672 0.460001
O O12 0.970837 0.632054 0.679931
O O13 0.006943 0.451641 0.940571
O O14 0.677686 0.596331 0.563241
O O15 0.445375 0.711813 0.120190
O O16 0.930439 0.345223 0.319662
#
# Coordination Sequence:
#
# PCOD9096561 Si02
#       8
#     2   2   2   2   2   2   2   2
#     4  10  19  34  52  76 105 140 174 203 241 310
#     4   9  18  33  51  78 103 127 172 219 255 290
#     4  11  20  34  51  79 109 140 165 199 256 319
#     4   9  18  30  53  80  94 125 179 229 243 285
#     4  11  19  34  53  79 106 136 171 208 244 310
#     4  11  22  32  51  80 112 134 162 211 265 300
#     4   9  17  32  54  75 100 137 172 205 243 309
#     4  10  16  30  55  79  95 127 175 217 251 284
#
# _framework density 17.497564000000001
#
# number of rings (size 3 to 8) (size 9 to 14) (size 15 to 20)
#    0.000    2.000    3.750    1.875    0.000    0.000 
#    0.000    0.000    0.000    7.500    0.000    0.000 
#    0.000    0.000    0.000    0.000    0.000    0.000 
#
# Total GULP energy -89072.844868 kJ/mol
# GULP energy per Si atom -5567.052804 kJ/mol
# Density = 1.745774 g / cm^3
# Si number density = 17.497564 Si / 1000 Ang^3
#
#
#
# Elastic Constant Matrix: (Units=GPa)
#
#
# Indices 1 2 3 4 5 6 
#
# 1 67.5047 12.0747 12.4172 6.4045 -0.2079 -7.7709
# 2 12.0747 64.7740 25.7488 7.6752 -4.6737 -10.6713
# 3 12.4172 25.7488 77.3245 -3.5389 0.7500 -7.1748
# 4 6.4045 7.6752 -3.5389 14.1635 -2.4909 -0.2034
# 5 -0.2079 -4.6737 0.7500 -2.4909 26.0159 0.6979
# 6 -7.7709 -10.6713 -7.1748 -0.2034 0.6979 16.1417
#
#
#
# Elastic Compliance Matrix: (Units=1/GPa)
#
#
# Indices 1 2 3 4 5 6 
#
# 1 0.016844 -0.000147 -0.002384 -0.008172 -0.000790 0.006883
# 2 -0.000147 0.021666 -0.006782 -0.012759 0.002571 0.010966
# 3 -0.002384 -0.006782 0.016135 0.008647 -0.000920 0.001689
# 4 -0.008172 -0.012759 0.008647 0.084260 0.005667 -0.007709
# 5 -0.000790 0.002571 -0.000920 0.005667 0.039482 -0.000725
# 6 0.006883 0.010966 0.001689 -0.007709 -0.000725 0.073200
#
#
# Mechanical properties :
#
#
# Convention : Reuss Voigt Hill
#
# Bulk Modulus (GPa) = 27.76327 34.45386 31.10856
# Shear Modulus (GPa) = 17.71671 21.88837 19.80254
#
# Velocity S-wave (km/s) = 3.18547 3.54070 3.36777
# Velocity P-wave (km/s) = 5.42504 6.03728 5.73933
#
# Compressibility (1/GPa) = 0.03601881
#
# Stress axis : x y z
#
# Youngs Moduli (GPa) = 59.36891 46.15573 61.97623
#
# Poissons Ratio (x) = 0.00679 0.14773
# Poissons Ratio (y) = 0.00873 0.42035
# Poissons Ratio (z) = 0.14151 0.31305
#
# Static dielectric constant tensor:
#      x y z
#    x 1.661390 -0.012370 -0.013730 
#    y -0.012370 1.561640 -0.034580 
#    z -0.013730 -0.034580 1.623570 
# 
# From -- ./inp_files/176687.got.cif
#   From: 2010.05.17/outbox.cif.g08.bks.cpg/sg2_89_cif.got.tgz:176687.got - 2010.06.03 11:33:40.
