data_PCOD9096451
_publ_section_title
;
Structure prediction by ZEFSAII (Michael W. Deem and Ramdas Pophale) SiO2 
 PCOD9096451
Probable space group: P -1
;
_chemical_formula_sum "Si O2"
_cell_formula_units_Z 14
_cell_length_a 7.265746
_cell_length_b 7.012965
_cell_length_c 13.031052
_cell_angle_alpha 81.131594
_cell_angle_beta 83.933930
_cell_angle_gamma 60.654719
_cell_volume 571.518770
_symmetry_space_group_name_H-M "P -1"
_symmetry_group_IT_number 2
_symmetry_cell_setting 'triclinic'
loop_
_space_group_symop_operation_xyz
x,y,z
-x,-y,-z
loop_
_atom_site_type_symbol
_atom_site_label
_atom_site_fract_x
_atom_site_fract_y
_atom_site_fract_z
Si Si1 0.722470 0.651526 0.087987
Si Si2 0.060386 0.477265 0.253225
Si Si3 0.335037 0.582933 0.347976
Si Si4 0.242867 0.511965 0.577520
Si Si5 0.983498 0.084103 0.325088
Si Si6 0.194929 0.840655 0.872009
Si Si7 0.273590 0.995381 0.059254
O O1 0.904261 0.619437 0.160552
O O2 0.741311 0.413488 0.092847
O O3 0.482071 0.823917 0.119595
O O4 0.758545 0.759651 0.974193
O O5 0.919747 0.560348 0.360297
O O6 0.087429 0.232316 0.262727
O O7 0.272226 0.488559 0.260347
O O8 0.318180 0.456813 0.461798
O O9 0.560702 0.569883 0.349291
O O10 0.156672 0.835754 0.343995
O O11 0.124958 0.777249 0.578277
O O12 0.799068 0.117944 0.252610
O O13 0.307093 0.907917 0.946333
O O14 0.942858 0.990191 0.894229
#
# Coordination Sequence:
#
# PCOD9096451 Si02
#       7
#     2   2   2   2   2   2   2
#     4  10  20  38  52  80 114 137 185 231 266 329
#     4   9  21  38  56  85 114 143 187 230 273 332
#     4  11  19  40  60  80 117 149 179 235 278 324
#     4   9  22  38  57  87 111 145 193 223 276 341
#     4   9  21  36  56  84 115 144 187 230 274 334
#     4  10  20  36  55  81 110 143 182 229 270 322
#     4  10  21  34  58  79 104 151 183 217 284 324
#
# _framework density 24.496136
#
# number of rings (size 3 to 8) (size 9 to 14) (size 15 to 20)
#    0.857    1.429    0.000    2.571    2.000    0.000 
#    2.571    7.143    0.000    0.000    0.000    0.000 
#    0.000    0.000    0.000    0.000    0.000    0.000 
#
# Total GULP energy -78151.214527 kJ/mol
# GULP energy per Si atom -5582.229609 kJ/mol
# Density = 2.444038 g / cm^3
# Si number density = 24.496136 Si / 1000 Ang^3
#
#
#
# Elastic Constant Matrix: (Units=GPa)
#
#
# Indices 1 2 3 4 5 6 
#
# 1 79.2987 9.6532 19.9580 -15.7009 30.3249 -5.6819
# 2 9.6532 79.7361 18.6430 -24.7920 18.1487 6.3299
# 3 19.9580 18.6430 70.9443 -18.3437 21.3165 2.0231
# 4 -15.7009 -24.7920 -18.3437 35.7110 -5.6582 2.9465
# 5 30.3249 18.1487 21.3165 -5.6582 45.7836 -1.8795
# 6 -5.6819 6.3299 2.0231 2.9465 -1.8795 25.4437
#
#
#
# Elastic Compliance Matrix: (Units=1/GPa)
#
#
# Indices 1 2 3 4 5 6 
#
# 1 0.018794 0.003016 -0.000293 0.008102 -0.012440 0.001613
# 2 0.003016 0.018702 0.000421 0.013745 -0.008163 -0.006207
# 3 -0.000293 0.000421 0.018779 0.008850 -0.007756 -0.003261
# 4 0.008102 0.013745 0.008850 0.044788 -0.009737 -0.008220
# 5 -0.012440 -0.008163 -0.007756 -0.009737 0.035875 0.003647
# 6 0.001613 -0.006207 -0.003261 -0.008220 0.003647 0.042688
#
#
# Mechanical properties :
#
#
# Convention : Reuss Voigt Hill
#
# Bulk Modulus (GPa) = 15.98403 36.27640 26.13022
# Shear Modulus (GPa) = 25.74755 33.50265 29.62510
#
# Velocity S-wave (km/s) = 3.24556 3.70222 3.48138
# Velocity P-wave (km/s) = 4.53698 5.75468 5.18173
#
# Compressibility (1/GPa) = 0.06256245
#
# Stress axis : x y z
#
# Youngs Moduli (GPa) = 53.20829 53.46942 53.25047
#
# Poissons Ratio (x) = -0.16125 0.01560
# Poissons Ratio (y) = -0.16046 -0.02240
# Poissons Ratio (z) = 0.01558 -0.02249
#
# Static dielectric constant tensor:
#      x y z
#    x 1.935200 -0.010930 -0.034310 
#    y -0.010930 1.950910 0.064390 
#    z -0.034310 0.064390 2.024580 
# 
# From -- ./inp_files/492985.got.cif
#   From: 2010.05.17/outbox.cif.g08.bks.cpg/sg2_247_cif.got.tgz:492985.got - 2010.06.03 11:33:40.
