data_PCOD9096601
_publ_section_title
;
Structure prediction by ZEFSAII (Michael W. Deem and Ramdas Pophale) SiO2 
 PCOD9096601
Probable space group: P -1
;
_chemical_formula_sum "Si O2"
_cell_formula_units_Z 16
_cell_length_a 9.925307
_cell_length_b 13.004590
_cell_length_c 12.164276
_cell_angle_alpha 35.321048
_cell_angle_beta 122.249520
_cell_angle_gamma 117.103775
_cell_volume 767.068664
_symmetry_space_group_name_H-M "P -1"
_symmetry_group_IT_number 2
_symmetry_cell_setting 'triclinic'
loop_
_space_group_symop_operation_xyz
x,y,z
-x,-y,-z
loop_
_atom_site_type_symbol
_atom_site_label
_atom_site_fract_x
_atom_site_fract_y
_atom_site_fract_z
Si Si1 0.583645 0.324651 0.057330
Si Si2 0.306793 0.153333 0.231168
Si Si3 0.250978 0.016928 0.555492
Si Si4 0.321231 0.513838 0.658140
Si Si5 0.939432 0.799749 0.512618
Si Si6 0.221589 0.877503 0.248915
Si Si7 0.861597 0.829798 0.206327
Si Si8 0.850708 0.511025 0.159716
O O1 0.452892 0.268259 0.142244
O O2 0.726557 0.433854 0.082366
O O3 0.649500 0.136701 0.210977
O O4 0.491670 0.442138 0.828606
O O5 0.339246 0.103280 0.413688
O O6 0.276004 0.981783 0.291855
O O7 0.153585 0.276922 0.043130
O O8 0.192404 0.162492 0.487138
O O9 0.096530 0.913309 0.523538
O O10 0.320016 0.702019 0.433733
O O11 0.230636 0.358099 0.687100
O O12 0.220564 0.533030 0.711891
O O13 0.887788 0.868101 0.311959
O O14 0.991160 0.596723 0.696457
O O15 0.035452 0.820241 0.233921
O O16 0.229434 0.018820 0.030595
#
# Coordination Sequence:
#
# PCOD9096601 Si02
#       8
#     2   2   2   2   2   2   2   2
#     4  10  21  37  57  87 119 150 187 245 296 333
#     4  11  19  35  58  91 114 142 198 241 285 344
#     4  10  21  38  57  83 112 158 194 236 282 345
#     4  11  20  35  57  87 120 146 185 248 290 336
#     4  10  21  38  58  77 120 157 191 231 291 344
#     4  11  21  33  59  91 115 148 193 237 292 342
#     4  11  21  36  56  89 115 156 187 239 290 338
#     4  10  20  36  56  90 120 148 185 243 300 337
#
# _framework density 20.858628
#
# number of rings (size 3 to 8) (size 9 to 14) (size 15 to 20)
#    0.000    1.500    5.000    3.000    0.000    1.500 
#    0.000    0.625    0.000    0.750    0.000    0.000 
#    0.000    0.000    0.000    0.000    0.000    0.000 
#
# Total GULP energy -89432.014964 kJ/mol
# GULP energy per Si atom -5589.500935 kJ/mol
# Density = 2.081115 g / cm^3
# Si number density = 20.858628 Si / 1000 Ang^3
#
#
#
# Elastic Constant Matrix: (Units=GPa)
#
#
# Indices 1 2 3 4 5 6 
#
# 1 31.5196 21.4845 35.4587 3.0590 14.4624 -8.4791
# 2 21.4845 60.2842 44.8483 -4.5673 6.1899 -12.3462
# 3 35.4587 44.8483 143.7405 -17.0066 23.0946 -18.4173
# 4 3.0590 -4.5673 -17.0066 28.4660 0.4274 -2.2668
# 5 14.4624 6.1899 23.0946 0.4274 17.6454 -7.6162
# 6 -8.4791 -12.3462 -18.4173 -2.2668 -7.6162 18.4030
#
#
#
# Elastic Compliance Matrix: (Units=1/GPa)
#
#
# Indices 1 2 3 4 5 6 
#
# 1 0.074080 -0.018504 -0.007730 -0.015427 -0.046897 -0.007328
# 2 -0.018504 0.027945 -0.004682 0.004466 0.017058 0.013146
# 3 -0.007730 -0.004682 0.013062 0.008338 -0.007460 0.004309
# 4 -0.015427 0.004466 0.008338 0.043318 0.003951 0.011204
# 5 -0.046897 0.017058 -0.007460 0.003951 0.111270 0.028907
# 6 -0.007328 0.013146 0.004309 0.011204 0.028907 0.077438
#
#
# Mechanical properties :
#
#
# Convention : Reuss Voigt Hill
#
# Bulk Modulus (GPa) = 18.77816 48.79191 33.78503
# Shear Modulus (GPa) = 11.71787 21.81975 16.76881
#
# Velocity S-wave (km/s) = 2.37275 3.23782 2.83844
# Velocity P-wave (km/s) = 4.06555 6.11723 5.19371
#
# Compressibility (1/GPa) = 0.05325337
#
# Stress axis : x y z
#
# Youngs Moduli (GPa) = 13.49896 35.78414 76.55779
#
# Poissons Ratio (x) = 0.66216 0.59180
# Poissons Ratio (y) = 0.24979 0.35847
# Poissons Ratio (z) = 0.10435 0.16755
#
# Static dielectric constant tensor:
#      x y z
#    x 1.748240 0.015020 0.028470 
#    y 0.015020 1.738200 -0.019290 
#    z 0.028470 -0.019290 1.795250 
# 
# From -- ./inp_files/425140.got.cif
#   From: 2010.05.17/outbox.cif.g08.bks.cpg/sg2_213_cif.got.tgz:425140.got - 2010.06.03 11:33:40.
