data_PCOD9096042
_publ_section_title
;
Structure prediction by ZEFSAII (Michael W. Deem and Ramdas Pophale) SiO2 
 PCOD9096042
Probable space group: P -1
;
_chemical_formula_sum "Si O2"
_cell_formula_units_Z 14
_cell_length_a 30.337280
_cell_length_b 27.601768
_cell_length_c 15.226473
_cell_angle_alpha 161.349028
_cell_angle_beta 161.223400
_cell_angle_gamma 8.229606
_cell_volume 572.127178
_symmetry_space_group_name_H-M "P -1"
_symmetry_group_IT_number 2
_symmetry_cell_setting 'triclinic'
loop_
_space_group_symop_operation_xyz
x,y,z
-x,-y,-z
loop_
_atom_site_type_symbol
_atom_site_label
_atom_site_fract_x
_atom_site_fract_y
_atom_site_fract_z
Si Si1 0.592291 0.180438 0.461821
Si Si2 0.817383 0.874804 0.531630
Si Si3 0.501409 0.201148 0.986500
Si Si4 0.542791 0.084845 0.557407
Si Si5 0.550473 0.340807 0.142418
Si Si6 0.806927 0.409093 0.747305
Si Si7 0.089454 0.890187 0.824008
O O1 0.454306 0.266749 0.256273
O O2 0.342675 0.556694 0.668151
O O3 0.632576 0.025585 0.352531
O O4 0.930417 0.923459 0.644050
O O5 0.183304 0.477712 0.530016
O O6 0.716940 0.897063 0.470819
O O7 0.770821 0.101938 0.851144
O O8 0.438702 0.089171 0.653364
O O9 0.499293 0.310642 0.086684
O O10 0.267489 0.475514 0.094663
O O11 0.854737 0.867557 0.117258
O O12 0.654851 0.112925 0.876288
O O13 0.783488 0.250319 0.428715
O O14 0.212922 0.745019 0.171921
#
# Coordination Sequence:
#
# PCOD9096042 Si02
#       7
#     2   2   2   2   2   2   2
#     4  11  21  38  61  92 127 163 202 260 312 361
#     4  11  21  39  62  90 126 166 204 256 310 365
#     4  12  25  44  63  91 131 169 203 257 313 365
#     4  11  25  42  64  95 126 164 213 251 306 382
#     4  10  23  43  68  94 124 163 208 263 311 363
#     4  11  24  41  64  95 124 163 214 254 305 377
#     4  10  20  35  61  97 124 154 208 261 312 369
#
# _framework density 24.470084
#
# number of rings (size 3 to 8) (size 9 to 14) (size 15 to 20)
#    0.000    1.143    0.000    8.143    0.000    5.714 
#    0.000    9.286    0.000    0.000    0.000    0.000 
#    0.000    0.000    0.000    0.000    0.000    0.000 
#
# Total GULP energy -78509.102660 kJ/mol
# GULP energy per Si atom -5607.793047 kJ/mol
# Density = 2.441439 g / cm^3
# Si number density = 24.470084 Si / 1000 Ang^3
#
#
#
# Elastic Constant Matrix: (Units=GPa)
#
#
# Indices 1 2 3 4 5 6 
#
# 1 99.7817 8.9699 8.0321 -1.4640 -7.2590 7.4776
# 2 8.9699 12.2541 2.2986 -24.9347 1.8259 -32.1944
# 3 8.0321 2.2986 86.3190 4.1487 8.6975 0.8681
# 4 -1.4640 -24.9347 4.1487 -0.7289 3.1065 -9.3898
# 5 -7.2590 1.8259 8.6975 3.1065 26.6766 -3.5495
# 6 7.4776 -32.1944 0.8681 -9.3898 -3.5495 23.1453
#
#
#
# Elastic Compliance Matrix: (Units=1/GPa)
#
#
# Indices 1 2 3 4 5 6 
#
# 1 0.010516 -0.000251 -0.001473 0.005228 0.002594 -0.001172
# 2 -0.000251 0.003766 0.001228 -0.029710 0.001869 -0.006493
# 3 -0.001473 0.001228 0.012127 -0.000333 -0.004275 0.000938
# 4 0.005228 -0.029710 -0.000333 0.028397 -0.004013 -0.032097
# 5 0.002594 0.001869 -0.004275 -0.004013 0.040797 0.006551
# 6 -0.001172 -0.006493 0.000938 -0.032097 0.006551 0.022500
#
#
# Mechanical properties :
#
#
# Convention : Reuss Voigt Hill
#
# Bulk Modulus (GPa) = 39.34278 26.32845 32.83561
# Shear Modulus (GPa) = 39.19547 21.75555 30.47551
#
# Velocity S-wave (km/s) = 4.00656 2.98496 3.53288
# Velocity P-wave (km/s) = 6.12504 4.76054 5.48538
#
# Compressibility (1/GPa) = 0.02541763
#
# Stress axis : x y z
#
# Youngs Moduli (GPa) = 95.09111 265.55017 82.46356
#
# Poissons Ratio (x) = 0.06657 0.12145
# Poissons Ratio (y) = 0.02384 -0.10126
# Poissons Ratio (z) = 0.14004 -0.32607
#
# Static dielectric constant tensor:
#      x y z
#    x 1.935770 0.057800 0.000250 
#    y 0.057800 1.910590 -0.007410 
#    z 0.000250 -0.007410 1.953480 
# 
# From -- ./inp_files/123670.got.cif
#   From: 2010.05.17/outbox.cif.g08.bks.cpg/sg2_62_cif.got.tgz:123670.got - 2010.06.03 11:33:40.
