data_PCOD9096254
_publ_section_title
;
Structure prediction by ZEFSAII (Michael W. Deem and Ramdas Pophale) SiO2 
 PCOD9096254
Probable space group: P -1
;
_chemical_formula_sum "Si O2"
_cell_formula_units_Z 16
_cell_length_a 15.091855
_cell_length_b 16.203980
_cell_length_c 15.038739
_cell_angle_alpha 39.006734
_cell_angle_beta 42.703760
_cell_angle_gamma 18.092267
_cell_volume 718.717482
_symmetry_space_group_name_H-M "P -1"
_symmetry_group_IT_number 2
_symmetry_cell_setting 'triclinic'
loop_
_space_group_symop_operation_xyz
x,y,z
-x,-y,-z
loop_
_atom_site_type_symbol
_atom_site_label
_atom_site_fract_x
_atom_site_fract_y
_atom_site_fract_z
Si Si1 0.065542 0.257848 0.319226
Si Si2 0.630882 0.771493 0.796686
Si Si3 0.068446 0.428198 0.613375
Si Si4 0.405137 0.786171 0.337395
Si Si5 0.909954 0.104463 0.878805
Si Si6 0.048502 0.740160 0.421815
Si Si7 0.447631 0.523845 0.660063
Si Si8 0.273316 0.610123 0.900669
O O1 0.196946 0.281817 0.221966
O O2 0.723115 0.554526 0.320846
O O3 0.149007 0.098075 0.480278
O O4 0.187367 0.087512 0.282062
O O5 0.657870 0.603043 0.956796
O O6 0.788541 0.635305 0.699666
O O7 0.317943 0.107656 0.727529
O O8 0.142727 0.508748 0.524731
O O9 0.000000 0.500000 0.500000
O O10 0.328004 0.724504 0.503163
O O11 0.431695 0.713283 0.278258
O O12 0.054100 0.101792 0.726334
O O13 0.567600 0.420786 0.868961
O O14 0.000000 0.000000 0.000000
O O15 0.018374 0.888519 0.917180
O O16 0.295621 0.618744 0.370730
O O17 0.238863 0.674752 0.767931
#
# Coordination Sequence:
#
# PCOD9096254 Si02
#       8
#     2   2   2   2   2   2   2   2
#     4  10  20  38  58  90 116 160 196 254 302 346
#     4  11  23  41  62  86 124 164 200 250 308 359
#     4  11  24  41  63  90 115 160 212 259 295 351
#     4  10  20  35  64  88 123 147 211 251 293 366
#     4  11  24  40  60  89 118 162 202 254 301 363
#     4   9  21  38  63  86 125 153 207 254 308 356
#     4   9  20  38  59  93 117 163 194 253 309 353
#     4  11  24  41  61  86 128 163 199 244 315 365
#
# _framework density 22.261876999999998
#
# number of rings (size 3 to 8) (size 9 to 14) (size 15 to 20)
#    0.000    1.750    0.000    4.500    3.500    9.500 
#    0.000    1.250    0.000    0.000    0.000    0.000 
#    0.000    0.000    0.000    0.000    0.000    0.000 
#
# Total GULP energy -89389.641001 kJ/mol
# GULP energy per Si atom -5586.852563 kJ/mol
# Density = 2.221121 g / cm^3
# Si number density = 22.261877 Si / 1000 Ang^3
#
#
#
# Elastic Constant Matrix: (Units=GPa)
#
#
# Indices 1 2 3 4 5 6 
#
# 1 61.2677 14.4970 2.4546 14.5373 12.5089 18.7643
# 2 14.4970 87.1818 -1.4906 -2.2251 2.0772 17.3879
# 3 2.4546 -1.4906 61.4876 -5.2314 -4.9582 15.9385
# 4 14.5373 -2.2251 -5.2314 26.3798 10.2494 5.4290
# 5 12.5089 2.0772 -4.9582 10.2494 22.5375 2.2189
# 6 18.7643 17.3879 15.9385 5.4290 2.2189 31.9675
#
#
#
# Elastic Compliance Matrix: (Units=1/GPa)
#
#
# Indices 1 2 3 4 5 6 
#
# 1 0.023668 -0.001618 0.000699 -0.007439 -0.008316 -0.011521
# 2 -0.001618 0.013680 0.002986 0.004842 -0.001048 -0.008730
# 3 0.000699 0.002986 0.020468 0.005680 0.002574 -0.013383
# 4 -0.007439 0.004842 0.005680 0.052337 -0.018009 -0.008737
# 5 -0.008316 -0.001048 0.002574 -0.018009 0.057521 0.003234
# 6 -0.011521 -0.008730 -0.013383 -0.008737 0.003234 0.050724
#
#
# Mechanical properties :
#
#
# Convention : Reuss Voigt Hill
#
# Bulk Modulus (GPa) = 16.14179 26.76212 21.45195
# Shear Modulus (GPa) = 21.28448 29.14205 25.21326
#
# Velocity S-wave (km/s) = 3.09543 3.62201 3.36903
# Velocity P-wave (km/s) = 4.47685 5.43503 4.97905
#
# Compressibility (1/GPa) = 0.06195100
#
# Stress axis : x y z
#
# Youngs Moduli (GPa) = 42.25134 73.09944 48.85723
#
# Poissons Ratio (x) = 0.11825 -0.03414
# Poissons Ratio (y) = 0.06835 -0.14591
# Poissons Ratio (z) = -0.02953 -0.21831
#
# Static dielectric constant tensor:
#      x y z
#    x 1.858090 -0.004880 0.032520 
#    y -0.004880 1.822030 -0.028080 
#    z 0.032520 -0.028080 1.853820 
# 
# From -- ./inp_files/119104.got.cif
#   From: 2010.05.17/outbox.cif.g08.bks.cpg/sg2_60_cif.got.tgz:119104.got - 2010.06.03 11:33:40.
