data_PCOD9096874
_publ_section_title
;
Structure prediction by ZEFSAII (Michael W. Deem and Ramdas Pophale) SiO2 
 PCOD9096874
Probable space group: P -1
;
_chemical_formula_sum "Si O2"
_cell_formula_units_Z 16
_cell_length_a 15.669063
_cell_length_b 16.142521
_cell_length_c 21.267579
_cell_angle_alpha 35.299358
_cell_angle_beta 30.422259
_cell_angle_gamma 17.887358
_cell_volume 836.303811
_symmetry_space_group_name_H-M "P -1"
_symmetry_group_IT_number 2
_symmetry_cell_setting 'triclinic'
loop_
_space_group_symop_operation_xyz
x,y,z
-x,-y,-z
loop_
_atom_site_type_symbol
_atom_site_label
_atom_site_fract_x
_atom_site_fract_y
_atom_site_fract_z
Si Si1 0.814554 0.984025 0.705327
Si Si2 0.155736 0.525539 0.853961
Si Si3 0.977469 0.417534 0.849468
Si Si4 0.317826 0.063363 0.302928
Si Si5 0.410762 0.649440 0.104001
Si Si6 0.081142 0.844337 0.986010
Si Si7 0.491094 0.483355 0.292629
Si Si8 0.155492 0.983957 0.562157
O O1 0.462394 0.282928 0.764769
O O2 0.065969 0.917261 0.613716
O O3 0.858689 0.913250 0.648548
O O4 0.886482 0.788962 0.819077
O O5 0.278981 0.551341 0.811298
O O6 0.000000 0.500000 0.000000
O O7 0.008880 0.257874 0.881370
O O8 0.854759 0.659200 0.754188
O O9 0.700730 0.555095 0.984798
O O10 0.330168 0.175250 0.801591
O O11 0.341972 0.966822 0.414094
O O12 0.554074 0.434496 0.094709
O O13 0.118539 0.946636 0.075508
O O14 0.381142 0.590614 0.224999
O O15 0.000000 0.000000 0.000000
O O16 0.179636 0.711992 0.391839
O O17 0.672264 0.208460 0.367725
#
# Coordination Sequence:
#
# PCOD9096874 Si02
#       8
#     2   2   2   2   2   2   2   2
#     4  10  22  35  50  73 104 148 196 233 275 308
#     4  10  21  33  48  73 104 145 180 229 286 320
#     4  10  22  34  55  90 109 140 174 219 294 316
#     4  12  21  36  56  78 113 144 195 237 267 318
#     4  10  20  36  58  86 116 137 174 217 278 328
#     4  10  20  37  59  90 120 135 166 211 280 351
#     4  10  21  36  54  76 111 142 190 229 262 334
#     4  10  22  38  52  76 106 158 197 232 266 302
#
# _framework density 19.131803999999999
#
# number of rings (size 3 to 8) (size 9 to 14) (size 15 to 20)
#    0.750    1.000    1.250    3.375    3.500    0.000 
#    0.000    5.000    0.000    0.000    0.000   17.500 
#    0.000    0.000    0.000    0.000    0.000    0.000 
#
# Total GULP energy -89106.965501 kJ/mol
# GULP energy per Si atom -5569.185344 kJ/mol
# Density = 1.908826 g / cm^3
# Si number density = 19.131804 Si / 1000 Ang^3
#
#
#
# Elastic Constant Matrix: (Units=GPa)
#
#
# Indices 1 2 3 4 5 6 
#
# 1 28.3095 13.1020 34.4700 -21.5101 13.8513 -3.6721
# 2 13.1020 59.1504 -23.5623 -9.5417 -16.3615 15.6545
# 3 34.4700 -23.5623 7.5284 7.3978 -6.5514 38.0898
# 4 -21.5101 -9.5417 7.3978 8.8882 8.6969 -18.2410
# 5 13.8513 -16.3615 -6.5514 8.6969 6.6618 8.9833
# 6 -3.6721 15.6545 38.0898 -18.2410 8.9833 5.9302
#
#
#
# Elastic Compliance Matrix: (Units=1/GPa)
#
#
# Indices 1 2 3 4 5 6 
#
# 1 0.027700 0.006336 0.013386 0.014080 -0.009316 -0.028131
# 2 0.006336 0.024563 0.006568 0.036093 0.004009 0.001842
# 3 0.013386 0.006568 0.029745 0.045477 -0.037767 -0.003005
# 4 0.014080 0.036093 0.045477 0.110806 -0.010022 -0.022648
# 5 -0.009316 0.004009 -0.037767 -0.010022 0.103792 0.038174
# 6 -0.028131 0.001842 -0.003005 -0.022648 0.038174 0.038155
#
#
# Mechanical properties :
#
#
# Convention : Reuss Voigt Hill
#
# Bulk Modulus (GPa) = 7.43008 15.88975 11.65991
# Shear Modulus (GPa) = 15.28854 9.02793 12.15824
#
# Velocity S-wave (km/s) = 2.82993 2.17464 2.52364
# Velocity P-wave (km/s) = 3.81708 3.82477 3.82092
#
# Compressibility (1/GPa) = 0.13458807
#
# Stress axis : x y z
#
# Youngs Moduli (GPa) = 36.10116 40.71204 33.61922
#
# Poissons Ratio (x) = -0.25795 -0.45003
# Poissons Ratio (y) = -0.22874 -0.22082
# Poissons Ratio (z) = -0.48325 -0.26741
#
# Static dielectric constant tensor:
#      x y z
#    x 1.714980 0.055420 0.053060 
#    y 0.055420 1.808470 0.146560 
#    z 0.053060 0.146560 1.839270 
# 
# From -- ./inp_files/143138.got.cif
#   From: 2010.05.17/outbox.cif.g08.bks.cpg/sg2_72_cif.got.tgz:143138.got - 2010.06.03 11:33:40.
