data_PCOD9096248
_publ_section_title
;
Structure prediction by ZEFSAII (Michael W. Deem and Ramdas Pophale) SiO2 
 PCOD9096248
Probable space group: P -1
;
_chemical_formula_sum "Si O2"
_cell_formula_units_Z 12
_cell_length_a 15.267327
_cell_length_b 15.874775
_cell_length_c 6.855958
_cell_angle_alpha 120.273611
_cell_angle_beta 118.693636
_cell_angle_gamma 18.814221
_cell_volume 462.777127
_symmetry_space_group_name_H-M "P -1"
_symmetry_group_IT_number 2
_symmetry_cell_setting 'triclinic'
loop_
_space_group_symop_operation_xyz
x,y,z
-x,-y,-z
loop_
_atom_site_type_symbol
_atom_site_label
_atom_site_fract_x
_atom_site_fract_y
_atom_site_fract_z
Si Si1 0.088510 0.306393 0.843761
Si Si2 0.977181 0.220871 0.032160
Si Si3 0.239440 0.715702 0.839240
Si Si4 0.543313 0.343096 0.277558
Si Si5 0.534296 0.753344 0.669540
Si Si6 0.057744 0.556501 0.564728
O O1 0.805896 0.507537 0.802562
O O2 0.141889 0.247848 0.601310
O O3 0.339100 0.015756 0.849408
O O4 0.000000 0.500000 0.000000
O O5 0.873439 0.286400 0.217986
O O6 0.747830 0.393013 0.835573
O O7 0.998707 0.316910 0.178338
O O8 0.259687 0.910979 0.929243
O O9 0.500000 0.500000 0.000000
O O10 0.314233 0.682124 0.660176
O O11 0.000000 0.000000 0.000000
O O12 0.567348 0.265604 0.423722
O O13 0.651757 0.681278 0.501973
O O14 0.000000 0.500000 0.500000
#
# Coordination Sequence:
#
# PCOD9096248 Si02
#       6
#     2   2   2   2   2   2
#     4  10  23  40  57  77 112 150 193 226 274 332
#     4  10  21  37  59  86 115 144 186 235 278 322
#     4   8  16  33  55  85 110 141 183 226 272 332
#     4  10  20  35  64  84 110 149 188 226 278 333
#     4  10  23  38  57  81 113 143 192 225 277 335
#     4  10  26  38  57  83 116 147 187 235 283 324
#
# _framework density 25.930409999999998
#
# number of rings (size 3 to 8) (size 9 to 14) (size 15 to 20)
#    1.000    1.333    0.000    1.500    7.000    0.667 
#    0.000    0.833    0.000    1.000    0.000    0.000 
#    0.000    0.000    0.000    0.000    0.000    0.000 
#
# Total GULP energy -66820.395088 kJ/mol
# GULP energy per Si atom -5568.366257 kJ/mol
# Density = 2.587139 g / cm^3
# Si number density = 25.930410 Si / 1000 Ang^3
#
#
#
# Elastic Constant Matrix: (Units=GPa)
#
#
# Indices 1 2 3 4 5 6 
#
# 1 148.7170 9.2602 -2.4610 6.8687 -8.3629 25.4336
# 2 9.2602 124.9584 -6.4997 18.3476 -5.7000 0.2389
# 3 -2.4610 -6.4997 48.5653 -6.8244 -0.1361 6.4110
# 4 6.8687 18.3476 -6.8244 18.6577 7.8297 -0.4384
# 5 -8.3629 -5.7000 -0.1361 7.8297 55.9873 13.6615
# 6 25.4336 0.2389 6.4110 -0.4384 13.6615 23.1839
#
#
#
# Elastic Compliance Matrix: (Units=1/GPa)
#
#
# Indices 1 2 3 4 5 6 
#
# 1 0.009960 0.000633 0.001678 -0.006627 0.006184 -0.015166
# 2 0.000633 0.009786 0.000169 -0.011303 0.003422 -0.003072
# 3 0.001678 0.000169 0.022826 0.006695 0.001572 -0.008953
# 4 -0.006627 -0.011303 0.006695 0.077169 -0.017079 0.017059
# 5 0.006184 0.003422 0.001572 -0.017079 0.027300 -0.023664
# 6 -0.015166 -0.003072 -0.008953 0.017059 -0.023664 0.076546
#
#
# Mechanical properties :
#
#
# Convention : Reuss Voigt Hill
#
# Bulk Modulus (GPa) = 21.03894 35.87108 28.45501
# Shear Modulus (GPa) = 21.32463 41.02853 31.17658
#
# Velocity S-wave (km/s) = 2.87083 3.98207 3.47121
# Velocity P-wave (km/s) = 4.37265 5.91660 5.20222
#
# Compressibility (1/GPa) = 0.04753091
#
# Stress axis : x y z
#
# Youngs Moduli (GPa) = 100.40073 102.18601 43.81048
#
# Poissons Ratio (x) = -0.06472 -0.07350
# Poissons Ratio (y) = -0.06359 -0.00739
# Poissons Ratio (z) = -0.16843 -0.01724
#
# Static dielectric constant tensor:
#      x y z
#    x 1.009350 -1.414760 0.589300 
#    y -1.414760 0.335700 0.725530 
#    z 0.589300 0.725530 1.784190 
# 
# From -- ./inp_files/41479.got.cif
#   From: 2010.05.17/outbox.cif.g08.bks.cpg/sg2_21_cif.got.tgz:41479.got - 2010.06.03 11:33:40.
