data_PCOD9096936
_publ_section_title
;
Structure prediction by ZEFSAII (Michael W. Deem and Ramdas Pophale) SiO2 
 PCOD9096936
Probable space group: P -1
;
_chemical_formula_sum "Si O2"
_cell_formula_units_Z 15
_cell_length_a 5.403408
_cell_length_b 8.350709
_cell_length_c 16.818520
_cell_angle_alpha 87.724464
_cell_angle_beta 125.094078
_cell_angle_gamma 96.020094
_cell_volume 617.308749
_symmetry_space_group_name_H-M "P -1"
_symmetry_group_IT_number 2
_symmetry_cell_setting 'triclinic'
loop_
_space_group_symop_operation_xyz
x,y,z
-x,-y,-z
loop_
_atom_site_type_symbol
_atom_site_label
_atom_site_fract_x
_atom_site_fract_y
_atom_site_fract_z
Si Si1 0.394993 0.027078 0.850399
Si Si2 0.451134 0.640936 0.599274
Si Si3 0.059337 0.755363 0.989992
Si Si4 0.927236 0.689040 0.142286
Si Si5 0.867397 0.804422 0.788777
Si Si6 0.500000 0.500000 0.000000
Si Si7 0.483632 0.888746 0.302354
Si Si8 0.781373 0.717025 0.497080
O O1 0.735337 0.089054 0.939562
O O2 0.342606 0.068762 0.748317
O O3 0.216339 0.149344 0.866245
O O4 0.224062 0.854280 0.839668
O O5 0.694883 0.655970 0.714626
O O6 0.619689 0.726337 0.552149
O O7 0.344375 0.458215 0.557961
O O8 0.145002 0.717686 0.567218
O O9 0.889870 0.675143 0.038369
O O10 0.281803 0.636753 0.994223
O O11 0.835152 0.793818 0.877834
O O12 0.257814 0.729813 0.238458
O O13 0.717536 0.527740 0.123282
O O14 0.702644 0.957219 0.722667
O O15 0.679696 0.847326 0.413949
#
# Coordination Sequence:
#
# PCOD9096936 Si02
#       8
#     2   2   2   2   2   1   2   2
#     4   9  21  40  60  93 130 174 211 265 328 393
#     4  10  25  47  70 100 131 173 227 277 350 394
#     4  10  21  39  59  91 137 170 219 268 323 390
#     4   9  20  38  57  93 126 173 217 262 325 394
#     4  11  24  39  64  99 126 174 221 275 326 405
#     4  10  20  36  58  88 126 174 214 268 318 388
#     4  10  23  39  67  92 129 172 221 266 343 393
#     4  10  24  49  70  96 135 174 218 291 339 405
#
# _framework density 24.299026999999999
#
# number of rings (size 3 to 8) (size 9 to 14) (size 15 to 20)
#    0.000    2.133    0.000    0.800    7.467    8.000 
#    0.000    0.000    0.000    0.000    0.000    0.000 
#    0.000    0.000    0.000    0.000    0.000    0.000 
#
# Total GULP energy -83551.139096 kJ/mol
# GULP energy per Si atom -5570.075940 kJ/mol
# Density = 2.424372 g / cm^3
# Si number density = 24.299027 Si / 1000 Ang^3
#
#
#
# Elastic Constant Matrix: (Units=GPa)
#
#
# Indices 1 2 3 4 5 6 
#
# 1 86.3003 33.7703 28.4418 -13.8571 -2.7622 -10.9787
# 2 33.7703 66.1038 21.6108 10.5145 6.2851 1.9915
# 3 28.4418 21.6108 96.0697 -0.1515 -12.7515 8.7220
# 4 -13.8571 10.5145 -0.1515 47.0563 2.6413 5.1257
# 5 -2.7622 6.2851 -12.7515 2.6413 15.4233 -1.1384
# 6 -10.9787 1.9915 8.7220 5.1257 -1.1384 23.2143
#
#
#
# Elastic Compliance Matrix: (Units=1/GPa)
#
#
# Indices 1 2 3 4 5 6 
#
# 1 0.019440 -0.010485 -0.003749 0.006702 0.004262 0.010231
# 2 -0.010485 0.024370 -0.003832 -0.007243 -0.014083 -0.004701
# 3 -0.003749 -0.003832 0.014616 -0.000222 0.012549 -0.006271
# 4 0.006702 -0.007243 -0.000222 0.025050 -0.000446 -0.001679
# 5 0.004262 -0.014083 0.012549 -0.000446 0.081985 0.002628
# 6 0.010231 -0.004701 -0.006271 -0.001679 0.002628 0.051174
#
#
# Mechanical properties :
#
#
# Convention : Reuss Voigt Hill
#
# Bulk Modulus (GPa) = 44.85660 46.23552 45.54606
# Shear Modulus (GPa) = 19.21615 28.11551 23.66583
#
# Velocity S-wave (km/s) = 2.81520 3.40525 3.12419
# Velocity P-wave (km/s) = 5.39143 5.87623 5.63904
#
# Compressibility (1/GPa) = 0.02229326
#
# Stress axis : x y z
#
# Youngs Moduli (GPa) = 51.44011 41.03485 68.41958
#
# Poissons Ratio (x) = 0.43025 0.25653
# Poissons Ratio (y) = 0.53935 0.26216
# Poissons Ratio (z) = 0.19286 0.15723
#
# Static dielectric constant tensor:
#      x y z
#    x 1.823080 -0.230430 0.036610 
#    y -0.230430 1.680420 -0.067480 
#    z 0.036610 -0.067480 1.955660 
# 
# From -- ./inp_files/69624.got.cif
#   From: 2010.05.17/outbox.cif.g08.bks.cpg/sg2_35_cif.got.tgz:69624.got - 2010.06.03 11:33:40.
