data_PCOD9096761
_publ_section_title
;
Structure prediction by ZEFSAII (Michael W. Deem and Ramdas Pophale) SiO2 
 PCOD9096761
Probable space group: P -1
;
_chemical_formula_sum "Si O2"
_cell_formula_units_Z 16
_cell_length_a 9.644415
_cell_length_b 12.276789
_cell_length_c 8.714677
_cell_angle_alpha 114.931298
_cell_angle_beta 73.809795
_cell_angle_gamma 121.246460
_cell_volume 797.546153
_symmetry_space_group_name_H-M "P -1"
_symmetry_group_IT_number 2
_symmetry_cell_setting 'triclinic'
loop_
_space_group_symop_operation_xyz
x,y,z
-x,-y,-z
loop_
_atom_site_type_symbol
_atom_site_label
_atom_site_fract_x
_atom_site_fract_y
_atom_site_fract_z
Si Si1 0.088801 0.047839 0.837230
Si Si2 0.719649 0.196541 0.617968
Si Si3 0.203426 0.332173 0.071143
Si Si4 0.963080 0.758192 0.605129
Si Si5 0.812691 0.427610 0.964758
Si Si6 0.489480 0.603016 0.791439
Si Si7 0.365330 0.101398 0.586153
Si Si8 0.333351 0.315264 0.529625
O O1 0.271288 0.067724 0.758880
O O2 0.114368 0.201056 0.910349
O O3 0.989339 0.914055 0.685251
O O4 0.000000 0.000000 0.000000
O O5 0.776428 0.293011 0.802843
O O6 0.556794 0.193286 0.599912
O O7 0.870193 0.244546 0.484100
O O8 0.668488 0.038618 0.567056
O O9 0.102985 0.300441 0.242043
O O10 0.215556 0.465464 0.068815
O O11 0.379040 0.349070 0.082979
O O12 0.828665 0.678904 0.472131
O O13 0.673943 0.388690 0.113358
O O14 0.000000 0.500000 0.000000
O O15 0.440113 0.446779 0.675626
O O16 0.574439 0.680791 0.655214
O O17 0.294879 0.182384 0.557239
#
# Coordination Sequence:
#
# PCOD9096761 Si02
#       8
#     2   2   2   2   2   2   2   2
#     4   9  18  34  57  83 105 133 181 225 259 307
#     4  10  22  37  52  78 113 144 176 211 264 326
#     4  10  20  36  58  78 104 144 179 218 270 313
#     4   9  20  36  56  81 107 137 178 225 265 313
#     4  12  24  35  52  80 113 144 175 217 267 321
#     4  10  21  37  56  80 107 136 179 227 265 315
#     4  10  20  36  59  79 105 145 179 217 265 315
#     4  10  20  36  59  82 102 135 184 228 265 305
#
# _framework density 20.061534999999999
#
# number of rings (size 3 to 8) (size 9 to 14) (size 15 to 20)
#    0.000    2.000    0.000    3.375    0.000    4.500 
#    0.000    0.625    0.000    0.000    0.000    0.000 
#    0.000    0.000    0.000    0.000    0.000    0.000 
#
# Total GULP energy -89188.671238 kJ/mol
# GULP energy per Si atom -5574.291952 kJ/mol
# Density = 2.001587 g / cm^3
# Si number density = 20.061535 Si / 1000 Ang^3
#
#
#
# Elastic Constant Matrix: (Units=GPa)
#
#
# Indices 1 2 3 4 5 6 
#
# 1 77.4421 19.1626 40.9052 -20.7749 -18.4328 29.5635
# 2 19.1626 43.4180 28.1786 2.1705 1.0631 14.6636
# 3 40.9052 28.1786 82.6048 8.4955 -11.7069 10.1277
# 4 -20.7749 2.1705 8.4955 25.5828 12.3878 -4.9768
# 5 -18.4328 1.0631 -11.7069 12.3878 26.0160 -4.6546
# 6 29.5635 14.6636 10.1277 -4.9768 -4.6546 30.5533
#
#
#
# Elastic Compliance Matrix: (Units=1/GPa)
#
#
# Indices 1 2 3 4 5 6 
#
# 1 0.051930 0.005962 -0.028754 0.046543 -0.005131 -0.036778
# 2 0.005962 0.036821 -0.015930 0.009313 -0.012193 -0.018500
# 3 -0.028754 -0.015930 0.035993 -0.039099 0.018673 0.020013
# 4 0.046543 0.009313 -0.039099 0.102730 -0.038508 -0.025677
# 5 -0.005131 -0.012193 0.018673 -0.038508 0.063475 0.008025
# 6 -0.036778 -0.018500 0.020013 -0.025677 0.008025 0.067601
#
#
# Mechanical properties :
#
#
# Convention : Reuss Voigt Hill
#
# Bulk Modulus (GPa) = 21.14222 42.21753 31.67988
# Shear Modulus (GPa) = 11.06781 24.11165 17.58973
#
# Velocity S-wave (km/s) = 2.35136 3.47058 2.96427
# Velocity P-wave (km/s) = 4.23479 6.09505 5.24800
#
# Compressibility (1/GPa) = 0.04729872
#
# Stress axis : x y z
#
# Youngs Moduli (GPa) = 19.25668 27.15862 27.78343
#
# Poissons Ratio (x) = -0.16192 0.79888
# Poissons Ratio (y) = -0.11481 0.44260
# Poissons Ratio (z) = 0.55371 0.43265
#
# Static dielectric constant tensor:
#      x y z
#    x 1.740670 0.032270 -0.018010 
#    y 0.032270 1.715480 0.002660 
#    z -0.018010 0.002660 1.718830 
# 
# From -- ./inp_files/189926.got.cif
#   From: 2010.05.17/outbox.cif.g08.bks.cpg/sg2_95_cif.got.tgz:189926.got - 2010.06.03 11:33:40.
