data_PCOD9096876
_publ_section_title
;
Structure prediction by ZEFSAII (Michael W. Deem and Ramdas Pophale) SiO2 
 PCOD9096876
Probable space group: P -1
;
_chemical_formula_sum "Si O2"
_cell_formula_units_Z 14
_cell_length_a 17.994259
_cell_length_b 5.453813
_cell_length_c 5.119769
_cell_angle_alpha 84.256251
_cell_angle_beta 104.299029
_cell_angle_gamma 97.973017
_cell_volume 481.032910
_symmetry_space_group_name_H-M "P -1"
_symmetry_group_IT_number 2
_symmetry_cell_setting 'triclinic'
loop_
_space_group_symop_operation_xyz
x,y,z
-x,-y,-z
loop_
_atom_site_type_symbol
_atom_site_label
_atom_site_fract_x
_atom_site_fract_y
_atom_site_fract_z
Si Si1 0.231856 0.078353 0.573805
Si Si2 0.476603 0.704853 0.255231
Si Si3 0.188304 0.487305 0.117836
Si Si4 0.377701 0.022290 0.500364
Si Si5 0.084716 0.130568 0.743800
Si Si6 0.946363 0.289111 0.810308
Si Si7 0.333880 0.441277 0.017646
O O1 0.206928 0.232553 0.290611
O O2 0.295932 0.903851 0.560644
O O3 0.149313 0.007773 0.647093
O O4 0.285942 0.275393 0.778254
O O5 0.500000 0.500000 0.500000
O O6 0.556584 0.872781 0.243722
O O7 0.416827 0.586535 0.996583
O O8 0.421695 0.857425 0.364844
O O9 0.137763 0.616372 0.269451
O O10 0.270278 0.606799 0.066478
O O11 0.132479 0.392877 0.841437
O O12 0.356525 0.252684 0.281666
O O13 0.998159 0.214868 0.615673
O O14 0.069314 0.952162 0.996278
O O15 0.000000 0.500000 0.000000
#
# Coordination Sequence:
#
# PCOD9096876 Si02
#       7
#     2   2   2   2   2   2   2
#     4  10  20  36  58  86 116 148 190 234 280 334
#     4   9  18  37  59  78 110 151 186 228 281 332
#     4   9  19  35  55  83 115 147 187 232 277 329
#     4   9  19  37  57  80 113 148 185 233 282 330
#     4   9  19  37  57  80 113 148 185 233 282 330
#     4   9  18  37  59  78 110 151 186 228 281 332
#     4   9  19  35  55  83 115 147 187 232 277 329
#
# _framework density 29.104037999999999
#
# number of rings (size 3 to 8) (size 9 to 14) (size 15 to 20)
#    0.000    2.857    0.000    0.000    0.000    4.571 
#    0.000   35.714    0.000    0.000    0.000    0.000 
#    0.000    0.000    0.000    0.000    0.000    0.000 
#
# Total GULP energy -78271.235682 kJ/mol
# GULP energy per Si atom -5590.802549 kJ/mol
# Density = 2.903780 g / cm^3
# Si number density = 29.104038 Si / 1000 Ang^3
#
#
#
# Elastic Constant Matrix: (Units=GPa)
#
#
# Indices 1 2 3 4 5 6 
#
# 1 285.1335 59.0384 33.8498 -4.8655 11.3116 -24.8044
# 2 59.0384 74.8323 12.6350 9.4428 -2.5582 -13.5133
# 3 33.8498 12.6350 59.5779 -0.8428 -3.7272 9.4111
# 4 -4.8655 9.4428 -0.8428 43.7078 -2.1952 -8.7539
# 5 11.3116 -2.5582 -3.7272 -2.1952 48.1750 17.0777
# 6 -24.8044 -13.5133 9.4111 -8.7539 17.0777 67.2068
#
#
#
# Elastic Compliance Matrix: (Units=1/GPa)
#
#
# Indices 1 2 3 4 5 6 
#
# 1 0.004775 -0.003210 -0.002500 0.001512 -0.002205 0.002224
# 2 -0.003210 0.017081 -0.002110 -0.003675 0.000657 0.001900
# 3 -0.002500 -0.002110 0.019693 -0.000275 0.003796 -0.005105
# 4 0.001512 -0.003675 -0.000275 0.024446 -0.000589 0.003191
# 5 -0.002205 0.000657 0.003796 -0.000589 0.024216 -0.007443
# 6 0.002224 0.001900 -0.005105 0.003191 -0.007443 0.019104
#
#
# Mechanical properties :
#
#
# Convention : Reuss Voigt Hill
#
# Bulk Modulus (GPa) = 38.59630 70.06558 54.33094
# Shear Modulus (GPa) = 37.42775 52.75263 45.09019
#
# Velocity S-wave (km/s) = 3.58997 4.26203 3.94035
# Velocity P-wave (km/s) = 5.52034 6.95315 6.27776
#
# Compressibility (1/GPa) = 0.02590922
#
# Stress axis : x y z
#
# Youngs Moduli (GPa) = 209.41077 58.54482 50.78010
#
# Poissons Ratio (x) = 0.18791 0.12697
# Poissons Ratio (y) = 0.67215 0.10714
# Poissons Ratio (z) = 0.52360 0.12352
#
# Static dielectric constant tensor:
#      x y z
#    x 2.326370 -0.015430 -0.015660 
#    y -0.015430 2.345690 0.111620 
#    z -0.015660 0.111620 2.308300 
# 
# From -- ./inp_files/7995.got.cif
#   From: 2010.05.17/outbox.cif.g08.bks.cpg/sg2_4_cif.got.tgz:7995.got - 2010.06.03 11:33:40.
