data_PCOD9096280
_publ_section_title
;
Structure prediction by ZEFSAII (Michael W. Deem and Ramdas Pophale) SiO2 
 PCOD9096280
Probable space group: P -1
;
_chemical_formula_sum "Si O2"
_cell_formula_units_Z 16
_cell_length_a 19.254445
_cell_length_b 7.853795
_cell_length_c 11.600262
_cell_angle_alpha 119.388257
_cell_angle_beta 137.467322
_cell_angle_gamma 33.493983
_cell_volume 617.327995
_symmetry_space_group_name_H-M "P -1"
_symmetry_group_IT_number 2
_symmetry_cell_setting 'triclinic'
loop_
_space_group_symop_operation_xyz
x,y,z
-x,-y,-z
loop_
_atom_site_type_symbol
_atom_site_label
_atom_site_fract_x
_atom_site_fract_y
_atom_site_fract_z
Si Si1 0.242437 0.821408 0.751125
Si Si2 0.857314 0.829178 0.834823
Si Si3 0.857858 0.426833 0.391883
Si Si4 0.765672 0.886342 0.971377
Si Si5 0.607831 0.155355 0.263708
Si Si6 0.329615 0.634483 0.406089
Si Si7 0.353111 0.309332 0.138130
Si Si8 0.039411 0.934482 0.841132
O O1 0.278572 0.842702 0.931321
O O2 0.343979 0.807261 0.782434
O O3 0.040579 0.169438 0.592428
O O4 0.254710 0.566424 0.676362
O O5 0.030072 0.468565 0.879082
O O6 0.747987 0.089376 0.686931
O O7 0.746125 0.879017 0.808225
O O8 0.919098 0.906734 0.023851
O O9 0.766124 0.773152 0.370354
O O10 0.900373 0.257363 0.266383
O O11 0.648509 0.912138 0.905852
O O12 0.577844 0.381214 0.389316
O O13 0.449962 0.246574 0.123597
O O14 0.416528 0.338354 0.334603
O O15 0.162590 0.790413 0.309219
O O16 0.150603 0.660889 0.986429
#
# Coordination Sequence:
#
# PCOD9096280 Si02
#       8
#     2   2   2   2   2   2   2   2
#     4  11  24  42  68  98 127 171 218 266 319 384
#     4  10  20  35  64  96 120 162 216 267 315 365
#     4  11  24  42  66 100 129 167 220 264 317 390
#     4  11  20  37  62  95 128 161 210 271 317 372
#     4  12  26  44  65  95 136 176 204 265 332 384
#     4  11  21  43  67  92 123 171 219 263 317 379
#     4  11  24  41  65  96 129 168 217 262 326 383
#     4  11  19  41  67  94 125 166 218 268 310 380
#
# _framework density 25.918151000000002
#
# number of rings (size 3 to 8) (size 9 to 14) (size 15 to 20)
#    0.000    1.000    5.000    3.000    0.000    2.000 
#    6.750    1.875    0.000    0.000    0.000    0.000 
#    0.000    0.000    0.000    0.000    0.000    0.000 
#
# Total GULP energy -89464.469929 kJ/mol
# GULP energy per Si atom -5591.529371 kJ/mol
# Density = 2.585916 g / cm^3
# Si number density = 25.918151 Si / 1000 Ang^3
#
#
#
# Elastic Constant Matrix: (Units=GPa)
#
#
# Indices 1 2 3 4 5 6 
#
# 1 138.4733 14.8474 14.6806 9.3058 14.4997 -23.6339
# 2 14.8474 73.6868 31.0315 4.4738 4.4023 -8.4508
# 3 14.6806 31.0315 53.7989 17.0479 4.8413 -13.4276
# 4 9.3058 4.4738 17.0479 38.7981 -6.4224 2.2465
# 5 14.4997 4.4023 4.8413 -6.4224 30.6269 -5.2687
# 6 -23.6339 -8.4508 -13.4276 2.2465 -5.2687 31.8553
#
#
#
# Elastic Compliance Matrix: (Units=1/GPa)
#
#
# Indices 1 2 3 4 5 6 
#
# 1 0.008975 -0.001181 0.001373 -0.003650 -0.003938 0.006530
# 2 -0.001181 0.018364 -0.011647 0.003394 0.000282 -0.001107
# 3 0.001373 -0.011647 0.033250 -0.015181 -0.005328 0.012133
# 4 -0.003650 0.003394 -0.015181 0.035015 0.009414 -0.009119
# 5 -0.003938 0.000282 -0.005328 0.009414 0.037364 0.000423
# 6 0.006530 -0.001107 0.012133 -0.009119 0.000423 0.041771
#
#
# Mechanical properties :
#
#
# Convention : Reuss Voigt Hill
#
# Bulk Modulus (GPa) = 26.54092 43.00867 34.77479
# Shear Modulus (GPa) = 23.78593 33.94934 28.86764
#
# Velocity S-wave (km/s) = 3.03270 3.62314 3.34098
# Velocity P-wave (km/s) = 4.74610 5.84233 5.32252
#
# Compressibility (1/GPa) = 0.03767767
#
# Stress axis : x y z
#
# Youngs Moduli (GPa) = 111.42281 54.45404 30.07548
#
# Poissons Ratio (x) = 0.06429 -0.04128
# Poissons Ratio (y) = 0.13156 0.35030
# Poissons Ratio (z) = -0.15295 0.63425
#
# Static dielectric constant tensor:
#      x y z
#    x 2.164500 -0.023710 0.028070 
#    y -0.023710 2.026790 -0.049040 
#    z 0.028070 -0.049040 1.998600 
# 
# From -- ./inp_files/226509.got.cif
#   From: 2010.05.17/outbox.cif.g08.bks.cpg/sg2_114_cif.got.tgz:226509.got - 2010.06.03 11:33:40.
