data_PCOD9096795
_publ_section_title
;
Structure prediction by ZEFSAII (Michael W. Deem and Ramdas Pophale) SiO2 
 PCOD9096795
Probable space group: P -1
;
_chemical_formula_sum "Si O2"
_cell_formula_units_Z 14
_cell_length_a 13.394111
_cell_length_b 8.173766
_cell_length_c 12.384626
_cell_angle_alpha 84.439792
_cell_angle_beta 48.149890
_cell_angle_gamma 48.752550
_cell_volume 600.311022
_symmetry_space_group_name_H-M "P -1"
_symmetry_group_IT_number 2
_symmetry_cell_setting 'triclinic'
loop_
_space_group_symop_operation_xyz
x,y,z
-x,-y,-z
loop_
_atom_site_type_symbol
_atom_site_label
_atom_site_fract_x
_atom_site_fract_y
_atom_site_fract_z
Si Si1 0.788122 0.977879 0.169307
Si Si2 0.595157 0.891182 0.207774
Si Si3 0.024850 0.976862 0.154772
Si Si4 0.292853 0.609558 0.447809
Si Si5 0.672891 0.957652 0.929164
Si Si6 0.519497 0.645404 0.138490
Si Si7 0.108567 0.463154 0.532598
O O1 0.757585 0.811271 0.185333
O O2 0.900213 0.940639 0.197458
O O3 0.533945 0.300219 0.331245
O O4 0.934561 0.923483 0.972706
O O5 0.337643 0.144590 0.415924
O O6 0.620741 0.696449 0.135773
O O7 0.618455 0.009453 0.090416
O O8 0.873504 0.194053 0.345820
O O9 0.272329 0.671738 0.026016
O O10 0.352526 0.712231 0.332261
O O11 0.178383 0.583506 0.458697
O O12 0.921668 0.647814 0.747849
O O13 0.618470 0.164080 0.879280
O O14 0.500000 0.000000 0.000000
O O15 0.000000 0.500000 0.500000
#
# Coordination Sequence:
#
# PCOD9096795 Si02
#       7
#     2   2   2   2   2   2   2
#     4   9  20  39  63  84 110 154 200 237 277 352
#     4  10  21  39  60  85 116 152 200 235 282 341
#     4  10  20  39  61  85 117 151 190 240 297 333
#     4  10  22  37  57  86 118 150 193 239 288 341
#     4  10  20  36  58  82 114 155 188 230 284 343
#     4  10  22  36  55  90 121 149 189 242 283 346
#     4  11  20  37  59  79 110 158 194 229 281 343
#
# _framework density 23.321245000000001
#
# number of rings (size 3 to 8) (size 9 to 14) (size 15 to 20)
#    0.000    2.000    2.857    1.286    0.000    4.571 
#    0.000   10.714    0.000    0.000    0.000    0.000 
#    0.000    0.000    0.000    0.000    0.000    0.000 
#
# Total GULP energy -78200.067537 kJ/mol
# GULP energy per Si atom -5585.719110 kJ/mol
# Density = 2.326817 g / cm^3
# Si number density = 23.321245 Si / 1000 Ang^3
#
#
#
# Elastic Constant Matrix: (Units=GPa)
#
#
# Indices 1 2 3 4 5 6 
#
# 1 141.0902 7.7108 25.2191 -1.8576 -13.4778 39.2578
# 2 7.7108 34.5661 23.5607 7.9634 7.6183 15.8816
# 3 25.2191 23.5607 156.3770 22.8232 13.3659 9.1977
# 4 -1.8576 7.9634 22.8232 22.0915 5.9555 -9.0717
# 5 -13.4778 7.6183 13.3659 5.9555 32.7539 -3.8222
# 6 39.2578 15.8816 9.1977 -9.0717 -3.8222 26.8005
#
#
#
# Elastic Compliance Matrix: (Units=1/GPa)
#
#
# Indices 1 2 3 4 5 6 
#
# 1 0.024146 0.035828 0.000778 -0.040812 0.000465 -0.070616
# 2 0.035828 0.122787 0.002269 -0.107198 -0.014432 -0.164366
# 3 0.000778 0.002269 0.008692 -0.013287 -0.002544 -0.010327
# 4 -0.040812 -0.107198 -0.013287 0.169302 0.004461 0.185809
# 5 0.000465 -0.014432 -0.002544 0.004461 0.036103 0.015402
# 6 -0.070616 -0.164366 -0.010327 0.185809 0.015402 0.306789
#
#
# Mechanical properties :
#
#
# Convention : Reuss Voigt Hill
#
# Bulk Modulus (GPa) = 4.28495 49.44606 26.86550
# Shear Modulus (GPa) = 7.48659 34.69871 21.09265
#
# Velocity S-wave (km/s) = 1.79365 3.86146 3.01065
# Velocity P-wave (km/s) = 2.47607 6.41322 4.86108
#
# Compressibility (1/GPa) = 0.23337505
#
# Stress axis : x y z
#
# Youngs Moduli (GPa) = 41.41415 8.14416 115.05426
#
# Poissons Ratio (x) = -0.29179 -0.08952
# Poissons Ratio (y) = -1.48379 -0.26102
# Poissons Ratio (z) = -0.03222 -0.01848
#
# Static dielectric constant tensor:
#      x y z
#    x 1.950990 0.009760 -0.032220 
#    y 0.009760 1.914620 0.001750 
#    z -0.032220 0.001750 1.845300 
# 
# From -- ./inp_files/253891.got.cif
#   From: 2010.05.17/outbox.cif.g08.bks.cpg/sg2_127_cif.got.tgz:253891.got - 2010.06.03 11:33:40.
