data_PCOD9096117
_publ_section_title
;
Structure prediction by ZEFSAII (Michael W. Deem and Ramdas Pophale) SiO2 
 PCOD9096117
Probable space group: P -1
;
_chemical_formula_sum "Si O2"
_cell_formula_units_Z 14
_cell_length_a 14.521613
_cell_length_b 15.086331
_cell_length_c 9.330128
_cell_angle_alpha 26.018396
_cell_angle_beta 140.066664
_cell_angle_gamma 138.913538
_cell_volume 560.173357
_symmetry_space_group_name_H-M "P -1"
_symmetry_group_IT_number 2
_symmetry_cell_setting 'triclinic'
loop_
_space_group_symop_operation_xyz
x,y,z
-x,-y,-z
loop_
_atom_site_type_symbol
_atom_site_label
_atom_site_fract_x
_atom_site_fract_y
_atom_site_fract_z
Si Si1 0.895905 0.462242 0.716352
Si Si2 0.435968 0.778562 0.033989
Si Si3 0.692335 0.470403 0.015207
Si Si4 0.610803 0.092842 0.626763
Si Si5 0.877789 0.181015 0.392539
Si Si6 0.969095 0.844759 0.823613
Si Si7 0.426796 0.623468 0.567576
O O1 0.739074 0.516778 0.428152
O O2 0.029029 0.660477 0.611233
O O3 0.887094 0.323059 0.052697
O O4 0.919325 0.306112 0.844960
O O5 0.297969 0.893686 0.684088
O O6 0.595532 0.877167 0.009571
O O7 0.363830 0.577607 0.144255
O O8 0.449285 0.741523 0.270307
O O9 0.815382 0.678177 0.868118
O O10 0.553123 0.500490 0.896749
O O11 0.727724 0.265025 0.428534
O O12 0.564939 0.214551 0.531046
O O13 0.500000 0.000000 0.500000
O O14 0.955903 0.992641 0.726196
O O15 0.000000 0.000000 0.500000
#
# Coordination Sequence:
#
# PCOD9096117 Si02
#       7
#     2   2   2   2   2   2   2
#     4   9  19  36  56  91 127 158 206 263 311 367
#     4  10  20  38  66  96 124 164 218 264 306 377
#     4  11  22  40  63  92 131 167 209 258 326 381
#     4  10  23  41  61  87 130 174 205 255 330 385
#     4   9  17  34  60  86 127 166 201 255 322 366
#     4  10  20  35  62  90 120 171 210 251 314 385
#     4  11  22  38  65  97 125 160 216 273 308 364
#
# _framework density 24.992262
#
# number of rings (size 3 to 8) (size 9 to 14) (size 15 to 20)
#    0.000    2.000    1.429    2.143    2.000    2.286 
#    5.143    0.714    0.000    1.714    0.000    0.000 
#    0.000    0.000    0.000    0.000    0.000    0.000 
#
# Total GULP energy -78032.628667 kJ/mol
# GULP energy per Si atom -5573.759191 kJ/mol
# Density = 2.493538 g / cm^3
# Si number density = 24.992262 Si / 1000 Ang^3
#
#
#
# Elastic Constant Matrix: (Units=GPa)
#
#
# Indices 1 2 3 4 5 6 
#
# 1 93.6079 42.0390 23.9785 -8.2484 -2.4174 0.0842
# 2 42.0390 115.4797 47.4478 -18.9140 -24.7670 5.3767
# 3 23.9785 47.4478 46.0916 -5.9563 -16.4712 14.1488
# 4 -8.2484 -18.9140 -5.9563 27.0478 1.0589 -2.6948
# 5 -2.4174 -24.7670 -16.4712 1.0589 39.4805 2.6644
# 6 0.0842 5.3767 14.1488 -2.6948 2.6644 57.6737
#
#
#
# Elastic Compliance Matrix: (Units=1/GPa)
#
#
# Indices 1 2 3 4 5 6 
#
# 1 0.013582 -0.003564 -0.005160 0.000836 -0.003700 0.001788
# 2 -0.003564 0.018418 -0.014978 0.008523 0.004714 0.002143
# 3 -0.005160 -0.014978 0.046355 -0.003304 0.010432 -0.010604
# 4 0.000836 0.008523 -0.003304 0.042538 0.002752 0.001875
# 5 -0.003700 0.004714 0.010432 0.002752 0.032633 -0.004372
# 6 0.001788 0.002143 -0.010604 0.001875 -0.004372 0.020028
#
#
# Mechanical properties :
#
#
# Convention : Reuss Voigt Hill
#
# Bulk Modulus (GPa) = 32.30884 53.56775 42.93829
# Shear Modulus (GPa) = 21.61937 34.28800 27.95368
#
# Velocity S-wave (km/s) = 2.94435 3.70800 3.34802
# Velocity P-wave (km/s) = 4.95122 6.30972 5.67129
#
# Compressibility (1/GPa) = 0.03095128
#
# Stress axis : x y z
#
# Youngs Moduli (GPa) = 73.62826 54.29405 21.57275
#
# Poissons Ratio (x) = 0.19351 0.11131
# Poissons Ratio (y) = 0.26241 0.32311
# Poissons Ratio (z) = 0.37991 0.81321
#
# Static dielectric constant tensor:
#      x y z
#    x 2.108100 0.078460 0.062460 
#    y 0.078460 1.974420 -0.013970 
#    z 0.062460 -0.013970 2.197040 
# 
# From -- ./inp_files/314421.got.cif
#   From: 2010.05.17/outbox.cif.g08.bks.cpg/sg2_158_cif.got.tgz:314421.got - 2010.06.03 11:33:40.
