data_PCOD9096029
_publ_section_title
;
Structure prediction by ZEFSAII (Michael W. Deem and Ramdas Pophale) SiO2 
 PCOD9096029
Probable space group: P -1
;
_chemical_formula_sum "Si O2"
_cell_formula_units_Z 16
_cell_length_a 11.074986
_cell_length_b 11.140324
_cell_length_c 10.214384
_cell_angle_alpha 61.267807
_cell_angle_beta 84.535018
_cell_angle_gamma 50.597844
_cell_volume 811.895045
_symmetry_space_group_name_H-M "P -1"
_symmetry_group_IT_number 2
_symmetry_cell_setting 'triclinic'
loop_
_space_group_symop_operation_xyz
x,y,z
-x,-y,-z
loop_
_atom_site_type_symbol
_atom_site_label
_atom_site_fract_x
_atom_site_fract_y
_atom_site_fract_z
Si Si1 0.673437 0.440133 0.523568
Si Si2 0.082707 0.298644 0.657243
Si Si3 0.448527 0.173369 0.322673
Si Si4 0.614325 0.800855 0.400445
Si Si5 0.340840 0.523275 0.008957
Si Si6 0.862778 0.258650 0.325862
Si Si7 0.824973 0.965971 0.451027
Si Si8 0.895488 0.217399 0.868590
O O1 0.500000 0.500000 0.500000
O O2 0.624564 0.636332 0.445553
O O3 0.777527 0.337632 0.434960
O O4 0.776339 0.304413 0.707729
O O5 0.266798 0.210404 0.705008
O O6 0.100859 0.173990 0.604666
O O7 0.000000 0.500000 0.500000
O O8 0.001108 0.275069 0.794723
O O9 0.334379 0.244527 0.425519
O O10 0.394209 0.335545 0.152227
O O11 0.463849 0.020536 0.320972
O O12 0.630531 0.080782 0.407514
O O13 0.216228 0.676895 0.048688
O O14 0.500000 0.500000 0.000000
O O15 0.246832 0.580922 0.852035
O O16 0.053049 0.159089 0.374325
O O17 0.850360 0.109525 0.360445
O O18 0.000000 0.000000 0.000000
#
# Coordination Sequence:
#
# PCOD9096029 Si02
#       8
#     2   2   2   2   2   2   2   2
#     4  12  23  43  66  97 130 174 219 273 334 404
#     4  11  19  40  69  91 129 170 233 267 319 400
#     4  10  20  39  67  93 127 168 232 269 323 390
#     4  10  21  39  68  96 121 176 232 269 320 401
#     4  12  23  40  62  99 136 175 216 279 332 393
#     4  11  22  36  60  93 137 167 214 267 343 387
#     4  10  20  35  61  94 124 175 214 269 319 396
#     4  12  26  42  67 104 131 172 227 278 328 384
#
# _framework density 19.706980999999999
#
# number of rings (size 3 to 8) (size 9 to 14) (size 15 to 20)
#    0.000    1.000    5.000    2.250    3.500    0.000 
#    0.000    0.625    2.750    9.750    0.000    0.000 
#    0.000    0.000    0.000    0.000    0.000    0.000 
#
# Total GULP energy -89127.690046 kJ/mol
# GULP energy per Si atom -5570.480628 kJ/mol
# Density = 1.966213 g / cm^3
# Si number density = 19.706981 Si / 1000 Ang^3
#
#
#
# Elastic Constant Matrix: (Units=GPa)
#
#
# Indices 1 2 3 4 5 6 
#
# 1 83.7083 37.6640 34.3086 -7.3450 -1.9281 -5.3742
# 2 37.6640 129.1995 31.1374 -11.0678 -15.0332 21.1648
# 3 34.3086 31.1374 98.6621 -14.5870 1.0438 -6.5782
# 4 -7.3450 -11.0678 -14.5870 38.9698 0.1996 -9.6735
# 5 -1.9281 -15.0332 1.0438 0.1996 36.4718 -3.9619
# 6 -5.3742 21.1648 -6.5782 -9.6735 -3.9619 42.1754
#
#
#
# Elastic Compliance Matrix: (Units=1/GPa)
#
#
# Indices 1 2 3 4 5 6 
#
# 1 0.015719 -0.004262 -0.003663 0.001336 -0.000411 0.003838
# 2 -0.004262 0.010999 -0.002458 -0.000140 0.003714 -0.006129
# 3 -0.003663 -0.002458 0.013103 0.004445 -0.001202 0.003717
# 4 0.001336 -0.000140 0.004445 0.029456 0.000566 0.007743
# 5 -0.000411 0.003714 -0.001202 0.000566 0.029041 0.000754
# 6 0.003838 -0.006129 0.003717 0.007743 0.000754 0.029702
#
#
# Mechanical properties :
#
#
# Convention : Reuss Voigt Hill
#
# Bulk Modulus (GPa) = 52.47952 57.53220 55.00586
# Shear Modulus (GPa) = 32.22945 37.42074 34.82509
#
# Velocity S-wave (km/s) = 4.04844 4.36232 4.20830
# Velocity P-wave (km/s) = 6.96713 7.39123 7.18231
#
# Compressibility (1/GPa) = 0.01905505
#
# Stress axis : x y z
#
# Youngs Moduli (GPa) = 63.61544 90.91856 76.31869
#
# Poissons Ratio (x) = 0.38747 0.27959
# Poissons Ratio (y) = 0.27111 0.18758
# Poissons Ratio (z) = 0.23306 0.22347
#
# Static dielectric constant tensor:
#      x y z
#    x 1.761100 -0.045190 -0.005750 
#    y -0.045190 1.755730 -0.013980 
#    z -0.005750 -0.013980 1.702660 
# 
# From -- ./inp_files/262040.got.cif
#   From: 2010.05.17/outbox.cif.g08.bks.cpg/sg2_132_cif.got.tgz:262040.got - 2010.06.03 11:33:40.
