data_PCOD9096190
_publ_section_title
;
Structure prediction by ZEFSAII (Michael W. Deem and Ramdas Pophale) SiO2 
 PCOD9096190
Probable space group: P -1
;
_chemical_formula_sum "Si O2"
_cell_formula_units_Z 16
_cell_length_a 11.383771
_cell_length_b 8.979981
_cell_length_c 13.346964
_cell_angle_alpha 99.772645
_cell_angle_beta 33.152665
_cell_angle_gamma 89.863672
_cell_volume 708.409260
_symmetry_space_group_name_H-M "P -1"
_symmetry_group_IT_number 2
_symmetry_cell_setting 'triclinic'
loop_
_space_group_symop_operation_xyz
x,y,z
-x,-y,-z
loop_
_atom_site_type_symbol
_atom_site_label
_atom_site_fract_x
_atom_site_fract_y
_atom_site_fract_z
Si Si1 0.297062 0.484039 0.713204
Si Si2 0.046597 0.296420 0.146708
Si Si3 0.799375 0.194448 0.846292
Si Si4 0.671580 0.851674 0.250602
Si Si5 0.993848 0.552678 0.357008
Si Si6 0.826984 0.038670 0.330075
Si Si7 0.510639 0.416154 0.228600
Si Si8 0.364113 0.630572 0.190798
O O1 0.500000 0.500000 0.500000
O O2 0.072122 0.559896 0.823886
O O3 0.315876 0.309481 0.717000
O O4 0.316763 0.587569 0.807367
O O5 0.104699 0.379601 0.213943
O O6 0.864411 0.205546 0.294831
O O7 0.232684 0.182646 0.933309
O O8 0.946787 0.320247 0.745643
O O9 0.692424 0.206548 0.811588
O O10 0.966523 0.042072 0.754659
O O11 0.603138 0.271347 0.072091
O O12 0.811772 0.943887 0.228013
O O13 0.411276 0.944725 0.446192
O O14 0.124952 0.590331 0.364705
O O15 0.732019 0.579884 0.556490
O O16 0.480770 0.579943 0.206797
O O17 0.500000 0.500000 0.000000
#
# Coordination Sequence:
#
# PCOD9096190 Si02
#       8
#     2   2   2   2   2   2   2   2
#     4  12  22  38  60  94 120 154 197 251 291 354
#     4  12  23  39  59  92 122 158 200 243 299 355
#     4   9  21  36  59  89 115 151 197 245 292 348
#     4  11  24  38  59  81 128 163 199 240 304 343
#     4  10  20  35  63  88 117 149 199 248 297 344
#     4  11  23  40  56  86 125 164 196 242 291 368
#     4  11  19  36  63  90 120 149 197 251 299 338
#     4   8  19  37  60  92 113 149 198 255 294 345
#
# _framework density 22.585815
#
# number of rings (size 3 to 8) (size 9 to 14) (size 15 to 20)
#    0.750    0.750    2.500    3.375    0.000    1.000 
#    0.000    0.000    0.000    6.000    0.000    0.000 
#    0.000    0.000    0.000    0.000    0.000    0.000 
#
# Total GULP energy -89286.776159 kJ/mol
# GULP energy per Si atom -5580.423510 kJ/mol
# Density = 2.253441 g / cm^3
# Si number density = 22.585815 Si / 1000 Ang^3
#
#
#
# Elastic Constant Matrix: (Units=GPa)
#
#
# Indices 1 2 3 4 5 6 
#
# 1 54.4860 1.5798 -4.4605 4.0769 -2.6316 -16.0117
# 2 1.5798 41.4203 -7.5706 1.5072 -4.1967 -6.3259
# 3 -4.4605 -7.5706 82.1975 -0.9549 -2.2359 -5.8792
# 4 4.0769 1.5072 -0.9549 26.6272 -3.7400 -12.0208
# 5 -2.6316 -4.1967 -2.2359 -3.7400 21.2022 1.9510
# 6 -16.0117 -6.3259 -5.8792 -12.0208 1.9510 35.7530
#
#
#
# Elastic Compliance Matrix: (Units=1/GPa)
#
#
# Indices 1 2 3 4 5 6 
#
# 1 0.021644 0.001408 0.002168 0.001919 0.002538 0.010806
# 2 0.001408 0.026066 0.003084 0.001940 0.005440 0.006105
# 3 0.002168 0.003084 0.012959 0.002198 0.002242 0.004265
# 4 0.001919 0.001940 0.002198 0.045736 0.007400 0.016538
# 5 0.002538 0.005440 0.002242 0.007400 0.049893 0.002233
# 6 0.010806 0.006105 0.004265 0.016538 0.002233 0.040029
#
#
# Mechanical properties :
#
#
# Convention : Reuss Voigt Hill
#
# Bulk Modulus (GPa) = 13.51502 17.46681 15.49091
# Shear Modulus (GPa) = 24.07684 29.28683 26.68183
#
# Velocity S-wave (km/s) = 3.26853 3.60487 3.44081
# Velocity P-wave (km/s) = 4.49903 5.00770 4.76016
#
# Compressibility (1/GPa) = 0.07399177
#
# Stress axis : x y z
#
# Youngs Moduli (GPa) = 46.20113 38.36454 77.16589
#
# Poissons Ratio (x) = -0.05403 -0.16733
# Poissons Ratio (y) = -0.06507 -0.23800
# Poissons Ratio (z) = -0.10019 -0.11833
#
# Static dielectric constant tensor:
#      x y z
#    x 1.880340 -0.031980 0.008390 
#    y -0.031980 1.843380 -0.008760 
#    z 0.008390 -0.008760 1.873420 
# 
# From -- ./inp_files/526479.got.cif
#   From: 2010.05.17/outbox.cif.g08.bks.cpg/sg2_264_cif.got.tgz:526479.got - 2010.06.03 11:33:40.
