data_PCOD9096357
_publ_section_title
;
Structure prediction by ZEFSAII (Michael W. Deem and Ramdas Pophale) SiO2 
 PCOD9096357
Probable space group: P -1
;
_chemical_formula_sum "Si O2"
_cell_formula_units_Z 16
_cell_length_a 18.612129
_cell_length_b 14.973165
_cell_length_c 12.684355
_cell_angle_alpha 134.284629
_cell_angle_beta 149.951293
_cell_angle_gamma 23.926552
_cell_volume 638.188896
_symmetry_space_group_name_H-M "P -1"
_symmetry_group_IT_number 2
_symmetry_cell_setting 'triclinic'
loop_
_space_group_symop_operation_xyz
x,y,z
-x,-y,-z
loop_
_atom_site_type_symbol
_atom_site_label
_atom_site_fract_x
_atom_site_fract_y
_atom_site_fract_z
Si Si1 0.116268 0.272703 0.471148
Si Si2 0.250390 0.710105 0.195765
Si Si3 0.567272 0.863315 0.068934
Si Si4 0.095828 0.371381 0.216473
Si Si5 0.858133 0.996589 0.253330
Si Si6 0.693614 0.509726 0.714890
Si Si7 0.675175 0.030708 0.715795
Si Si8 0.404196 0.499187 0.981200
O O1 0.000000 0.500000 0.500000
O O2 0.396002 0.078489 0.734992
O O3 0.191934 0.146226 0.357220
O O4 0.878733 0.363980 0.295626
O O5 0.398673 0.718369 0.446785
O O6 0.333355 0.534112 0.238182
O O7 0.354940 0.603980 0.120708
O O8 0.903758 0.970318 0.970203
O O9 0.867908 0.573276 0.184507
O O10 0.324511 0.947807 0.852598
O O11 0.500000 0.000000 0.000000
O O12 0.273636 0.107716 0.238955
O O13 0.342744 0.290876 0.476723
O O14 0.869968 0.505870 0.948215
O O15 0.640954 0.217499 0.075918
O O16 0.000000 0.000000 0.500000
O O17 0.099297 0.735708 0.289341
O O18 0.500000 0.500000 0.000000
#
# Coordination Sequence:
#
# PCOD9096357 Si02
#       8
#     2   2   2   2   2   2   2   2
#     4  11  20  40  68  94 136 185 238 290 349 419
#     4   9  19  38  61 100 134 180 227 287 350 421
#     4  12  27  44  68 105 144 184 240 303 361 429
#     4  10  20  37  66 100 131 180 235 291 354 420
#     4  12  24  42  70 101 138 192 239 288 361 429
#     4  10  20  35  69 100 136 185 238 287 355 432
#     4   9  18  35  63  97 130 174 237 283 344 419
#     4  11  24  42  68 103 142 183 242 299 351 423
#
# _framework density 25.070947
#
# number of rings (size 3 to 8) (size 9 to 14) (size 15 to 20)
#    0.000    1.500    3.750    2.250    3.500    1.000 
#    0.000    3.125    0.000    6.000    0.000    0.000 
#    0.000    0.000    0.000    0.000    0.000    0.000 
#
# Total GULP energy -89397.929922 kJ/mol
# GULP energy per Si atom -5587.370620 kJ/mol
# Density = 2.501388 g / cm^3
# Si number density = 25.070947 Si / 1000 Ang^3
#
#
#
# Elastic Constant Matrix: (Units=GPa)
#
#
# Indices 1 2 3 4 5 6 
#
# 1 156.0523 33.5838 57.1958 1.2959 23.2385 -3.2635
# 2 33.5838 51.6284 24.4823 -3.7594 1.6830 -12.2493
# 3 57.1958 24.4823 232.0689 -0.5873 28.0905 -8.9813
# 4 1.2959 -3.7594 -0.5873 21.6636 -17.0251 -3.5806
# 5 23.2385 1.6830 28.0905 -17.0251 44.6713 -5.4060
# 6 -3.2635 -12.2493 -8.9813 -3.5806 -5.4060 29.9551
#
#
#
# Elastic Compliance Matrix: (Units=1/GPa)
#
#
# Indices 1 2 3 4 5 6 
#
# 1 0.009462 -0.007310 -0.000776 -0.009083 -0.008196 -0.004756
# 2 -0.007310 0.029688 -0.002253 0.018125 0.012842 0.015153
# 3 -0.000776 -0.002253 0.005220 -0.003666 -0.004270 -0.000649
# 4 -0.009083 0.018125 -0.003666 0.086814 0.042257 0.023326
# 5 -0.008196 0.012842 -0.004270 0.042257 0.046965 0.016605
# 6 -0.004756 0.015153 -0.000649 0.023326 0.016605 0.044652
#
#
# Mechanical properties :
#
#
# Convention : Reuss Voigt Hill
#
# Bulk Modulus (GPa) = 42.20343 74.47482 58.33913
# Shear Modulus (GPa) = 19.89057 40.89051 30.39054
#
# Velocity S-wave (km/s) = 2.81974 4.04294 3.48542
# Velocity P-wave (km/s) = 5.24132 7.18080 6.28631
#
# Compressibility (1/GPa) = 0.02369475
#
# Stress axis : x y z
#
# Youngs Moduli (GPa) = 105.68550 33.68323 191.55724
#
# Poissons Ratio (x) = 0.24621 0.14862
# Poissons Ratio (y) = 0.77251 0.43151
# Poissons Ratio (z) = 0.08199 0.07588
#
# Static dielectric constant tensor:
#      x y z
#    x 1.205200 0.135950 -0.119240 
#    y 0.135950 1.933500 0.038610 
#    z -0.119240 0.038610 2.080830 
# 
# From -- ./inp_files/466126.got.cif
#   From: 2010.05.17/outbox.cif.g08.bks.cpg/sg2_234_cif.got.tgz:466126.got - 2010.06.03 11:33:40.
