data_PCOD9096366
_publ_section_title
;
Structure prediction by ZEFSAII (Michael W. Deem and Ramdas Pophale) SiO2 
 PCOD9096366
Probable space group: P -1
;
_chemical_formula_sum "Si O2"
_cell_formula_units_Z 15
_cell_length_a 7.504422
_cell_length_b 14.861262
_cell_length_c 9.532763
_cell_angle_alpha 89.561080
_cell_angle_beta 130.917911
_cell_angle_gamma 63.574031
_cell_volume 645.301438
_symmetry_space_group_name_H-M "P -1"
_symmetry_group_IT_number 2
_symmetry_cell_setting 'triclinic'
loop_
_space_group_symop_operation_xyz
x,y,z
-x,-y,-z
loop_
_atom_site_type_symbol
_atom_site_label
_atom_site_fract_x
_atom_site_fract_y
_atom_site_fract_z
Si Si1 0.688490 0.264657 0.184453
Si Si2 0.272142 0.666886 0.343972
Si Si3 0.432292 0.784562 0.593969
Si Si4 0.013362 0.367510 0.324791
Si Si5 0.000000 0.000000 0.000000
Si Si6 0.207960 0.019858 0.405851
Si Si7 0.509899 0.261078 0.785169
Si Si8 0.083695 0.519156 0.196720
O O1 0.510465 0.275225 0.227871
O O2 0.758780 0.353595 0.205643
O O3 0.549088 0.264650 0.968560
O O4 0.999837 0.141876 0.364685
O O5 0.195355 0.775056 0.389562
O O6 0.357326 0.683976 0.233454
O O7 0.060729 0.630762 0.214271
O O8 0.568033 0.573017 0.583720
O O9 0.728882 0.721911 0.652482
O O10 0.307541 0.912517 0.550445
O O11 0.178539 0.331153 0.558863
O O12 0.930828 0.485267 0.227412
O O13 0.041987 0.019584 0.184734
O O14 0.302870 0.867768 0.165912
O O15 0.500000 0.000000 0.500000
O O16 0.000000 0.500000 0.000000
#
# Coordination Sequence:
#
# PCOD9096366 Si02
#       8
#     2   2   2   2   1   2   2   2
#     4  11  21  33  59  80 112 155 184 229 278 328
#     4   9  18  35  55  80 117 143 176 246 274 321
#     4  10  20  37  54  85 114 145 193 228 279 329
#     4  10  20  39  56  80 115 143 186 239 276 331
#     4  10  16  30  54  80 104 150 186 218 274 336
#     4  11  19  35  56  78 113 151 190 229 271 324
#     4   9  18  32  53  79 112 144 187 223 277 326
#     4   9  17  32  61  84 102 144 194 221 284 341
#
# _framework density 23.244951
#
# number of rings (size 3 to 8) (size 9 to 14) (size 15 to 20)
#    0.000    2.400    4.000    1.200    0.000    0.000 
#    0.000    7.333    0.000   30.400    0.000    0.000 
#    0.000    0.000    0.000    0.000    0.000    0.000 
#
# Total GULP energy -83510.921652 kJ/mol
# GULP energy per Si atom -5567.394777 kJ/mol
# Density = 2.319204 g / cm^3
# Si number density = 23.244951 Si / 1000 Ang^3
#
#
#
# Elastic Constant Matrix: (Units=GPa)
#
#
# Indices 1 2 3 4 5 6 
#
# 1 69.0601 39.3156 56.3665 0.3785 0.2500 11.2107
# 2 39.3156 103.2046 18.9611 3.1913 12.5964 18.4040
# 3 56.3665 18.9611 114.6907 12.9187 -20.9777 11.5643
# 4 0.3785 3.1913 12.9187 15.2062 -8.3643 13.3623
# 5 0.2500 12.5964 -20.9777 -8.3643 32.5259 -2.2003
# 6 11.2107 18.4040 11.5643 13.3623 -2.2003 26.3648
#
#
#
# Elastic Compliance Matrix: (Units=1/GPa)
#
#
# Indices 1 2 3 4 5 6 
#
# 1 0.037880 -0.008268 -0.019500 0.031787 -0.002718 -0.018119
# 2 -0.008268 0.014557 0.001507 -0.000339 -0.005202 -0.007569
# 3 -0.019500 0.001507 0.021020 -0.021710 0.008197 0.009708
# 4 0.031787 -0.000339 -0.021710 0.178434 0.025543 -0.092060
# 5 -0.002718 -0.005202 0.008197 0.025543 0.044089 -0.008075
# 6 -0.018119 -0.007569 0.009708 -0.092060 -0.008075 0.092644
#
#
# Mechanical properties :
#
#
# Convention : Reuss Voigt Hill
#
# Bulk Modulus (GPa) = 47.76891 57.36019 52.56455
# Shear Modulus (GPa) = 11.15760 26.30685 18.73223
#
# Velocity S-wave (km/s) = 2.19327 3.36776 2.84185
# Velocity P-wave (km/s) = 5.19699 6.31287 5.78192
#
# Compressibility (1/GPa) = 0.02093412
#
# Stress axis : x y z
#
# Youngs Moduli (GPa) = 26.39916 68.69330 47.57462
#
# Poissons Ratio (x) = 0.56794 0.92772
# Poissons Ratio (y) = 0.21826 -0.07167
# Poissons Ratio (z) = 0.51479 -0.10349
#
# Static dielectric constant tensor:
#      x y z
#    x 1.345830 0.441400 -0.341820 
#    y 0.441400 1.560740 0.259930 
#    z -0.341820 0.259930 1.642270 
# 
# From -- ./inp_files/201648.got.cif
#   From: 2010.05.17/outbox.cif.g08.bks.cpg/sg2_101_cif.got.tgz:201648.got - 2010.06.03 11:33:40.
