data_PCOD9096877
_publ_section_title
;
Structure prediction by ZEFSAII (Michael W. Deem and Ramdas Pophale) SiO2 
 PCOD9096877
Probable space group: P -1
;
_chemical_formula_sum "Si O2"
_cell_formula_units_Z 14
_cell_length_a 8.937611
_cell_length_b 15.435516
_cell_length_c 7.896942
_cell_angle_alpha 128.970926
_cell_angle_beta 68.903168
_cell_angle_gamma 76.452326
_cell_volume 610.430089
_symmetry_space_group_name_H-M "P -1"
_symmetry_group_IT_number 2
_symmetry_cell_setting 'triclinic'
loop_
_space_group_symop_operation_xyz
x,y,z
-x,-y,-z
loop_
_atom_site_type_symbol
_atom_site_label
_atom_site_fract_x
_atom_site_fract_y
_atom_site_fract_z
Si Si1 0.418357 0.892777 0.714122
Si Si2 0.735778 0.813543 0.786789
Si Si3 0.693216 0.312129 0.503967
Si Si4 0.749585 0.407020 0.282549
Si Si5 0.994984 0.506140 0.213322
Si Si6 0.677645 0.346517 0.917585
Si Si7 0.421084 0.235191 0.872170
O O1 0.607635 0.841231 0.700233
O O2 0.353736 0.794144 0.655526
O O3 0.469913 0.871863 0.466007
O O4 0.252166 0.060229 0.034451
O O5 0.942265 0.651089 0.478905
O O6 0.616845 0.819010 0.009698
O O7 0.820346 0.318258 0.315568
O O8 0.782368 0.277822 0.612655
O O9 0.473491 0.477716 0.816457
O O10 0.500000 0.500000 0.500000
O O11 0.814757 0.504477 0.353562
O O12 0.827608 0.307370 0.963167
O O13 0.000000 0.500000 0.000000
O O14 0.203915 0.369916 0.044436
O O15 0.542677 0.295436 0.942905
#
# Coordination Sequence:
#
# PCOD9096877 Si02
#       7
#     2   2   2   2   2   2   2
#     4  10  21  37  61  91 123 159 207 251 289 374
#     4  11  21  37  59  89 124 168 196 245 311 365
#     4   9  17  31  53  83 109 145 199 239 284 342
#     4  10  20  36  58  86 116 159 199 247 293 364
#     4  12  25  40  62  94 131 152 200 266 313 345
#     4   9  18  31  60  85 113 152 204 247 287 352
#     4  11  22  39  62  96 122 156 203 264 303 352
#
# _framework density 22.934649
#
# number of rings (size 3 to 8) (size 9 to 14) (size 15 to 20)
#    0.000    1.714    1.429    5.143    6.000    0.000 
#    0.000    0.000    0.000    4.286    0.000    0.000 
#    0.000    0.000    0.000    0.000    0.000    0.000 
#
# Total GULP energy -78253.488748 kJ/mol
# GULP energy per Si atom -5589.534911 kJ/mol
# Density = 2.288245 g / cm^3
# Si number density = 22.934649 Si / 1000 Ang^3
#
#
#
# Elastic Constant Matrix: (Units=GPa)
#
#
# Indices 1 2 3 4 5 6 
#
# 1 70.2769 15.4783 31.8297 3.8256 31.3816 12.0384
# 2 15.4783 82.1647 27.2690 -20.6449 26.6202 8.7004
# 3 31.8297 27.2690 108.0387 8.1688 41.2890 9.3706
# 4 3.8256 -20.6449 8.1688 34.9678 1.3594 14.8675
# 5 31.3816 26.6202 41.2890 1.3594 42.9950 -0.6518
# 6 12.0384 8.7004 9.3706 14.8675 -0.6518 42.9993
#
#
#
# Elastic Compliance Matrix: (Units=1/GPa)
#
#
# Indices 1 2 3 4 5 6 
#
# 1 0.023680 0.004271 0.000221 0.004704 -0.020433 -0.009478
# 2 0.004271 0.023880 -0.000806 0.020072 -0.017961 -0.013064
# 3 0.000221 -0.000806 0.015260 -0.002399 -0.014280 -0.002611
# 4 0.004704 0.020072 -0.002399 0.050717 -0.015503 -0.022627
# 5 -0.020433 -0.017961 -0.014280 -0.015503 0.063781 0.018794
# 6 -0.009478 -0.013064 -0.002611 -0.022627 0.018794 0.037230
#
#
# Mechanical properties :
#
#
# Convention : Reuss Voigt Hill
#
# Bulk Modulus (GPa) = 14.24673 45.51491 29.88082
# Shear Modulus (GPa) = 21.68503 36.58598 29.13550
#
# Velocity S-wave (km/s) = 3.07826 3.99836 3.56809
# Velocity P-wave (km/s) = 4.34276 6.41907 5.48015
#
# Compressibility (1/GPa) = 0.07019156
#
# Stress axis : x y z
#
# Youngs Moduli (GPa) = 42.22889 41.87683 65.53277
#
# Poissons Ratio (x) = -0.17887 -0.01445
# Poissons Ratio (y) = -0.18037 0.05281
# Poissons Ratio (z) = -0.00931 0.03375
#
# Static dielectric constant tensor:
#      x y z
#    x 1.876840 -0.044780 -0.005750 
#    y -0.044780 1.951010 -0.033820 
#    z -0.005750 -0.033820 1.892970 
# 
# From -- ./inp_files/208886.got.cif
#   From: 2010.05.17/outbox.cif.g08.bks.cpg/sg2_105_cif.got.tgz:208886.got - 2010.06.03 11:33:40.
