data_PCOD9096330
_publ_section_title
;
Structure prediction by ZEFSAII (Michael W. Deem and Ramdas Pophale) SiO2 
 PCOD9096330
Probable space group: P -1
;
_chemical_formula_sum "Si O2"
_cell_formula_units_Z 16
_cell_length_a 10.482525
_cell_length_b 8.551476
_cell_length_c 14.507173
_cell_angle_alpha 138.216355
_cell_angle_beta 69.041713
_cell_angle_gamma 129.152975
_cell_volume 655.644226
_symmetry_space_group_name_H-M "P -1"
_symmetry_group_IT_number 2
_symmetry_cell_setting 'triclinic'
loop_
_space_group_symop_operation_xyz
x,y,z
-x,-y,-z
loop_
_atom_site_type_symbol
_atom_site_label
_atom_site_fract_x
_atom_site_fract_y
_atom_site_fract_z
Si Si1 0.155233 0.154088 0.132028
Si Si2 0.471158 0.683703 0.659481
Si Si3 0.949837 0.497776 0.750587
Si Si4 0.695211 0.256048 0.562819
Si Si5 0.277109 0.886282 0.706528
Si Si6 0.887888 0.765857 0.348487
Si Si7 0.669980 0.085790 0.946315
Si Si8 0.822285 0.742334 0.154447
O O1 0.111849 0.297541 0.124574
O O2 0.275807 0.442512 0.289163
O O3 0.243037 0.991991 0.032937
O O4 0.989088 0.937307 0.137919
O O5 0.500000 0.500000 0.500000
O O6 0.429401 0.884734 0.705515
O O7 0.299868 0.461339 0.663667
O O8 0.621375 0.886638 0.780900
O O9 0.799243 0.243286 0.614136
O O10 0.113270 0.688730 0.726270
O O11 0.009726 0.375774 0.756968
O O12 0.765042 0.261905 0.447696
O O13 0.500000 0.000000 0.500000
O O14 0.309067 0.196364 0.822894
O O15 0.869308 0.869331 0.301466
O O16 0.000000 0.000000 0.500000
O O17 0.763377 0.415742 0.034880
O O18 0.500000 0.000000 0.000000
#
# Coordination Sequence:
#
# PCOD9096330 Si02
#       8
#     2   2   2   2   2   2   2   2
#     4   9  23  42  64  93 128 183 229 274 335 412
#     4  11  26  46  68 104 140 176 229 294 337 398
#     4   8  20  38  61  90 133 175 221 276 328 404
#     4  10  20  35  66  98 135 168 229 282 344 393
#     4  10  21  39  66  96 132 178 224 274 343 407
#     4  11  23  39  67 103 138 178 227 279 340 405
#     4  12  25  46  69  97 143 180 227 283 350 408
#     4  11  24  42  72  96 136 189 230 274 346 417
#
# _framework density 24.403478
#
# number of rings (size 3 to 8) (size 9 to 14) (size 15 to 20)
#    0.750    1.000    1.250    2.250    7.000    3.500 
#    0.000    0.625    2.750    0.000    0.000    0.000 
#    0.000    0.000    0.000    0.000    0.000    0.000 
#
# Total GULP energy -89426.426399 kJ/mol
# GULP energy per Si atom -5589.151650 kJ/mol
# Density = 2.434793 g / cm^3
# Si number density = 24.403478 Si / 1000 Ang^3
#
#
#
# Elastic Constant Matrix: (Units=GPa)
#
#
# Indices 1 2 3 4 5 6 
#
# 1 144.7928 31.0147 16.1772 5.5010 -31.3595 -27.2754
# 2 31.0147 66.3865 18.8520 12.1977 3.0244 -8.3588
# 3 16.1772 18.8520 119.2532 13.1051 8.5473 3.0370
# 4 5.5010 12.1977 13.1051 37.2427 -4.8591 0.6164
# 5 -31.3595 3.0244 8.5473 -4.8591 42.1862 7.0946
# 6 -27.2754 -8.3588 3.0370 0.6164 7.0946 27.2094
#
#
#
# Elastic Compliance Matrix: (Units=1/GPa)
#
#
# Indices 1 2 3 4 5 6 
#
# 1 0.011161 -0.004296 -0.001731 0.001246 0.007751 0.008012
# 2 -0.004296 0.019257 -0.001501 -0.005919 -0.005515 0.003349
# 3 -0.001731 -0.001501 0.009459 -0.002937 -0.003031 -0.002396
# 4 0.001246 -0.005919 -0.002937 0.030445 0.005866 -0.002460
# 5 0.007751 -0.005515 -0.003031 0.005866 0.031476 -0.001925
# 6 0.008012 0.003349 -0.002396 -0.002460 -0.001925 0.046637
#
#
# Mechanical properties :
#
#
# Convention : Reuss Voigt Hill
#
# Bulk Modulus (GPa) = 40.29029 51.39115 45.84072
# Shear Modulus (GPa) = 29.10962 38.95357 34.03159
#
# Velocity S-wave (km/s) = 3.45751 3.99962 3.73840
# Velocity P-wave (km/s) = 5.69957 6.51413 6.12042
#
# Compressibility (1/GPa) = 0.02481988
#
# Stress axis : x y z
#
# Youngs Moduli (GPa) = 89.59958 51.92911 105.72273
#
# Poissons Ratio (x) = 0.22308 0.18306
# Poissons Ratio (y) = 0.38490 0.15869
# Poissons Ratio (z) = 0.15514 0.07795
#
# Static dielectric constant tensor:
#      x y z
#    x 1.967070 -0.053120 -0.019550 
#    y -0.053120 1.890080 0.013330 
#    z -0.019550 0.013330 2.001630 
# 
# From -- ./inp_files/516384.got.cif
#   From: 2010.05.17/outbox.cif.g08.bks.cpg/sg2_259_cif.got.tgz:516384.got - 2010.06.03 11:33:40.
