data_PCOD9096005
_publ_section_title
;
Structure prediction by ZEFSAII (Michael W. Deem and Ramdas Pophale) SiO2 
 PCOD9096005
Probable space group: P -1
;
_chemical_formula_sum "Si O2"
_cell_formula_units_Z 15
_cell_length_a 13.181042
_cell_length_b 8.941905
_cell_length_c 9.140870
_cell_angle_alpha 91.319553
_cell_angle_beta 81.602148
_cell_angle_gamma 147.686982
_cell_volume 559.367555
_symmetry_space_group_name_H-M "P -1"
_symmetry_group_IT_number 2
_symmetry_cell_setting 'triclinic'
loop_
_space_group_symop_operation_xyz
x,y,z
-x,-y,-z
loop_
_atom_site_type_symbol
_atom_site_label
_atom_site_fract_x
_atom_site_fract_y
_atom_site_fract_z
Si Si1 0.173461 0.555974 0.291170
Si Si2 0.500000 0.000000 0.500000
Si Si3 0.369479 0.234526 0.218818
Si Si4 0.979903 0.054289 0.166716
Si Si5 0.784027 0.296384 0.022976
Si Si6 0.259784 0.501362 0.757722
Si Si7 0.370951 0.182242 0.871431
Si Si8 0.236854 0.875083 0.492611
O O1 0.963511 0.362917 0.383187
O O2 0.258832 0.748579 0.139602
O O3 0.299129 0.783822 0.403447
O O4 0.135167 0.342522 0.235827
O O5 0.325691 0.711510 0.640789
O O6 0.426411 0.098534 0.555382
O O7 0.564574 0.384436 0.221469
O O8 0.439228 0.492638 0.213041
O O9 0.230417 0.990439 0.367706
O O10 0.325172 0.157948 0.054762
O O11 0.905032 0.817745 0.268996
O O12 0.809956 0.967265 0.178304
O O13 0.000000 0.000000 0.000000
O O14 0.799170 0.479879 0.085966
O O15 0.000000 0.500000 0.000000
O O16 0.631684 0.999253 0.125849
#
# Coordination Sequence:
#
# PCOD9096005 Si02
#       8
#     2   1   2   2   2   2   2   2
#     4  11  22  38  64  91 124 162 208 255 309 367
#     4  10  22  44  60  88 126 168 204 254 310 374
#     4   9  20  40  57  88 124 162 197 257 314 370
#     4  11  21  40  62  92 125 159 202 260 312 363
#     4  12  20  35  62  95 117 162 209 256 311 365
#     4  10  22  39  62  85 127 160 205 258 307 370
#     4  10  20  35  61  92 118 156 209 252 310 366
#     4  10  22  42  64  89 127 165 209 256 309 373
#
# _framework density 26.815999000000001
#
# number of rings (size 3 to 8) (size 9 to 14) (size 15 to 20)
#    0.000    1.600    4.000    0.800    0.000    0.533 
#    2.400    2.667    0.000    0.000    0.000    0.000 
#    0.000    0.000    0.000    0.000    0.000    0.000 
#
# Total GULP energy -83607.394525 kJ/mol
# GULP energy per Si atom -5573.826302 kJ/mol
# Density = 2.675496 g / cm^3
# Si number density = 26.815999 Si / 1000 Ang^3
#
#
#
# Elastic Constant Matrix: (Units=GPa)
#
#
# Indices 1 2 3 4 5 6 
#
# 1 115.4538 32.5580 31.3227 -5.1360 15.0999 -19.3794
# 2 32.5580 181.9481 57.2770 3.0022 8.6269 -49.5581
# 3 31.3227 57.2770 132.3573 -2.5228 22.8246 -19.7171
# 4 -5.1360 3.0022 -2.5228 46.4252 -6.4055 4.8027
# 5 15.0999 8.6269 22.8246 -6.4055 40.4414 0.3703
# 6 -19.3794 -49.5581 -19.7171 4.8027 0.3703 40.5812
#
#
#
# Elastic Compliance Matrix: (Units=1/GPa)
#
#
# Indices 1 2 3 4 5 6 
#
# 1 0.010124 -0.000207 -0.001174 0.000231 -0.003073 0.004012
# 2 -0.000207 0.009076 -0.002234 -0.001917 -0.000994 0.010135
# 3 -0.001174 -0.002234 0.009837 -0.000260 -0.004693 0.001565
# 4 0.000231 -0.001917 -0.000260 0.022771 0.004123 -0.005090
# 5 -0.003073 -0.000994 -0.004693 0.004123 0.029441 -0.005719
# 6 0.004012 0.010135 0.001565 -0.005090 -0.005719 0.040349
#
#
# Mechanical properties :
#
#
# Convention : Reuss Voigt Hill
#
# Bulk Modulus (GPa) = 45.85779 74.67495 60.26637
# Shear Modulus (GPa) = 36.73861 46.06298 41.40079
#
# Velocity S-wave (km/s) = 3.70540 4.14906 3.93349
# Velocity P-wave (km/s) = 5.95354 7.13166 6.56907
#
# Compressibility (1/GPa) = 0.02180654
#
# Stress axis : x y z
#
# Youngs Moduli (GPa) = 98.77405 110.18599 101.65577
#
# Poissons Ratio (x) = 0.02285 0.11936
# Poissons Ratio (y) = 0.02048 0.22706
# Poissons Ratio (z) = 0.11597 0.24611
#
# Static dielectric constant tensor:
#      x y z
#    x 2.220340 0.028530 -0.323700 
#    y 0.028530 2.232150 -0.041140 
#    z -0.323700 -0.041140 2.960230 
# 
# From -- ./inp_files/298477.got.cif
#   From: 2010.05.17/outbox.cif.g08.bks.cpg/sg2_150_cif.got.tgz:298477.got - 2010.06.03 11:33:40.
