data_PCOD9096203
_publ_section_title
;
Structure prediction by ZEFSAII (Michael W. Deem and Ramdas Pophale) SiO2 
 PCOD9096203
Probable space group: P -1
;
_chemical_formula_sum "Si O2"
_cell_formula_units_Z 16
_cell_length_a 13.331773
_cell_length_b 9.421813
_cell_length_c 12.627211
_cell_angle_alpha 52.988026
_cell_angle_beta 69.236063
_cell_angle_gamma 111.699952
_cell_volume 739.544283
_symmetry_space_group_name_H-M "P -1"
_symmetry_group_IT_number 2
_symmetry_cell_setting 'triclinic'
loop_
_space_group_symop_operation_xyz
x,y,z
-x,-y,-z
loop_
_atom_site_type_symbol
_atom_site_label
_atom_site_fract_x
_atom_site_fract_y
_atom_site_fract_z
Si Si1 0.905985 0.418403 0.726977
Si Si2 0.473676 0.674341 0.919093
Si Si3 0.831749 0.977701 0.059209
Si Si4 0.218717 0.448724 0.675780
Si Si5 0.109866 0.825288 0.810145
Si Si6 0.363816 0.952010 0.518925
Si Si7 0.072590 0.237348 0.281980
Si Si8 0.737852 0.266724 0.650994
O O1 0.947429 0.597716 0.728663
O O2 0.796130 0.379264 0.697403
O O3 0.088770 0.595205 0.528664
O O4 0.794694 0.105826 0.948439
O O5 0.553309 0.840320 0.703796
O O6 0.583520 0.927479 0.850347
O O7 0.500000 0.500000 0.000000
O O8 0.273272 0.459302 0.092636
O O9 0.854667 0.061376 0.135876
O O10 0.718911 0.652828 0.248703
O O11 0.016954 0.162651 0.857879
O O12 0.230951 0.635137 0.663486
O O13 0.306122 0.621161 0.456301
O O14 0.281608 0.983436 0.615908
O O15 0.019309 0.856212 0.755322
O O16 0.000000 0.500000 0.000000
O O17 0.500000 0.000000 0.500000
O O18 0.000000 0.000000 0.500000
#
# Coordination Sequence:
#
# PCOD9096203 Si02
#       8
#     2   2   2   2   2   2   2   2
#     4  10  20  38  62  91 124 166 210 249 309 377
#     4  11  24  43  62  90 128 163 209 265 320 372
#     4  10  20  35  63  90 126 159 210 258 297 371
#     4   9  19  37  57  91 123 163 207 251 308 367
#     4  12  21  40  64  95 127 164 215 262 308 373
#     4  11  23  40  65  92 130 168 205 257 326 376
#     4  12  25  40  66  94 120 164 217 264 314 379
#     4   9  20  39  61  87 126 166 202 257 312 374
#
# _framework density 21.634944000000001
#
# number of rings (size 3 to 8) (size 9 to 14) (size 15 to 20)
#    0.000    1.500    2.500    3.750    1.750    1.500 
#    2.250    0.625    0.000    0.000    0.000    0.000 
#    0.000    0.000    0.000    0.000    0.000    0.000 
#
# Total GULP energy -89332.268722 kJ/mol
# GULP energy per Si atom -5583.266795 kJ/mol
# Density = 2.158570 g / cm^3
# Si number density = 21.634944 Si / 1000 Ang^3
#
#
#
# Elastic Constant Matrix: (Units=GPa)
#
#
# Indices 1 2 3 4 5 6 
#
# 1 70.1333 3.7067 21.9767 -9.3448 7.2971 -2.0746
# 2 3.7067 40.2558 18.8889 6.3263 0.5410 -5.1013
# 3 21.9767 18.8889 84.3132 -9.8630 3.1811 -12.1632
# 4 -9.3448 6.3263 -9.8630 29.9728 -9.8171 7.5690
# 5 7.2971 0.5410 3.1811 -9.8171 34.6056 -9.2063
# 6 -2.0746 -5.1013 -12.1632 7.5690 -9.2063 30.1199
#
#
#
# Elastic Compliance Matrix: (Units=1/GPa)
#
#
# Indices 1 2 3 4 5 6 
#
# 1 0.016195 -0.000457 -0.003928 0.003558 -0.002636 -0.002248
# 2 -0.000457 0.030537 -0.007270 -0.010597 -0.001550 0.004394
# 3 -0.003928 -0.007270 0.015629 0.005074 0.002052 0.004162
# 4 0.003558 -0.010597 0.005074 0.043311 0.009223 -0.007565
# 5 -0.002636 -0.001550 0.002052 0.009223 0.034169 0.008511
# 6 -0.002248 0.004394 0.004162 -0.007565 0.008511 0.039973
#
#
# Mechanical properties :
#
#
# Convention : Reuss Voigt Hill
#
# Bulk Modulus (GPa) = 25.60557 31.53852 28.57205
# Shear Modulus (GPa) = 23.13304 28.94831 26.04068
#
# Velocity S-wave (km/s) = 3.27348 3.66188 3.47311
# Velocity P-wave (km/s) = 5.11356 5.69986 5.41465
#
# Compressibility (1/GPa) = 0.03905400
#
# Stress axis : x y z
#
# Youngs Moduli (GPa) = 61.74659 32.74681 63.98165
#
# Poissons Ratio (x) = 0.01496 0.25130
# Poissons Ratio (y) = 0.02820 0.46512
# Poissons Ratio (z) = 0.24252 0.23806
#
# Static dielectric constant tensor:
#      x y z
#    x 1.823380 0.000880 0.017200 
#    y 0.000880 1.824510 -0.011040 
#    z 0.017200 -0.011040 1.820090 
# 
# From -- ./inp_files/446942.got.cif
#   From: 2010.05.17/outbox.cif.g08.bks.cpg/sg2_224_cif.got.tgz:446942.got - 2010.06.03 11:33:40.
