data_PCOD9096030
_publ_section_title
;
Structure prediction by ZEFSAII (Michael W. Deem and Ramdas Pophale) SiO2 
 PCOD9096030
Probable space group: P -1
;
_chemical_formula_sum "Si O2"
_cell_formula_units_Z 14
_cell_length_a 11.532857
_cell_length_b 14.811588
_cell_length_c 5.349314
_cell_angle_alpha 68.138144
_cell_angle_beta 55.375054
_cell_angle_gamma 88.488294
_cell_volume 677.025172
_symmetry_space_group_name_H-M "P -1"
_symmetry_group_IT_number 2
_symmetry_cell_setting 'triclinic'
loop_
_space_group_symop_operation_xyz
x,y,z
-x,-y,-z
loop_
_atom_site_type_symbol
_atom_site_label
_atom_site_fract_x
_atom_site_fract_y
_atom_site_fract_z
Si Si1 0.587314 0.781672 0.820029
Si Si2 0.517438 0.440327 0.790346
Si Si3 0.276375 0.693331 0.422978
Si Si4 0.989176 0.908793 0.913778
Si Si5 0.174351 0.769054 0.957724
Si Si6 0.516936 0.090684 0.578272
Si Si7 0.234825 0.063187 0.215573
O O1 0.540676 0.818919 0.575116
O O2 0.724883 0.859476 0.684176
O O3 0.598404 0.667594 0.932215
O O4 0.436257 0.772129 0.173389
O O5 0.500000 0.500000 0.500000
O O6 0.669701 0.406406 0.609276
O O7 0.500000 0.500000 0.000000
O O8 0.190028 0.696578 0.781455
O O9 0.196981 0.724786 0.246670
O O10 0.032578 0.812701 0.072668
O O11 0.841150 0.888453 0.961519
O O12 0.119297 0.959195 0.511491
O O13 0.000000 0.000000 0.000000
O O14 0.312744 0.863674 0.648990
O O15 0.500000 0.000000 0.500000
O O16 0.392154 0.047739 0.974851
#
# Coordination Sequence:
#
# PCOD9096030 Si02
#       7
#     2   2   2   2   2   2   2
#     4   9  21  34  56  86 123 149 199 241 308 362
#     4  10  20  35  61  94 128 150 188 258 324 370
#     4   9  21  35  59  87 119 148 198 240 311 367
#     4  11  26  38  53  83 122 171 223 246 293 355
#     4  11  21  38  58  83 122 160 200 253 296 357
#     4  11  21  34  57  85 120 158 201 248 306 359
#     4  11  22  38  56  77 124 159 212 252 291 363
#
# _framework density 20.678695999999999
#
# number of rings (size 3 to 8) (size 9 to 14) (size 15 to 20)
#    0.857    0.857    1.429    3.429   10.000    1.143 
#    0.000    0.000    0.000    0.000    0.000    6.000 
#    0.000    0.000    0.000    0.000    0.000    0.000 
#
# Total GULP energy -78017.701328 kJ/mol
# GULP energy per Si atom -5572.692952 kJ/mol
# Density = 2.063163 g / cm^3
# Si number density = 20.678696 Si / 1000 Ang^3
#
#
#
# Elastic Constant Matrix: (Units=GPa)
#
#
# Indices 1 2 3 4 5 6 
#
# 1 125.0264 32.5738 10.9043 4.7934 20.5893 -27.4484
# 2 32.5738 88.9492 12.9485 9.5135 15.9910 -15.7566
# 3 10.9043 12.9485 37.8554 2.6270 10.7801 -1.3173
# 4 4.7934 9.5135 2.6270 31.4345 2.2235 7.2578
# 5 20.5893 15.9910 10.7801 2.2235 29.9923 -0.6633
# 6 -27.4484 -15.7566 -1.3173 7.2578 -0.6633 35.6330
#
#
#
# Elastic Compliance Matrix: (Units=1/GPa)
#
#
# Indices 1 2 3 4 5 6 
#
# 1 0.011475 -0.001035 -0.000524 -0.002958 -0.006722 0.008839
# 2 -0.001035 0.014738 -0.002527 -0.005207 -0.005707 0.006581
# 3 -0.000524 -0.002527 0.030056 -0.000939 -0.009035 -0.000387
# 4 -0.002958 -0.005207 -0.000939 0.036539 0.002170 -0.012018
# 5 -0.006722 -0.005707 -0.009035 0.002170 0.043917 -0.007660
# 6 0.008839 0.006581 -0.000387 -0.012018 -0.007660 0.040074
#
#
# Mechanical properties :
#
#
# Convention : Reuss Voigt Hill
#
# Bulk Modulus (GPa) = 20.79186 40.52046 30.65616
# Shear Modulus (GPa) = 24.87525 32.43893 28.65709
#
# Velocity S-wave (km/s) = 3.47211 3.96499 3.72671
# Velocity P-wave (km/s) = 5.11376 6.37176 5.77711
#
# Compressibility (1/GPa) = 0.04809574
#
# Stress axis : x y z
#
# Youngs Moduli (GPa) = 87.14818 67.85181 33.27095
#
# Poissons Ratio (x) = 0.07024 0.01744
# Poissons Ratio (y) = 0.09021 0.08409
# Poissons Ratio (z) = 0.04567 0.17149
#
# Static dielectric constant tensor:
#      x y z
#    x 8.872920 -3.550850 5.591760 
#    y -3.550850 3.538150 -2.723140 
#    z 5.591760 -2.723140 6.179180 
# 
# From -- ./inp_files/75362.got.cif
#   From: 2010.05.17/outbox.cif.g08.bks.cpg/sg2_38_cif.got.tgz:75362.got - 2010.06.03 11:33:40.
