data_PCOD9096329
_publ_section_title
;
Structure prediction by ZEFSAII (Michael W. Deem and Ramdas Pophale) SiO2 
 PCOD9096329
Probable space group: P -1
;
_chemical_formula_sum "Si O2"
_cell_formula_units_Z 10
_cell_length_a 11.780438
_cell_length_b 9.331871
_cell_length_c 14.000075
_cell_angle_alpha 118.209024
_cell_angle_beta 20.113280
_cell_angle_gamma 128.895436
_cell_volume 370.530483
_symmetry_space_group_name_H-M "P -1"
_symmetry_group_IT_number 2
_symmetry_cell_setting 'triclinic'
loop_
_space_group_symop_operation_xyz
x,y,z
-x,-y,-z
loop_
_atom_site_type_symbol
_atom_site_label
_atom_site_fract_x
_atom_site_fract_y
_atom_site_fract_z
Si Si1 0.919450 0.678695 0.430103
Si Si2 0.124532 0.136887 0.644480
Si Si3 0.967402 0.080912 0.174856
Si Si4 0.505040 0.455701 0.092884
Si Si5 0.979385 0.713620 0.045632
O O1 0.021682 0.870521 0.349003
O O2 0.452432 0.494074 0.707697
O O3 0.205985 0.615826 0.151438
O O4 0.893651 0.685643 0.567595
O O5 0.005465 0.254469 0.841702
O O6 0.966805 0.935886 0.767561
O O7 0.619765 0.262857 0.296407
O O8 0.271143 0.311911 0.973342
O O9 0.500000 0.000000 0.500000
O O10 0.019474 0.913403 0.042907
O O11 0.500000 0.500000 0.000000
#
# Coordination Sequence:
#
# PCOD9096329 Si02
#       5
#     2   2   2   2   2
#     4  12  22  42  64  90 127 165 205 253 309 369
#     4  10  22  36  63  98 126 158 200 257 310 364
#     4  10  22  40  65  94 127 156 206 256 306 361
#     4  12  27  43  63  89 126 168 209 253 309 366
#     4  10  20  35  66  96 125 150 208 249 316 351
#
# _framework density 26.988330999999999
#
# number of rings (size 3 to 8) (size 9 to 14) (size 15 to 20)
#    1.200    0.000    2.000    5.400    2.800    1.600 
#    0.000    2.000    0.000    0.000    0.000    0.000 
#    0.000    0.000    0.000    0.000    0.000    0.000 
#
# Total GULP energy -55977.616512 kJ/mol
# GULP energy per Si atom -5597.761651 kJ/mol
# Density = 2.692690 g / cm^3
# Si number density = 26.988331 Si / 1000 Ang^3
#
#
#
# Elastic Constant Matrix: (Units=GPa)
#
#
# Indices 1 2 3 4 5 6 
#
# 1 147.8353 51.4788 8.9244 -1.3325 32.5257 -32.2927
# 2 51.4788 111.2170 28.9030 8.2997 2.0251 -42.2570
# 3 8.9244 28.9030 91.5834 -0.8818 15.1507 -13.0387
# 4 -1.3325 8.2997 -0.8818 24.7021 7.1196 -2.6296
# 5 32.5257 2.0251 15.1507 7.1196 38.5784 4.0730
# 6 -32.2927 -42.2570 -13.0387 -2.6296 4.0730 60.0173
#
#
#
# Elastic Compliance Matrix: (Units=1/GPa)
#
#
# Indices 1 2 3 4 5 6 
#
# 1 0.012380 -0.004917 0.003339 0.006815 -0.013289 0.005125
# 2 -0.004917 0.015252 -0.004398 -0.006466 0.005582 0.006475
# 3 0.003339 -0.004398 0.013931 0.005101 -0.009269 0.002579
# 4 0.006815 -0.006466 0.005101 0.048390 -0.016707 0.003476
# 5 -0.013289 0.005582 -0.009269 -0.016707 0.044505 -0.008986
# 6 0.005125 0.006475 0.002579 0.003476 -0.008986 0.025301
#
#
# Mechanical properties :
#
#
# Convention : Reuss Voigt Hill
#
# Bulk Modulus (GPa) = 33.77216 58.80535 46.28876
# Shear Modulus (GPa) = 27.53602 42.08154 34.80878
#
# Velocity S-wave (km/s) = 3.19767 3.95302 3.59523
# Velocity P-wave (km/s) = 5.11608 6.53235 5.86710
#
# Compressibility (1/GPa) = 0.02961018
#
# Stress axis : x y z
#
# Youngs Moduli (GPa) = 80.77727 65.56726 71.78056
#
# Poissons Ratio (x) = 0.32242 -0.23969
# Poissons Ratio (y) = 0.39722 0.31569
# Poissons Ratio (z) = -0.26973 0.28836
#
# Static dielectric constant tensor:
#      x y z
#    x 2.343170 0.031480 0.067490 
#    y 0.031480 2.079460 -0.038630 
#    z 0.067490 -0.038630 1.991700 
# 
# From -- ./inp_files/16267.got.cif
#   From: 2010.05.17/outbox.cif.g08.bks.cpg/sg2_9_cif.got.tgz:16267.got - 2010.06.03 11:33:40.
