data_PCOD9096948
_publ_section_title
;
Structure prediction by ZEFSAII (Michael W. Deem and Ramdas Pophale) SiO2 
 PCOD9096948
Probable space group: P -1
;
_chemical_formula_sum "Si O2"
_cell_formula_units_Z 15
_cell_length_a 12.087667
_cell_length_b 12.177416
_cell_length_c 8.646744
_cell_angle_alpha 50.772531
_cell_angle_beta 101.824762
_cell_angle_gamma 62.878561
_cell_volume 613.176281
_symmetry_space_group_name_H-M "P -1"
_symmetry_group_IT_number 2
_symmetry_cell_setting 'triclinic'
loop_
_space_group_symop_operation_xyz
x,y,z
-x,-y,-z
loop_
_atom_site_type_symbol
_atom_site_label
_atom_site_fract_x
_atom_site_fract_y
_atom_site_fract_z
Si Si1 0.479973 0.126219 0.604805
Si Si2 0.500000 0.500000 0.000000
Si Si3 0.695681 0.659844 0.342308
Si Si4 0.433368 0.695908 0.097428
Si Si5 0.168724 0.351114 0.907345
Si Si6 0.297145 0.815182 0.277207
Si Si7 0.976857 0.236699 0.989088
Si Si8 0.800901 0.429531 0.073552
O O1 0.378943 0.173202 0.688220
O O2 0.601750 0.137098 0.694042
O O3 0.332172 0.338698 0.267020
O O4 0.623386 0.884388 0.786819
O O5 0.385945 0.723520 0.881476
O O6 0.328154 0.558842 0.896712
O O7 0.543884 0.728338 0.140192
O O8 0.803426 0.428318 0.662713
O O9 0.817995 0.628077 0.289345
O O10 0.291950 0.811973 0.092385
O O11 0.571056 0.429913 0.395915
O O12 0.106152 0.553566 0.795379
O O13 0.059047 0.317218 0.946963
O O14 0.113299 0.003241 0.147773
O O15 0.925605 0.244612 0.140672
#
# Coordination Sequence:
#
# PCOD9096948 Si02
#       8
#     2   1   2   2   2   2   2   2
#     4   9  19  35  60  86 116 152 201 239 280 346
#     4  12  22  40  62  86 118 148 198 250 284 342
#     4  10  20  36  58  90 115 154 194 242 288 332
#     4  10  20  38  63  84 115 153 197 245 279 350
#     4  11  20  37  61  86 120 153 195 237 291 348
#     4   9  19  38  62  84 112 157 199 232 295 343
#     4  10  23  39  59  86 124 153 190 240 293 353
#     4  11  22  39  60  87 118 160 189 241 297 340
#
# _framework density 24.462786999999999
#
# number of rings (size 3 to 8) (size 9 to 14) (size 15 to 20)
#    0.000    1.867    2.667    1.600    1.867    0.533 
#    0.000    2.000    0.000    0.000    0.000    0.000 
#    0.000    0.000    0.000    0.000    0.000    0.000 
#
# Total GULP energy -83583.545689 kJ/mol
# GULP energy per Si atom -5572.236379 kJ/mol
# Density = 2.440711 g / cm^3
# Si number density = 24.462787 Si / 1000 Ang^3
#
#
#
# Elastic Constant Matrix: (Units=GPa)
#
#
# Indices 1 2 3 4 5 6 
#
# 1 78.4969 37.1783 -8.3127 10.1729 -4.0083 -7.1003
# 2 37.1783 154.8179 3.6038 -16.4184 2.0530 -12.3067
# 3 -8.3127 3.6038 22.3347 -11.0161 3.0778 0.4045
# 4 10.1729 -16.4184 -11.0161 28.5938 -1.9801 -4.6171
# 5 -4.0083 2.0530 3.0778 -1.9801 12.9994 1.9558
# 6 -7.1003 -12.3067 0.4045 -4.6171 1.9558 35.4130
#
#
#
# Elastic Compliance Matrix: (Units=1/GPa)
#
#
# Indices 1 2 3 4 5 6 
#
# 1 0.016491 -0.004807 0.002801 -0.007198 0.004018 0.000444
# 2 -0.004807 0.008648 0.000673 0.007274 -0.002368 0.003113
# 3 0.002801 0.000673 0.057623 0.021451 -0.010144 0.003494
# 4 -0.007198 0.007274 0.021451 0.051076 -0.001810 0.007599
# 5 0.004018 -0.002368 -0.010144 -0.001810 0.081362 -0.004631
# 6 0.000444 0.003113 0.003494 0.007599 -0.004631 0.030616
#
#
# Mechanical properties :
#
#
# Convention : Reuss Voigt Hill
#
# Bulk Modulus (GPa) = 12.48484 35.62092 24.05288
# Shear Modulus (GPa) = 18.17006 30.27992 24.22499
#
# Velocity S-wave (km/s) = 2.72833 3.52205 3.15028
# Velocity P-wave (km/s) = 3.87810 5.57966 4.80481
#
# Compressibility (1/GPa) = 0.08009711
#
# Stress axis : x y z
#
# Youngs Moduli (GPa) = 60.64042 115.63304 17.35432
#
# Poissons Ratio (x) = 0.55581 -0.04862
# Poissons Ratio (y) = 0.29148 -0.01168
# Poissons Ratio (z) = -0.16988 -0.07784
#
# Static dielectric constant tensor:
#      x y z
#    x 1.894000 -0.024180 -0.000140 
#    y -0.024180 2.039470 0.062120 
#    z -0.000140 0.062120 2.046220 
# 
# From -- ./inp_files/167759.got.cif
#   From: 2010.05.17/outbox.cif.g08.bks.cpg/sg2_84_cif.got.tgz:167759.got - 2010.06.03 11:33:40.
