data_PCOD9096413
_publ_section_title
;
Structure prediction by ZEFSAII (Michael W. Deem and Ramdas Pophale) SiO2 
 PCOD9096413
Probable space group: P -1
;
_chemical_formula_sum "Si O2"
_cell_formula_units_Z 15
_cell_length_a 16.087111
_cell_length_b 14.988705
_cell_length_c 8.195259
_cell_angle_alpha 129.171828
_cell_angle_beta 93.770631
_cell_angle_gamma 40.758485
_cell_volume 579.049740
_symmetry_space_group_name_H-M "P -1"
_symmetry_group_IT_number 2
_symmetry_cell_setting 'triclinic'
loop_
_space_group_symop_operation_xyz
x,y,z
-x,-y,-z
loop_
_atom_site_type_symbol
_atom_site_label
_atom_site_fract_x
_atom_site_fract_y
_atom_site_fract_z
Si Si1 0.950655 0.212818 0.573125
Si Si2 0.500000 0.500000 0.000000
Si Si3 0.950485 0.577500 0.816310
Si Si4 0.607977 0.204008 0.916455
Si Si5 0.311430 0.157089 0.599111
Si Si6 0.891639 0.262685 0.261382
Si Si7 0.792116 0.937285 0.960936
Si Si8 0.732964 0.408341 0.081643
O O1 0.833717 0.377022 0.571834
O O2 0.805603 0.400439 0.935057
O O3 0.166013 0.021864 0.382984
O O4 0.066417 0.939991 0.276532
O O5 0.568832 0.486602 0.829147
O O6 0.460362 0.431634 0.809336
O O7 0.776359 0.880112 0.052760
O O8 0.158627 0.384343 0.687047
O O9 0.045034 0.355034 0.460459
O O10 0.843072 0.656126 0.048350
O O11 0.612148 0.069661 0.697419
O O12 0.607815 0.203044 0.110402
O O13 0.500000 0.000000 0.500000
O O14 0.077098 0.113565 0.051377
O O15 0.717972 0.482111 0.344570
O O16 0.000000 0.000000 0.000000
#
# Coordination Sequence:
#
# PCOD9096413 Si02
#       8
#     2   1   2   2   2   2   2   2
#     4   8  16  32  51  77 104 146 194 235 280 348
#     4  10  20  36  54  84 124 154 190 244 306 364
#     4   9  20  39  64  86 116 161 201 256 314 358
#     4   9  19  36  57  81 121 152 194 251 302 361
#     4  10  21  39  62  93 119 154 208 258 305 373
#     4   9  17  30  53  85 110 146 195 240 286 360
#     4   9  18  37  60  86 117 154 206 255 302 364
#     4   9  17  30  53  75 108 151 188 230 287 350
#
# _framework density 25.904510999999999
#
# number of rings (size 3 to 8) (size 9 to 14) (size 15 to 20)
#    0.000    2.933    0.000    0.800    1.867    1.067 
#    7.200    6.667    2.933    0.000    0.000    0.000 
#    0.000    0.000    0.000    0.000    0.000    0.000 
#
# Total GULP energy -83574.083792 kJ/mol
# GULP energy per Si atom -5571.605586 kJ/mol
# Density = 2.584555 g / cm^3
# Si number density = 25.904511 Si / 1000 Ang^3
#
#
#
# Elastic Constant Matrix: (Units=GPa)
#
#
# Indices 1 2 3 4 5 6 
#
# 1 112.3165 37.6767 19.9375 0.6885 -1.8545 -30.8704
# 2 37.6767 116.7550 16.5151 -5.5269 3.4643 -8.4988
# 3 19.9375 16.5151 61.7575 -6.1335 -5.4496 -9.8758
# 4 0.6885 -5.5269 -6.1335 27.6768 -0.1124 -0.5275
# 5 -1.8545 3.4643 -5.4496 -0.1124 16.8797 5.6008
# 6 -30.8704 -8.4988 -9.8758 -0.5275 5.6008 59.8376
#
#
#
# Elastic Compliance Matrix: (Units=1/GPa)
#
#
# Indices 1 2 3 4 5 6 
#
# 1 0.011830 -0.003150 -0.002310 -0.001336 -0.000572 0.005316
# 2 -0.003150 0.009981 -0.001776 0.001662 -0.002885 -0.000216
# 3 -0.002310 -0.001776 0.018477 0.003842 0.005736 0.001103
# 4 -0.001336 0.001662 0.003842 0.037360 0.000859 0.000430
# 5 -0.000572 -0.002885 0.005736 0.000859 0.063520 -0.005696
# 6 0.005316 -0.000216 0.001103 0.000430 -0.005696 0.020143
#
#
# Mechanical properties :
#
#
# Convention : Reuss Voigt Hill
#
# Bulk Modulus (GPa) = 38.73565 48.78751 43.76158
# Shear Modulus (GPa) = 27.11669 35.32547 31.22108
#
# Velocity S-wave (km/s) = 3.23893 3.69681 3.47542
# Velocity P-wave (km/s) = 5.38268 6.09068 5.74759
#
# Compressibility (1/GPa) = 0.02581601
#
# Stress axis : x y z
#
# Youngs Moduli (GPa) = 84.53023 100.18728 54.12107
#
# Poissons Ratio (x) = 0.31560 0.12501
# Poissons Ratio (y) = 0.26628 0.09613
# Poissons Ratio (z) = 0.19525 0.17796
#
# Static dielectric constant tensor:
#      x y z
#    x 2.030990 -0.054440 -0.007910 
#    y -0.054440 2.436840 0.161380 
#    z -0.007910 0.161380 2.238320 
# 
# From -- ./inp_files/311791.got.cif
#   From: 2010.05.17/outbox.cif.g08.bks.cpg/sg2_156_cif.got.tgz:311791.got - 2010.06.03 11:33:40.
