data_PCOD9096541
_publ_section_title
;
Structure prediction by ZEFSAII (Michael W. Deem and Ramdas Pophale) SiO2 
 PCOD9096541
Probable space group: P -1
;
_chemical_formula_sum "Si O2"
_cell_formula_units_Z 12
_cell_length_a 14.776851
_cell_length_b 23.131442
_cell_length_c 5.148831
_cell_angle_alpha 71.668278
_cell_angle_beta 102.397398
_cell_angle_gamma 159.678520
_cell_volume 562.727514
_symmetry_space_group_name_H-M "P -1"
_symmetry_group_IT_number 2
_symmetry_cell_setting 'triclinic'
loop_
_space_group_symop_operation_xyz
x,y,z
-x,-y,-z
loop_
_atom_site_type_symbol
_atom_site_label
_atom_site_fract_x
_atom_site_fract_y
_atom_site_fract_z
Si Si1 0.844072 0.235827 0.101615
Si Si2 0.449243 0.640262 0.851500
Si Si3 0.946694 0.894606 0.624789
Si Si4 0.562815 0.116730 0.592082
Si Si5 0.716901 0.905524 0.941696
Si Si6 0.314286 0.681441 0.402454
O O1 0.693090 0.182288 0.303048
O O2 0.721454 0.092896 0.263207
O O3 0.752338 0.203630 0.808809
O O4 0.161085 0.438049 0.044743
O O5 0.626313 0.697469 0.741401
O O6 0.626973 0.780219 0.995081
O O7 0.391041 0.663352 0.598358
O O8 0.000000 0.000000 0.500000
O O9 0.091919 0.957875 0.372131
O O10 0.100110 0.969697 0.871492
O O11 0.551819 0.180614 0.555607
O O12 0.429753 0.754808 0.076772
O O13 0.000000 0.500000 0.500000
#
# Coordination Sequence:
#
# PCOD9096541 Si02
#       6
#     2   2   2   2   2   2
#     4  10  22  40  57  79 115 160 190 225 274 351
#     4  11  22  35  63  88 114 148 197 240 277 332
#     4  10  20  36  56  83 113 152 193 233 280 332
#     4  10  23  39  55  80 122 155 185 223 290 347
#     4  11  22  37  55  87 118 149 185 242 287 330
#     4  12  23  35  58  93 120 146 183 242 292 338
#
# _framework density 21.324708999999999
#
# number of rings (size 3 to 8) (size 9 to 14) (size 15 to 20)
#    0.000    1.333    5.000    3.000    2.333    1.333 
#    0.000    0.000    0.000    2.000    0.000    1.167 
#    0.000    0.000    0.000    0.000    0.000    0.000 
#
# Total GULP energy -66941.207053 kJ/mol
# GULP energy per Si atom -5578.433921 kJ/mol
# Density = 2.127617 g / cm^3
# Si number density = 21.324709 Si / 1000 Ang^3
#
#
#
# Elastic Constant Matrix: (Units=GPa)
#
#
# Indices 1 2 3 4 5 6 
#
# 1 66.2685 39.3859 47.5679 -16.7590 -19.4653 2.9274
# 2 39.3859 92.3106 54.4053 -29.6564 -7.4513 2.1720
# 3 47.5679 54.4053 125.8496 -6.1492 -25.9771 1.7106
# 4 -16.7590 -29.6564 -6.1492 47.0867 0.7284 -2.9019
# 5 -19.4653 -7.4513 -25.9771 0.7284 23.6002 -0.3362
# 6 2.9274 2.1720 1.7106 -2.9019 -0.3362 35.5265
#
#
#
# Elastic Compliance Matrix: (Units=1/GPa)
#
#
# Indices 1 2 3 4 5 6 
#
# 1 0.028100 -0.006612 -0.004122 0.004974 0.016381 -0.001151
# 2 -0.006612 0.020585 -0.007470 0.009775 -0.007473 0.000374
# 3 -0.004122 -0.007470 0.014698 -0.004426 0.010554 -0.000173
# 4 0.004974 0.009775 -0.004426 0.028660 0.001454 0.001560
# 5 0.016381 -0.007473 0.010554 0.001454 0.065087 -0.000666
# 6 -0.001151 0.000374 -0.000173 0.001560 -0.000666 0.028350
#
#
# Mechanical properties :
#
#
# Convention : Reuss Voigt Hill
#
# Bulk Modulus (GPa) = 37.07321 63.01633 50.04477
# Shear Modulus (GPa) = 21.65650 30.78065 26.21858
#
# Velocity S-wave (km/s) = 3.19024 3.80337 3.51022
# Velocity P-wave (km/s) = 5.56714 6.99303 6.32042
#
# Compressibility (1/GPa) = 0.02697366
#
# Stress axis : x y z
#
# Youngs Moduli (GPa) = 35.58780 48.57945 68.03724
#
# Poissons Ratio (x) = 0.32122 0.28048
# Poissons Ratio (y) = 0.23531 0.50821
# Poissons Ratio (z) = 0.14671 0.36287
#
# Static dielectric constant tensor:
#      x y z
#    x 1.801300 0.059060 -0.002630 
#    y 0.059060 1.840230 0.018400 
#    z -0.002630 0.018400 1.857300 
# 
# From -- ./inp_files/80265.got.cif
#   From: 2010.05.17/outbox.cif.g08.bks.cpg/sg2_41_cif.got.tgz:80265.got - 2010.06.03 11:33:40.
