data_PCOD9096559
_publ_section_title
;
Structure prediction by ZEFSAII (Michael W. Deem and Ramdas Pophale) SiO2 
 PCOD9096559
Probable space group: P -1
;
_chemical_formula_sum "Si O2"
_cell_formula_units_Z 14
_cell_length_a 11.095935
_cell_length_b 14.453858
_cell_length_c 10.867126
_cell_angle_alpha 121.631226
_cell_angle_beta 153.303788
_cell_angle_gamma 57.409432
_cell_volume 655.389448
_symmetry_space_group_name_H-M "P -1"
_symmetry_group_IT_number 2
_symmetry_cell_setting 'triclinic'
loop_
_space_group_symop_operation_xyz
x,y,z
-x,-y,-z
loop_
_atom_site_type_symbol
_atom_site_label
_atom_site_fract_x
_atom_site_fract_y
_atom_site_fract_z
Si Si1 0.664476 0.532467 0.554943
Si Si2 0.723820 0.598223 0.010511
Si Si3 0.458900 0.798621 0.289666
Si Si4 0.964060 0.918970 0.796836
Si Si5 0.282172 0.421681 0.734392
Si Si6 0.158029 0.876781 0.325282
Si Si7 0.650731 0.758278 0.826021
O O1 0.500000 0.500000 0.500000
O O2 0.662727 0.661091 0.666710
O O3 0.975977 0.469903 0.795323
O O4 0.495500 0.483632 0.260589
O O5 0.735845 0.634161 0.187388
O O6 0.652756 0.697057 0.916404
O O7 0.683168 0.875544 0.527492
O O8 0.620500 0.674563 0.340752
O O9 0.309527 0.827165 0.303173
O O10 0.225264 0.822411 0.987465
O O11 0.947755 0.994660 0.713755
O O12 0.000000 0.000000 0.000000
O O13 0.000000 0.500000 0.500000
O O14 0.500000 0.500000 0.000000
O O15 0.381184 0.847768 0.615075
O O16 0.911232 0.814841 0.085965
#
# Coordination Sequence:
#
# PCOD9096559 Si02
#       7
#     2   2   2   2   2   2   2
#     4  10  20  36  56  84 117 164 199 241 306 357
#     4  11  23  41  57  82 127 164 206 245 299 366
#     4  11  23  41  62  86 127 162 199 252 312 355
#     4  10  20  40  62  90 122 155 198 256 322 360
#     4  12  28  44  62  89 122 174 216 244 282 371
#     4  11  21  34  64  96 118 148 203 260 311 371
#     4  11  21  34  59  91 122 154 194 258 319 345
#
# _framework density 21.361345
#
# number of rings (size 3 to 8) (size 9 to 14) (size 15 to 20)
#    0.000    1.143    0.000   10.286    6.000    0.000 
#    0.000    0.000    0.000    5.143    0.000    0.000 
#    0.000    0.000    0.000    0.000    0.000    0.000 
#
# Total GULP energy -78260.419854 kJ/mol
# GULP energy per Si atom -5590.029990 kJ/mol
# Density = 2.131273 g / cm^3
# Si number density = 21.361345 Si / 1000 Ang^3
#
#
#
# Elastic Constant Matrix: (Units=GPa)
#
#
# Indices 1 2 3 4 5 6 
#
# 1 63.5164 23.6354 29.6169 -3.0172 -6.0931 30.1576
# 2 23.6354 68.5133 29.1877 -16.4069 12.6965 24.4538
# 3 29.6169 29.1877 150.3890 -16.9334 22.7530 28.2224
# 4 -3.0172 -16.4069 -16.9334 47.2232 8.0840 2.3955
# 5 -6.0931 12.6965 22.7530 8.0840 30.0890 0.4403
# 6 30.1576 24.4538 28.2224 2.3955 0.4403 36.2279
#
#
#
# Elastic Compliance Matrix: (Units=1/GPa)
#
#
# Indices 1 2 3 4 5 6 
#
# 1 0.028476 -0.004322 -0.003131 -0.001702 0.010684 -0.018366
# 2 -0.004322 0.028791 0.003600 0.015356 -0.019587 -0.019417
# 3 -0.003131 0.003600 0.010894 0.007498 -0.012279 -0.008657
# 4 -0.001702 0.015356 0.007498 0.033582 -0.021271 -0.016751
# 5 0.010684 -0.019587 -0.012279 -0.021271 0.058450 0.014589
# 6 -0.018366 -0.019417 -0.008657 -0.016751 0.014589 0.063672
#
#
# Mechanical properties :
#
#
# Convention : Reuss Voigt Hill
#
# Bulk Modulus (GPa) = 16.54131 49.69985 33.12058
# Shear Modulus (GPa) = 19.86316 36.03995 27.95155
#
# Velocity S-wave (km/s) = 3.05268 4.11196 3.62126
# Velocity P-wave (km/s) = 4.49283 6.77208 5.74659
#
# Compressibility (1/GPa) = 0.06045470
#
# Stress axis : x y z
#
# Youngs Moduli (GPa) = 35.11710 34.73352 91.79532
#
# Poissons Ratio (x) = 0.15013 0.28737
# Poissons Ratio (y) = 0.15178 -0.33045
# Poissons Ratio (z) = 0.10994 -0.12503
#
# Static dielectric constant tensor:
#      x y z
#    x 1.812000 0.011000 -0.060120 
#    y 0.011000 1.800080 -0.030710 
#    z -0.060120 -0.030710 1.774700 
# 
# From -- ./inp_files/362204.got.cif
#   From: 2010.05.17/outbox.cif.g08.bks.cpg/sg2_182_cif.got.tgz:362204.got - 2010.06.03 11:33:40.
