data_PCOD9096175
_publ_section_title
;
Structure prediction by ZEFSAII (Michael W. Deem and Ramdas Pophale) SiO2 
 PCOD9096175
Probable space group: P -1
;
_chemical_formula_sum "Si O2"
_cell_formula_units_Z 12
_cell_length_a 10.994081
_cell_length_b 13.421053
_cell_length_c 9.752411
_cell_angle_alpha 91.176925
_cell_angle_beta 66.717061
_cell_angle_gamma 150.972606
_cell_volume 438.790413
_symmetry_space_group_name_H-M "P -1"
_symmetry_group_IT_number 2
_symmetry_cell_setting 'triclinic'
loop_
_space_group_symop_operation_xyz
x,y,z
-x,-y,-z
loop_
_atom_site_type_symbol
_atom_site_label
_atom_site_fract_x
_atom_site_fract_y
_atom_site_fract_z
Si Si1 0.158330 0.416831 0.800794
Si Si2 0.377060 0.376110 0.200846
Si Si3 0.404968 0.141066 0.049160
Si Si4 0.578931 0.897081 0.642642
Si Si5 0.641177 0.719778 0.324192
Si Si6 0.081070 0.450443 0.400770
O O1 0.408535 0.568946 0.830897
O O2 0.173867 0.547421 0.779176
O O3 0.380854 0.527526 0.572250
O O4 0.751450 0.066492 0.974496
O O5 0.537292 0.566994 0.248790
O O6 0.500000 0.500000 0.000000
O O7 0.904355 0.056453 0.425140
O O8 0.394386 0.095333 0.206303
O O9 0.801720 0.459435 0.807844
O O10 0.091218 0.010948 0.168942
O O11 0.733903 0.119686 0.555470
O O12 0.478549 0.700479 0.316780
O O13 0.000000 0.500000 0.500000
#
# Coordination Sequence:
#
# PCOD9096175 Si02
#       6
#     2   2   2   2   2   2
#     4  11  21  40  70 103 140 177 228 285 345 405
#     4  10  20  35  63 106 145 173 218 284 350 402
#     4  11  22  46  72 101 136 179 229 286 349 405
#     4  11  24  41  67 103 141 177 228 288 347 404
#     4  10  21  44  68 102 139 177 227 286 339 409
#     4  11  26  46  70  98 140 187 231 280 347 413
#
# _framework density 27.347908
#
# number of rings (size 3 to 8) (size 9 to 14) (size 15 to 20)
#    0.000    1.333    5.000    2.000    4.667    3.333 
#    0.000    1.667    0.000    0.000    0.000    0.000 
#    0.000    0.000    0.000    0.000    0.000    0.000 
#
# Total GULP energy -67134.900359 kJ/mol
# GULP energy per Si atom -5594.575030 kJ/mol
# Density = 2.728566 g / cm^3
# Si number density = 27.347908 Si / 1000 Ang^3
#
#
#
# Elastic Constant Matrix: (Units=GPa)
#
#
# Indices 1 2 3 4 5 6 
#
# 1 147.9366 37.9563 75.6744 -9.3482 23.4194 -32.3349
# 2 37.9563 116.2496 32.3558 -8.5743 20.8477 -24.0585
# 3 75.6744 32.3558 159.6272 13.5635 42.8193 -5.6226
# 4 -9.3482 -8.5743 13.5635 36.8192 2.2700 19.5209
# 5 23.4194 20.8477 42.8193 2.2700 48.5759 3.7994
# 6 -32.3349 -24.0585 -5.6226 19.5209 3.7994 55.0121
#
#
#
# Elastic Compliance Matrix: (Units=1/GPa)
#
#
# Indices 1 2 3 4 5 6 
#
# 1 0.010671 -0.000859 -0.004510 0.001626 -0.001264 0.004946
# 2 -0.000859 0.010668 -0.000573 0.000497 -0.004011 0.004203
# 3 -0.004510 -0.000573 0.010827 -0.005102 -0.006924 0.000494
# 4 0.001626 0.000497 -0.005102 0.035908 0.002783 -0.012282
# 5 -0.001264 -0.004011 -0.006924 0.002783 0.029377 -0.006221
# 6 0.004946 0.004203 0.000494 -0.012282 -0.006221 0.027761
#
#
# Mechanical properties :
#
#
# Convention : Reuss Voigt Hill
#
# Bulk Modulus (GPa) = 49.30571 79.53181 64.41876
# Shear Modulus (GPa) = 34.75716 46.60326 40.68021
#
# Velocity S-wave (km/s) = 3.56887 4.13254 3.86101
# Velocity P-wave (km/s) = 5.92036 7.20522 6.59416
#
# Compressibility (1/GPa) = 0.02028163
#
# Stress axis : x y z
#
# Youngs Moduli (GPa) = 93.71594 93.73923 92.36335
#
# Poissons Ratio (x) = 0.08050 0.41652
# Poissons Ratio (y) = 0.08048 0.05297
# Poissons Ratio (z) = 0.42261 0.05376
#
# Static dielectric constant tensor:
#      x y z
#    x 2.312130 -0.001070 -0.074210 
#    y -0.001070 2.299130 -0.052840 
#    z -0.074210 -0.052840 2.046770 
# 
# From -- ./inp_files/265029.got.cif
#   From: 2010.05.17/outbox.cif.g08.bks.cpg/sg2_133_cif.got.tgz:265029.got - 2010.06.03 11:33:40.
