data_PCOD9096912
_publ_section_title
;
Structure prediction by ZEFSAII (Michael W. Deem and Ramdas Pophale) SiO2 
 PCOD9096912
Probable space group: P -1
;
_chemical_formula_sum "Si O2"
_cell_formula_units_Z 16
_cell_length_a 15.317803
_cell_length_b 6.997220
_cell_length_c 18.128262
_cell_angle_alpha 66.337380
_cell_angle_beta 27.867949
_cell_angle_gamma 79.135612
_cell_volume 766.541766
_symmetry_space_group_name_H-M "P -1"
_symmetry_group_IT_number 2
_symmetry_cell_setting 'triclinic'
loop_
_space_group_symop_operation_xyz
x,y,z
-x,-y,-z
loop_
_atom_site_type_symbol
_atom_site_label
_atom_site_fract_x
_atom_site_fract_y
_atom_site_fract_z
Si Si1 0.505581 0.297404 0.882247
Si Si2 0.261471 0.183979 0.348580
Si Si3 0.804762 0.361778 0.101418
Si Si4 0.634030 0.751839 0.172162
Si Si5 0.266682 0.934057 0.665599
Si Si6 0.596119 0.057578 0.592919
Si Si7 0.991498 0.859848 0.104003
Si Si8 0.202552 0.954199 0.268355
O O1 0.575462 0.560792 0.807818
O O2 0.469051 0.264853 0.827304
O O3 0.681952 0.216065 0.789016
O O4 0.303914 0.136357 0.100287
O O5 0.320007 0.028979 0.386115
O O6 0.038427 0.170610 0.538942
O O7 0.248405 0.087667 0.291071
O O8 0.729270 0.563932 0.133155
O O9 0.847977 0.278166 0.162309
O O10 0.605091 0.150864 0.252649
O O11 0.974127 0.358657 0.916713
O O12 0.477842 0.747773 0.354283
O O13 0.821512 0.990335 0.007345
O O14 0.500000 0.000000 0.500000
O O15 0.249228 0.886487 0.599386
O O16 0.201506 0.137087 0.708539
O O17 0.000000 0.000000 0.000000
#
# Coordination Sequence:
#
# PCOD9096912 Si02
#       8
#     2   2   2   2   2   2   2   2
#     4  11  22  41  65  95 124 167 215 257 320 387
#     4  11  21  41  66  90 131 164 208 268 320 374
#     4   9  19  38  59  83 115 164 205 254 313 369
#     4  11  21  36  62  87 124 166 209 257 313 373
#     4   9  19  36  59  82 119 158 203 252 312 368
#     4  10  20  36  58  87 125 163 201 259 313 369
#     4   9  20  37  58  84 117 158 210 258 307 366
#     4  10  24  40  65  93 125 165 210 266 322 381
#
# _framework density 20.872965000000001
#
# number of rings (size 3 to 8) (size 9 to 14) (size 15 to 20)
#    0.000    2.000    2.500    1.500    1.750    2.500 
#    0.000    2.500    5.500    0.000    0.000    0.000 
#    0.000    0.000    0.000    0.000    0.000    0.000 
#
# Total GULP energy -89313.852884 kJ/mol
# GULP energy per Si atom -5582.115805 kJ/mol
# Density = 2.082546 g / cm^3
# Si number density = 20.872965 Si / 1000 Ang^3
#
#
#
# Elastic Constant Matrix: (Units=GPa)
#
#
# Indices 1 2 3 4 5 6 
#
# 1 68.5184 25.3158 3.3420 7.3443 10.8491 7.4799
# 2 25.3158 138.5226 35.6393 26.2693 20.2349 -2.0190
# 3 3.3420 35.6393 57.5588 25.4006 19.9482 -2.6939
# 4 7.3443 26.2693 25.4006 40.1755 8.6559 -1.8705
# 5 10.8491 20.2349 19.9482 8.6559 28.8017 4.9960
# 6 7.4799 -2.0190 -2.6939 -1.8705 4.9960 27.1038
#
#
#
# Elastic Compliance Matrix: (Units=1/GPa)
#
#
# Indices 1 2 3 4 5 6 
#
# 1 0.017006 -0.002801 0.003614 -0.002542 -0.005536 -0.003698
# 2 -0.002801 0.009590 -0.003521 -0.002903 -0.002618 0.001420
# 3 0.003614 -0.003521 0.032036 -0.014677 -0.017379 0.004115
# 4 -0.002542 -0.002903 -0.014677 0.036132 0.002107 0.001131
# 5 -0.005536 -0.002618 -0.017379 0.002107 0.051746 -0.009787
# 6 -0.003698 0.001420 0.004115 0.001131 -0.009787 0.040313
#
#
# Mechanical properties :
#
#
# Convention : Reuss Voigt Hill
#
# Bulk Modulus (GPa) = 18.79094 43.68823 31.23959
# Shear Modulus (GPa) = 23.81209 32.56972 28.19091
#
# Velocity S-wave (km/s) = 3.38125 3.95445 3.67903
# Velocity P-wave (km/s) = 4.92604 6.46732 5.74857
#
# Compressibility (1/GPa) = 0.05321713
#
# Stress axis : x y z
#
# Youngs Moduli (GPa) = 58.80327 104.27139 31.21442
#
# Poissons Ratio (x) = 0.29206 -0.11281
# Poissons Ratio (y) = 0.16471 0.10990
# Poissons Ratio (z) = -0.21252 0.36712
#
# Static dielectric constant tensor:
#      x y z
#    x 1.736560 0.008830 -0.006580 
#    y 0.008830 1.760940 0.007060 
#    z -0.006580 0.007060 1.811630 
# 
# From -- ./inp_files/116368.got.cif
#   From: 2010.05.17/outbox.cif.g08.bks.cpg/sg2_59_cif.got.tgz:116368.got - 2010.06.03 11:33:40.
