data_PCOD9096066
_publ_section_title
;
Structure prediction by ZEFSAII (Michael W. Deem and Ramdas Pophale) SiO2 
 PCOD9096066
Probable space group: P -1
;
_chemical_formula_sum "Si O2"
_cell_formula_units_Z 14
_cell_length_a 8.463303
_cell_length_b 8.143952
_cell_length_c 11.831388
_cell_angle_alpha 109.833091
_cell_angle_beta 108.926761
_cell_angle_gamma 51.038986
_cell_volume 589.570214
_symmetry_space_group_name_H-M "P -1"
_symmetry_group_IT_number 2
_symmetry_cell_setting 'triclinic'
loop_
_space_group_symop_operation_xyz
x,y,z
-x,-y,-z
loop_
_atom_site_type_symbol
_atom_site_label
_atom_site_fract_x
_atom_site_fract_y
_atom_site_fract_z
Si Si1 0.109298 0.935915 0.164511
Si Si2 0.277692 0.992671 0.818974
Si Si3 0.297837 0.248030 0.487726
Si Si4 0.278515 0.370580 0.257943
Si Si5 0.404546 0.691338 0.378146
Si Si6 0.921225 0.757897 0.962197
Si Si7 0.160724 0.055058 0.561656
O O1 0.272434 0.853442 0.282958
O O2 0.139159 0.063836 0.106867
O O3 0.875878 0.073127 0.193144
O O4 0.116461 0.738053 0.060327
O O5 0.511938 0.813401 0.800941
O O6 0.182798 0.109903 0.705337
O O7 0.242031 0.141964 0.950061
O O8 0.251094 0.299288 0.357545
O O9 0.358853 0.394489 0.596307
O O10 0.500000 0.000000 0.500000
O O11 0.131052 0.235623 0.513733
O O12 0.319360 0.549395 0.328668
O O13 0.093433 0.416863 0.145125
O O14 0.355393 0.816451 0.514782
O O15 0.000000 0.000000 0.500000
#
# Coordination Sequence:
#
# PCOD9096066 Si02
#       7
#     2   2   2   2   2   2   2
#     4   9  20  39  63  81 113 155 204 236 272 350
#     4  10  20  35  62  84 111 153 201 233 271 358
#     4  10  21  36  59  85 113 156 191 231 284 352
#     4  12  22  36  61  87 124 148 188 248 291 339
#     4  11  22  38  58  90 120 151 182 247 305 324
#     4   9  20  39  63  84 108 161 207 225 283 341
#     4  11  20  38  64  85 112 154 202 232 280 353
#
# _framework density 23.746112
#
# number of rings (size 3 to 8) (size 9 to 14) (size 15 to 20)
#    0.857    0.857    4.286    2.571    0.000    0.571 
#    0.000    2.857    0.000    0.000    0.000    0.000 
#    0.000    0.000    0.000    0.000    0.000    0.000 
#
# Total GULP energy -77965.809782 kJ/mol
# GULP energy per Si atom -5568.986413 kJ/mol
# Density = 2.369206 g / cm^3
# Si number density = 23.746112 Si / 1000 Ang^3
#
#
#
# Elastic Constant Matrix: (Units=GPa)
#
#
# Indices 1 2 3 4 5 6 
#
# 1 93.9489 30.9046 48.4667 0.7885 4.3882 27.9746
# 2 30.9046 56.7823 41.6621 6.1656 -12.5842 26.3048
# 3 48.4667 41.6621 170.7837 6.0392 -4.0653 20.2593
# 4 0.7885 6.1656 6.0392 31.1461 16.3827 7.8905
# 5 4.3882 -12.5842 -4.0653 16.3827 43.7420 -3.3066
# 6 27.9746 26.3048 20.2593 7.8905 -3.3066 42.5463
#
#
#
# Elastic Compliance Matrix: (Units=1/GPa)
#
#
# Indices 1 2 3 4 5 6 
#
# 1 0.016478 -0.005435 -0.002807 0.006653 -0.006565 -0.007881
# 2 -0.005435 0.033148 -0.004498 -0.008786 0.012031 -0.012215
# 3 -0.002807 -0.004498 0.007646 -0.000873 0.000113 0.001157
# 4 0.006653 -0.008786 -0.000873 0.047599 -0.021787 -0.009047
# 5 -0.006565 0.012031 0.000113 -0.021787 0.035425 0.003618
# 6 -0.007881 -0.012215 0.001157 -0.009047 0.003618 0.037646
#
#
# Mechanical properties :
#
#
# Convention : Reuss Voigt Hill
#
# Bulk Modulus (GPa) = 31.45470 62.62019 47.03745
# Shear Modulus (GPa) = 23.36249 36.85231 30.10740
#
# Velocity S-wave (km/s) = 3.14003 3.94373 3.56460
# Velocity P-wave (km/s) = 5.14018 6.86770 6.06575
#
# Compressibility (1/GPa) = 0.03179175
#
# Stress axis : x y z
#
# Youngs Moduli (GPa) = 60.68877 30.16758 130.79486
#
# Poissons Ratio (x) = 0.16396 0.36713
# Poissons Ratio (y) = 0.32983 0.58831
# Poissons Ratio (z) = 0.17035 0.13569
#
# Static dielectric constant tensor:
#      x y z
#    x 2.306180 -0.051930 -0.000220 
#    y -0.051930 1.981850 0.049330 
#    z -0.000220 0.049330 1.905590 
# 
# From -- ./inp_files/240279.got.cif
#   From: 2010.05.17/outbox.cif.g08.bks.cpg/sg2_121_cif.got.tgz:240279.got - 2010.06.03 11:33:40.
