data_PCOD9096023
_publ_section_title
;
Structure prediction by ZEFSAII (Michael W. Deem and Ramdas Pophale) SiO2 
 PCOD9096023
Probable space group: P -1
;
_chemical_formula_sum "Si O2"
_cell_formula_units_Z 16
_cell_length_a 14.439076
_cell_length_b 11.511849
_cell_length_c 10.204204
_cell_angle_alpha 72.660702
_cell_angle_beta 56.551973
_cell_angle_gamma 30.239586
_cell_volume 645.517037
_symmetry_space_group_name_H-M "P -1"
_symmetry_group_IT_number 2
_symmetry_cell_setting 'triclinic'
loop_
_space_group_symop_operation_xyz
x,y,z
-x,-y,-z
loop_
_atom_site_type_symbol
_atom_site_label
_atom_site_fract_x
_atom_site_fract_y
_atom_site_fract_z
Si Si1 0.898352 0.579514 0.699204
Si Si2 0.969732 0.277681 0.413837
Si Si3 0.220649 0.467261 0.789605
Si Si4 0.394137 0.338876 0.208771
Si Si5 0.688196 0.868994 0.294730
Si Si6 0.766486 0.180423 0.270689
Si Si7 0.841426 0.002388 0.992239
Si Si8 0.611575 0.255007 0.647002
O O1 0.687941 0.687734 0.816623
O O2 0.000000 0.500000 0.500000
O O3 0.890687 0.727277 0.701013
O O4 0.083220 0.336267 0.729135
O O5 0.790842 0.459676 0.371517
O O6 0.823956 0.408576 0.618865
O O7 0.166490 0.985544 0.355812
O O8 0.261900 0.285648 0.796999
O O9 0.422270 0.329650 0.766944
O O10 0.974304 0.748033 0.943059
O O11 0.583699 0.254793 0.044528
O O12 0.559269 0.107513 0.257495
O O13 0.500000 0.000000 0.500000
O O14 0.833924 0.036961 0.141381
O O15 0.706095 0.168234 0.453418
O O16 0.539826 0.477983 0.305680
O O17 0.978150 0.068542 0.174126
#
# Coordination Sequence:
#
# PCOD9096023 Si02
#       8
#     2   2   2   2   2   2   2   2
#     4   9  18  31  53  89 118 147 189 237 284 337
#     4  10  20  35  61  94 114 149 201 247 289 345
#     4  10  21  38  61  90 124 156 193 240 295 359
#     4  11  21  35  59  86 121 160 192 238 293 353
#     4  11  19  34  59  91 121 152 195 243 281 338
#     4   9  21  42  64  85 113 154 205 257 302 347
#     4  10  22  41  58  84 124 160 195 241 308 365
#     4  10  20  39  68  89 110 149 206 261 292 340
#
# _framework density 24.786334
#
# number of rings (size 3 to 8) (size 9 to 14) (size 15 to 20)
#    0.000    2.000    3.750    1.500    1.750    0.500 
#    0.000   20.000    0.000    0.000    0.000    0.000 
#    0.000    0.000    0.000    0.000    0.000    0.000 
#
# Total GULP energy -89436.562792 kJ/mol
# GULP energy per Si atom -5589.785175 kJ/mol
# Density = 2.472992 g / cm^3
# Si number density = 24.786334 Si / 1000 Ang^3
#
#
#
# Elastic Constant Matrix: (Units=GPa)
#
#
# Indices 1 2 3 4 5 6 
#
# 1 73.3704 1.4510 15.4083 14.7629 -10.3585 3.8313
# 2 1.4510 93.8823 -1.9133 19.9634 -5.7062 -9.0515
# 3 15.4083 -1.9133 88.7692 24.2600 -3.5556 8.2186
# 4 14.7629 19.9634 24.2600 29.1649 -4.9134 0.8346
# 5 -10.3585 -5.7062 -3.5556 -4.9134 45.5078 13.6937
# 6 3.8313 -9.0515 8.2186 0.8346 13.6937 16.7735
#
#
#
# Elastic Compliance Matrix: (Units=1/GPa)
#
#
# Indices 1 2 3 4 5 6 
#
# 1 0.016280 0.001133 0.000292 -0.008201 0.005091 -0.006998
# 2 0.001133 0.014160 0.002922 -0.013178 -0.001523 0.007850
# 3 0.000292 0.002922 0.016170 -0.014983 0.002365 -0.007598
# 4 -0.008201 -0.013178 -0.014983 0.060486 0.002802 -0.003194
# 5 0.005091 -0.001523 0.002365 0.002802 0.032369 -0.029708
# 6 -0.006998 0.007850 -0.007598 -0.003194 -0.029708 0.093588
#
#
# Mechanical properties :
#
#
# Convention : Reuss Voigt Hill
#
# Bulk Modulus (GPa) = 18.08177 31.76822 24.92499
# Shear Modulus (GPa) = 20.59353 34.36096 27.47724
#
# Velocity S-wave (km/s) = 2.88556 3.72733 3.33312
# Velocity P-wave (km/s) = 4.29102 5.60077 4.98906
#
# Compressibility (1/GPa) = 0.05530431
#
# Stress axis : x y z
#
# Youngs Moduli (GPa) = 61.42465 70.62057 61.84133
#
# Poissons Ratio (x) = -0.08001 -0.01804
# Poissons Ratio (y) = -0.06959 -0.18072
# Poissons Ratio (z) = -0.01791 -0.20637
#
# Static dielectric constant tensor:
#      x y z
#    x 2.007470 0.002030 -0.101200 
#    y 0.002030 1.914610 -0.006590 
#    z -0.101200 -0.006590 2.144990 
# 
# From -- ./inp_files/452270.got.cif
#   From: 2010.05.17/outbox.cif.g08.bks.cpg/sg2_227_cif.got.tgz:452270.got - 2010.06.03 11:33:40.
