data_PCOD9096653
_publ_section_title
;
Structure prediction by ZEFSAII (Michael W. Deem and Ramdas Pophale) SiO2 
 PCOD9096653
Probable space group: P -1
;
_chemical_formula_sum "Si O2"
_cell_formula_units_Z 16
_cell_length_a 10.682953
_cell_length_b 7.935251
_cell_length_c 11.270480
_cell_angle_alpha 131.646785
_cell_angle_beta 53.870032
_cell_angle_gamma 115.332648
_cell_volume 575.609217
_symmetry_space_group_name_H-M "P -1"
_symmetry_group_IT_number 2
_symmetry_cell_setting 'triclinic'
loop_
_space_group_symop_operation_xyz
x,y,z
-x,-y,-z
loop_
_atom_site_type_symbol
_atom_site_label
_atom_site_fract_x
_atom_site_fract_y
_atom_site_fract_z
Si Si1 0.993923 0.365576 0.699284
Si Si2 0.778048 0.281492 0.166155
Si Si3 0.418579 0.333394 0.583639
Si Si4 0.149149 0.039684 0.648364
Si Si5 0.641996 0.388140 0.693476
Si Si6 0.301093 0.827531 0.109703
Si Si7 0.445286 0.089308 0.823660
Si Si8 0.134958 0.236460 0.316895
O O1 0.058414 0.598998 0.833006
O O2 0.074554 0.162032 0.631943
O O3 0.049111 0.364386 0.531384
O O4 0.812025 0.309760 0.799025
O O5 0.657535 0.472430 0.358005
O O6 0.723984 0.037103 0.134395
O O7 0.741173 0.265836 0.039768
O O8 0.278056 0.232071 0.702182
O O9 0.558839 0.418334 0.628165
O O10 0.461083 0.115362 0.382317
O O11 0.249562 0.822572 0.477503
O O12 0.995670 0.934315 0.750397
O O13 0.759918 0.602084 0.749607
O O14 0.499702 0.307024 0.819472
O O15 0.477359 0.849825 0.064108
O O16 0.247194 0.079954 0.251719
#
# Coordination Sequence:
#
# PCOD9096653 Si02
#       8
#     2   2   2   2   2   2   2   2
#     4  10  20  37  61  84 107 139 183 230 274 322
#     4  11  22  37  57  82 112 146 181 224 274 323
#     4  10  20  36  57  83 109 142 184 227 269 322
#     4   9  18  32  54  83 109 134 175 228 270 311
#     4  11  21  34  56  85 111 142 184 227 267 318
#     4  11  22  38  57  83 112 143 181 227 275 324
#     4  11  21  37  57  81 111 146 184 226 267 320
#     4  11  20  35  59  85 109 142 182 225 272 324
#
# _framework density 27.796634999999998
#
# number of rings (size 3 to 8) (size 9 to 14) (size 15 to 20)
#    0.000    1.500    0.000    9.750    0.000    0.000 
#    0.000    2.500    0.000    0.000    0.000   15.750 
#    0.000    0.000    0.000    0.000    0.000    0.000 
#
# Total GULP energy -89519.062258 kJ/mol
# GULP energy per Si atom -5594.941391 kJ/mol
# Density = 2.773337 g / cm^3
# Si number density = 27.796635 Si / 1000 Ang^3
#
#
#
# Elastic Constant Matrix: (Units=GPa)
#
#
# Indices 1 2 3 4 5 6 
#
# 1 82.3653 35.3153 1.5205 4.9799 -1.2359 28.5047
# 2 35.3153 245.9959 27.9087 -2.9486 2.6371 37.0605
# 3 1.5205 27.9087 71.5224 0.8910 9.3928 5.4795
# 4 4.9799 -2.9486 0.8910 39.8542 4.2446 9.4313
# 5 -1.2359 2.6371 9.3928 4.2446 32.9366 -3.3614
# 6 28.5047 37.0605 5.4795 9.4313 -3.3614 33.8106
#
#
#
# Elastic Compliance Matrix: (Units=1/GPa)
#
#
# Indices 1 2 3 4 5 6 
#
# 1 0.017333 -0.000320 0.001062 0.001475 -0.001346 -0.014980
# 2 -0.000320 0.005184 -0.001486 0.001916 -0.000841 -0.005790
# 3 0.001062 -0.001486 0.015302 0.000443 -0.004498 -0.002318
# 4 0.001475 0.001916 0.000443 0.028383 -0.005090 -0.011839
# 5 -0.001346 -0.000841 -0.004498 -0.005090 0.033082 0.007495
# 6 -0.014980 -0.005790 -0.002318 -0.011839 0.007495 0.052975
#
#
# Mechanical properties :
#
#
# Convention : Reuss Voigt Hill
#
# Bulk Modulus (GPa) = 27.52387 58.81918 43.17152
# Shear Modulus (GPa) = 30.14652 43.66289 36.90471
#
# Velocity S-wave (km/s) = 3.29681 3.96763 3.64767
# Velocity P-wave (km/s) = 4.94118 6.49584 5.77110
#
# Compressibility (1/GPa) = 0.03633210
#
# Stress axis : x y z
#
# Youngs Moduli (GPa) = 57.69177 192.90634 65.35249
#
# Poissons Ratio (x) = 0.06173 -0.06943
# Poissons Ratio (y) = 0.01846 0.09710
# Poissons Ratio (z) = -0.06129 0.28662
#
# Static dielectric constant tensor:
#      x y z
#    x 2.116880 -0.006490 -0.049190 
#    y -0.006490 2.219270 -0.056270 
#    z -0.049190 -0.056270 2.240260 
# 
# From -- ./inp_files/418388.got.cif
#   From: 2010.05.17/outbox.cif.g08.bks.cpg/sg2_210_cif.got.tgz:418388.got - 2010.06.03 11:33:40.
