data_PCOD9096131
_publ_section_title
;
Structure prediction by ZEFSAII (Michael W. Deem and Ramdas Pophale) SiO2 
 PCOD9096131
Probable space group: P -1
;
_chemical_formula_sum "Si O2"
_cell_formula_units_Z 13
_cell_length_a 6.958853
_cell_length_b 8.414269
_cell_length_c 14.706353
_cell_angle_alpha 48.384092
_cell_angle_beta 79.091734
_cell_angle_gamma 105.338772
_cell_volume 535.449769
_symmetry_space_group_name_H-M "P -1"
_symmetry_group_IT_number 2
_symmetry_cell_setting 'triclinic'
loop_
_space_group_symop_operation_xyz
x,y,z
-x,-y,-z
loop_
_atom_site_type_symbol
_atom_site_label
_atom_site_fract_x
_atom_site_fract_y
_atom_site_fract_z
Si Si1 0.037503 0.184279 0.258741
Si Si2 0.500000 0.000000 0.000000
Si Si3 0.259419 0.485660 0.293428
Si Si4 0.619700 0.339559 0.041752
Si Si5 0.766262 0.402535 0.374475
Si Si6 0.124315 0.343330 0.558412
Si Si7 0.566281 0.134778 0.324808
O O1 0.191052 0.278140 0.300655
O O2 0.771886 0.081929 0.341807
O O3 0.124868 0.431095 0.096292
O O4 0.042944 0.954807 0.302510
O O5 0.466575 0.857602 0.957481
O O6 0.524755 0.246276 0.852657
O O7 0.248178 0.394129 0.430919
O O8 0.040840 0.528990 0.285287
O O9 0.585459 0.212143 0.190127
O O10 0.500000 0.500000 0.000000
O O11 0.735373 0.554312 0.399557
O O12 0.635084 0.354302 0.309170
O O13 0.664957 0.123273 0.530046
O O14 0.000000 0.500000 0.500000
#
# Coordination Sequence:
#
# PCOD9096131 Si02
#       7
#     2   1   2   2   2   2   2
#     4  10  22  39  61  92 121 167 204 251 319 363
#     4  10  22  42  60  98 118 162 212 254 312 372
#     4   9  19  36  62  88 126 156 205 257 303 369
#     4  11  25  41  68  92 127 166 208 260 314 367
#     4   9  20  36  64  85 122 163 199 251 310 367
#     4  10  20  35  62  91 124 159 208 256 303 369
#     4  10  21  43  60  88 128 159 208 255 311 374
#
# _framework density 24.278655000000001
#
# number of rings (size 3 to 8) (size 9 to 14) (size 15 to 20)
#    0.000    2.154    0.000    1.846    8.615    0.615 
#   11.077    0.769    0.000    0.000    0.000    0.000 
#    0.000    0.000    0.000    0.000    0.000    0.000 
#
# Total GULP energy -72409.450363 kJ/mol
# GULP energy per Si atom -5569.957720 kJ/mol
# Density = 2.422340 g / cm^3
# Si number density = 24.278655 Si / 1000 Ang^3
#
#
#
# Elastic Constant Matrix: (Units=GPa)
#
#
# Indices 1 2 3 4 5 6 
#
# 1 43.9438 7.4119 -6.8827 -2.5413 10.8714 -0.5807
# 2 7.4119 258.0061 87.0251 10.3699 22.1899 8.8174
# 3 -6.8827 87.0251 116.7931 23.0152 15.3135 -2.2540
# 4 -2.5413 10.3699 23.0152 53.8463 -4.3596 6.2304
# 5 10.8714 22.1899 15.3135 -4.3596 17.6305 7.5899
# 6 -0.5807 8.8174 -2.2540 6.2304 7.5899 21.4276
#
#
#
# Elastic Compliance Matrix: (Units=1/GPa)
#
#
# Indices 1 2 3 4 5 6 
#
# 1 0.033261 -0.001330 0.009461 -0.007170 -0.036314 0.017391
# 2 -0.001330 0.005497 -0.004278 0.000934 -0.001005 -0.002663
# 3 0.009461 -0.004278 0.017994 -0.010330 -0.025497 0.015944
# 4 -0.007170 0.000934 -0.010330 0.026866 0.027069 -0.019065
# 5 -0.036314 -0.001005 -0.025497 0.027069 0.134517 -0.058771
# 6 0.017391 -0.002663 0.015944 -0.019065 -0.058771 0.076274
#
#
# Mechanical properties :
#
#
# Convention : Reuss Voigt Hill
#
# Bulk Modulus (GPa) = 15.51389 65.98351 40.74870
# Shear Modulus (GPa) = 16.22386 40.66013 28.44199
#
# Velocity S-wave (km/s) = 2.58783 4.09678 3.42640
# Velocity P-wave (km/s) = 3.91573 7.04377 5.69858
#
# Compressibility (1/GPa) = 0.06445836
#
# Stress axis : x y z
#
# Youngs Moduli (GPa) = 30.06497 181.91912 55.57560
#
# Poissons Ratio (x) = 0.24189 -0.52579
# Poissons Ratio (y) = 0.03998 0.23774
# Poissons Ratio (z) = -0.28444 0.77822
#
# Static dielectric constant tensor:
#      x y z
#    x 2.052440 -0.012880 -0.096480 
#    y -0.012880 1.962870 0.024080 
#    z -0.096480 0.024080 1.966580 
# 
# From -- ./inp_files/291771.got.cif
#   From: 2010.05.17/outbox.cif.g08.bks.cpg/sg2_146_cif.got.tgz:291771.got - 2010.06.03 11:33:40.
