data_PCOD9096303
_publ_section_title
;
Structure prediction by ZEFSAII (Michael W. Deem and Ramdas Pophale) SiO2 
 PCOD9096303
Probable space group: P -1
;
_chemical_formula_sum "Si O2"
_cell_formula_units_Z 16
_cell_length_a 10.367205
_cell_length_b 12.585374
_cell_length_c 8.115949
_cell_angle_alpha 97.822025
_cell_angle_beta 58.823454
_cell_angle_gamma 113.637250
_cell_volume 826.527075
_symmetry_space_group_name_H-M "P -1"
_symmetry_group_IT_number 2
_symmetry_cell_setting 'triclinic'
loop_
_space_group_symop_operation_xyz
x,y,z
-x,-y,-z
loop_
_atom_site_type_symbol
_atom_site_label
_atom_site_fract_x
_atom_site_fract_y
_atom_site_fract_z
Si Si1 0.406774 0.047850 0.203747
Si Si2 0.843709 0.514686 0.185426
Si Si3 0.396733 0.436310 0.212113
Si Si4 0.568599 0.259229 0.385831
Si Si5 0.956532 0.606022 0.491778
Si Si6 0.363841 0.345272 0.754529
Si Si7 0.409869 0.225456 0.023483
Si Si8 0.299789 0.805393 0.373045
O O1 0.522694 0.155866 0.260980
O O2 0.320175 0.937854 0.355719
O O3 0.312833 0.104113 0.154930
O O4 0.500000 0.000000 0.000000
O O5 0.703641 0.384591 0.268700
O O6 0.903179 0.578781 0.333161
O O7 0.771022 0.599402 0.159917
O O8 0.000000 0.500000 0.000000
O O9 0.205083 0.398474 0.310237
O O10 0.467786 0.537432 0.320145
O O11 0.500000 0.500000 0.000000
O O12 0.434536 0.321848 0.168227
O O13 0.405170 0.276518 0.563019
O O14 0.642634 0.219339 0.490747
O O15 0.000000 0.500000 0.500000
O O16 0.114473 0.721279 0.442220
O O17 0.337781 0.266031 0.919268
O O18 0.580455 0.225255 0.840232
#
# Coordination Sequence:
#
# PCOD9096303 Si02
#       8
#     2   2   2   2   2   2   2   2
#     4  10  22  38  66  93 116 165 223 259 302 367
#     4  12  27  36  62  98 134 164 199 263 322 377
#     4  10  20  35  65  90 123 167 202 250 310 379
#     4  11  21  41  64  90 126 165 213 259 305 371
#     4  12  23  40  60  94 134 159 204 254 327 373
#     4  10  21  39  58  93 125 163 210 248 312 372
#     4   9  20  37  64  85 121 166 210 255 293 366
#     4  10  22  41  62  93 128 165 206 261 308 367
#
# _framework density 19.358107
#
# number of rings (size 3 to 8) (size 9 to 14) (size 15 to 20)
#    0.000    1.500    2.500    3.000   10.500    0.000 
#    0.000    0.625    0.000    0.750    0.000    0.000 
#    0.000    0.000    0.000    0.000    0.000    0.000 
#
# Total GULP energy -89170.062725 kJ/mol
# GULP energy per Si atom -5573.128920 kJ/mol
# Density = 1.931405 g / cm^3
# Si number density = 19.358107 Si / 1000 Ang^3
#
#
#
# Elastic Constant Matrix: (Units=GPa)
#
#
# Indices 1 2 3 4 5 6 
#
# 1 120.9290 64.1674 51.9180 -15.5956 -1.7067 -18.2465
# 2 64.1674 134.0582 45.2011 0.6137 6.9715 -18.2659
# 3 51.9180 45.2011 98.0242 7.7869 -6.4981 -2.2030
# 4 -15.5956 0.6137 7.7869 34.1831 0.0268 11.4780
# 5 -1.7067 6.9715 -6.4981 0.0268 31.2020 -2.8670
# 6 -18.2465 -18.2659 -2.2030 11.4780 -2.8670 39.3102
#
#
#
# Elastic Compliance Matrix: (Units=1/GPa)
#
#
# Indices 1 2 3 4 5 6 
#
# 1 0.014711 -0.004773 -0.006082 0.007461 0.000796 0.002149
# 2 -0.004773 0.011249 -0.002540 -0.002982 -0.002977 0.003522
# 3 -0.006082 -0.002540 0.015247 -0.005797 0.003303 -0.001216
# 4 0.007461 -0.002982 -0.005797 0.037107 -0.001006 -0.009155
# 5 0.000796 -0.002977 0.003303 -0.001006 0.033623 0.001917
# 6 0.002149 0.003522 -0.001216 -0.009155 0.001917 0.030818
#
#
# Mechanical properties :
#
#
# Convention : Reuss Voigt Hill
#
# Bulk Modulus (GPa) = 69.37268 75.06491 72.21879
# Shear Modulus (GPa) = 28.67766 33.72074 31.19920
#
# Velocity S-wave (km/s) = 3.85311 4.17819 4.01894
# Velocity P-wave (km/s) = 7.46388 7.88274 7.67617
#
# Compressibility (1/GPa) = 0.01441490
#
# Stress axis : x y z
#
# Youngs Moduli (GPa) = 67.97591 88.89460 65.58878
#
# Poissons Ratio (x) = 0.42434 0.39892
# Poissons Ratio (y) = 0.32448 0.16662
# Poissons Ratio (z) = 0.41344 0.22583
#
# Static dielectric constant tensor:
#      x y z
#    x 1.729530 -0.016170 0.047470 
#    y -0.016170 1.708240 0.018790 
#    z 0.047470 0.018790 1.724230 
# 
# From -- ./inp_files/188336.got.cif
#   From: 2010.05.17/outbox.cif.g08.bks.cpg/sg2_95_cif.got.tgz:188336.got - 2010.06.03 11:33:40.
