data_PCOD9096331
_publ_section_title
;
Structure prediction by ZEFSAII (Michael W. Deem and Ramdas Pophale) SiO2 
 PCOD9096331
Probable space group: P -1
;
_chemical_formula_sum "Si O2"
_cell_formula_units_Z 16
_cell_length_a 18.098382
_cell_length_b 11.668351
_cell_length_c 11.618112
_cell_angle_alpha 112.850240
_cell_angle_beta 132.742768
_cell_angle_gamma 28.785326
_cell_volume 704.334276
_symmetry_space_group_name_H-M "P -1"
_symmetry_group_IT_number 2
_symmetry_cell_setting 'triclinic'
loop_
_space_group_symop_operation_xyz
x,y,z
-x,-y,-z
loop_
_atom_site_type_symbol
_atom_site_label
_atom_site_fract_x
_atom_site_fract_y
_atom_site_fract_z
Si Si1 0.556075 0.806816 0.719402
Si Si2 0.530212 0.257974 0.187196
Si Si3 0.518936 0.350323 0.889053
Si Si4 0.043167 0.767045 0.554801
Si Si5 0.907016 0.569421 0.559766
Si Si6 0.981449 0.844120 0.029755
Si Si7 0.973229 0.128049 0.160932
Si Si8 0.359275 0.037747 0.989701
O O1 0.474629 0.782770 0.703722
O O2 0.823161 0.470474 0.836322
O O3 0.321874 0.097248 0.511367
O O4 0.576439 0.913588 0.852101
O O5 0.488622 0.173627 0.043015
O O6 0.303762 0.589681 0.046278
O O7 0.774773 0.052929 0.336853
O O8 0.246886 0.630027 0.670300
O O9 0.500000 0.500000 0.000000
O O10 0.602562 0.134399 0.967063
O O11 0.725420 0.120448 0.923633
O O12 0.149598 0.512144 0.546833
O O13 0.011761 0.830192 0.681726
O O14 0.000000 0.500000 0.500000
O O15 0.108241 0.346561 0.783109
O O16 0.959070 0.864682 0.874915
O O17 0.085815 0.865651 0.174405
#
# Coordination Sequence:
#
# PCOD9096331 Si02
#       8
#     2   2   2   2   2   2   2   2
#     4  11  21  38  64  91 139 164 208 266 323 371
#     4  10  20  35  67 102 120 160 220 265 311 373
#     4  12  23  44  69  89 128 176 215 263 325 384
#     4  11  21  37  72  92 125 166 214 267 313 375
#     4  11  22  37  65 105 131 159 224 262 310 384
#     4  10  24  39  66  93 126 175 212 259 327 385
#     4  10  20  44  65  91 129 163 216 271 319 371
#     4  11  22  36  65  94 130 172 207 261 321 376
#
# _framework density 22.716486
#
# number of rings (size 3 to 8) (size 9 to 14) (size 15 to 20)
#    0.000    1.250    6.250    0.375    3.500    0.500 
#    0.000   13.125   13.750    0.000    0.000    0.000 
#    0.000    0.000    0.000    0.000    0.000    0.000 
#
# Total GULP energy -89141.118545 kJ/mol
# GULP energy per Si atom -5571.319909 kJ/mol
# Density = 2.266478 g / cm^3
# Si number density = 22.716486 Si / 1000 Ang^3
#
#
#
# Elastic Constant Matrix: (Units=GPa)
#
#
# Indices 1 2 3 4 5 6 
#
# 1 65.0604 30.5228 26.9734 -14.5855 14.7333 -1.5464
# 2 30.5228 105.6444 31.6939 -40.0209 8.4228 -2.1902
# 3 26.9734 31.6939 79.7509 -19.6401 12.1348 4.4487
# 4 -14.5855 -40.0209 -19.6401 15.5271 0.4527 2.1500
# 5 14.7333 8.4228 12.1348 0.4527 34.7578 -5.5710
# 6 -1.5464 -2.1902 4.4487 2.1500 -5.5710 44.4013
#
#
#
# Elastic Compliance Matrix: (Units=1/GPa)
#
#
# Indices 1 2 3 4 5 6 
#
# 1 0.018719 -0.016111 -0.008748 -0.035340 -0.000127 0.002429
# 2 -0.016111 -0.068549 -0.032551 -0.236362 0.040422 0.015836
# 3 -0.008748 -0.032551 0.005305 -0.086177 0.011373 0.003158
# 4 -0.035340 -0.236362 -0.086177 -0.696615 0.118525 0.044347
# 5 -0.000127 0.040422 0.011373 0.118525 0.012992 -0.003259
# 6 0.002429 0.015836 0.003158 0.044347 -0.003259 0.020515
#
#
# Mechanical properties :
#
#
# Convention : Reuss Voigt Hill
#
# Bulk Modulus (GPa) = -6.27567 47.64842 20.68637
# Shear Modulus (GPa) = -7.74082 29.68825 10.97372
#
# Velocity S-wave (km/s) = -1.84797 3.61903 2.20028
# Velocity P-wave (km/s) = 2.70590 6.20355 3.94728
#
# Compressibility (1/GPa) = -0.15934546
#
# Stress axis : x y z
#
# Youngs Moduli (GPa) = 53.42042 -14.58820 188.50970
#
# Poissons Ratio (x) = -0.23504 1.64905
# Poissons Ratio (y) = 0.86068 6.13624
# Poissons Ratio (z) = 0.46731 -0.47487
#
# Static dielectric constant tensor:
#      x y z
#    x 1.923530 -0.008390 -0.028060 
#    y -0.008390 1.904090 0.001940 
#    z -0.028060 0.001940 1.912990 
# 
# From -- ./inp_files/464687.got.cif
#   From: 2010.05.17/outbox.cif.g08.bks.cpg/sg2_233_cif.got.tgz:464687.got - 2010.06.03 11:33:40.
