data_PCOD9096124
_publ_section_title
;
Structure prediction by ZEFSAII (Michael W. Deem and Ramdas Pophale) SiO2 
 PCOD9096124
Probable space group: P -1
;
_chemical_formula_sum "Si O2"
_cell_formula_units_Z 16
_cell_length_a 16.992514
_cell_length_b 15.501000
_cell_length_c 8.882979
_cell_angle_alpha 146.749606
_cell_angle_beta 38.618444
_cell_angle_gamma 146.498119
_cell_volume 680.313586
_symmetry_space_group_name_H-M "P -1"
_symmetry_group_IT_number 2
_symmetry_cell_setting 'triclinic'
loop_
_space_group_symop_operation_xyz
x,y,z
-x,-y,-z
loop_
_atom_site_type_symbol
_atom_site_label
_atom_site_fract_x
_atom_site_fract_y
_atom_site_fract_z
Si Si1 0.403867 0.026243 0.395920
Si Si2 0.635595 0.553858 0.648155
Si Si3 0.696592 0.245731 0.122897
Si Si4 0.040285 0.563530 0.772502
Si Si5 0.827881 0.215386 0.392515
Si Si6 0.915914 0.801662 0.419610
Si Si7 0.327756 0.341301 0.916074
Si Si8 0.021141 0.048183 0.865474
O O1 0.577751 0.116409 0.239112
O O2 0.369314 0.189067 0.675717
O O3 0.334990 0.910751 0.481362
O O4 0.319078 0.890370 0.183914
O O5 0.636486 0.372139 0.334476
O O6 0.745288 0.708526 0.591699
O O7 0.467249 0.500803 0.847741
O O8 0.695414 0.594835 0.792695
O O9 0.855410 0.382566 0.159215
O O10 0.147414 0.663945 0.615269
O O11 0.932291 0.355465 0.573517
O O12 0.943533 0.656674 0.083837
O O13 0.893658 0.087074 0.069167
O O14 0.000000 0.000000 0.500000
O O15 0.004181 0.873380 0.549764
O O16 0.179953 0.235265 0.884224
O O17 0.000000 0.000000 0.000000
#
# Coordination Sequence:
#
# PCOD9096124 Si02
#       8
#     2   2   2   2   2   2   2   2
#     4  10  20  38  61  89 118 154 198 254 295 359
#     4  10  21  38  60  90 119 152 197 248 294 356
#     4  10  22  38  62  90 118 153 204 246 304 352
#     4  11  25  39  58  87 124 163 197 252 302 358
#     4  11  23  40  59  87 126 159 203 247 301 358
#     4  12  24  41  61  88 126 157 196 252 307 355
#     4  10  20  35  62  91 116 150 199 247 295 345
#     4  12  21  38  66  93 115 159 206 248 295 358
#
# _framework density 23.518567999999998
#
# number of rings (size 3 to 8) (size 9 to 14) (size 15 to 20)
#    0.000    1.250    3.750    2.250    0.000    1.500 
#    0.000    0.625    5.500    0.000    0.000    0.000 
#    0.000    0.000    0.000    0.000    0.000    0.000 
#
# Total GULP energy -89395.605578 kJ/mol
# GULP energy per Si atom -5587.225349 kJ/mol
# Density = 2.346504 g / cm^3
# Si number density = 23.518568 Si / 1000 Ang^3
#
#
#
# Elastic Constant Matrix: (Units=GPa)
#
#
# Indices 1 2 3 4 5 6 
#
# 1 14.9401 -0.8746 -6.3238 -4.1477 7.6288 10.8101
# 2 -0.8746 150.4111 40.3897 -41.8184 3.4088 1.1972
# 3 -6.3238 40.3897 106.0093 5.5690 11.3212 1.9119
# 4 -4.1477 -41.8184 5.5690 56.6367 4.3189 6.5810
# 5 7.6288 3.4088 11.3212 4.3189 19.7111 4.0419
# 6 10.8101 1.1972 1.9119 6.5810 4.0419 30.4987
#
#
#
# Elastic Compliance Matrix: (Units=1/GPa)
#
#
# Indices 1 2 3 4 5 6 
#
# 1 0.146069 0.006022 0.012429 0.024301 -0.059762 -0.050113
# 2 0.006022 0.010286 -0.003623 0.009085 -0.003231 -0.003843
# 3 0.012429 -0.003623 0.012830 -0.001846 -0.010475 -0.003281
# 4 0.024301 0.009085 -0.001846 0.028902 -0.013522 -0.013299
# 5 -0.059762 -0.003231 -0.010475 -0.013522 0.080485 0.014217
# 6 -0.050113 -0.003843 -0.003281 -0.013299 0.014217 0.051892
#
#
# Mechanical properties :
#
#
# Convention : Reuss Voigt Hill
#
# Bulk Modulus (GPa) = 5.02917 37.52701 21.27809
# Shear Modulus (GPa) = 13.62068 37.24725 25.43396
#
# Velocity S-wave (km/s) = 2.40916 3.98394 3.29210
# Velocity P-wave (km/s) = 3.14352 6.09535 4.84949
#
# Compressibility (1/GPa) = 0.19883992
#
# Stress axis : x y z
#
# Youngs Moduli (GPa) = 6.84607 97.22047 77.94472
#
# Poissons Ratio (x) = -0.58543 -0.96874
# Poissons Ratio (y) = -0.04122 0.28236
# Poissons Ratio (z) = -0.08509 0.35219
#
# Static dielectric constant tensor:
#      x y z
#    x 1.907110 0.011560 0.029390 
#    y 0.011560 1.941950 -0.048790 
#    z 0.029390 -0.048790 1.887550 
# 
# From -- ./inp_files/281631.got.cif
#   From: 2010.05.17/outbox.cif.g08.bks.cpg/sg2_141_cif.got.tgz:281631.got - 2010.06.03 11:33:40.
