data_PCOD9096841
_publ_section_title
;
Structure prediction by ZEFSAII (Michael W. Deem and Ramdas Pophale) SiO2 
 PCOD9096841
Probable space group: P -1
;
_chemical_formula_sum "Si O2"
_cell_formula_units_Z 13
_cell_length_a 5.072341
_cell_length_b 5.227636
_cell_length_c 20.687752
_cell_angle_alpha 57.691144
_cell_angle_beta 101.089863
_cell_angle_gamma 97.248611
_cell_volume 454.796461
_symmetry_space_group_name_H-M "P -1"
_symmetry_group_IT_number 2
_symmetry_cell_setting 'triclinic'
loop_
_space_group_symop_operation_xyz
x,y,z
-x,-y,-z
loop_
_atom_site_type_symbol
_atom_site_label
_atom_site_fract_x
_atom_site_fract_y
_atom_site_fract_z
Si Si1 0.500000 0.500000 0.500000
Si Si2 0.300247 0.228587 0.047891
Si Si3 0.110584 0.681074 0.562417
Si Si4 0.599254 0.642676 0.270662
Si Si5 0.154010 0.603723 0.096866
Si Si6 0.167231 0.744046 0.768275
Si Si7 0.273004 0.812334 0.355610
O O1 0.373861 0.655709 0.536711
O O2 0.530534 0.856138 0.407713
O O3 0.254108 0.295636 0.111844
O O4 0.362026 0.880744 0.083658
O O5 0.500000 0.500000 0.000000
O O6 0.037337 0.281842 0.985122
O O7 0.176497 0.522933 0.653825
O O8 0.843645 0.460424 0.563887
O O9 0.000000 0.000000 0.500000
O O10 0.598108 0.415091 0.240431
O O11 0.360614 0.705936 0.302321
O O12 0.719400 0.981486 0.218428
O O13 0.979013 0.519485 0.162100
O O14 0.936192 0.920405 0.693914
#
# Coordination Sequence:
#
# PCOD9096841 Si02
#       7
#     1   2   2   2   2   2   2
#     4  10  20  36  58  84 116 164 214 262 326 390
#     4  10  21  41  67 100 135 174 221 274 330 397
#     4  10  21  36  58  86 119 161 211 271 330 392
#     4  10  24  40  62  90 125 167 216 268 333 399
#     4  10  22  40  67  98 134 176 224 273 331 401
#     4  11  23  44  64  93 132 171 216 274 329 393
#     4  10  23  39  60  91 126 166 216 273 331 394
#
# _framework density 28.584218
#
# number of rings (size 3 to 8) (size 9 to 14) (size 15 to 20)
#    0.000    1.846    0.000    2.769    0.000   12.308 
#    0.000    3.077    0.000    0.000    0.000    0.000 
#    0.000    0.000    0.000    0.000    0.000    0.000 
#
# Total GULP energy -72551.991652 kJ/mol
# GULP energy per Si atom -5580.922435 kJ/mol
# Density = 2.851916 g / cm^3
# Si number density = 28.584218 Si / 1000 Ang^3
#
#
#
# Elastic Constant Matrix: (Units=GPa)
#
#
# Indices 1 2 3 4 5 6 
#
# 1 114.2506 51.2131 31.3550 -3.9897 -7.9687 -29.5221
# 2 51.2131 180.3472 54.8945 -12.6368 -10.3619 -3.5719
# 3 31.3550 54.8945 107.5293 -16.3444 6.3903 -11.1848
# 4 -3.9897 -12.6368 -16.3444 38.8308 -3.9336 -9.9794
# 5 -7.9687 -10.3619 6.3903 -3.9336 74.2434 -4.2138
# 6 -29.5221 -3.5719 -11.1848 -9.9794 -4.2138 55.6795
#
#
#
# Elastic Compliance Matrix: (Units=1/GPa)
#
#
# Indices 1 2 3 4 5 6 
#
# 1 0.012151 -0.002720 -0.001335 0.001597 0.001487 0.006399
# 2 -0.002720 0.007313 -0.003061 0.000542 0.000940 -0.001420
# 3 -0.001335 -0.003061 0.012242 0.004473 -0.001259 0.002261
# 4 0.001597 0.000542 0.004473 0.030043 0.001868 0.007306
# 5 0.001487 0.000940 -0.001259 0.001868 0.014081 0.001996
# 6 0.006399 -0.001420 0.002261 0.007306 0.001996 0.023176
#
#
# Mechanical properties :
#
#
# Convention : Reuss Voigt Hill
#
# Bulk Modulus (GPa) = 57.22916 75.22802 66.22859
# Shear Modulus (GPa) = 41.99457 51.39504 46.69481
#
# Velocity S-wave (km/s) = 3.83711 4.24491 4.04615
# Velocity P-wave (km/s) = 6.30047 7.09935 6.71181
#
# Compressibility (1/GPa) = 0.01747361
#
# Stress axis : x y z
#
# Youngs Moduli (GPa) = 82.29576 136.74189 81.68793
#
# Poissons Ratio (x) = 0.37198 0.10902
# Poissons Ratio (y) = 0.22387 0.25007
# Poissons Ratio (z) = 0.10983 0.41861
#
# Static dielectric constant tensor:
#      x y z
#    x 2.640520 0.222180 0.096440 
#    y 0.222180 2.521940 -0.084230 
#    z 0.096440 -0.084230 2.397170 
# 
# From -- ./inp_files/120968.got.cif
#   From: 2010.05.17/outbox.cif.g08.bks.cpg/sg2_61_cif.got.tgz:120968.got - 2010.06.03 11:33:40.
