data_PCOD9096836
_publ_section_title
;
Structure prediction by ZEFSAII (Michael W. Deem and Ramdas Pophale) SiO2 
 PCOD9096836
Probable space group: P -1
;
_chemical_formula_sum "Si O2"
_cell_formula_units_Z 14
_cell_length_a 10.559649
_cell_length_b 19.133188
_cell_length_c 10.614891
_cell_angle_alpha 147.049104
_cell_angle_beta 105.810536
_cell_angle_gamma 49.792548
_cell_volume 678.389046
_symmetry_space_group_name_H-M "P -1"
_symmetry_group_IT_number 2
_symmetry_cell_setting 'triclinic'
loop_
_space_group_symop_operation_xyz
x,y,z
-x,-y,-z
loop_
_atom_site_type_symbol
_atom_site_label
_atom_site_fract_x
_atom_site_fract_y
_atom_site_fract_z
Si Si1 0.756944 0.080117 0.678357
Si Si2 0.653660 0.428714 0.082668
Si Si3 0.675438 0.873134 0.245526
Si Si4 0.331599 0.149165 0.068182
Si Si5 0.856581 0.417723 0.353943
Si Si6 0.730925 0.547273 0.788423
Si Si7 0.807248 0.307261 0.671705
O O1 0.790405 0.919237 0.371526
O O2 0.728187 0.221292 0.790020
O O3 0.529250 0.249832 0.949318
O O4 0.963314 0.936950 0.607661
O O5 0.766482 0.401515 0.192870
O O6 0.391973 0.629891 0.328040
O O7 0.722796 0.430214 0.968627
O O8 0.500000 0.000000 0.500000
O O9 0.572808 0.951966 0.197858
O O10 0.808190 0.636032 0.932046
O O11 0.243991 0.362979 0.367960
O O12 0.116974 0.227984 0.138917
O O13 0.500000 0.000000 0.000000
O O14 0.780605 0.440739 0.508660
O O15 0.831508 0.396185 0.706050
#
# Coordination Sequence:
#
# PCOD9096836 Si02
#       7
#     2   2   2   2   2   2   2
#     4  10  20  36  58  84 115 148 189 234 279 329
#     4  10  22  38  57  84 116 149 188 233 280 333
#     4   9  19  37  59  84 115 144 182 238 282 323
#     4  10  22  38  60  85 111 151 191 227 280 339
#     4  10  22  40  56  81 120 149 182 235 283 331
#     4   9  21  38  56  83 114 148 188 234 283 330
#     4  10  21  36  58  85 110 150 196 229 276 336
#
# _framework density 20.637124
#
# number of rings (size 3 to 8) (size 9 to 14) (size 15 to 20)
#    0.000    2.286    0.000    1.286    0.000   12.000 
#    0.000    1.429    0.000    0.000    0.000    0.000 
#    0.000    0.000    0.000    0.000    0.000    0.000 
#
# Total GULP energy -78119.083262 kJ/mol
# GULP energy per Si atom -5579.934519 kJ/mol
# Density = 2.059015 g / cm^3
# Si number density = 20.637124 Si / 1000 Ang^3
#
#
#
# Elastic Constant Matrix: (Units=GPa)
#
#
# Indices 1 2 3 4 5 6 
#
# 1 51.9745 61.2693 22.6356 -13.0863 6.6698 -0.7019
# 2 61.2693 177.8315 46.6482 -6.5532 -8.8504 5.9963
# 3 22.6356 46.6482 41.6365 -12.1588 -12.4992 -1.8367
# 4 -13.0863 -6.5532 -12.1588 46.1687 -4.3592 -9.3566
# 5 6.6698 -8.8504 -12.4992 -4.3592 15.1499 -4.8246
# 6 -0.7019 5.9963 -1.8367 -9.3566 -4.8246 39.0033
#
#
#
# Elastic Compliance Matrix: (Units=1/GPa)
#
#
# Indices 1 2 3 4 5 6 
#
# 1 0.062797 -0.014046 -0.042643 -0.004359 -0.075175 -0.009063
# 2 -0.014046 0.011953 -0.004318 -0.003072 0.008073 -0.002032
# 3 -0.042643 -0.004318 0.093918 0.027305 0.109363 0.024397
# 4 -0.004359 -0.003072 0.027305 0.033555 0.036857 0.014288
# 5 -0.075175 0.008073 0.109363 0.036857 0.216824 0.038218
# 6 -0.009063 -0.002032 0.024397 0.014288 0.038218 0.035092
#
#
# Mechanical properties :
#
#
# Convention : Reuss Voigt Hill
#
# Bulk Modulus (GPa) = 21.43441 59.17207 40.30324
# Shear Modulus (GPa) = 8.45017 29.45701 18.95359
#
# Velocity S-wave (km/s) = 2.02572 3.78217 3.03384
# Velocity P-wave (km/s) = 3.98500 6.91433 5.64306
#
# Compressibility (1/GPa) = 0.04665397
#
# Stress axis : x y z
#
# Youngs Moduli (GPa) = 15.92431 83.66404 10.64754
#
# Poissons Ratio (x) = 1.17517 0.45404
# Poissons Ratio (y) = 0.22368 0.04598
# Poissons Ratio (z) = 0.67905 0.36127
#
# Static dielectric constant tensor:
#      x y z
#    x 1.804500 -0.000370 0.002880 
#    y -0.000370 1.706080 -0.006870 
#    z 0.002880 -0.006870 1.751440 
# 
# From -- ./inp_files/280138.got.cif
#   From: 2010.05.17/outbox.cif.g08.bks.cpg/sg2_141_cif.got.tgz:280138.got - 2010.06.03 11:33:40.
