data_PCOD9096245
_publ_section_title
;
Structure prediction by ZEFSAII (Michael W. Deem and Ramdas Pophale) SiO2 
 PCOD9096245
Probable space group: P -1
;
_chemical_formula_sum "Si O2"
_cell_formula_units_Z 14
_cell_length_a 15.245346
_cell_length_b 9.530968
_cell_length_c 15.134357
_cell_angle_alpha 34.257670
_cell_angle_beta 151.306477
_cell_angle_gamma 142.869162
_cell_volume 572.715990
_symmetry_space_group_name_H-M "P -1"
_symmetry_group_IT_number 2
_symmetry_cell_setting 'triclinic'
loop_
_space_group_symop_operation_xyz
x,y,z
-x,-y,-z
loop_
_atom_site_type_symbol
_atom_site_label
_atom_site_fract_x
_atom_site_fract_y
_atom_site_fract_z
Si Si1 0.415375 0.747046 0.383649
Si Si2 0.601447 0.547729 0.307729
Si Si3 0.805897 0.093420 0.274359
Si Si4 0.782314 0.038552 0.478123
Si Si5 0.120949 0.778370 0.333236
Si Si6 0.277760 0.208376 0.096644
Si Si7 0.021000 0.367193 0.177818
O O1 0.485174 0.630402 0.592700
O O2 0.216888 0.541327 0.298115
O O3 0.586269 0.811999 0.432413
O O4 0.367435 0.018332 0.217041
O O5 0.787604 0.450118 0.498278
O O6 0.446730 0.455444 0.143252
O O7 0.655742 0.844820 0.230007
O O8 0.764464 0.157495 0.304496
O O9 0.858425 0.326404 0.129164
O O10 0.000000 0.000000 0.500000
O O11 0.822570 0.177504 0.536381
O O12 0.954469 0.909087 0.685179
O O13 0.207087 0.027390 0.215848
O O14 0.898762 0.733227 0.140515
O O15 0.000000 0.500000 0.000000
#
# Coordination Sequence:
#
# PCOD9096245 Si02
#       7
#     2   2   2   2   2   2   2
#     4  11  19  37  68  99 131 182 223 274 332 408
#     4  11  19  40  67  96 143 177 224 277 338 397
#     4  10  23  42  67  96 135 181 218 280 349 397
#     4  11  20  39  68 103 129 177 230 270 347 401
#     4  10  20  35  65 102 135 182 229 273 332 408
#     4  10  20  35  64 104 140 174 232 275 330 395
#     4  11  24  42  67  94 135 176 231 277 335 411
#
# _framework density 24.444925999999999
#
# number of rings (size 3 to 8) (size 9 to 14) (size 15 to 20)
#    0.000    1.429    5.714    2.143    0.000    0.000 
#    0.000    3.571    9.429    4.286    0.000    0.000 
#    0.000    0.000    0.000    0.000    0.000    0.000 
#
# Total GULP energy -78262.422856 kJ/mol
# GULP energy per Si atom -5590.173061 kJ/mol
# Density = 2.438929 g / cm^3
# Si number density = 24.444926 Si / 1000 Ang^3
#
#
#
# Elastic Constant Matrix: (Units=GPa)
#
#
# Indices 1 2 3 4 5 6 
#
# 1 153.4130 32.2879 35.9582 -11.1857 -22.9912 -2.5900
# 2 32.2879 109.4220 48.3531 15.3197 -5.7627 -10.3590
# 3 35.9582 48.3531 104.1111 -0.1969 -1.7279 -4.6300
# 4 -11.1857 15.3197 -0.1969 32.1091 6.4639 -3.1271
# 5 -22.9912 -5.7627 -1.7279 6.4639 23.2528 9.7685
# 6 -2.5900 -10.3590 -4.6300 -3.1271 9.7685 29.8055
#
#
#
# Elastic Compliance Matrix: (Units=1/GPa)
#
#
# Indices 1 2 3 4 5 6 
#
# 1 0.008799 -0.001661 -0.002245 0.001787 0.008830 -0.002868
# 2 -0.001661 0.013427 -0.005542 -0.007301 0.002420 0.002102
# 3 -0.002245 -0.005542 0.012961 0.002914 -0.004086 0.001537
# 4 0.001787 -0.007301 0.002914 0.038567 -0.013262 0.006463
# 5 0.008830 0.002420 -0.004086 -0.013262 0.064819 -0.021662
# 6 -0.002868 0.002102 0.001537 0.006463 -0.021662 0.042049
#
#
# Mechanical properties :
#
#
# Convention : Reuss Voigt Hill
#
# Bulk Modulus (GPa) = 61.38911 66.68271 64.03591
# Shear Modulus (GPa) = 24.39627 33.72327 29.05977
#
# Velocity S-wave (km/s) = 3.16256 3.71827 3.45162
# Velocity P-wave (km/s) = 6.20511 6.76550 6.49136
#
# Compressibility (1/GPa) = 0.01628953
#
# Stress axis : x y z
#
# Youngs Moduli (GPa) = 113.64406 74.47736 77.15578
#
# Poissons Ratio (x) = 0.12371 0.17324
# Poissons Ratio (y) = 0.18876 0.42763
# Poissons Ratio (z) = 0.25517 0.41279
#
# Static dielectric constant tensor:
#      x y z
#    x 1.991420 -0.021620 -0.057140 
#    y -0.021620 2.163490 0.313930 
#    z -0.057140 0.313930 2.544500 
# 
# From -- ./inp_files/205108.got.cif
#   From: 2010.05.17/outbox.cif.g08.bks.cpg/sg2_103_cif.got.tgz:205108.got - 2010.06.03 11:33:40.
