data_PCOD9096294
_publ_section_title
;
Structure prediction by ZEFSAII (Michael W. Deem and Ramdas Pophale) SiO2 
 PCOD9096294
Probable space group: P -1
;
_chemical_formula_sum "Si O2"
_cell_formula_units_Z 13
_cell_length_a 6.485754
_cell_length_b 22.151990
_cell_length_c 12.735631
_cell_angle_alpha 27.967972
_cell_angle_beta 137.124035
_cell_angle_gamma 139.480522
_cell_volume 546.077222
_symmetry_space_group_name_H-M "P -1"
_symmetry_group_IT_number 2
_symmetry_cell_setting 'triclinic'
loop_
_space_group_symop_operation_xyz
x,y,z
-x,-y,-z
loop_
_atom_site_type_symbol
_atom_site_label
_atom_site_fract_x
_atom_site_fract_y
_atom_site_fract_z
Si Si1 0.154204 0.128197 0.456371
Si Si2 0.310109 0.288129 0.834890
Si Si3 0.529156 0.983415 0.715573
Si Si4 0.040268 0.265555 0.394975
Si Si5 0.398123 0.321395 0.050295
Si Si6 0.500000 0.500000 0.000000
Si Si7 0.114530 0.426243 0.372074
O O1 0.236272 0.208055 0.253642
O O2 0.767216 0.050249 0.427856
O O3 0.226281 0.241774 0.399119
O O4 0.367343 0.031284 0.682288
O O5 0.074473 0.323739 0.611551
O O6 0.638124 0.422430 0.742142
O O7 0.378901 0.151777 0.037093
O O8 0.218251 0.284471 0.928793
O O9 0.839438 0.113702 0.599038
O O10 0.758257 0.319104 0.165625
O O11 0.228255 0.359080 0.417079
O O12 0.399780 0.455946 0.904359
O O13 0.785801 0.438532 0.191329
#
# Coordination Sequence:
#
# PCOD9096294 Si02
#       7
#     2   2   2   2   2   1   2
#     4  10  20  35  65 100 127 167 222 265 312 396
#     4  11  23  43  65  95 136 174 209 272 336 381
#     4  10  21  36  65  96 130 171 216 264 325 385
#     4  10  21  40  65  95 128 171 219 269 313 388
#     4  10  22  35  66  96 127 170 216 268 322 384
#     4  10  22  40  64  96 122 168 224 264 316 392
#     4  10  25  44  66  94 132 174 218 269 330 385
#
# _framework density 23.806159000000001
#
# number of rings (size 3 to 8) (size 9 to 14) (size 15 to 20)
#    0.000    1.846    1.538    1.385    6.462    3.692 
#    0.000    0.769    0.000    0.000    0.000    0.000 
#    0.000    0.000    0.000    0.000    0.000    0.000 
#
# Total GULP energy -72445.366708 kJ/mol
# GULP energy per Si atom -5572.720516 kJ/mol
# Density = 2.375197 g / cm^3
# Si number density = 23.806159 Si / 1000 Ang^3
#
#
#
# Elastic Constant Matrix: (Units=GPa)
#
#
# Indices 1 2 3 4 5 6 
#
# 1 110.4780 14.3764 37.5029 -0.9439 -0.2625 -34.1965
# 2 14.3764 29.4900 13.1935 -5.5630 1.3206 -12.4295
# 3 37.5029 13.1935 95.3172 -3.4072 -2.4378 -15.0801
# 4 -0.9439 -5.5630 -3.4072 39.9084 -7.2972 -2.4627
# 5 -0.2625 1.3206 -2.4378 -7.2972 26.7583 -8.8289
# 6 -34.1965 -12.4295 -15.0801 -2.4627 -8.8289 54.0223
#
#
#
# Elastic Compliance Matrix: (Units=1/GPa)
#
#
# Indices 1 2 3 4 5 6 
#
# 1 0.012670 -0.001583 -0.003561 0.000649 0.002392 0.007082
# 2 -0.001583 0.040684 -0.003471 0.006194 0.001988 0.007997
# 3 -0.003561 -0.003471 0.012575 0.000880 0.001782 0.000789
# 4 0.000649 0.006194 0.000880 0.027954 0.008997 0.004827
# 5 0.002392 0.001988 0.001782 0.008997 0.043192 0.009938
# 6 0.007082 0.007997 0.000789 0.004827 0.009938 0.026898
#
#
# Mechanical properties :
#
#
# Convention : Reuss Voigt Hill
#
# Bulk Modulus (GPa) = 20.53435 40.60342 30.56888
# Shear Modulus (GPa) = 25.32459 35.48528 30.40493
#
# Velocity S-wave (km/s) = 3.26511 3.86501 3.57765
# Velocity P-wave (km/s) = 4.78110 6.08363 5.47127
#
# Compressibility (1/GPa) = 0.04869890
#
# Stress axis : x y z
#
# Youngs Moduli (GPa) = 78.92767 24.57940 79.52491
#
# Poissons Ratio (x) = 0.03891 0.28319
# Poissons Ratio (y) = 0.12494 0.27604
# Poissons Ratio (z) = 0.28106 0.08532
#
# Static dielectric constant tensor:
#      x y z
#    x 1.993810 -0.011400 -0.203110 
#    y -0.011400 2.034860 -0.070270 
#    z -0.203110 -0.070270 2.205430 
# 
# From -- ./inp_files/369991.got.cif
#   From: 2010.05.17/outbox.cif.g08.bks.cpg/sg2_185_cif.got.tgz:369991.got - 2010.06.03 11:33:40.
