data_PCOD9096577
_publ_section_title
;
Structure prediction by ZEFSAII (Michael W. Deem and Ramdas Pophale) SiO2 
 PCOD9096577
Probable space group: P -1
;
_chemical_formula_sum "Si O2"
_cell_formula_units_Z 16
_cell_length_a 8.783655
_cell_length_b 8.286485
_cell_length_c 16.653339
_cell_angle_alpha 50.836532
_cell_angle_beta 110.664577
_cell_angle_gamma 130.444927
_cell_volume 711.908319
_symmetry_space_group_name_H-M "P -1"
_symmetry_group_IT_number 2
_symmetry_cell_setting 'triclinic'
loop_
_space_group_symop_operation_xyz
x,y,z
-x,-y,-z
loop_
_atom_site_type_symbol
_atom_site_label
_atom_site_fract_x
_atom_site_fract_y
_atom_site_fract_z
Si Si1 0.868291 0.683459 0.989055
Si Si2 0.828472 0.702379 0.149603
Si Si3 0.365235 0.021561 0.557319
Si Si4 0.706548 0.787170 0.259403
Si Si5 0.779231 0.402210 0.468956
Si Si6 0.066309 0.384732 0.139967
Si Si7 0.370848 0.472384 0.406052
Si Si8 0.004806 0.379681 0.306167
O O1 0.744241 0.604692 0.074044
O O2 0.009700 0.585240 0.056396
O O3 0.788873 0.583966 0.914862
O O4 0.001749 0.991230 0.916925
O O5 0.680251 0.668011 0.203055
O O6 0.943329 0.574893 0.233711
O O7 0.298788 0.779196 0.567120
O O8 0.207325 0.899510 0.638559
O O9 0.603188 0.197368 0.562445
O O10 0.331163 0.211795 0.444131
O O11 0.783535 0.649311 0.370582
O O12 0.508900 0.702997 0.297777
O O13 0.865517 0.092308 0.185803
O O14 0.000000 0.500000 0.500000
O O15 0.116105 0.404209 0.236599
O O16 0.500000 0.500000 0.500000
O O17 0.155019 0.417235 0.391904
#
# Coordination Sequence:
#
# PCOD9096577 Si02
#       8
#     2   2   2   2   2   2   2   2
#     4   8  16  33  59  88 113 148 194 252 330 372
#     4   9  17  33  61  87 114 149 202 260 306 375
#     4  10  22  38  57  86 121 167 209 250 304 359
#     4  10  20  36  56  86 115 161 209 246 304 363
#     4  10  22  37  59  87 126 163 207 260 303 349
#     4   9  18  33  59  88 116 148 199 258 307 384
#     4  11  25  38  56  83 127 171 209 256 311 357
#     4  11  21  36  59  88 121 160 213 253 299 368
#
# _framework density 22.474803999999999
#
# number of rings (size 3 to 8) (size 9 to 14) (size 15 to 20)
#    0.000    2.250    1.250    1.125    5.250    0.000 
#    0.000    0.000    0.000   28.500    0.000    0.000 
#    0.000    0.000    0.000    0.000    0.000    0.125 
#
# Total GULP energy -89084.029034 kJ/mol
# GULP energy per Si atom -5567.751815 kJ/mol
# Density = 2.242365 g / cm^3
# Si number density = 22.474804 Si / 1000 Ang^3
#
#
#
# Elastic Constant Matrix: (Units=GPa)
#
#
# Indices 1 2 3 4 5 6 
#
# 1 79.2035 42.7673 39.6139 7.9110 -21.0052 10.0473
# 2 42.7673 83.9693 35.3926 -3.2110 6.1533 3.4988
# 3 39.6139 35.3926 91.3877 -8.1503 -10.7395 10.5939
# 4 7.9110 -3.2110 -8.1503 39.6730 -24.4184 -2.1767
# 5 -21.0052 6.1533 -10.7395 -24.4184 33.6502 2.5504
# 6 10.0473 3.4988 10.5939 -2.1767 2.5504 35.4963
#
#
#
# Elastic Compliance Matrix: (Units=1/GPa)
#
#
# Indices 1 2 3 4 5 6 
#
# 1 0.029392 -0.015655 -0.001642 0.009403 0.028095 -0.007729
# 2 -0.015655 0.024110 -0.007201 -0.011756 -0.025413 0.005309
# 3 -0.001642 -0.007201 0.017954 0.012835 0.015679 -0.004524
# 4 0.009403 -0.011756 0.012835 0.058599 0.055070 -0.005697
# 5 0.028095 -0.025413 0.015679 0.055070 0.097912 -0.013785
# 6 -0.007729 0.005309 -0.004524 -0.005697 -0.013785 0.031827
#
#
# Mechanical properties :
#
#
# Convention : Reuss Voigt Hill
#
# Bulk Modulus (GPa) = 44.52404 54.45648 49.49026
# Shear Modulus (GPa) = 15.80889 30.88303 23.34596
#
# Velocity S-wave (km/s) = 2.65506 3.71093 3.22648
# Velocity P-wave (km/s) = 5.40858 6.53023 5.99569
#
# Compressibility (1/GPa) = 0.02245977
#
# Stress axis : x y z
#
# Youngs Moduli (GPa) = 34.02252 41.47741 55.69646
#
# Poissons Ratio (x) = 0.64935 0.09143
# Poissons Ratio (y) = 0.53264 0.40109
# Poissons Ratio (z) = 0.05585 0.29869
#
# Static dielectric constant tensor:
#      x y z
#    x 1.927430 -0.100950 -0.106600 
#    y -0.100950 1.880630 0.080710 
#    z -0.106600 0.080710 1.912080 
# 
# From -- ./inp_files/555958.got.cif
#   From: 2010.05.17/outbox.cif.g08.bks.cpg/sg2_278_cif.got.tgz:555958.got - 2010.06.03 11:33:40.
