data_PCOD9096508
_publ_section_title
;
Structure prediction by ZEFSAII (Michael W. Deem and Ramdas Pophale) SiO2 
 PCOD9096508
Probable space group: P -1
;
_chemical_formula_sum "Si O2"
_cell_formula_units_Z 16
_cell_length_a 6.709834
_cell_length_b 7.391037
_cell_length_c 19.497142
_cell_angle_alpha 72.085404
_cell_angle_beta 108.294565
_cell_angle_gamma 62.165909
_cell_volume 682.804609
_symmetry_space_group_name_H-M "P -1"
_symmetry_group_IT_number 2
_symmetry_cell_setting 'triclinic'
loop_
_space_group_symop_operation_xyz
x,y,z
-x,-y,-z
loop_
_atom_site_type_symbol
_atom_site_label
_atom_site_fract_x
_atom_site_fract_y
_atom_site_fract_z
Si Si1 0.437460 0.063942 0.700294
Si Si2 0.316895 0.674834 0.062688
Si Si3 0.764219 0.166069 0.121585
Si Si4 0.161016 0.696998 0.398270
Si Si5 0.348032 0.681543 0.273545
Si Si6 0.163391 0.484357 0.174883
Si Si7 0.492391 0.164680 0.538636
Si Si8 0.565822 0.893592 0.096486
O O1 0.686724 0.797525 0.783635
O O2 0.437452 0.270887 0.712002
O O3 0.481920 0.074562 0.622725
O O4 0.153026 0.124151 0.672263
O O5 0.610475 0.415174 0.116499
O O6 0.135456 0.621539 0.086143
O O7 0.357953 0.841542 0.092543
O O8 0.231956 0.776134 0.964832
O O9 0.582077 0.078439 0.118725
O O10 0.059582 0.946399 0.201846
O O11 0.332719 0.607190 0.357063
O O12 0.256554 0.828820 0.435081
O O13 0.758027 0.548152 0.529724
O O14 0.354099 0.509012 0.240109
O O15 0.870795 0.642980 0.158504
O O16 0.500000 0.000000 0.500000
O O17 0.500000 0.000000 0.000000
#
# Coordination Sequence:
#
# PCOD9096508 Si02
#       8
#     2   2   2   2   2   2   2   2
#     4  11  23  39  61  89 118 151 189 232 286 341
#     4  10  20  36  56  79 110 150 196 243 287 336
#     4   9  19  37  56  78 113 151 190 240 291 337
#     4  10  22  40  61  88 118 150 189 230 282 345
#     4  10  22  38  55  82 119 150 187 239 285 334
#     4  11  23  36  57  86 114 152 200 238 284 342
#     4  10  22  41  65  89 118 150 185 231 280 340
#     4   9  20  37  55  78 110 149 193 240 286 333
#
# _framework density 23.432763999999999
#
# number of rings (size 3 to 8) (size 9 to 14) (size 15 to 20)
#    0.000    2.000    0.000    2.625    0.000   10.000 
#    0.000   10.000    0.000    0.000    0.000    0.000 
#    0.000    0.000    0.000    0.000    0.000    0.000 
#
# Total GULP energy -89481.280146 kJ/mol
# GULP energy per Si atom -5592.580009 kJ/mol
# Density = 2.337943 g / cm^3
# Si number density = 23.432764 Si / 1000 Ang^3
#
#
#
# Elastic Constant Matrix: (Units=GPa)
#
#
# Indices 1 2 3 4 5 6 
#
# 1 60.8401 36.4839 6.5799 0.1682 -6.5239 13.2296
# 2 36.4839 75.7816 11.7473 11.4334 -1.3839 21.8499
# 3 6.5799 11.7473 59.5787 -1.8596 -11.9210 4.4880
# 4 0.1682 11.4334 -1.8596 38.0524 6.7307 5.9763
# 5 -6.5239 -1.3839 -11.9210 6.7307 37.3521 1.1543
# 6 13.2296 21.8499 4.4880 5.9763 1.1543 31.1749
#
#
#
# Elastic Compliance Matrix: (Units=1/GPa)
#
#
# Indices 1 2 3 4 5 6 
#
# 1 0.024165 -0.011211 0.000588 0.003173 0.003521 -0.003221
# 2 -0.011211 0.022580 -0.002807 -0.005221 -0.000779 -0.009634
# 3 0.000588 -0.002807 0.018564 0.000934 0.005797 -0.001348
# 4 0.003173 -0.005221 0.000934 0.029186 -0.004500 -0.003250
# 5 0.003521 -0.000779 0.005797 -0.004500 0.030082 -0.002034
# 6 -0.003221 -0.009634 -0.001348 -0.003250 -0.002034 0.041089
#
#
# Mechanical properties :
#
#
# Convention : Reuss Voigt Hill
#
# Bulk Modulus (GPa) = 26.00922 33.98029 29.99475
# Shear Modulus (GPa) = 24.34973 30.74182 27.54577
#
# Velocity S-wave (km/s) = 3.22705 3.62597 3.43231
# Velocity P-wave (km/s) = 5.00088 5.66241 5.34189
#
# Compressibility (1/GPa) = 0.03844790
#
# Stress axis : x y z
#
# Youngs Moduli (GPa) = 41.38252 44.28793 53.86874
#
# Poissons Ratio (x) = 0.49650 -0.03166
# Poissons Ratio (y) = 0.46393 0.15121
# Poissons Ratio (z) = -0.02432 0.12432
#
# Static dielectric constant tensor:
#      x y z
#    x 1.925970 0.025040 -0.017580 
#    y 0.025040 1.832760 0.013640 
#    z -0.017580 0.013640 1.889460 
# 
# From -- ./inp_files/582395.got.cif
#   From: 2010.05.17/outbox.cif.g08.bks.cpg/sg2_292_cif.got.tgz:582395.got - 2010.06.03 11:33:40.
