data_PCOD9096635
_publ_section_title
;
Structure prediction by ZEFSAII (Michael W. Deem and Ramdas Pophale) SiO2 
 PCOD9096635
Probable space group: P -1
;
_chemical_formula_sum "Si O2"
_cell_formula_units_Z 16
_cell_length_a 18.171246
_cell_length_b 7.679103
_cell_length_c 10.029040
_cell_angle_alpha 86.930767
_cell_angle_beta 45.627701
_cell_angle_gamma 114.108097
_cell_volume 780.005345
_symmetry_space_group_name_H-M "P -1"
_symmetry_group_IT_number 2
_symmetry_cell_setting 'triclinic'
loop_
_space_group_symop_operation_xyz
x,y,z
-x,-y,-z
loop_
_atom_site_type_symbol
_atom_site_label
_atom_site_fract_x
_atom_site_fract_y
_atom_site_fract_z
Si Si1 0.563423 0.511927 0.635286
Si Si2 0.818862 0.797510 0.463275
Si Si3 0.030122 0.306645 0.115115
Si Si4 0.942356 0.590713 0.234821
Si Si5 0.222312 0.945144 0.998054
Si Si6 0.507097 0.767473 0.502456
Si Si7 0.283259 0.641010 0.965639
Si Si8 0.694504 0.694397 0.907704
O O1 0.704510 0.709854 0.504151
O O2 0.503324 0.595621 0.611676
O O3 0.564198 0.345887 0.544009
O O4 0.454910 0.389094 0.894680
O O5 0.844953 0.617373 0.433296
O O6 0.766840 0.798661 0.673131
O O7 0.948786 0.044419 0.251994
O O8 0.937741 0.376700 0.265004
O O9 0.066184 0.371065 0.912018
O O10 0.163262 0.457464 0.027342
O O11 0.086310 0.792399 0.099475
O O12 0.243076 0.788986 0.062265
O O13 0.339576 0.062324 0.736508
O O14 0.235600 0.125171 0.068586
O O15 0.418009 0.803181 0.700987
O O16 0.301671 0.507212 0.054054
#
# Coordination Sequence:
#
# PCOD9096635 Si02
#       8
#     2   2   2   2   2   2   2   2
#     4   9  19  35  57  83 109 137 179 230 267 313
#     4  12  22  37  59  76 109 155 177 211 274 319
#     4  10  22  37  56  85 111 135 178 227 271 324
#     4  10  22  37  56  85 111 135 178 227 271 324
#     4  10  20  36  57  81 111 142 178 226 269 313
#     4   9  17  34  60  85 105 136 181 223 276 325
#     4  10  20  36  57  81 111 142 178 226 269 313
#     4  10  23  38  53  80 109 143 190 220 254 322
#
# _framework density 20.512681000000001
#
# number of rings (size 3 to 8) (size 9 to 14) (size 15 to 20)
#    0.000    2.000    0.000    4.125    0.000    3.000 
#    0.000    7.500    0.000    7.500    0.000    0.000 
#    0.000    0.000    0.000    0.000    0.000    0.000 
#
# Total GULP energy -89229.807097 kJ/mol
# GULP energy per Si atom -5576.862944 kJ/mol
# Density = 2.046599 g / cm^3
# Si number density = 20.512681 Si / 1000 Ang^3
#
#
#
# Elastic Constant Matrix: (Units=GPa)
#
#
# Indices 1 2 3 4 5 6 
#
# 1 28.6036 2.4480 13.3319 1.6876 -2.5056 0.1277
# 2 2.4480 42.5723 0.0977 7.4544 -4.8436 -9.1447
# 3 13.3319 0.0977 37.2349 14.0413 -2.2615 -0.6849
# 4 1.6876 7.4544 14.0413 24.8287 -1.6777 -9.8442
# 5 -2.5056 -4.8436 -2.2615 -1.6777 13.8782 -4.3534
# 6 0.1277 -9.1447 -0.6849 -9.8442 -4.3534 26.3459
#
#
#
# Elastic Compliance Matrix: (Units=1/GPa)
#
#
# Indices 1 2 3 4 5 6 
#
# 1 0.044112 -0.002958 -0.019312 0.010477 0.006047 0.003172
# 2 -0.002958 0.028175 0.004141 -0.005911 0.012311 0.009727
# 3 -0.019312 0.004141 0.044170 -0.028110 -0.000735 -0.007946
# 4 0.010477 -0.005911 -0.028110 0.067593 0.011024 0.024245
# 5 0.006047 0.012311 -0.000735 0.011024 0.085717 0.022508
# 6 0.003172 0.009727 -0.007946 0.024245 0.022508 0.053889
#
#
# Mechanical properties :
#
#
# Convention : Reuss Voigt Hill
#
# Bulk Modulus (GPa) = 12.46887 15.57400 14.02143
# Shear Modulus (GPa) = 12.93169 19.17944 16.05556
#
# Velocity S-wave (km/s) = 2.51355 3.06110 2.80074
# Velocity P-wave (km/s) = 3.80995 4.48360 4.16043
#
# Compressibility (1/GPa) = 0.08019975
#
# Stress axis : x y z
#
# Youngs Moduli (GPa) = 22.66946 35.49230 22.63989
#
# Poissons Ratio (x) = 0.10497 0.43722
# Poissons Ratio (y) = 0.06705 -0.09375
# Poissons Ratio (z) = 0.43779 -0.14697
#
# Static dielectric constant tensor:
#      x y z
#    x 1.716160 -0.054830 -0.010710 
#    y -0.054830 1.773830 0.004590 
#    z -0.010710 0.004590 1.742280 
# 
# From -- ./inp_files/311971.got.cif
#   From: 2010.05.17/outbox.cif.g08.bks.cpg/sg2_156_cif.got.tgz:311971.got - 2010.06.03 11:33:40.
