data_PCOD9096309
_publ_section_title
;
Structure prediction by ZEFSAII (Michael W. Deem and Ramdas Pophale) SiO2 
 PCOD9096309
Probable space group: P -1
;
_chemical_formula_sum "Si O2"
_cell_formula_units_Z 14
_cell_length_a 9.403201
_cell_length_b 11.544575
_cell_length_c 7.713063
_cell_angle_alpha 124.768809
_cell_angle_beta 123.683213
_cell_angle_gamma 62.278704
_cell_volume 558.591743
_symmetry_space_group_name_H-M "P -1"
_symmetry_group_IT_number 2
_symmetry_cell_setting 'triclinic'
loop_
_space_group_symop_operation_xyz
x,y,z
-x,-y,-z
loop_
_atom_site_type_symbol
_atom_site_label
_atom_site_fract_x
_atom_site_fract_y
_atom_site_fract_z
Si Si1 0.583931 0.608797 0.264517
Si Si2 0.955729 0.625114 0.435351
Si Si3 0.271408 0.708664 0.332906
Si Si4 0.079902 0.102698 0.765221
Si Si5 0.224097 0.828864 0.793241
Si Si6 0.253869 0.451173 0.306092
Si Si7 0.418974 0.156858 0.991659
O O1 0.745324 0.661198 0.327827
O O2 0.421601 0.732408 0.326805
O O3 0.666995 0.531171 0.434717
O O4 0.500000 0.500000 0.000000
O O5 0.000000 0.500000 0.500000
O O6 0.068064 0.746838 0.658177
O O7 0.051036 0.536578 0.258749
O O8 0.274218 0.781250 0.585442
O O9 0.313536 0.540297 0.266714
O O10 0.076737 0.765857 0.178380
O O11 0.150238 0.001180 0.888845
O O12 0.232988 0.137695 0.777832
O O13 0.000000 0.000000 0.500000
O O14 0.423360 0.802125 0.976756
O O15 0.330529 0.284213 0.174928
O O16 0.500000 0.000000 0.000000
#
# Coordination Sequence:
#
# PCOD9096309 Si02
#       7
#     2   2   2   2   2   2   2
#     4  11  23  39  60  94 134 168 207 264 323 376
#     4   9  21  37  59  89 128 170 207 259 314 379
#     4  10  20  38  65  93 128 162 213 271 310 377
#     4   9  20  37  58  99 129 154 210 276 318 368
#     4   9  18  39  63  90 124 167 212 262 314 377
#     4  10  21  40  65  92 126 166 219 261 314 380
#     4  10  20  35  65  94 123 163 211 268 323 369
#
# _framework density 25.063030000000001
#
# number of rings (size 3 to 8) (size 9 to 14) (size 15 to 20)
#    0.000    2.286    1.429    0.429    6.000    0.571 
#    5.143    0.714    0.000   17.143    0.000    3.000 
#    0.000    0.000    0.000    0.000    0.000    0.000 
#
# Total GULP energy -77946.111263 kJ/mol
# GULP energy per Si atom -5567.579376 kJ/mol
# Density = 2.500599 g / cm^3
# Si number density = 25.063030 Si / 1000 Ang^3
#
#
#
# Elastic Constant Matrix: (Units=GPa)
#
#
# Indices 1 2 3 4 5 6 
#
# 1 175.9631 60.3543 51.6075 -11.5821 66.1876 -16.8518
# 2 60.3543 114.0626 20.8171 10.7609 26.3368 -16.1938
# 3 51.6075 20.8171 105.0976 -3.7378 43.0993 4.9475
# 4 -11.5821 10.7609 -3.7378 29.2271 -8.6639 13.8048
# 5 66.1876 26.3368 43.0993 -8.6639 61.2177 -11.9543
# 6 -16.8518 -16.1938 4.9475 13.8048 -11.9543 38.0601
#
#
#
# Elastic Compliance Matrix: (Units=1/GPa)
#
#
# Indices 1 2 3 4 5 6 
#
# 1 0.010838 -0.003926 -0.000542 0.003348 -0.009360 -0.000956
# 2 -0.003926 0.013262 -0.001176 -0.010373 -0.000611 0.007628
# 3 -0.000542 -0.001176 0.014563 0.002200 -0.010142 -0.006617
# 4 0.003348 -0.010373 0.002200 0.050091 0.002352 -0.020647
# 5 -0.009360 -0.000611 -0.010142 0.002352 0.035606 0.007244
# 6 -0.000956 0.007628 -0.006617 -0.020647 0.007244 0.039721
#
#
# Mechanical properties :
#
#
# Convention : Reuss Voigt Hill
#
# Bulk Modulus (GPa) = 36.53082 73.40899 54.96991
# Shear Modulus (GPa) = 27.10107 43.19059 35.14583
#
# Velocity S-wave (km/s) = 3.29191 4.15574 3.74879
# Velocity P-wave (km/s) = 5.39037 7.23742 6.38108
#
# Compressibility (1/GPa) = 0.02737414
#
# Stress axis : x y z
#
# Youngs Moduli (GPa) = 92.26531 75.40402 68.66895
#
# Poissons Ratio (x) = 0.29605 0.03720
# Poissons Ratio (y) = 0.36226 0.08078
# Poissons Ratio (z) = 0.04998 0.08870
#
# Static dielectric constant tensor:
#      x y z
#    x 2.178720 0.042950 0.064170 
#    y 0.042950 2.187400 -0.120960 
#    z 0.064170 -0.120960 2.197730 
# 
# From -- ./inp_files/234251.got.cif
#   From: 2010.05.17/outbox.cif.g08.bks.cpg/sg2_118_cif.got.tgz:234251.got - 2010.06.03 11:33:40.
