data_PCOD9096105
_publ_section_title
;
Structure prediction by ZEFSAII (Michael W. Deem and Ramdas Pophale) SiO2 
 PCOD9096105
Probable space group: P -1
;
_chemical_formula_sum "Si O2"
_cell_formula_units_Z 14
_cell_length_a 7.505034
_cell_length_b 10.138988
_cell_length_c 9.749764
_cell_angle_alpha 74.320920
_cell_angle_beta 75.847325
_cell_angle_gamma 51.797011
_cell_volume 558.362111
_symmetry_space_group_name_H-M "P -1"
_symmetry_group_IT_number 2
_symmetry_cell_setting 'triclinic'
loop_
_space_group_symop_operation_xyz
x,y,z
-x,-y,-z
loop_
_atom_site_type_symbol
_atom_site_label
_atom_site_fract_x
_atom_site_fract_y
_atom_site_fract_z
Si Si1 0.183794 0.310282 0.967513
Si Si2 0.156194 0.334125 0.424159
Si Si3 0.773212 0.328572 0.363839
Si Si4 0.335145 0.680840 0.298177
Si Si5 0.515315 0.845293 0.802319
Si Si6 0.165593 0.055486 0.211161
Si Si7 0.146490 0.196406 0.729789
O O1 0.645765 0.936577 0.744343
O O2 0.206374 0.283227 0.808642
O O3 0.402100 0.244777 0.040714
O O4 0.000000 0.500000 0.000000
O O5 0.370474 0.287809 0.306493
O O6 0.240375 0.190594 0.563036
O O7 0.000000 0.500000 0.500000
O O8 0.971408 0.351278 0.352136
O O9 0.572666 0.498844 0.277031
O O10 0.688150 0.313750 0.531930
O O11 0.923885 0.149146 0.307993
O O12 0.281415 0.860175 0.217991
O O13 0.124694 0.692240 0.268032
O O14 0.881370 0.817299 0.939571
O O15 0.255537 0.002559 0.802822
#
# Coordination Sequence:
#
# PCOD9096105 Si02
#       7
#     2   2   2   2   2   2   2
#     4  10  22  40  62  87 125 162 206 251 309 362
#     4  10  20  35  62  89 119 152 207 256 297 355
#     4   9  20  40  58  91 122 166 196 252 311 361
#     4  10  21  39  62  88 127 159 204 250 309 366
#     4   9  21  39  60  88 116 160 202 251 311 350
#     4   9  21  38  63  84 117 170 200 242 309 370
#     4  11  22  38  59  95 119 155 208 257 301 363
#
# _framework density 25.073335
#
# number of rings (size 3 to 8) (size 9 to 14) (size 15 to 20)
#    0.857    1.429    0.000    2.143    2.000    0.571 
#   10.286    0.714    0.000    0.000    0.000    0.000 
#    0.000    0.000    0.000    0.000    0.000    0.000 
#
# Total GULP energy -78140.720446 kJ/mol
# GULP energy per Si atom -5581.480032 kJ/mol
# Density = 2.501627 g / cm^3
# Si number density = 25.073335 Si / 1000 Ang^3
#
#
#
# Elastic Constant Matrix: (Units=GPa)
#
#
# Indices 1 2 3 4 5 6 
#
# 1 39.4131 51.3255 15.5829 -0.7454 15.7495 -10.2224
# 2 51.3255 197.8034 65.6780 -9.9229 14.0744 -22.6763
# 3 15.5829 65.6780 88.1485 -1.1219 18.3193 -22.3872
# 4 -0.7454 -9.9229 -1.1219 44.8421 -0.7617 -0.8411
# 5 15.7495 14.0744 18.3193 -0.7617 31.4489 -5.9787
# 6 -10.2224 -22.6763 -22.3872 -0.8411 -5.9787 41.4397
#
#
#
# Elastic Compliance Matrix: (Units=1/GPa)
#
#
# Indices 1 2 3 4 5 6 
#
# 1 0.050127 -0.013214 0.007022 -0.002187 -0.022255 0.005673
# 2 -0.013214 0.010336 -0.006631 0.001995 0.005846 -0.000302
# 3 0.007022 -0.006631 0.018900 -0.000925 -0.010286 0.006811
# 4 -0.002187 0.001995 -0.000925 0.022720 0.001428 0.000720
# 5 -0.022255 0.005846 -0.010286 0.001428 0.046132 -0.001163
# 6 0.005673 -0.000302 0.006811 0.000720 -0.001163 0.028892
#
#
# Mechanical properties :
#
#
# Convention : Reuss Voigt Hill
#
# Bulk Modulus (GPa) = 18.61649 65.61529 42.11589
# Shear Modulus (GPa) = 22.65953 36.39807 29.52880
#
# Velocity S-wave (km/s) = 3.00947 3.81420 3.43548
# Velocity P-wave (km/s) = 4.41779 6.75453 5.70704
#
# Compressibility (1/GPa) = 0.05371582
#
# Stress axis : x y z
#
# Youngs Moduli (GPa) = 19.94926 96.75277 52.91132
#
# Poissons Ratio (x) = 1.27853 -0.37156
# Poissons Ratio (y) = 0.26362 0.35086
# Poissons Ratio (z) = -0.14009 0.64158
#
# Static dielectric constant tensor:
#      x y z
#    x 2.023820 0.021890 -0.023320 
#    y 0.021890 2.026510 0.015240 
#    z -0.023320 0.015240 2.068290 
# 
# From -- ./inp_files/186576.got.cif
#   From: 2010.05.17/outbox.cif.g08.bks.cpg/sg2_94_cif.got.tgz:186576.got - 2010.06.03 11:33:40.
