data_PCOD9096031
_publ_section_title
;
Structure prediction by ZEFSAII (Michael W. Deem and Ramdas Pophale) SiO2 
 PCOD9096031
Probable space group: P -1
;
_chemical_formula_sum "Si O2"
_cell_formula_units_Z 16
_cell_length_a 9.627545
_cell_length_b 14.372430
_cell_length_c 21.388131
_cell_angle_alpha 18.906328
_cell_angle_beta 106.455662
_cell_angle_gamma 117.755175
_cell_volume 709.531283
_symmetry_space_group_name_H-M "P -1"
_symmetry_group_IT_number 2
_symmetry_cell_setting 'triclinic'
loop_
_space_group_symop_operation_xyz
x,y,z
-x,-y,-z
loop_
_atom_site_type_symbol
_atom_site_label
_atom_site_fract_x
_atom_site_fract_y
_atom_site_fract_z
Si Si1 0.611057 0.745227 0.297006
Si Si2 0.530187 0.172031 0.079733
Si Si3 0.995235 0.244062 0.451772
Si Si4 0.847004 0.547301 0.966829
Si Si5 0.606637 0.838125 0.603929
Si Si6 0.601049 0.440035 0.735287
Si Si7 0.021490 0.995149 0.192942
Si Si8 0.106101 0.668925 0.316748
O O1 0.500000 0.500000 0.500000
O O2 0.480904 0.529202 0.358381
O O3 0.812877 0.855507 0.248684
O O4 0.639465 0.123084 0.072536
O O5 0.634936 0.221936 0.124884
O O6 0.543626 0.526909 0.845676
O O7 0.314784 0.829152 0.258473
O O8 0.177322 0.343749 0.378305
O O9 0.065063 0.577648 0.296789
O O10 0.913558 0.894149 0.710002
O O11 0.831260 0.144405 0.448640
O O12 0.859591 0.633143 0.987183
O O13 0.000000 0.500000 0.000000
O O14 0.562862 0.611372 0.678238
O O15 0.500000 0.000000 0.500000
O O16 0.500000 0.000000 0.000000
O O17 0.023265 0.714113 0.416764
O O18 0.084848 0.959310 0.157013
#
# Coordination Sequence:
#
# PCOD9096031 Si02
#       8
#     2   2   2   2   2   2   2   2
#     4  12  21  39  70  99 128 168 229 277 320 396
#     4  11  21  41  65  90 131 171 224 274 327 397
#     4  10  22  42  67  89 131 170 218 279 332 388
#     4  10  20  35  61  94 129 169 211 272 332 394
#     4  11  26  47  63  95 136 175 221 283 340 389
#     4  12  24  45  73  97 128 180 231 270 329 404
#     4  10  21  35  59  92 132 169 213 262 335 395
#     4  10  20  39  59  93 130 169 212 273 332 391
#
# _framework density 22.550098999999999
#
# number of rings (size 3 to 8) (size 9 to 14) (size 15 to 20)
#    0.000    1.250    5.000    1.125    1.750    0.500 
#    4.500    1.250    0.000    0.000    0.000    0.000 
#    0.000    0.000    0.000    0.000    0.000    0.000 
#
# Total GULP energy -89337.977272 kJ/mol
# GULP energy per Si atom -5583.623579 kJ/mol
# Density = 2.249877 g / cm^3
# Si number density = 22.550099 Si / 1000 Ang^3
#
#
#
# Elastic Constant Matrix: (Units=GPa)
#
#
# Indices 1 2 3 4 5 6 
#
# 1 127.4050 71.9013 23.3950 -19.5160 36.7339 -2.9276
# 2 71.9013 156.8907 33.4617 -38.5875 18.2047 9.1256
# 3 23.3950 33.4617 53.6187 -9.4560 17.2671 2.8391
# 4 -19.5160 -38.5875 -9.4560 34.4492 -0.3375 2.0740
# 5 36.7339 18.2047 17.2671 -0.3375 38.1569 -9.9914
# 6 -2.9276 9.1256 2.8391 2.0740 -9.9914 34.5249
#
#
#
# Elastic Compliance Matrix: (Units=1/GPa)
#
#
# Indices 1 2 3 4 5 6 
#
# 1 0.014194 -0.004380 0.001269 0.003456 -0.012532 -0.001577
# 2 -0.004380 0.011952 -0.003173 0.010278 -0.001057 -0.004193
# 3 0.001269 -0.003173 0.025038 0.004213 -0.012290 -0.004923
# 4 0.003456 0.010278 0.004213 0.044073 -0.012081 -0.008914
# 5 -0.012532 -0.001057 -0.012290 -0.012081 0.048128 0.014881
# 6 -0.001577 -0.004193 -0.004923 -0.008914 0.014881 0.035186
#
#
# Mechanical properties :
#
#
# Convention : Reuss Voigt Hill
#
# Bulk Modulus (GPa) = 25.89573 66.15893 46.02733
# Shear Modulus (GPa) = 24.50837 35.36994 29.93916
#
# Velocity S-wave (km/s) = 3.30030 3.96473 3.64768
# Velocity P-wave (km/s) = 5.10208 7.09656 6.18031
#
# Compressibility (1/GPa) = 0.03861640
#
# Stress axis : x y z
#
# Youngs Moduli (GPa) = 70.45219 83.66618 39.93891
#
# Poissons Ratio (x) = 0.36644 -0.05067
# Poissons Ratio (y) = 0.30857 0.12673
# Poissons Ratio (z) = -0.08938 0.26547
#
# Static dielectric constant tensor:
#      x y z
#    x 1.807990 -0.015860 0.021350 
#    y -0.015860 1.867460 -0.000590 
#    z 0.021350 -0.000590 1.983910 
# 
# From -- ./inp_files/608036.got.cif
#   From: 2010.05.17/outbox.cif.g08.bks.cpg/sg2_305_cif.got.tgz:608036.got - 2010.06.03 11:33:40.
