data_PCOD9096456
_publ_section_title
;
Structure prediction by ZEFSAII (Michael W. Deem and Ramdas Pophale) SiO2 
 PCOD9096456
Probable space group: P -1
;
_chemical_formula_sum "Si O2"
_cell_formula_units_Z 12
_cell_length_a 17.816792
_cell_length_b 20.545506
_cell_length_c 12.411580
_cell_angle_alpha 151.383616
_cell_angle_beta 19.307483
_cell_angle_gamma 160.136156
_cell_volume 508.494273
_symmetry_space_group_name_H-M "P -1"
_symmetry_group_IT_number 2
_symmetry_cell_setting 'triclinic'
loop_
_space_group_symop_operation_xyz
x,y,z
-x,-y,-z
loop_
_atom_site_type_symbol
_atom_site_label
_atom_site_fract_x
_atom_site_fract_y
_atom_site_fract_z
Si Si1 0.619786 0.367440 0.725699
Si Si2 0.770248 0.898927 0.963415
Si Si3 0.724876 0.116123 0.703304
Si Si4 0.256536 0.624675 0.098130
Si Si5 0.819897 0.293480 0.060583
Si Si6 0.667526 0.684343 0.187100
O O1 0.388452 0.301679 0.842701
O O2 0.967171 0.493481 0.385879
O O3 0.487874 0.191936 0.723997
O O4 0.623601 0.505526 0.993185
O O5 0.026365 0.901107 0.667063
O O6 0.593050 0.759231 0.898111
O O7 0.981497 0.118380 0.967391
O O8 0.746002 0.227868 0.738880
O O9 0.378328 0.900459 0.881319
O O10 0.820556 0.237299 0.858233
O O11 0.154106 0.474476 0.926672
O O12 0.600970 0.337937 0.423024
#
# Coordination Sequence:
#
# PCOD9096456 Si02
#       6
#     2   2   2   2   2   2
#     4  10  20  36  55  81 115 147 182 225 273 326
#     4  11  22  36  58  85 111 145 186 226 273 327
#     4  10  21  40  59  80 112 147 184 226 275 327
#     4  11  23  36  57  86 112 144 185 228 274 325
#     4   9  20  39  59  80 112 147 181 229 277 323
#     4   9  19  36  59  81 107 150 186 221 276 328
#
# _framework density 23.599086
#
# number of rings (size 3 to 8) (size 9 to 14) (size 15 to 20)
#    0.000    2.000    0.000    4.500    0.000    5.333 
#    0.000    7.500    0.000    0.000    0.000    0.000 
#    0.000    0.000    0.000    0.000    0.000    0.000 
#
# Total GULP energy -67140.662876 kJ/mol
# GULP energy per Si atom -5595.055240 kJ/mol
# Density = 2.354537 g / cm^3
# Si number density = 23.599086 Si / 1000 Ang^3
#
#
#
# Elastic Constant Matrix: (Units=GPa)
#
#
# Indices 1 2 3 4 5 6 
#
# 1 55.2751 28.3487 1.2156 -13.1791 -16.5940 6.0238
# 2 28.3487 124.6368 6.0724 -11.9745 -6.3441 25.6857
# 3 1.2156 6.0724 30.1311 10.9076 10.2778 -9.4826
# 4 -13.1791 -11.9745 10.9076 34.5155 3.4080 1.7931
# 5 -16.5940 -6.3441 10.2778 3.4080 22.0927 -7.3674
# 6 6.0238 25.6857 -9.4826 1.7931 -7.3674 31.8684
#
#
#
# Elastic Compliance Matrix: (Units=1/GPa)
#
#
# Indices 1 2 3 4 5 6 
#
# 1 0.031733 -0.003310 -0.015464 0.013290 0.027234 -0.002384
# 2 -0.003310 0.012297 -0.008435 0.006306 -0.000060 -0.012164
# 3 -0.015464 -0.008435 0.063198 -0.026850 -0.031725 0.022703
# 4 0.013290 0.006306 -0.026850 0.044288 0.012379 -0.015214
# 5 0.027234 -0.000060 -0.031725 0.012379 0.079608 0.003168
# 6 -0.002384 -0.012164 0.022703 -0.015214 0.003168 0.049977
#
#
# Mechanical properties :
#
#
# Convention : Reuss Voigt Hill
#
# Bulk Modulus (GPa) = 18.93564 31.25738 25.09651
# Shear Modulus (GPa) = 14.15939 29.32243 21.74091
#
# Velocity S-wave (km/s) = 2.45214 3.52877 3.03852
# Velocity P-wave (km/s) = 4.00732 5.46597 4.79247
#
# Compressibility (1/GPa) = 0.05281047
#
# Stress axis : x y z
#
# Youngs Moduli (GPa) = 31.51273 81.32249 15.82324
#
# Poissons Ratio (x) = 0.26918 0.24469
# Poissons Ratio (y) = 0.10431 0.13347
# Poissons Ratio (z) = 0.48731 0.68595
#
# Static dielectric constant tensor:
#      x y z
#    x 1.875970 0.016790 0.011380 
#    y 0.016790 1.925790 -0.011370 
#    z 0.011380 -0.011370 1.887980 
# 
# From -- ./inp_files/167291.got.cif
#   From: 2010.05.17/outbox.cif.g08.bks.cpg/sg2_84_cif.got.tgz:167291.got - 2010.06.03 11:33:40.
