data_PCOD9096502
_publ_section_title
;
Structure prediction by ZEFSAII (Michael W. Deem and Ramdas Pophale) SiO2 
 PCOD9096502
Probable space group: P -1
;
_chemical_formula_sum "Si O2"
_cell_formula_units_Z 14
_cell_length_a 17.540967
_cell_length_b 19.089869
_cell_length_c 8.343534
_cell_angle_alpha 131.914716
_cell_angle_beta 119.789059
_cell_angle_gamma 21.293316
_cell_volume 668.461595
_symmetry_space_group_name_H-M "P -1"
_symmetry_group_IT_number 2
_symmetry_cell_setting 'triclinic'
loop_
_space_group_symop_operation_xyz
x,y,z
-x,-y,-z
loop_
_atom_site_type_symbol
_atom_site_label
_atom_site_fract_x
_atom_site_fract_y
_atom_site_fract_z
Si Si1 0.759814 0.122777 0.871858
Si Si2 0.741801 0.860547 0.913166
Si Si3 0.234285 0.100204 0.364609
Si Si4 0.255550 0.630652 0.169168
Si Si5 0.112607 0.895259 0.699784
Si Si6 0.251398 0.422465 0.803744
Si Si7 0.727843 0.656282 0.640078
O O1 0.786911 0.985772 0.728500
O O2 0.491984 0.406140 0.969168
O O3 0.797058 0.140827 0.105313
O O4 0.937716 0.988355 0.724782
O O5 0.744857 0.908143 0.817762
O O6 0.714352 0.775457 0.737358
O O7 0.005490 0.615704 0.885601
O O8 0.512316 0.121851 0.173082
O O9 0.980984 0.398697 0.601944
O O10 0.492302 0.879203 0.355370
O O11 0.280957 0.671252 0.413051
O O12 0.242558 0.533287 0.046575
O O13 0.030213 0.888747 0.228846
O O14 0.253687 0.431376 0.626369
#
# Coordination Sequence:
#
# PCOD9096502 Si02
#       7
#     2   2   2   2   2   2   2
#     4  10  21  36  55  81 110 144 183 225 271 321
#     4  10  22  39  58  82 112 146 184 227 278 334
#     4  10  21  37  58  84 113 145 184 229 276 327
#     4  10  21  36  55  81 110 144 183 225 271 321
#     4  10  20  36  56  78 110 146 182 222 270 324
#     4  10  21  37  58  84 113 145 184 229 276 327
#     4  10  22  39  58  82 112 146 184 227 278 334
#
# _framework density 20.943612000000002
#
# number of rings (size 3 to 8) (size 9 to 14) (size 15 to 20)
#    0.000    2.000    0.000    4.286    0.000    8.000 
#    0.000   10.000    0.000    0.000    0.000    0.000 
#    0.000    0.000    0.000    0.000    0.000    0.000 
#
# Total GULP energy -78040.325252 kJ/mol
# GULP energy per Si atom -5574.308947 kJ/mol
# Density = 2.089594 g / cm^3
# Si number density = 20.943612 Si / 1000 Ang^3
#
#
#
# Elastic Constant Matrix: (Units=GPa)
#
#
# Indices 1 2 3 4 5 6 
#
# 1 10.5205 -12.6681 18.5134 5.8781 -8.7126 -40.6573
# 2 -12.6681 97.3211 28.0157 25.3160 -15.1971 -30.1678
# 3 18.5134 28.0157 45.5517 38.4890 0.7354 22.6524
# 4 5.8781 25.3160 38.4890 39.2524 -7.8692 1.3558
# 5 -8.7126 -15.1971 0.7354 -7.8692 24.7080 10.8083
# 6 -40.6573 -30.1678 22.6524 1.3558 10.8083 41.4466
#
#
#
# Elastic Compliance Matrix: (Units=1/GPa)
#
#
# Indices 1 2 3 4 5 6 
#
# 1 0.005897 -0.004885 0.028674 -0.026533 -0.005337 -0.011183
# 2 -0.004885 0.010144 0.009658 -0.015117 0.000422 -0.002303
# 3 0.028674 0.009658 0.040451 -0.052682 -0.009474 0.017244
# 4 -0.026533 -0.015117 -0.052682 0.095583 0.020687 -0.016759
# 5 -0.005337 0.000422 -0.009474 0.020687 0.051819 -0.013940
# 6 -0.011183 -0.002303 0.017244 -0.016759 -0.013940 0.006240
#
#
# Mechanical properties :
#
#
# Convention : Reuss Voigt Hill
#
# Bulk Modulus (GPa) = 8.10462 24.56836 16.33649
# Shear Modulus (GPa) = 27.11976 29.05021 28.08499
#
# Velocity S-wave (km/s) = 3.60237 3.72838 3.66591
# Velocity P-wave (km/s) = 4.60227 5.50369 5.07304
#
# Compressibility (1/GPa) = 0.12338638
#
# Stress axis : x y z
#
# Youngs Moduli (GPa) = 169.58410 98.58502 24.72118
#
# Poissons Ratio (x) = 0.48158 -0.70887
# Poissons Ratio (y) = 0.82841 -0.23875
# Poissons Ratio (z) = -4.86274 -0.95212
#
# Static dielectric constant tensor:
#      x y z
#    x 1.704530 -0.006120 0.006240 
#    y -0.006120 1.821340 0.003340 
#    z 0.006240 0.003340 1.741420 
# 
# From -- ./inp_files/313596.got.cif
#   From: 2010.05.17/outbox.cif.g08.bks.cpg/sg2_157_cif.got.tgz:313596.got - 2010.06.03 11:33:40.
