data_PCOD9096588
_publ_section_title
;
Structure prediction by ZEFSAII (Michael W. Deem and Ramdas Pophale) SiO2 
 PCOD9096588
Probable space group: P -1
;
_chemical_formula_sum "Si O2"
_cell_formula_units_Z 16
_cell_length_a 12.069525
_cell_length_b 9.351369
_cell_length_c 15.677764
_cell_angle_alpha 46.189013
_cell_angle_beta 121.002770
_cell_angle_gamma 143.508237
_cell_volume 755.836954
_symmetry_space_group_name_H-M "P -1"
_symmetry_group_IT_number 2
_symmetry_cell_setting 'triclinic'
loop_
_space_group_symop_operation_xyz
x,y,z
-x,-y,-z
loop_
_atom_site_type_symbol
_atom_site_label
_atom_site_fract_x
_atom_site_fract_y
_atom_site_fract_z
Si Si1 0.452015 0.793896 0.377092
Si Si2 0.428783 0.732260 0.199710
Si Si3 0.825365 0.161363 0.759538
Si Si4 0.826674 0.261215 0.433267
Si Si5 0.130844 0.720237 0.083852
Si Si6 0.847341 0.093514 0.167186
Si Si7 0.716971 0.816971 0.702073
Si Si8 0.698215 0.508708 0.381761
O O1 0.433689 0.680923 0.323135
O O2 0.360570 0.909962 0.286069
O O3 0.341994 0.562356 0.504677
O O4 0.663999 0.043745 0.389785
O O5 0.334041 0.840655 0.108653
O O6 0.299801 0.430044 0.225614
O O7 0.638375 0.947590 0.159642
O O8 0.879133 0.181723 0.870115
O O9 0.985707 0.472072 0.650725
O O10 0.790036 0.939240 0.775009
O O11 0.765334 0.378953 0.419572
O O12 0.833556 0.078241 0.572965
O O13 0.983815 0.375408 0.163535
O O14 0.098859 0.812503 0.948825
O O15 0.832490 0.844187 0.282345
O O16 0.503726 0.662682 0.669638
#
# Coordination Sequence:
#
# PCOD9096588 Si02
#       8
#     2   2   2   2   2   2   2   2
#     4  10  20  37  56  88 117 141 188 227 273 341
#     4  10  22  37  63  85 111 147 183 235 283 326
#     4  11  21  35  59  83 113 150 187 224 278 333
#     4  11  20  34  58  82 122 153 173 225 288 328
#     4  10  23  41  60  81 110 147 192 241 268 324
#     4  10  22  41  60  80 112 148 193 227 283 326
#     4  10  20  36  56  88 117 146 182 225 283 341
#     4  10  20  36  59  83 116 153 179 231 277 331
#
# _framework density 21.168588
#
# number of rings (size 3 to 8) (size 9 to 14) (size 15 to 20)
#    0.000    1.750    2.500    2.250    1.750    5.500 
#    0.000    5.625    2.750    0.000    0.000    0.000 
#    0.000    0.000    0.000    0.000    0.000    0.000 
#
# Total GULP energy -89463.864050 kJ/mol
# GULP energy per Si atom -5591.491503 kJ/mol
# Density = 2.112041 g / cm^3
# Si number density = 21.168588 Si / 1000 Ang^3
#
#
#
# Elastic Constant Matrix: (Units=GPa)
#
#
# Indices 1 2 3 4 5 6 
#
# 1 45.6739 23.3635 8.9599 3.2389 -12.5784 -7.8665
# 2 23.3635 113.3161 33.8992 18.9135 -14.2439 -25.7597
# 3 8.9599 33.8992 46.5127 14.5845 -11.0028 -17.6336
# 4 3.2389 18.9135 14.5845 32.7537 -7.7838 -10.2460
# 5 -12.5784 -14.2439 -11.0028 -7.7838 22.6872 10.1315
# 6 -7.8665 -25.7597 -17.6336 -10.2460 10.1315 33.8574
#
#
#
# Elastic Compliance Matrix: (Units=1/GPa)
#
#
# Indices 1 2 3 4 5 6 
#
# 1 0.027738 -0.004605 0.000267 0.003020 0.013700 -0.000106
# 2 -0.004605 0.013147 -0.005940 -0.003020 -0.000479 0.005069
# 3 0.000267 -0.005940 0.032672 -0.007016 0.005998 0.008641
# 4 0.003020 -0.003020 -0.007016 0.038179 0.007687 0.004004
# 5 0.013700 -0.000479 0.005998 0.007687 0.061436 -0.010115
# 6 -0.000106 0.005069 0.008641 0.004004 -0.010115 0.042107
#
#
# Mechanical properties :
#
#
# Convention : Reuss Voigt Hill
#
# Bulk Modulus (GPa) = 18.86732 37.54977 28.20855
# Shear Modulus (GPa) = 19.72369 27.14501 23.43435
#
# Velocity S-wave (km/s) = 3.05576 3.58484 3.33082
# Velocity P-wave (km/s) = 4.62412 5.90861 5.30538
#
# Compressibility (1/GPa) = 0.05300169
#
# Stress axis : x y z
#
# Youngs Moduli (GPa) = 36.05138 76.06134 30.60749
#
# Poissons Ratio (x) = 0.35024 -0.00816
# Poissons Ratio (y) = 0.16601 0.18180
# Poissons Ratio (z) = -0.00961 0.45177
#
# Static dielectric constant tensor:
#      x y z
#    x 1.782440 0.031040 0.005410 
#    y 0.031040 1.765710 0.009270 
#    z 0.005410 0.009270 1.740490 
# 
# From -- ./inp_files/170483.got.cif
#   From: 2010.05.17/outbox.cif.g08.bks.cpg/sg2_86_cif.got.tgz:170483.got - 2010.06.03 11:33:40.
