data_PCOD9096421
_publ_section_title
;
Structure prediction by ZEFSAII (Michael W. Deem and Ramdas Pophale) SiO2 
 PCOD9096421
Probable space group: P -1
;
_chemical_formula_sum "Si O2"
_cell_formula_units_Z 16
_cell_length_a 16.194043
_cell_length_b 8.045232
_cell_length_c 10.405836
_cell_angle_alpha 75.440296
_cell_angle_beta 126.239864
_cell_angle_gamma 63.335054
_cell_volume 681.299062
_symmetry_space_group_name_H-M "P -1"
_symmetry_group_IT_number 2
_symmetry_cell_setting 'triclinic'
loop_
_space_group_symop_operation_xyz
x,y,z
-x,-y,-z
loop_
_atom_site_type_symbol
_atom_site_label
_atom_site_fract_x
_atom_site_fract_y
_atom_site_fract_z
Si Si1 0.244111 0.304424 0.389497
Si Si2 0.662983 0.277030 0.337694
Si Si3 0.834829 0.295230 0.950537
Si Si4 0.445531 0.222530 0.816236
Si Si5 0.962054 0.724496 0.679817
Si Si6 0.729362 0.840454 0.989203
Si Si7 0.447669 0.278726 0.214081
Si Si8 0.681283 0.205218 0.681262
O O1 0.180546 0.531103 0.196506
O O2 0.321242 0.298598 0.585849
O O3 0.111713 0.332620 0.289748
O O4 0.396406 0.011944 0.527455
O O5 0.639642 0.506613 0.252058
O O6 0.513503 0.342537 0.171022
O O7 0.692974 0.218061 0.534311
O O8 0.801103 0.020240 0.425739
O O9 0.670093 0.490626 0.837802
O O10 0.826041 0.133085 0.890972
O O11 0.957778 0.217937 0.181195
O O12 0.609945 0.084276 0.931651
O O13 0.500000 0.000000 0.000000
O O14 0.089652 0.454648 0.765290
O O15 0.645351 0.763054 0.918631
O O16 0.713449 0.977714 0.820353
O O17 0.500000 0.500000 0.500000
#
# Coordination Sequence:
#
# PCOD9096421 Si02
#       8
#     2   2   2   2   2   2   2   2
#     4  10  20  36  54  87 120 158 199 239 291 349
#     4  11  22  38  58  92 122 156 197 244 299 351
#     4  11  19  32  53  90 126 161 184 232 299 369
#     4  11  23  44  67  84 110 159 215 253 284 337
#     4  10  25  36  57  90 131 157 186 238 308 372
#     4  10  22  39  58  92 119 159 197 238 300 360
#     4   9  19  31  57  82 122 160 191 234 287 359
#     4  12  20  32  58  89 130 156 194 242 292 358
#
# _framework density 23.484549999999999
#
# number of rings (size 3 to 8) (size 9 to 14) (size 15 to 20)
#    0.000    1.500    3.750    1.500    8.750    1.500 
#    0.000    6.875    0.000    0.000    0.000    0.000 
#    0.000    0.000    0.000    0.000    0.000    0.000 
#
# Total GULP energy -89152.366490 kJ/mol
# GULP energy per Si atom -5572.022906 kJ/mol
# Density = 2.343110 g / cm^3
# Si number density = 23.484550 Si / 1000 Ang^3
#
#
#
# Elastic Constant Matrix: (Units=GPa)
#
#
# Indices 1 2 3 4 5 6 
#
# 1 58.8070 7.5173 22.1146 -3.1179 19.3333 26.1464
# 2 7.5173 76.4028 -0.6824 -3.7557 0.7838 33.2874
# 3 22.1146 -0.6824 52.8626 -8.9549 8.2907 -5.5978
# 4 -3.1179 -3.7557 -8.9549 34.1974 1.2831 -0.6184
# 5 19.3333 0.7838 8.2907 1.2831 43.1302 -6.7989
# 6 26.1464 33.2874 -5.5978 -0.6184 -6.7989 44.8822
#
#
#
# Elastic Compliance Matrix: (Units=1/GPa)
#
#
# Indices 1 2 3 4 5 6 
#
# 1 0.059963 0.019084 -0.025811 0.000946 -0.031282 -0.057031
# 2 0.019084 0.025872 -0.008830 0.002141 -0.012639 -0.033292
# 3 -0.025811 -0.008830 0.031813 0.005132 0.009734 0.027099
# 4 0.000946 0.002141 0.005132 0.030978 -0.002602 -0.001467
# 5 -0.031282 -0.012639 0.009734 -0.002602 0.041163 0.035012
# 6 -0.057031 -0.033292 0.027099 -0.001467 0.035012 0.088859
#
#
# Mechanical properties :
#
#
# Convention : Reuss Voigt Hill
#
# Bulk Modulus (GPa) = 11.55619 27.33013 19.44316
# Shear Modulus (GPa) = 14.76639 35.05014 24.90827
#
# Velocity S-wave (km/s) = 2.51025 3.86745 3.26025
# Velocity P-wave (km/s) = 3.65147 5.62189 4.74020
#
# Compressibility (1/GPa) = 0.08653372
#
# Stress axis : x y z
#
# Youngs Moduli (GPa) = 16.67702 38.65223 31.43359
#
# Poissons Ratio (x) = -0.73766 0.81134
# Poissons Ratio (y) = -0.31827 0.27757
# Poissons Ratio (z) = 0.43045 0.34131
#
# Static dielectric constant tensor:
#      x y z
#    x 1.909380 -0.067110 0.064810 
#    y -0.067110 2.028960 0.029240 
#    z 0.064810 0.029240 1.997220 
# 
# From -- ./inp_files/181677.got.cif
#   From: 2010.05.17/outbox.cif.g08.bks.cpg/sg2_91_cif.got.tgz:181677.got - 2010.06.03 11:33:40.
