data_PCOD9096044
_publ_section_title
;
Structure prediction by ZEFSAII (Michael W. Deem and Ramdas Pophale) SiO2 
 PCOD9096044
Probable space group: P -1
;
_chemical_formula_sum "Si O2"
_cell_formula_units_Z 16
_cell_length_a 12.965897
_cell_length_b 11.859916
_cell_length_c 7.556254
_cell_angle_alpha 91.717847
_cell_angle_beta 61.186630
_cell_angle_gamma 136.548118
_cell_volume 593.382355
_symmetry_space_group_name_H-M "P -1"
_symmetry_group_IT_number 2
_symmetry_cell_setting 'triclinic'
loop_
_space_group_symop_operation_xyz
x,y,z
-x,-y,-z
loop_
_atom_site_type_symbol
_atom_site_label
_atom_site_fract_x
_atom_site_fract_y
_atom_site_fract_z
Si Si1 0.101139 0.480835 0.184092
Si Si2 0.869637 0.756871 0.739254
Si Si3 0.636983 0.554079 0.236294
Si Si4 0.638386 0.914062 0.193126
Si Si5 0.551036 0.093112 0.155584
Si Si6 0.691498 0.888095 0.539330
Si Si7 0.810026 0.422110 0.483781
Si Si8 0.955858 0.763680 0.285658
O O1 0.106284 0.351146 0.199286
O O2 0.172179 0.579947 0.322515
O O3 0.880255 0.361276 0.332295
O O4 0.265093 0.675800 0.943596
O O5 0.837142 0.715352 0.555041
O O6 0.704871 0.675287 0.009648
O O7 0.089628 0.983917 0.577141
O O8 0.500000 0.500000 0.500000
O O9 0.494049 0.339932 0.279317
O O10 0.837388 0.687636 0.196550
O O11 0.713377 0.923492 0.314641
O O12 0.408658 0.694236 0.363447
O O13 0.596982 0.016780 0.226865
O O14 0.810875 0.018070 0.913995
O O15 0.363130 0.031105 0.337758
O O16 0.500000 0.000000 0.000000
O O17 0.966748 0.637756 0.300978
#
# Coordination Sequence:
#
# PCOD9096044 Si02
#       8
#     2   2   2   2   2   2   2   2
#     4  10  20  36  61  98 150 188 233 274 332 416
#     4  11  25  46  72 105 143 187 235 293 359 423
#     4  12  28  53  77 102 136 181 242 312 367 418
#     4  12  22  39  64 102 144 188 232 278 346 421
#     4  12  22  36  64 104 148 195 236 278 339 426
#     4  12  26  45  69 105 147 186 238 294 352 425
#     4  10  20  35  61  97 141 193 224 275 333 405
#     4  11  24  45  72 104 140 185 237 293 354 425
#
# _framework density 26.964062999999999
#
# number of rings (size 3 to 8) (size 9 to 14) (size 15 to 20)
#    0.000    0.750    6.250    1.875    1.750    1.000 
#    0.000    3.125    0.000    0.000    0.000    0.000 
#    0.000    0.000    0.000    0.000    0.000    0.000 
#
# Total GULP energy -89410.606023 kJ/mol
# GULP energy per Si atom -5588.162876 kJ/mol
# Density = 2.690269 g / cm^3
# Si number density = 26.964063 Si / 1000 Ang^3
#
#
#
# Elastic Constant Matrix: (Units=GPa)
#
#
# Indices 1 2 3 4 5 6 
#
# 1 54.6171 20.5409 9.5855 -11.4741 9.2219 -8.5489
# 2 20.5409 90.9026 43.0320 -15.6591 11.7018 3.0859
# 3 9.5855 43.0320 157.2909 -5.8503 -5.8853 0.3300
# 4 -11.4741 -15.6591 -5.8503 47.5832 1.4682 5.8553
# 5 9.2219 11.7018 -5.8853 1.4682 29.2706 0.4449
# 6 -8.5489 3.0859 0.3300 5.8553 0.4449 44.3958
#
#
#
# Elastic Compliance Matrix: (Units=1/GPa)
#
#
# Indices 1 2 3 4 5 6 
#
# 1 0.022147 -0.003494 -0.000482 0.003814 -0.005931 0.004068
# 2 -0.003494 0.015252 -0.004025 0.004136 -0.005980 -0.002189
# 3 -0.000482 -0.004025 0.007588 -0.000633 0.003316 0.000181
# 4 0.003814 0.004136 -0.000633 0.023670 -0.004129 -0.002629
# 5 -0.005931 -0.005980 0.003316 -0.004129 0.039306 -0.000600
# 6 0.004068 -0.002189 0.000181 -0.002629 -0.000600 0.023811
#
#
# Mechanical properties :
#
#
# Convention : Reuss Voigt Hill
#
# Bulk Modulus (GPa) = 34.50028 49.90303 42.20166
# Shear Modulus (GPa) = 31.75812 39.56005 35.65909
#
# Velocity S-wave (km/s) = 3.43562 3.83448 3.64052
# Velocity P-wave (km/s) = 5.34422 6.17671 5.77548
#
# Compressibility (1/GPa) = 0.02898527
#
# Stress axis : x y z
#
# Youngs Moduli (GPa) = 45.15227 65.56383 131.77947
#
# Poissons Ratio (x) = 0.22906 0.06358
# Poissons Ratio (y) = 0.15775 0.53044
# Poissons Ratio (z) = 0.02178 0.26391
#
# Static dielectric constant tensor:
#      x y z
#    x 2.140290 -0.005980 -0.058700 
#    y -0.005980 2.121700 -0.007850 
#    z -0.058700 -0.007850 2.272210 
# 
# From -- ./inp_files/313318.got.cif
#   From: 2010.05.17/outbox.cif.g08.bks.cpg/sg2_157_cif.got.tgz:313318.got - 2010.06.03 11:33:40.
