data_PCOD9096386
_publ_section_title
;
Structure prediction by ZEFSAII (Michael W. Deem and Ramdas Pophale) SiO2 
 PCOD9096386
Probable space group: P -1
;
_chemical_formula_sum "Si O2"
_cell_formula_units_Z 16
_cell_length_a 19.986084
_cell_length_b 20.392670
_cell_length_c 6.286025
_cell_angle_alpha 61.836382
_cell_angle_beta 66.326761
_cell_angle_gamma 15.136096
_cell_volume 573.248803
_symmetry_space_group_name_H-M "P -1"
_symmetry_group_IT_number 2
_symmetry_cell_setting 'triclinic'
loop_
_space_group_symop_operation_xyz
x,y,z
-x,-y,-z
loop_
_atom_site_type_symbol
_atom_site_label
_atom_site_fract_x
_atom_site_fract_y
_atom_site_fract_z
Si Si1 0.764608 0.237575 0.196381
Si Si2 0.743832 0.384753 0.278115
Si Si3 0.037948 0.838193 0.254801
Si Si4 0.370624 0.996167 0.738597
Si Si5 0.784976 0.724545 0.246756
Si Si6 0.425152 0.806210 0.741187
Si Si7 0.143426 0.120819 0.217995
Si Si8 0.956835 0.433310 0.224541
O O1 0.735577 0.305059 0.356129
O O2 0.500000 0.500000 0.000000
O O3 0.941399 0.126487 0.021237
O O4 0.869592 0.052976 0.306917
O O5 0.704975 0.427541 0.519712
O O6 0.002805 0.183091 0.233196
O O7 0.559526 0.605446 0.998240
O O8 0.884920 0.914484 0.262567
O O9 0.434729 0.010227 0.758295
O O10 0.178898 0.204866 0.470798
O O11 0.548698 0.759099 0.763627
O O12 0.231951 0.082503 0.964132
O O13 0.730901 0.698833 0.238334
O O14 0.000000 0.500000 0.500000
O O15 0.923194 0.635492 0.017308
O O16 0.393629 0.857792 0.453938
O O17 0.934115 0.375815 0.229814
#
# Coordination Sequence:
#
# PCOD9096386 Si02
#       8
#     2   2   2   2   2   2   2   2
#     4  11  22  41  61  85 114 146 186 232 283 338
#     4  11  22  38  58  80 109 149 184 228 287 334
#     4  10  23  41  59  84 115 144 187 236 277 337
#     4   9  16  29  49  76 106 143 182 229 280 329
#     4   8  13  23  45  77 107 143 184 225 281 330
#     4  10  20  36  53  79 110 142 186 230 274 335
#     4   9  19  33  52  75 107 142 183 231 277 332
#     4   8  14  26  46  75 109 139 184 233 271 333
#
# _framework density 27.911092
#
# number of rings (size 3 to 8) (size 9 to 14) (size 15 to 20)
#    0.000    2.500    1.250    1.125    0.000    1.500 
#    2.250    0.000    0.000    0.750    0.000   78.750 
#    0.000    0.000    0.000    0.000    0.000    0.000 
#
# Total GULP energy -89214.709713 kJ/mol
# GULP energy per Si atom -5575.919357 kJ/mol
# Density = 2.784757 g / cm^3
# Si number density = 27.911092 Si / 1000 Ang^3
#
#
#
# Elastic Constant Matrix: (Units=GPa)
#
#
# Indices 1 2 3 4 5 6 
#
# 1 95.2399 68.6892 51.1747 -8.6785 -1.2896 50.7932
# 2 68.6892 38.2157 5.4891 7.6197 10.9510 12.2471
# 3 51.1747 5.4891 183.6451 10.9065 15.3350 -20.7404
# 4 -8.6785 7.6197 10.9065 28.2801 -18.0915 -1.3885
# 5 -1.2896 10.9510 15.3350 -18.0915 60.9255 10.3422
# 6 50.7932 12.2471 -20.7404 -1.3885 10.3422 39.1022
#
#
#
# Elastic Compliance Matrix: (Units=1/GPa)
#
#
# Indices 1 2 3 4 5 6 
#
# 1 -0.006405 0.013189 0.003682 -0.011859 -0.008298 0.007915
# 2 0.013189 0.007808 -0.007970 0.008767 0.007824 -0.025563
# 3 0.003682 -0.007970 0.004413 0.002272 0.001101 -0.000156
# 4 -0.011859 0.008767 0.002272 0.032260 0.004851 0.013726
# 5 -0.008298 0.007824 0.001101 0.004851 0.015132 0.005082
# 6 0.007915 -0.025563 -0.000156 0.013726 0.005082 0.022359
#
#
# Mechanical properties :
#
#
# Convention : Reuss Voigt Hill
#
# Bulk Modulus (GPa) = 42.34002 63.08964 52.71483
# Shear Modulus (GPa) = 76.17277 38.44474 57.30876
#
# Velocity S-wave (km/s) = 5.22977 3.71536 4.53621
# Velocity P-wave (km/s) = 7.18817 6.40766 6.80911
#
# Compressibility (1/GPa) = 0.02361832
#
# Stress axis : x y z
#
# Youngs Moduli (GPa) = -156.13435 128.06624 226.59563
#
# Poissons Ratio (x) = -1.68903 -0.83424
# Poissons Ratio (y) = 2.05922 1.80589
# Poissons Ratio (z) = 0.57483 1.02064
#
# Static dielectric constant tensor:
#      x y z
#    x 2.192960 0.066070 -0.043780 
#    y 0.066070 2.323690 0.013530 
#    z -0.043780 0.013530 2.277390 
# 
# From -- ./inp_files/10803.got.cif
#   From: 2010.05.17/outbox.cif.g08.bks.cpg/sg2_6_cif.got.tgz:10803.got - 2010.06.03 11:33:40.
