data_PCOD9096807
_publ_section_title
;
Structure prediction by ZEFSAII (Michael W. Deem and Ramdas Pophale) SiO2 
 PCOD9096807
Probable space group: P -1
;
_chemical_formula_sum "Si O2"
_cell_formula_units_Z 15
_cell_length_a 15.304184
_cell_length_b 7.444531
_cell_length_c 6.971914
_cell_angle_alpha 56.881381
_cell_angle_beta 88.265119
_cell_angle_gamma 113.068573
_cell_volume 580.491457
_symmetry_space_group_name_H-M "P -1"
_symmetry_group_IT_number 2
_symmetry_cell_setting 'triclinic'
loop_
_space_group_symop_operation_xyz
x,y,z
-x,-y,-z
loop_
_atom_site_type_symbol
_atom_site_label
_atom_site_fract_x
_atom_site_fract_y
_atom_site_fract_z
Si Si1 0.186637 0.442686 0.963570
Si Si2 0.187187 0.752457 0.078867
Si Si3 0.500000 0.000000 0.000000
Si Si4 0.542119 0.907397 0.714567
Si Si5 0.632694 0.741058 0.231931
Si Si6 0.629460 0.570786 0.919529
Si Si7 0.966937 0.120391 0.098614
Si Si8 0.220115 0.377746 0.550831
O O1 0.257353 0.363510 0.120205
O O2 0.207584 0.434572 0.742723
O O3 0.218288 0.711226 0.886990
O O4 0.069342 0.279987 0.111342
O O5 0.199216 0.562264 0.321393
O O6 0.076634 0.717498 0.090193
O O7 0.262221 0.026884 0.977585
O O8 0.443531 0.154688 0.794434
O O9 0.589730 0.095627 0.773362
O O10 0.444902 0.715000 0.971462
O O11 0.500000 0.000000 0.500000
O O12 0.603531 0.774496 0.729141
O O13 0.597558 0.559368 0.155602
O O14 0.675534 0.633411 0.456977
O O15 0.871070 0.895482 0.332601
O O16 0.000000 0.000000 0.000000
#
# Coordination Sequence:
#
# PCOD9096807 Si02
#       8
#     2   2   1   2   2   2   2   2
#     4  10  20  36  58  83 111 143 185 231 271 325
#     4  11  21  37  60  82 108 149 188 223 276 330
#     4  10  20  36  58  84 112 142 184 232 268 322
#     4  10  21  38  59  81 110 148 183 222 276 328
#     4   9  20  38  56  82 116 144 184 232 270 325
#     4   9  20  39  56  80 116 144 179 230 274 323
#     4   9  20  39  56  81 116 143 181 233 275 326
#     4   9  21  39  57  79 114 150 181 227 280 325
#
# _framework density 25.840174000000001
#
# number of rings (size 3 to 8) (size 9 to 14) (size 15 to 20)
#    0.000    2.400    0.000    2.000    0.000    8.000 
#    0.000   18.667    0.000    0.000    0.000    0.000 
#    0.000    0.000    0.000    0.000    0.000    0.000 
#
# Total GULP energy -83585.894998 kJ/mol
# GULP energy per Si atom -5572.393000 kJ/mol
# Density = 2.578136 g / cm^3
# Si number density = 25.840174 Si / 1000 Ang^3
#
#
#
# Elastic Constant Matrix: (Units=GPa)
#
#
# Indices 1 2 3 4 5 6 
#
# 1 213.8130 48.7774 67.9710 -6.1223 60.3766 6.1066
# 2 48.7774 73.3530 26.9983 -4.9453 12.9224 -9.7978
# 3 67.9710 26.9983 124.1332 -9.9189 49.0902 2.8292
# 4 -6.1223 -4.9453 -9.9189 32.5297 -4.5174 -0.6900
# 5 60.3766 12.9224 49.0902 -4.5174 52.3254 0.8052
# 6 6.1066 -9.7978 2.8292 -0.6900 0.8052 55.6858
#
#
#
# Elastic Compliance Matrix: (Units=1/GPa)
#
#
# Indices 1 2 3 4 5 6 
#
# 1 0.007953 -0.003982 -0.000382 -0.000345 -0.007842 -0.001444
# 2 -0.003982 0.017347 -0.002710 0.001545 0.002932 0.003603
# 3 -0.000382 -0.002710 0.013553 0.002044 -0.011414 -0.000933
# 4 -0.000345 0.001545 0.002044 0.031661 0.000823 0.000586
# 5 -0.007842 0.002932 -0.011414 0.000823 0.038194 0.001414
# 6 -0.001444 0.003603 -0.000933 0.000586 0.001414 0.018785
#
#
# Mechanical properties :
#
#
# Convention : Reuss Voigt Hill
#
# Bulk Modulus (GPa) = 40.47958 77.64364 59.06161
# Shear Modulus (GPa) = 33.36082 45.94503 39.65293
#
# Velocity S-wave (km/s) = 3.59701 4.22126 3.92158
# Velocity P-wave (km/s) = 5.74027 7.33973 6.58871
#
# Compressibility (1/GPa) = 0.02470381
#
# Stress axis : x y z
#
# Youngs Moduli (GPa) = 125.74289 57.64529 73.78482
#
# Poissons Ratio (x) = 0.22957 0.02817
# Poissons Ratio (y) = 0.50076 0.19999
# Poissons Ratio (z) = 0.04801 0.15625
#
# Static dielectric constant tensor:
#      x y z
#    x 1.964480 0.319680 0.000910 
#    y 0.319680 0.742950 -0.068340 
#    z 0.000910 -0.068340 2.129880 
# 
# From -- ./inp_files/38449.got.cif
#   From: 2010.05.17/outbox.cif.g08.bks.cpg/sg2_20_cif.got.tgz:38449.got - 2010.06.03 11:33:40.
