data_PCOD9096891
_publ_section_title
;
Structure prediction by ZEFSAII (Michael W. Deem and Ramdas Pophale) SiO2 
 PCOD9096891
Probable space group: P -1
;
_chemical_formula_sum "Si O2"
_cell_formula_units_Z 15
_cell_length_a 19.518627
_cell_length_b 8.960892
_cell_length_c 21.618859
_cell_angle_alpha 145.528235
_cell_angle_beta 18.266870
_cell_angle_gamma 144.553355
_cell_volume 659.963285
_symmetry_space_group_name_H-M "P -1"
_symmetry_group_IT_number 2
_symmetry_cell_setting 'triclinic'
loop_
_space_group_symop_operation_xyz
x,y,z
-x,-y,-z
loop_
_atom_site_type_symbol
_atom_site_label
_atom_site_fract_x
_atom_site_fract_y
_atom_site_fract_z
Si Si1 0.726075 0.495908 0.769299
Si Si2 0.792146 0.106981 0.929648
Si Si3 0.835244 0.460317 0.531513
Si Si4 0.422088 0.381148 0.297752
Si Si5 0.271251 0.089369 0.751400
Si Si6 0.905922 0.899394 0.224876
Si Si7 0.500000 0.500000 0.500000
Si Si8 0.171523 0.510229 0.674357
O O1 0.709873 0.366089 0.671222
O O2 0.915547 0.401865 0.616097
O O3 0.819304 0.810775 0.785805
O O4 0.500000 0.500000 0.000000
O O5 0.862037 0.128646 0.950028
O O6 0.963048 0.315990 0.815010
O O7 0.547084 0.154289 0.139904
O O8 0.698214 0.645173 0.673916
O O9 0.859455 0.198222 0.381134
O O10 0.618287 0.645012 0.216068
O O11 0.236757 0.428898 0.522375
O O12 0.127154 0.150172 0.836513
O O13 0.500000 0.000000 0.500000
O O14 0.148134 0.822279 0.799546
O O15 0.722514 0.694023 0.347875
O O16 0.381420 0.496892 0.532722
#
# Coordination Sequence:
#
# PCOD9096891 Si02
#       8
#     2   2   2   2   2   2   1   2
#     4  10  24  46  65  89 119 160 209 263 317 371
#     4  10  25  38  59  96 123 155 215 262 302 360
#     4  10  21  41  69  88 117 167 208 245 317 375
#     4  11  21  38  64  95 126 165 202 248 306 365
#     4  10  17  35  61  89 126 172 202 232 301 373
#     4  10  18  37  59  90 128 164 204 246 294 373
#     4  10  16  30  56  88 122 164 194 244 288 346
#     4  10  20  37  60  86 132 163 202 251 296 357
#
# _framework density 22.728535999999998
#
# number of rings (size 3 to 8) (size 9 to 14) (size 15 to 20)
#    0.000    1.867    5.333    0.000    0.000    6.933 
#    0.000    1.333    0.000    0.000    0.000    0.000 
#    0.000    0.000    0.000    0.000    0.000    0.000 
#
# Total GULP energy -83544.374263 kJ/mol
# GULP energy per Si atom -5569.624951 kJ/mol
# Density = 2.267681 g / cm^3
# Si number density = 22.728536 Si / 1000 Ang^3
#
#
#
# Elastic Constant Matrix: (Units=GPa)
#
#
# Indices 1 2 3 4 5 6 
#
# 1 155.6872 2.3069 42.7792 -8.9614 -28.0238 -7.7070
# 2 2.3069 45.4103 0.3990 -5.0727 -2.5993 -15.0236
# 3 42.7792 0.3990 87.5819 -2.9619 -21.8928 0.6084
# 4 -8.9614 -5.0727 -2.9619 21.1783 -8.6385 3.1294
# 5 -28.0238 -2.5993 -21.8928 -8.6385 33.9379 -1.9081
# 6 -7.7070 -15.0236 0.6084 3.1294 -1.9081 21.1635
#
#
#
# Elastic Compliance Matrix: (Units=1/GPa)
#
#
# Indices 1 2 3 4 5 6 
#
# 1 0.009112 0.002383 -0.002193 0.006790 0.008291 0.004816
# 2 0.002383 0.030632 0.000919 0.008616 0.008340 0.022064
# 3 -0.002193 0.000919 0.014969 0.005221 0.009216 -0.000517
# 4 0.006790 0.008616 0.005221 0.063200 0.025801 0.001420
# 5 0.008291 0.008340 0.009216 0.025801 0.049990 0.009367
# 6 0.004816 0.022064 -0.000517 0.001420 0.009367 0.065318
#
#
# Mechanical properties :
#
#
# Convention : Reuss Voigt Hill
#
# Bulk Modulus (GPa) = 17.56493 42.18328 29.87411
# Shear Modulus (GPa) = 20.00179 31.46891 25.73535
#
# Velocity S-wave (km/s) = 2.96975 3.72500 3.36861
# Velocity P-wave (km/s) = 4.41635 6.09104 5.32000
#
# Compressibility (1/GPa) = 0.05693161
#
# Stress axis : x y z
#
# Youngs Moduli (GPa) = 109.74455 32.64563 66.80661
#
# Poissons Ratio (x) = -0.07779 0.14650
# Poissons Ratio (y) = -0.26151 -0.06143
# Poissons Ratio (z) = 0.24066 -0.03002
#
# Static dielectric constant tensor:
#      x y z
#    x 1.866370 -0.003900 -0.013360 
#    y -0.003900 1.863290 0.032890 
#    z -0.013360 0.032890 1.897630 
# 
# From -- ./inp_files/591192.got.cif
#   From: 2010.05.17/outbox.cif.g08.bks.cpg/sg2_296_cif.got.tgz:591192.got - 2010.06.03 11:33:40.
