data_PCOD9096972
_publ_section_title
;
Structure prediction by ZEFSAII (Michael W. Deem and Ramdas Pophale) SiO2 
 PCOD9096972
Probable space group: P -1
;
_chemical_formula_sum "Si O2"
_cell_formula_units_Z 16
_cell_length_a 10.106326
_cell_length_b 8.383757
_cell_length_c 25.458650
_cell_angle_alpha 129.439713
_cell_angle_beta 152.822378
_cell_angle_gamma 63.298066
_cell_volume 718.747516
_symmetry_space_group_name_H-M "P -1"
_symmetry_group_IT_number 2
_symmetry_cell_setting 'triclinic'
loop_
_space_group_symop_operation_xyz
x,y,z
-x,-y,-z
loop_
_atom_site_type_symbol
_atom_site_label
_atom_site_fract_x
_atom_site_fract_y
_atom_site_fract_z
Si Si1 0.594234 0.151015 0.013955
Si Si2 0.556008 0.582988 0.123214
Si Si3 0.319409 0.954171 0.092892
Si Si4 0.648347 0.645443 0.289658
Si Si5 0.262187 0.845000 0.423788
Si Si6 0.349537 0.922700 0.586327
Si Si7 0.644898 0.396625 0.339769
Si Si8 0.689006 0.599076 0.672042
O O1 0.454927 0.349970 0.009506
O O2 0.952803 0.281947 0.171956
O O3 0.563070 0.024067 0.921433
O O4 0.500000 0.000000 0.000000
O O5 0.320567 0.714613 0.059055
O O6 0.592477 0.546913 0.191020
O O7 0.898262 0.744235 0.260482
O O8 0.561150 0.136211 0.251268
O O9 0.000000 0.000000 0.000000
O O10 0.554520 0.477907 0.269327
O O11 0.011193 0.772925 0.453386
O O12 0.516128 0.846398 0.288923
O O13 0.301305 0.970813 0.518760
O O14 0.361232 0.629624 0.421904
O O15 0.500000 0.000000 0.500000
O O16 0.553552 0.769725 0.633304
O O17 0.455320 0.449935 0.331368
O O18 0.000000 0.500000 0.500000
#
# Coordination Sequence:
#
# PCOD9096972 Si02
#       8
#     2   2   2   2   2   2   2   2
#     4  11  25  49  70  96 138 188 237 286 352 417
#     4  10  24  44  70  97 139 185 234 289 347 419
#     4  12  26  47  73 100 142 185 235 294 348 413
#     4  10  21  37  63  99 134 175 220 274 349 407
#     4  10  22  36  60  96 137 178 226 280 355 417
#     4  10  20  36  58  92 139 172 216 279 340 406
#     4  12  24  41  72 102 138 176 229 289 351 413
#     4  11  22  40  64  97 134 176 234 286 340 423
#
# _framework density 22.260946000000001
#
# number of rings (size 3 to 8) (size 9 to 14) (size 15 to 20)
#    0.000    1.250    2.500    3.000    5.250    1.000 
#    2.250    1.250    0.000    0.000    0.000    0.000 
#    0.000    0.000    0.000    0.000    0.000    0.000 
#
# Total GULP energy -89432.701267 kJ/mol
# GULP energy per Si atom -5589.543829 kJ/mol
# Density = 2.221028 g / cm^3
# Si number density = 22.260946 Si / 1000 Ang^3
#
#
#
# Elastic Constant Matrix: (Units=GPa)
#
#
# Indices 1 2 3 4 5 6 
#
# 1 119.9123 5.9463 21.1094 -0.0977 -1.3617 -0.3016
# 2 5.9463 107.3550 19.2710 -14.9458 7.4747 -25.9132
# 3 21.1094 19.2710 44.7983 6.6668 -0.5467 -9.6850
# 4 -0.0977 -14.9458 6.6668 26.0446 -4.0970 -8.5293
# 5 -1.3617 7.4747 -0.5467 -4.0970 29.0501 7.0642
# 6 -0.3016 -25.9132 -9.6850 -8.5293 7.0642 40.4252
#
#
#
# Elastic Compliance Matrix: (Units=1/GPa)
#
#
# Indices 1 2 3 4 5 6 
#
# 1 0.009175 0.000325 -0.004804 0.001317 0.000613 -0.000703
# 2 0.000325 0.015733 -0.006372 0.013904 -0.005209 0.012405
# 3 -0.004804 -0.006372 0.029059 -0.010906 0.000305 0.000487
# 4 0.001317 0.013904 -0.010906 0.055005 -0.000334 0.017974
# 5 0.000613 -0.005209 0.000305 -0.000334 0.038184 -0.010004
# 6 -0.000703 0.012405 0.000487 0.017974 -0.010004 0.038341
#
#
# Mechanical properties :
#
#
# Convention : Reuss Voigt Hill
#
# Bulk Modulus (GPa) = 30.99264 40.52433 35.75849
# Shear Modulus (GPa) = 22.94067 34.15325 28.54696
#
# Velocity S-wave (km/s) = 3.21368 3.92116 3.58492
# Velocity P-wave (km/s) = 5.26526 6.22450 5.76487
#
# Compressibility (1/GPa) = 0.03226573
#
# Stress axis : x y z
#
# Youngs Moduli (GPa) = 108.98905 63.55912 34.41279
#
# Poissons Ratio (x) = -0.02065 0.16531
# Poissons Ratio (y) = -0.03541 0.21928
# Poissons Ratio (z) = 0.52356 0.40500
#
# Static dielectric constant tensor:
#      x y z
#    x 1.843690 -0.031810 -0.014830 
#    y -0.031810 1.871250 -0.004400 
#    z -0.014830 -0.004400 1.781510 
# 
# From -- ./inp_files/606841.got.cif
#   From: 2010.05.17/outbox.cif.g08.bks.cpg/sg2_304_cif.got.tgz:606841.got - 2010.06.03 11:33:40.
