data_PCOD9096785
_publ_section_title
;
Structure prediction by ZEFSAII (Michael W. Deem and Ramdas Pophale) SiO2 
 PCOD9096785
Probable space group: P -1
;
_chemical_formula_sum "Si O2"
_cell_formula_units_Z 10
_cell_length_a 6.539662
_cell_length_b 7.918754
_cell_length_c 11.442926
_cell_angle_alpha 51.827121
_cell_angle_beta 100.799303
_cell_angle_gamma 122.985232
_cell_volume 380.647374
_symmetry_space_group_name_H-M "P -1"
_symmetry_group_IT_number 2
_symmetry_cell_setting 'triclinic'
loop_
_space_group_symop_operation_xyz
x,y,z
-x,-y,-z
loop_
_atom_site_type_symbol
_atom_site_label
_atom_site_fract_x
_atom_site_fract_y
_atom_site_fract_z
Si Si1 0.464728 0.223902 0.233489
Si Si2 0.386444 0.722418 0.408471
Si Si3 0.987116 0.369781 0.788464
Si Si4 0.740568 0.779540 0.251212
Si Si5 0.646781 0.374982 0.924887
O O1 0.728027 0.405372 0.249854
O O2 0.293502 0.334671 0.192036
O O3 0.350101 0.929198 0.378441
O O4 0.428718 0.232380 0.867021
O O5 0.662082 0.882290 0.308574
O O6 0.177586 0.590018 0.339629
O O7 0.008073 0.149733 0.819034
O O8 0.459667 0.733667 0.913101
O O9 0.858131 0.338984 0.913149
O O10 0.646936 0.499608 0.417753
#
# Coordination Sequence:
#
# PCOD9096785 Si02
#       5
#     2   2   2   2   2
#     4  10  21  38  58  80 110 146 181 222 272 322
#     4  10  21  38  58  80 110 146 181 222 272 322
#     4  10  20  36  58  82 110 142 182 226 268 320
#     4   9  20  38  56  81 113 141 181 228 266 321
#     4   9  20  38  56  81 113 141 181 228 266 321
#
# _framework density 26.271035999999999
#
# number of rings (size 3 to 8) (size 9 to 14) (size 15 to 20)
#    0.000    2.400    0.000    1.200    0.000    8.000 
#    0.000   20.000    0.000    0.000    0.000    0.000 
#    0.000    0.000    0.000    0.000    0.000    0.000 
#
# Total GULP energy -55820.248218 kJ/mol
# GULP energy per Si atom -5582.024822 kJ/mol
# Density = 2.621124 g / cm^3
# Si number density = 26.271036 Si / 1000 Ang^3
#
#
#
# Elastic Constant Matrix: (Units=GPa)
#
#
# Indices 1 2 3 4 5 6 
#
# 1 135.0322 13.0405 22.4078 9.6031 -18.2954 -22.7371
# 2 13.0405 90.5506 1.2312 -21.4286 -1.9692 -18.3398
# 3 22.4078 1.2312 95.8975 15.1475 -7.2125 10.3859
# 4 9.6031 -21.4286 15.1475 32.8796 -11.1603 9.7883
# 5 -18.2954 -1.9692 -7.2125 -11.1603 38.5797 16.1351
# 6 -22.7371 -18.3398 10.3859 9.7883 16.1351 46.0445
#
#
#
# Elastic Compliance Matrix: (Units=1/GPa)
#
#
# Indices 1 2 3 4 5 6 
#
# 1 0.009050 -0.001122 -0.002006 -0.003714 0.000684 0.005024
# 2 -0.001122 0.014216 -0.001693 0.010108 0.001644 0.002765
# 3 -0.002006 -0.001693 0.012172 -0.004336 0.001690 -0.004081
# 4 -0.003714 0.010108 -0.004336 0.050511 0.018420 -0.014023
# 5 0.000684 0.001644 0.001690 0.018420 0.039083 -0.017000
# 6 0.005024 0.002765 -0.004081 -0.014023 -0.017000 0.035159
#
#
# Mechanical properties :
#
#
# Convention : Reuss Voigt Hill
#
# Bulk Modulus (GPa) = 38.76655 43.87105 41.31880
# Shear Modulus (GPa) = 28.02195 42.48750 35.25472
#
# Velocity S-wave (km/s) = 3.26950 4.02590 3.66725
# Velocity P-wave (km/s) = 5.38899 6.19243 5.80463
#
# Compressibility (1/GPa) = 0.02579544
#
# Stress axis : x y z
#
# Youngs Moduli (GPa) = 110.50071 70.34383 82.15342
#
# Poissons Ratio (x) = 0.07896 0.16482
# Poissons Ratio (y) = 0.12403 0.13905
# Poissons Ratio (z) = 0.22169 0.11906
#
# Static dielectric constant tensor:
#      x y z
#    x 2.194360 -0.009890 -0.057990 
#    y -0.009890 2.130380 0.010870 
#    z -0.057990 0.010870 2.020800 
# 
# From -- ./inp_files/17657.got.cif
#   From: 2010.05.17/outbox.cif.g08.bks.cpg/sg2_9_cif.got.tgz:17657.got - 2010.06.03 11:33:40.
