data_PCOD9096735
_publ_section_title
;
Structure prediction by ZEFSAII (Michael W. Deem and Ramdas Pophale) SiO2 
 PCOD9096735
Probable space group: P -1
;
_chemical_formula_sum "Si O2"
_cell_formula_units_Z 16
_cell_length_a 12.343081
_cell_length_b 12.371548
_cell_length_c 11.671452
_cell_angle_alpha 74.943923
_cell_angle_beta 144.331352
_cell_angle_gamma 129.730438
_cell_volume 651.814207
_symmetry_space_group_name_H-M "P -1"
_symmetry_group_IT_number 2
_symmetry_cell_setting 'triclinic'
loop_
_space_group_symop_operation_xyz
x,y,z
-x,-y,-z
loop_
_atom_site_type_symbol
_atom_site_label
_atom_site_fract_x
_atom_site_fract_y
_atom_site_fract_z
Si Si1 0.243972 0.798579 0.298102
Si Si2 0.679617 0.646771 0.521800
Si Si3 0.032327 0.147065 0.084857
Si Si4 0.109081 0.116774 0.677263
Si Si5 0.598040 0.172352 0.059868
Si Si6 0.499840 0.251699 0.315371
Si Si7 0.192338 0.402147 0.593835
Si Si8 0.526648 0.206687 0.731758
O O1 0.242397 0.705425 0.422834
O O2 0.305954 0.766649 0.238979
O O3 0.500000 0.000000 0.500000
O O4 0.990515 0.766681 0.055246
O O5 0.500000 0.500000 0.500000
O O6 0.761472 0.614039 0.493041
O O7 0.501449 0.673160 0.326390
O O8 0.955452 0.806759 0.787740
O O9 0.328536 0.221686 0.287861
O O10 0.754778 0.942442 0.896206
O O11 0.366788 0.152311 0.918311
O O12 0.219255 0.295302 0.710708
O O13 0.000000 0.000000 0.500000
O O14 0.805368 0.985748 0.516952
O O15 0.650000 0.235084 0.955259
O O16 0.864177 0.290601 0.342217
O O17 0.500000 0.000000 0.000000
O O18 0.603051 0.396279 0.278938
#
# Coordination Sequence:
#
# PCOD9096735 Si02
#       8
#     2   2   2   2   2   2   2   2
#     4  10  21  38  61  89 116 164 211 246 297 381
#     4  12  21  35  60  94 125 159 199 253 308 370
#     4  10  21  39  60  83 122 170 200 237 319 365
#     4  10  20  36  57  89 123 159 203 249 312 358
#     4  11  20  36  60  90 122 165 202 251 320 356
#     4  10  22  39  59  88 123 163 204 252 306 367
#     4  12  21  37  60  93 126 153 206 264 298 366
#     4  11  20  38  58  91 129 156 204 258 306 371
#
# _framework density 24.546872
#
# number of rings (size 3 to 8) (size 9 to 14) (size 15 to 20)
#    0.000    1.250    7.500    0.750    0.000    2.000 
#    0.000    2.500    0.000    3.750    0.000    0.000 
#    0.000    0.000    0.000    0.000    0.000    0.000 
#
# Total GULP energy -89374.560990 kJ/mol
# GULP energy per Si atom -5585.910062 kJ/mol
# Density = 2.449100 g / cm^3
# Si number density = 24.546872 Si / 1000 Ang^3
#
#
#
# Elastic Constant Matrix: (Units=GPa)
#
#
# Indices 1 2 3 4 5 6 
#
# 1 21.1257 -2.1862 0.7176 3.0700 -5.5308 -7.2812
# 2 -2.1862 173.6342 36.1683 -13.6344 9.9853 2.8439
# 3 0.7176 36.1683 58.7241 -15.7801 11.5119 -17.3899
# 4 3.0700 -13.6344 -15.7801 42.5341 -3.3070 0.8634
# 5 -5.5308 9.9853 11.5119 -3.3070 29.2665 1.8847
# 6 -7.2812 2.8439 -17.3899 0.8634 1.8847 27.4726
#
#
#
# Elastic Compliance Matrix: (Units=1/GPa)
#
#
# Indices 1 2 3 4 5 6 
#
# 1 0.055206 -0.000658 0.001703 -0.003202 0.008641 0.015285
# 2 -0.000658 0.006998 -0.005509 0.000334 -0.000024 -0.004395
# 3 0.001703 -0.005509 0.030903 0.008343 -0.010366 0.021032
# 4 -0.003202 0.000334 0.008343 0.026776 -0.001210 0.003639
# 5 0.008641 -0.000024 -0.010366 -0.001210 0.040201 -0.006989
# 6 0.015285 -0.004395 0.021032 0.003639 -0.006989 0.054584
#
#
# Mechanical properties :
#
#
# Convention : Reuss Voigt Hill
#
# Bulk Modulus (GPa) = 11.87960 35.87594 23.87777
# Shear Modulus (GPa) = 19.86833 34.44025 27.15429
#
# Velocity S-wave (km/s) = 2.84809 3.74978 3.32960
# Velocity P-wave (km/s) = 3.95797 5.77883 4.95280
#
# Compressibility (1/GPa) = 0.08417792
#
# Stress axis : x y z
#
# Youngs Moduli (GPa) = 18.11405 142.89586 32.35909
#
# Poissons Ratio (x) = 0.09408 -0.05510
# Poissons Ratio (y) = 0.01193 0.17827
# Poissons Ratio (z) = -0.03084 0.78721
#
# Static dielectric constant tensor:
#      x y z
#    x 1.940660 -0.014500 0.007550 
#    y -0.014500 2.065510 0.027710 
#    z 0.007550 0.027710 2.078060 
# 
# From -- ./inp_files/531822.got.cif
#   From: 2010.05.17/outbox.cif.g08.bks.cpg/sg2_266_cif.got.tgz:531822.got - 2010.06.03 11:33:40.
