data_PCOD9096725
_publ_section_title
;
Structure prediction by ZEFSAII (Michael W. Deem and Ramdas Pophale) SiO2 
 PCOD9096725
Probable space group: P -1
;
_chemical_formula_sum "Si O2"
_cell_formula_units_Z 16
_cell_length_a 10.758537
_cell_length_b 13.746744
_cell_length_c 12.020406
_cell_angle_alpha 62.317886
_cell_angle_beta 52.493096
_cell_angle_gamma 34.782933
_cell_volume 802.029379
_symmetry_space_group_name_H-M "P -1"
_symmetry_group_IT_number 2
_symmetry_cell_setting 'triclinic'
loop_
_space_group_symop_operation_xyz
x,y,z
-x,-y,-z
loop_
_atom_site_type_symbol
_atom_site_label
_atom_site_fract_x
_atom_site_fract_y
_atom_site_fract_z
Si Si1 0.300757 0.010514 0.120434
Si Si2 0.594903 0.116919 0.328041
Si Si3 0.470946 0.445222 0.889550
Si Si4 0.922481 0.377012 0.167540
Si Si5 0.733494 0.691950 0.168800
Si Si6 0.739499 0.799104 0.344155
Si Si7 0.079998 0.961191 0.107042
Si Si8 0.290932 0.464373 0.204348
O O1 0.463276 0.831298 0.188205
O O2 0.187206 0.017687 0.066894
O O3 0.080901 0.185873 0.214835
O O4 0.500000 0.000000 0.000000
O O5 0.444727 0.164718 0.493373
O O6 0.417024 0.281232 0.257546
O O7 0.688444 0.955329 0.304975
O O8 0.833259 0.061425 0.252180
O O9 0.326205 0.519793 0.814381
O O10 0.713188 0.241182 0.876089
O O11 0.542297 0.530603 0.835383
O O12 0.295549 0.490602 0.057312
O O13 0.853319 0.508469 0.222937
O O14 0.092291 0.344493 0.998392
O O15 0.708543 0.776955 0.246889
O O16 0.019381 0.620948 0.315429
O O17 0.000000 0.000000 0.000000
#
# Coordination Sequence:
#
# PCOD9096725 Si02
#       8
#     2   2   2   2   2   2   2   2
#     4  10  23  36  61  93 125 162 203 258 321 383
#     4  11  25  41  62  91 129 170 213 258 314 381
#     4  11  21  35  63  95 124 158 201 263 330 363
#     4  10  20  36  57  88 122 155 203 258 312 372
#     4  10  21  37  58  85 122 160 206 258 308 370
#     4  11  24  42  62  89 127 175 214 256 311 380
#     4  12  23  39  64  96 130 163 209 270 321 369
#     4  11  22  37  62  92 125 162 204 262 320 373
#
# _framework density 19.949393000000001
#
# number of rings (size 3 to 8) (size 9 to 14) (size 15 to 20)
#    0.000    1.250    5.000    1.125    5.250    1.000 
#    0.000    0.625    0.000    1.500    0.000    0.000 
#    0.000    0.000    0.000    0.000    0.000    0.000 
#
# Total GULP energy -89299.430004 kJ/mol
# GULP energy per Si atom -5581.214375 kJ/mol
# Density = 1.990399 g / cm^3
# Si number density = 19.949393 Si / 1000 Ang^3
#
#
#
# Elastic Constant Matrix: (Units=GPa)
#
#
# Indices 1 2 3 4 5 6 
#
# 1 89.8944 33.4490 28.5058 4.9204 -3.5950 -1.5287
# 2 33.4490 132.2723 17.2722 21.3695 -9.6167 -8.5790
# 3 28.5058 17.2722 55.8986 17.4453 -9.9136 -0.3407
# 4 4.9204 21.3695 17.4453 21.7427 2.3407 -1.0383
# 5 -3.5950 -9.6167 -9.9136 2.3407 20.0865 5.0340
# 6 -1.5287 -8.5790 -0.3407 -1.0383 5.0340 24.9762
#
#
#
# Elastic Compliance Matrix: (Units=1/GPa)
#
#
# Indices 1 2 3 4 5 6 
#
# 1 0.015443 -0.004559 -0.010785 0.010347 -0.006175 0.000907
# 2 -0.004559 0.011139 0.004976 -0.014745 0.008361 0.001317
# 3 -0.010785 0.004976 0.036967 -0.034914 0.023949 -0.004725
# 4 0.010347 -0.014745 -0.034914 0.090134 -0.034389 0.005770
# 5 -0.006175 0.008361 0.023949 -0.034389 0.071788 -0.013078
# 6 0.000907 0.001317 -0.004725 0.005770 -0.013078 0.043357
#
#
# Mechanical properties :
#
#
# Convention : Reuss Voigt Hill
#
# Bulk Modulus (GPa) = 23.35818 48.50215 35.93016
# Shear Modulus (GPa) = 16.45637 26.61697 21.53667
#
# Velocity S-wave (km/s) = 2.87523 3.65667 3.28924
# Velocity P-wave (km/s) = 4.77040 6.49566 5.69870
#
# Compressibility (1/GPa) = 0.04281156
#
# Stress axis : x y z
#
# Youngs Moduli (GPa) = 64.75618 89.77734 27.05118
#
# Poissons Ratio (x) = 0.40925 0.29175
# Poissons Ratio (y) = 0.29519 -0.13459
# Poissons Ratio (z) = 0.69841 -0.44669
#
# Static dielectric constant tensor:
#      x y z
#    x 1.731750 0.014140 -0.011460 
#    y 0.014140 1.770140 -0.013420 
#    z -0.011460 -0.013420 1.687830 
# 
# From -- ./inp_files/432684.got.cif
#   From: 2010.05.17/outbox.cif.g08.bks.cpg/sg2_217_cif.got.tgz:432684.got - 2010.06.03 11:33:40.
