data_PCOD9096037
_publ_section_title
;
Structure prediction by ZEFSAII (Michael W. Deem and Ramdas Pophale) SiO2 
 PCOD9096037
Probable space group: P -1
;
_chemical_formula_sum "Si O2"
_cell_formula_units_Z 14
_cell_length_a 8.934523
_cell_length_b 15.919995
_cell_length_c 7.747061
_cell_angle_alpha 70.645714
_cell_angle_beta 65.079440
_cell_angle_gamma 35.508756
_cell_volume 580.295444
_symmetry_space_group_name_H-M "P -1"
_symmetry_group_IT_number 2
_symmetry_cell_setting 'triclinic'
loop_
_space_group_symop_operation_xyz
x,y,z
-x,-y,-z
loop_
_atom_site_type_symbol
_atom_site_label
_atom_site_fract_x
_atom_site_fract_y
_atom_site_fract_z
Si Si1 0.820553 0.282436 0.346771
Si Si2 0.299204 0.892355 0.980791
Si Si3 0.707112 0.520996 0.356057
Si Si4 0.702394 0.720947 0.162305
Si Si5 0.104584 0.631793 0.267517
Si Si6 0.634335 0.897001 0.838092
Si Si7 0.383949 0.671879 0.952027
O O1 0.710757 0.431615 0.297738
O O2 0.602643 0.329777 0.541569
O O3 0.787572 0.256436 0.190098
O O4 0.133037 0.147446 0.336347
O O5 0.404391 0.941541 0.820060
O O6 0.447916 0.742616 0.938157
O O7 0.387740 0.857620 0.163806
O O8 0.000000 0.000000 0.000000
O O9 0.803011 0.577305 0.214957
O O10 0.856551 0.424319 0.523177
O O11 0.815937 0.725087 0.270073
O O12 0.799322 0.742262 0.943495
O O13 0.331372 0.491189 0.129118
O O14 0.197741 0.694541 0.158648
O O15 0.500000 0.000000 0.000000
#
# Coordination Sequence:
#
# PCOD9096037 Si02
#       7
#     2   2   2   2   2   2   2
#     4  10  21  40  63  91 133 162 199 256 310 375
#     4  10  23  36  63  90 118 156 217 266 288 354
#     4  10  23  37  62  98 134 159 192 250 337 369
#     4  10  23  37  63  91 125 161 205 265 302 372
#     4  10  21  36  62  91 132 158 198 253 312 386
#     4  10  22  40  65  88 116 164 219 256 290 355
#     4  10  20  35  61  96 118 164 208 250 310 359
#
# _framework density 24.125640000000001
#
# number of rings (size 3 to 8) (size 9 to 14) (size 15 to 20)
#    0.857    1.143    1.429    1.286   10.000    1.143 
#    0.000    0.714    0.000    1.714    0.000    0.000 
#    0.000    0.000    0.000    0.000    0.000    0.000 
#
# Total GULP energy -77971.158610 kJ/mol
# GULP energy per Si atom -5569.368472 kJ/mol
# Density = 2.407073 g / cm^3
# Si number density = 24.125640 Si / 1000 Ang^3
#
#
#
# Elastic Constant Matrix: (Units=GPa)
#
#
# Indices 1 2 3 4 5 6 
#
# 1 151.5330 30.7997 24.4684 0.1746 7.5989 -25.6616
# 2 30.7997 44.8776 9.7955 7.9351 -4.2481 -15.5186
# 3 24.4684 9.7955 38.3241 0.5363 -4.0866 -3.6495
# 4 0.1746 7.9351 0.5363 19.4958 -4.8090 -10.4805
# 5 7.5989 -4.2481 -4.0866 -4.8090 24.6886 -3.9545
# 6 -25.6616 -15.5186 -3.6495 -10.4805 -3.9545 57.8676
#
#
#
# Elastic Compliance Matrix: (Units=1/GPa)
#
#
# Indices 1 2 3 4 5 6 
#
# 1 0.008978 -0.005062 -0.004600 0.002634 -0.003470 0.002573
# 2 -0.005062 0.029997 -0.003338 -0.008400 0.005240 0.004426
# 3 -0.004600 -0.003338 0.030499 0.001978 0.006239 -0.000227
# 4 0.002634 -0.008400 0.001978 0.063829 0.012337 0.011443
# 5 -0.003470 0.005240 0.006239 0.012337 0.046822 0.005694
# 6 0.002573 0.004426 -0.000227 0.011443 0.005694 0.022056
#
#
# Mechanical properties :
#
#
# Convention : Reuss Voigt Hill
#
# Bulk Modulus (GPa) = 23.00163 40.54021 31.77092
# Shear Modulus (GPa) = 20.60402 31.72182 26.16292
#
# Velocity S-wave (km/s) = 2.92555 3.63003 3.29666
# Velocity P-wave (km/s) = 4.57893 5.86598 5.26196
#
# Compressibility (1/GPa) = 0.04347518
#
# Stress axis : x y z
#
# Youngs Moduli (GPa) = 111.38870 33.33676 32.78778
#
# Poissons Ratio (x) = 0.16874 0.15082
# Poissons Ratio (y) = 0.56380 0.10944
# Poissons Ratio (z) = 0.51238 0.11127
#
# Static dielectric constant tensor:
#      x y z
#    x 2.013820 -0.041030 -0.029710 
#    y -0.041030 2.018450 -0.013470 
#    z -0.029710 -0.013470 1.945970 
# 
# From -- ./inp_files/212430.got.cif
#   From: 2010.05.17/outbox.cif.g08.bks.cpg/sg2_107_cif.got.tgz:212430.got - 2010.06.03 11:33:40.
