data_PCOD9096855
_publ_section_title
;
Structure prediction by ZEFSAII (Michael W. Deem and Ramdas Pophale) SiO2 
 PCOD9096855
Probable space group: P -1
;
_chemical_formula_sum "Si O2"
_cell_formula_units_Z 16
_cell_length_a 12.229256
_cell_length_b 15.229209
_cell_length_c 15.113575
_cell_angle_alpha 147.460828
_cell_angle_beta 137.847583
_cell_angle_gamma 64.491208
_cell_volume 856.238098
_symmetry_space_group_name_H-M "P -1"
_symmetry_group_IT_number 2
_symmetry_cell_setting 'triclinic'
loop_
_space_group_symop_operation_xyz
x,y,z
-x,-y,-z
loop_
_atom_site_type_symbol
_atom_site_label
_atom_site_fract_x
_atom_site_fract_y
_atom_site_fract_z
Si Si1 0.380389 0.192064 0.714122
Si Si2 0.558392 0.893120 0.013698
Si Si3 0.248086 0.505199 0.144428
Si Si4 0.545376 0.065826 0.339357
Si Si5 0.218966 0.156863 0.247404
Si Si6 0.582669 0.514807 0.465482
Si Si7 0.490771 0.406390 0.778839
Si Si8 0.961240 0.927453 0.313282
O O1 0.442750 0.266486 0.714888
O O2 0.149403 0.070519 0.490059
O O3 0.442938 0.051300 0.671040
O O4 0.476840 0.390910 0.997701
O O5 0.546489 0.960900 0.161915
O O6 0.771458 0.922914 0.160782
O O7 0.409016 0.667415 0.711388
O O8 0.500000 0.000000 0.000000
O O9 0.276440 0.707342 0.362977
O O10 0.425213 0.510364 0.303203
O O11 0.311218 0.534678 0.104415
O O12 0.079852 0.290370 0.889345
O O13 0.352519 0.071152 0.235141
O O14 0.230407 0.282258 0.275635
O O15 0.316299 0.292233 0.507416
O O16 0.000000 0.000000 0.000000
O O17 0.500000 0.500000 0.500000
O O18 0.000000 0.000000 0.500000
#
# Coordination Sequence:
#
# PCOD9096855 Si02
#       8
#     2   2   2   2   2   2   2   2
#     4  11  20  36  61  84 114 153 199 242 298 356
#     4  11  21  36  59  88 122 153 195 244 293 352
#     4   9  19  34  55  82 115 148 187 245 296 344
#     4  10  20  36  58  85 114 154 192 246 300 341
#     4  10  22  39  59  80 116 156 197 244 301 363
#     4   9  18  36  59  81 116 157 188 232 303 351
#     4   9  20  37  56  81 114 157 190 239 305 356
#     4  11  20  37  60  85 117 153 197 239 292 354
#
# _framework density 18.686392000000001
#
# number of rings (size 3 to 8) (size 9 to 14) (size 15 to 20)
#    0.000    2.250    2.500    3.000    0.000    5.500 
#    0.000    5.000    0.000    0.000    0.000    0.000 
#    0.000    0.000    0.000    0.000    0.000    0.000 
#
# Total GULP energy -89093.523610 kJ/mol
# GULP energy per Si atom -5568.345226 kJ/mol
# Density = 1.864386 g / cm^3
# Si number density = 18.686392 Si / 1000 Ang^3
#
#
#
# Elastic Constant Matrix: (Units=GPa)
#
#
# Indices 1 2 3 4 5 6 
#
# 1 89.5077 47.0489 50.4663 12.5247 5.8849 11.1070
# 2 47.0489 118.8462 46.4884 30.0258 10.5422 5.2570
# 3 50.4663 46.4884 110.5017 29.5886 5.5065 5.6215
# 4 12.5247 30.0258 29.5886 34.8068 -0.3180 4.7036
# 5 5.8849 10.5422 5.5065 -0.3180 35.0300 -3.1181
# 6 11.1070 5.2570 5.6215 4.7036 -3.1181 37.8218
#
#
#
# Elastic Compliance Matrix: (Units=1/GPa)
#
#
# Indices 1 2 3 4 5 6 
#
# 1 0.017700 -0.005229 -0.006853 0.004511 -0.000644 -0.004067
# 2 -0.005229 0.013286 -0.000630 -0.009162 -0.003044 0.000671
# 3 -0.006853 -0.000630 0.015119 -0.009989 -0.001037 0.001010
# 4 0.004511 -0.009162 -0.009989 0.044041 0.003636 -0.003744
# 5 -0.000644 -0.003044 -0.001037 0.003636 0.030015 0.002789
# 6 -0.004067 0.000671 0.001010 -0.003744 0.002789 0.028086
#
#
# Mechanical properties :
#
#
# Convention : Reuss Voigt Hill
#
# Bulk Modulus (GPa) = 48.35330 67.42920 57.89125
# Shear Modulus (GPa) = 27.69048 33.18851 30.43949
#
# Velocity S-wave (km/s) = 3.85366 4.21893 4.04042
# Velocity P-wave (km/s) = 6.76264 7.73922 7.26735
#
# Compressibility (1/GPa) = 0.02068111
#
# Stress axis : x y z
#
# Youngs Moduli (GPa) = 56.49566 75.26644 66.13975
#
# Poissons Ratio (x) = 0.39360 0.45324
# Poissons Ratio (y) = 0.29544 0.04169
# Poissons Ratio (z) = 0.38715 0.04745
#
# Static dielectric constant tensor:
#      x y z
#    x 1.801940 0.033540 0.000780 
#    y 0.033540 1.655070 0.023290 
#    z 0.000780 0.023290 1.720060 
# 
# From -- ./inp_files/522679.got.cif
#   From: 2010.05.17/outbox.cif.g08.bks.cpg/sg2_262_cif.got.tgz:522679.got - 2010.06.03 11:33:40.
