data_PCOD9096695
_publ_section_title
;
Structure prediction by ZEFSAII (Michael W. Deem and Ramdas Pophale) SiO2 
 PCOD9096695
Probable space group: P -1
;
_chemical_formula_sum "Si O2"
_cell_formula_units_Z 16
_cell_length_a 14.207645
_cell_length_b 11.916035
_cell_length_c 8.774283
_cell_angle_alpha 87.935241
_cell_angle_beta 34.001196
_cell_angle_gamma 97.923289
_cell_volume 791.887232
_symmetry_space_group_name_H-M "P -1"
_symmetry_group_IT_number 2
_symmetry_cell_setting 'triclinic'
loop_
_space_group_symop_operation_xyz
x,y,z
-x,-y,-z
loop_
_atom_site_type_symbol
_atom_site_label
_atom_site_fract_x
_atom_site_fract_y
_atom_site_fract_z
Si Si1 0.857132 0.566143 0.725856
Si Si2 0.569535 0.093660 0.034820
Si Si3 0.199826 0.454512 0.530695
Si Si4 0.049913 0.764744 0.989738
Si Si5 0.501576 0.575305 0.643782
Si Si6 0.147290 0.707283 0.533851
Si Si7 0.293625 0.162060 0.620325
Si Si8 0.698496 0.033610 0.169008
O O1 0.795909 0.598594 0.641869
O O2 0.000000 0.500000 0.500000
O O3 0.960386 0.669867 0.695574
O O4 0.693990 0.471460 0.026450
O O5 0.699332 0.211443 0.780905
O O6 0.405258 0.117079 0.344822
O O7 0.680977 0.045213 0.012063
O O8 0.500000 0.000000 0.000000
O O9 0.365583 0.450403 0.408605
O O10 0.191085 0.586535 0.519829
O O11 0.025633 0.370604 0.849877
O O12 0.879756 0.812178 0.212574
O O13 0.127837 0.769443 0.715498
O O14 0.189792 0.843111 0.914812
O O15 0.500000 0.500000 0.500000
O O16 0.573984 0.713887 0.506975
O O17 0.235394 0.068726 0.840177
O O18 0.500000 0.000000 0.500000
#
# Coordination Sequence:
#
# PCOD9096695 Si02
#       8
#     2   2   2   2   2   2   2   2
#     4  10  20  36  57  85 121 159 197 245 298 354
#     4  11  24  43  63  89 120 161 208 252 301 362
#     4  10  22  37  60  90 125 164 200 248 305 363
#     4  11  22  40  63  92 121 157 204 252 304 363
#     4  11  23  39  61  93 126 162 205 248 302 364
#     4  11  22  39  62  91 122 158 203 253 303 363
#     4  10  22  42  63  87 123 162 201 254 303 357
#     4  10  22  40  63  87 116 159 202 248 304 358
#
# _framework density 20.204898
#
# number of rings (size 3 to 8) (size 9 to 14) (size 15 to 20)
#    0.000    1.500    0.000    6.375    0.000    8.000 
#    0.000    5.000    0.000    0.000    0.000    0.000 
#    0.000    0.000    0.000    0.000    0.000    0.000 
#
# Total GULP energy -89391.947530 kJ/mol
# GULP energy per Si atom -5586.996721 kJ/mol
# Density = 2.015891 g / cm^3
# Si number density = 20.204898 Si / 1000 Ang^3
#
#
#
# Elastic Constant Matrix: (Units=GPa)
#
#
# Indices 1 2 3 4 5 6 
#
# 1 121.1638 61.6483 33.6067 -13.8137 10.8410 21.6772
# 2 61.6483 94.9230 34.0471 -11.6273 5.8391 6.3111
# 3 33.6067 34.0471 98.7617 -17.0726 4.9529 -2.0438
# 4 -13.8137 -11.6273 -17.0726 31.5698 4.3622 9.2020
# 5 10.8410 5.8391 4.9529 4.3622 34.8740 -5.8834
# 6 21.6772 6.3111 -2.0438 9.2020 -5.8834 37.0393
#
#
#
# Elastic Compliance Matrix: (Units=1/GPa)
#
#
# Indices 1 2 3 4 5 6 
#
# 1 0.015999 -0.007887 -0.001359 0.007406 -0.006229 -0.010924
# 2 -0.007887 0.016673 -0.002937 0.000631 0.000251 0.001496
# 3 -0.001359 -0.002937 0.012579 0.005188 -0.001442 0.000472
# 4 0.007406 0.000631 0.005188 0.044529 -0.011593 -0.017060
# 5 -0.006229 0.000251 -0.001442 -0.011593 0.034221 0.011839
# 6 -0.010924 0.001496 0.000472 -0.017060 0.011839 0.039282
#
#
# Mechanical properties :
#
#
# Convention : Reuss Voigt Hill
#
# Bulk Modulus (GPa) = 47.87727 63.71697 55.79712
# Shear Modulus (GPa) = 25.69260 33.06637 29.37949
#
# Velocity S-wave (km/s) = 3.56982 4.04982 3.81737
# Velocity P-wave (km/s) = 6.38270 7.31245 6.86334
#
# Compressibility (1/GPa) = 0.02088674
#
# Stress axis : x y z
#
# Youngs Moduli (GPa) = 62.50407 59.97866 79.49734
#
# Poissons Ratio (x) = 0.47303 0.10802
# Poissons Ratio (y) = 0.49295 0.23345
# Poissons Ratio (z) = 0.08493 0.17613
#
# Static dielectric constant tensor:
#      x y z
#    x 1.739820 -0.001500 -0.010260 
#    y -0.001500 1.708480 0.021610 
#    z -0.010260 0.021610 1.666620 
# 
# From -- ./inp_files/274851.got.cif
#   From: 2010.05.17/outbox.cif.g08.bks.cpg/sg2_138_cif.got.tgz:274851.got - 2010.06.03 11:33:40.
