data_PCOD9096670
_publ_section_title
;
Structure prediction by ZEFSAII (Michael W. Deem and Ramdas Pophale) SiO2 
 PCOD9096670
Probable space group: P -1
;
_chemical_formula_sum "Si O2"
_cell_formula_units_Z 15
_cell_length_a 12.496293
_cell_length_b 7.931407
_cell_length_c 7.890064
_cell_angle_alpha 112.337982
_cell_angle_beta 123.251615
_cell_angle_gamma 56.433580
_cell_volume 541.590049
_symmetry_space_group_name_H-M "P -1"
_symmetry_group_IT_number 2
_symmetry_cell_setting 'triclinic'
loop_
_space_group_symop_operation_xyz
x,y,z
-x,-y,-z
loop_
_atom_site_type_symbol
_atom_site_label
_atom_site_fract_x
_atom_site_fract_y
_atom_site_fract_z
Si Si1 0.140838 0.287054 0.067387
Si Si2 0.723134 0.318660 0.351252
Si Si3 0.677222 0.586782 0.066514
Si Si4 0.673075 0.230429 0.749725
Si Si5 0.500000 0.500000 0.500000
Si Si6 0.952165 0.074283 0.725376
Si Si7 0.602301 0.052470 0.954130
Si Si8 0.004134 0.638592 0.704799
O O1 0.134544 0.288233 0.267583
O O2 0.298838 0.189036 0.084826
O O3 0.000000 0.500000 0.000000
O O4 0.078914 0.131529 0.894162
O O5 0.696094 0.457334 0.210284
O O6 0.633868 0.473291 0.480049
O O7 0.872750 0.185710 0.527868
O O8 0.669365 0.152500 0.184566
O O9 0.566925 0.819913 0.101270
O O10 0.843142 0.506013 0.133279
O O11 0.616536 0.477295 0.831870
O O12 0.583832 0.248280 0.512952
O O13 0.835721 0.153797 0.808311
O O14 0.629649 0.136186 0.829989
O O15 0.005999 0.835971 0.700102
O O16 0.000000 0.500000 0.500000
#
# Coordination Sequence:
#
# PCOD9096670 Si02
#       8
#     2   2   2   2   1   2   2   2
#     4  12  28  48  73 102 143 185 237 294 348 423
#     4  10  21  32  68 109 139 178 234 290 336 426
#     4  11  21  41  68  99 140 182 233 289 356 406
#     4  10  17  35  65 104 134 178 228 283 339 421
#     4  10  16  30  56 106 152 160 224 294 338 398
#     4  11  23  43  74 102 137 190 238 276 355 408
#     4  11  21  41  68  99 140 182 233 289 356 406
#     4  12  28  48  73 102 143 185 237 294 348 423
#
# _framework density 27.696224000000001
#
# number of rings (size 3 to 8) (size 9 to 14) (size 15 to 20)
#    0.000    1.067    5.333    2.800    3.733    1.067 
#    0.000    1.333   11.733    0.000    0.000    0.000 
#    0.000    0.000    0.000    0.000    0.000    0.000 
#
# Total GULP energy -83627.225141 kJ/mol
# GULP energy per Si atom -5575.148343 kJ/mol
# Density = 2.763319 g / cm^3
# Si number density = 27.696224 Si / 1000 Ang^3
#
#
#
# Elastic Constant Matrix: (Units=GPa)
#
#
# Indices 1 2 3 4 5 6 
#
# 1 145.3852 41.1141 11.6003 4.1963 -29.6284 -64.8760
# 2 41.1141 195.5005 30.4836 7.3582 1.0489 -42.8117
# 3 11.6003 30.4836 68.8905 0.4007 -12.9729 -12.4563
# 4 4.1963 7.3582 0.4007 40.9100 -4.4158 -0.3083
# 5 -29.6284 1.0489 -12.9729 -4.4158 49.3403 5.2907
# 6 -64.8760 -42.8117 -12.4563 -0.3083 5.2907 51.9220
#
#
#
# Elastic Compliance Matrix: (Units=1/GPa)
#
#
# Indices 1 2 3 4 5 6 
#
# 1 0.019358 0.000887 0.002596 -0.000953 0.009569 0.024561
# 2 0.000887 0.006674 -0.002157 -0.001327 -0.000958 0.006184
# 3 0.002596 -0.002157 0.016982 0.000596 0.005590 0.004973
# 4 -0.000953 -0.001327 0.000596 0.024983 0.002085 -0.002206
# 5 0.009569 -0.000958 0.005590 0.002085 0.026639 0.009805
# 6 0.024561 0.006184 0.004973 -0.002206 0.009805 0.055228
#
#
# Mechanical properties :
#
#
# Convention : Reuss Voigt Hill
#
# Bulk Modulus (GPa) = 21.89819 64.01912 42.95866
# Shear Modulus (GPa) = 30.78197 50.20634 40.49415
#
# Velocity S-wave (km/s) = 3.33740 4.26226 3.82787
# Velocity P-wave (km/s) = 4.77229 6.88385 5.92293
#
# Compressibility (1/GPa) = 0.04566587
#
# Stress axis : x y z
#
# Youngs Moduli (GPa) = 51.65883 149.83228 58.88743
#
# Poissons Ratio (x) = -0.13293 -0.15289
# Poissons Ratio (y) = -0.04583 0.12703
# Poissons Ratio (z) = -0.13412 0.32323
#
# Static dielectric constant tensor:
#      x y z
#    x 2.175990 0.007050 -0.022070 
#    y 0.007050 2.252350 -0.009970 
#    z -0.022070 -0.009970 1.638390 
# 
# From -- ./inp_files/293053.got.cif
#   From: 2010.05.17/outbox.cif.g08.bks.cpg/sg2_147_cif.got.tgz:293053.got - 2010.06.03 11:33:40.
