data_PCOD9096409
_publ_section_title
;
Structure prediction by ZEFSAII (Michael W. Deem and Ramdas Pophale) SiO2 
 PCOD9096409
Probable space group: P -1
;
_chemical_formula_sum "Si O2"
_cell_formula_units_Z 14
_cell_length_a 9.628688
_cell_length_b 5.874416
_cell_length_c 17.307220
_cell_angle_alpha 67.930676
_cell_angle_beta 111.939176
_cell_angle_gamma 138.284941
_cell_volume 596.760230
_symmetry_space_group_name_H-M "P -1"
_symmetry_group_IT_number 2
_symmetry_cell_setting 'triclinic'
loop_
_space_group_symop_operation_xyz
x,y,z
-x,-y,-z
loop_
_atom_site_type_symbol
_atom_site_label
_atom_site_fract_x
_atom_site_fract_y
_atom_site_fract_z
Si Si1 0.000157 0.121054 0.808043
Si Si2 0.331660 0.969673 0.514461
Si Si3 0.345896 0.878466 0.222981
Si Si4 0.429347 0.488679 0.365340
Si Si5 0.103858 0.353201 0.027465
Si Si6 0.581701 0.335980 0.070318
Si Si7 0.260403 0.484454 0.670116
O O1 0.220358 0.401083 0.864484
O O2 0.078951 0.190915 0.727958
O O3 0.852258 0.186134 0.783857
O O4 0.883513 0.761242 0.872134
O O5 0.276543 0.110351 0.421306
O O6 0.458132 0.251899 0.572396
O O7 0.500000 0.000000 0.500000
O O8 0.188987 0.612914 0.577973
O O9 0.320015 0.565548 0.280193
O O10 0.407706 0.007324 0.130516
O O11 0.548113 0.192518 0.277185
O O12 0.619621 0.586388 0.344010
O O13 0.311717 0.659014 0.983246
O O14 0.000000 0.500000 0.000000
O O15 0.000000 0.000000 0.000000
O O16 0.500000 0.500000 0.000000
#
# Coordination Sequence:
#
# PCOD9096409 Si02
#       7
#     2   2   2   2   2   2   2
#     4  10  21  38  56  84 121 155 199 256 308 362
#     4   8  15  32  59  85 114 147 193 238 290 358
#     4  10  20  36  54  83 120 151 203 247 305 362
#     4   9  17  32  59  85 110 155 194 236 298 363
#     4  10  22  41  62  89 121 161 210 261 312 368
#     4  10  20  39  61  83 117 161 209 253 313 366
#     4   9  19  35  54  84 116 156 193 245 299 361
#
# _framework density 23.460007999999998
#
# number of rings (size 3 to 8) (size 9 to 14) (size 15 to 20)
#    0.000    2.571    1.429    0.000    2.000    0.000 
#    5.143    3.571    0.000   29.143    0.000    0.000 
#    0.000    0.000    0.000    0.000    0.000    0.000 
#
# Total GULP energy -78078.659770 kJ/mol
# GULP energy per Si atom -5577.047126 kJ/mol
# Density = 2.340661 g / cm^3
# Si number density = 23.460008 Si / 1000 Ang^3
#
#
#
# Elastic Constant Matrix: (Units=GPa)
#
#
# Indices 1 2 3 4 5 6 
#
# 1 168.5953 53.0936 118.1183 -29.4851 -11.2660 -14.7688
# 2 53.0936 96.4664 62.9882 -8.8610 -9.4356 -2.7612
# 3 118.1183 62.9882 225.4084 -51.8492 -8.5298 -4.4529
# 4 -29.4851 -8.8610 -51.8492 42.7457 2.8792 11.2752
# 5 -11.2660 -9.4356 -8.5298 2.8792 61.6420 -10.4276
# 6 -14.7688 -2.7612 -4.4529 11.2752 -10.4276 25.8533
#
#
#
# Elastic Compliance Matrix: (Units=1/GPa)
#
#
# Indices 1 2 3 4 5 6 
#
# 1 0.010641 -0.002351 -0.004925 -0.000881 0.001988 0.006165
# 2 -0.002351 0.013692 -0.003252 -0.003276 0.001649 0.001653
# 3 -0.004925 -0.003252 0.010007 0.009848 -0.001548 -0.006357
# 4 -0.000881 -0.003276 0.009848 0.039042 -0.004144 -0.017855
# 5 0.001988 0.001649 -0.001548 -0.004144 0.018567 0.010341
# 6 0.006165 0.001653 -0.006357 -0.017855 0.010341 0.053241
#
#
# Mechanical properties :
#
#
# Convention : Reuss Voigt Hill
#
# Bulk Modulus (GPa) = 75.28341 106.54116 90.91228
# Shear Modulus (GPa) = 29.29582 43.13289 36.21436
#
# Velocity S-wave (km/s) = 3.53761 4.29251 3.93321
# Velocity P-wave (km/s) = 6.98899 8.37138 7.71123
#
# Compressibility (1/GPa) = 0.01328314
#
# Stress axis : x y z
#
# Youngs Moduli (GPa) = 93.97835 73.03735 99.93012
#
# Poissons Ratio (x) = 0.17171 0.49212
# Poissons Ratio (y) = 0.22094 0.32502
# Poissons Ratio (z) = 0.46281 0.23755
#
# Static dielectric constant tensor:
#      x y z
#    x 1.855600 -0.060950 -0.024880 
#    y -0.060950 1.929760 0.000580 
#    z -0.024880 0.000580 1.923370 
# 
# From -- ./inp_files/45235.got.cif
#   From: 2010.05.17/outbox.cif.g08.bks.cpg/sg2_23_cif.got.tgz:45235.got - 2010.06.03 11:33:40.
