data_PCOD9096981
_publ_section_title
;
Structure prediction by ZEFSAII (Michael W. Deem and Ramdas Pophale) SiO2 
 PCOD9096981
Probable space group: P -1
;
_chemical_formula_sum "Si O2"
_cell_formula_units_Z 15
_cell_length_a 13.820811
_cell_length_b 7.192435
_cell_length_c 8.417111
_cell_angle_alpha 57.180691
_cell_angle_beta 103.990125
_cell_angle_gamma 108.810330
_cell_volume 663.234376
_symmetry_space_group_name_H-M "P -1"
_symmetry_group_IT_number 2
_symmetry_cell_setting 'triclinic'
loop_
_space_group_symop_operation_xyz
x,y,z
-x,-y,-z
loop_
_atom_site_type_symbol
_atom_site_label
_atom_site_fract_x
_atom_site_fract_y
_atom_site_fract_z
Si Si1 0.117365 0.793867 0.178746
Si Si2 0.406325 0.389652 0.899207
Si Si3 0.249327 0.524367 0.974102
Si Si4 0.000000 0.000000 0.500000
Si Si5 0.818633 0.209992 0.463310
Si Si6 0.052420 0.226942 0.100277
Si Si7 0.399018 0.821220 0.486149
Si Si8 0.656859 0.118799 0.914895
O O1 0.130532 0.670107 0.408159
O O2 0.223123 0.852149 0.098043
O O3 0.091001 0.030415 0.111339
O O4 0.020290 0.670955 0.093452
O O5 0.397112 0.576310 0.677017
O O6 0.500000 0.500000 0.000000
O O7 0.308267 0.355515 0.992471
O O8 0.400894 0.138892 0.947868
O O9 0.157501 0.401911 0.107260
O O10 0.333828 0.712666 0.011448
O O11 0.197276 0.629767 0.760480
O O12 0.108716 0.948193 0.494327
O O13 0.015808 0.881875 0.729468
O O14 0.702153 0.101014 0.525883
O O15 0.392809 0.810745 0.298070
O O16 0.500000 0.000000 0.500000
#
# Coordination Sequence:
#
# PCOD9096981 Si02
#       8
#     2   2   2   1   2   2   2   2
#     4   9  19  38  63  86 125 178 210 263 337 388
#     4  11  23  44  70  93 135 176 215 285 343 388
#     4  11  24  42  66 100 128 172 228 273 332 406
#     4  10  20  36  58  94 130 172 216 268 334 390
#     4   9  21  38  61  94 130 168 218 275 321 400
#     4  10  20  38  62  89 128 173 217 266 323 396
#     4  10  21  43  69  96 129 178 228 271 336 407
#     4  11  22  42  66  97 133 171 219 280 334 399
#
# _framework density 22.616437999999999
#
# number of rings (size 3 to 8) (size 9 to 14) (size 15 to 20)
#    0.000    1.867    2.667    0.800    0.000    3.200 
#    7.200    3.333    0.000    0.000    0.000    0.000 
#    0.000    0.000    0.000    0.000    0.000    0.000 
#
# Total GULP energy -83517.779329 kJ/mol
# GULP energy per Si atom -5567.851955 kJ/mol
# Density = 2.256496 g / cm^3
# Si number density = 22.616438 Si / 1000 Ang^3
#
#
#
# Elastic Constant Matrix: (Units=GPa)
#
#
# Indices 1 2 3 4 5 6 
#
# 1 74.1430 7.1887 22.3941 7.2280 2.3737 7.6468
# 2 7.1887 95.1298 19.7125 1.3677 4.3107 16.4763
# 3 22.3941 19.7125 92.5645 16.4427 4.0590 12.8915
# 4 7.2280 1.3677 16.4427 23.8285 6.4964 8.0987
# 5 2.3737 4.3107 4.0590 6.4964 29.2257 2.8225
# 6 7.6468 16.4763 12.8915 8.0987 2.8225 31.5665
#
#
#
# Elastic Compliance Matrix: (Units=1/GPa)
#
#
# Indices 1 2 3 4 5 6 
#
# 1 0.014763 -0.000152 -0.002966 -0.001750 -0.000200 -0.001819
# 2 -0.000152 0.012060 -0.002216 0.003392 -0.001626 -0.006078
# 3 -0.002966 -0.002216 0.013616 -0.007958 0.000610 -0.001698
# 4 -0.001750 0.003392 -0.007958 0.054375 -0.010265 -0.011129
# 5 -0.000200 -0.001626 0.000610 -0.010265 0.036669 0.000003
# 6 -0.001819 -0.006078 -0.001698 -0.011129 0.000003 0.038841
#
#
# Mechanical properties :
#
#
# Convention : Reuss Voigt Hill
#
# Bulk Modulus (GPa) = 33.59050 40.04755 36.81903
# Shear Modulus (GPa) = 26.18944 31.09360 28.64152
#
# Velocity S-wave (km/s) = 3.40661 3.71188 3.56252
# Velocity P-wave (km/s) = 5.50979 6.00970 5.76517
#
# Compressibility (1/GPa) = 0.02977032
#
# Stress axis : x y z
#
# Youngs Moduli (GPa) = 67.73837 82.91673 73.44130
#
# Poissons Ratio (x) = 0.01258 0.21785
# Poissons Ratio (y) = 0.01027 0.16278
# Poissons Ratio (z) = 0.20094 0.18378
#
# Static dielectric constant tensor:
#      x y z
#    x 1.854350 -0.002120 0.006330 
#    y -0.002120 1.839060 -0.007710 
#    z 0.006330 -0.007710 1.905150 
# 
# From -- ./inp_files/291687.got.cif
#   From: 2010.05.17/outbox.cif.g08.bks.cpg/sg2_146_cif.got.tgz:291687.got - 2010.06.03 11:33:40.
