data_PCOD9096039
_publ_section_title
;
Structure prediction by ZEFSAII (Michael W. Deem and Ramdas Pophale) SiO2 
 PCOD9096039
Probable space group: P -1
;
_chemical_formula_sum "Si O2"
_cell_formula_units_Z 12
_cell_length_a 18.082881
_cell_length_b 10.686345
_cell_length_c 21.422978
_cell_angle_alpha 143.280433
_cell_angle_beta 10.881349
_cell_angle_gamma 142.783240
_cell_volume 465.698884
_symmetry_space_group_name_H-M "P -1"
_symmetry_group_IT_number 2
_symmetry_cell_setting 'triclinic'
loop_
_space_group_symop_operation_xyz
x,y,z
-x,-y,-z
loop_
_atom_site_type_symbol
_atom_site_label
_atom_site_fract_x
_atom_site_fract_y
_atom_site_fract_z
Si Si1 0.389499 0.163854 0.603218
Si Si2 0.108791 0.225045 0.170878
Si Si3 0.474493 0.128225 0.950654
Si Si4 0.375827 0.534990 0.249603
Si Si5 0.150323 0.555103 0.764528
Si Si6 0.921406 0.108607 0.717239
O O1 0.703897 0.263735 0.333466
O O2 0.500000 0.000000 0.500000
O O3 0.067672 0.012735 0.773140
O O4 0.189387 0.355183 0.876971
O O5 0.791205 0.390338 0.516951
O O6 0.416117 0.244804 0.980302
O O7 0.322916 0.280700 0.951729
O O8 0.591720 0.322964 0.977665
O O9 0.767620 0.959278 0.618541
O O10 0.082798 0.015630 0.261717
O O11 0.000000 0.500000 0.500000
O O12 0.500000 0.500000 0.500000
O O13 0.998688 0.347652 0.769324
O O14 0.500000 0.000000 0.000000
#
# Coordination Sequence:
#
# PCOD9096039 Si02
#       6
#     2   2   2   2   2   2
#     4  12  27  46  71 105 140 182 236 301 357 409
#     4  11  21  39  64  95 131 177 226 280 344 419
#     4  11  21  40  63  93 131 176 225 281 343 415
#     4  10  20  35  61  96 126 161 211 269 337 407
#     4  12  26  50  75 102 140 193 242 285 345 432
#     4  12  26  42  65  97 131 175 229 290 346 404
#
# _framework density 25.767721999999999
#
# number of rings (size 3 to 8) (size 9 to 14) (size 15 to 20)
#    0.000    0.667    0.000   10.500    0.000    4.000 
#    0.000    0.000    0.000    0.000    0.000    0.000 
#    0.000    0.000    0.000    0.000    0.000    0.000 
#
# Total GULP energy -67112.753930 kJ/mol
# GULP energy per Si atom -5592.729494 kJ/mol
# Density = 2.570907 g / cm^3
# Si number density = 25.767722 Si / 1000 Ang^3
#
#
#
# Elastic Constant Matrix: (Units=GPa)
#
#
# Indices 1 2 3 4 5 6 
#
# 1 96.9754 10.2057 6.8667 -3.7244 -5.4260 6.8145
# 2 10.2057 151.2480 20.3332 -2.4976 5.8067 20.5168
# 3 6.8667 20.3332 93.3827 21.5957 32.2290 22.3320
# 4 -3.7244 -2.4976 21.5957 59.5229 -8.5252 21.6913
# 5 -5.4260 5.8067 32.2290 -8.5252 39.3281 -2.9363
# 6 6.8145 20.5168 22.3320 21.6913 -2.9363 52.7087
#
#
#
# Elastic Compliance Matrix: (Units=1/GPa)
#
#
# Indices 1 2 3 4 5 6 
#
# 1 0.010920 -0.000381 -0.002444 0.002509 0.004032 -0.001036
# 2 -0.000381 0.007243 -0.001317 0.001860 0.000139 -0.002970
# 3 -0.002444 -0.001317 0.021549 -0.008796 -0.020142 -0.005803
# 4 0.002509 0.001860 -0.008796 0.024392 0.012068 -0.006687
# 5 0.004032 0.000139 -0.020142 0.012068 0.045498 0.005527
# 6 -0.001036 -0.002970 -0.005803 -0.006687 0.005527 0.025781
#
#
# Mechanical properties :
#
#
# Convention : Reuss Voigt Hill
#
# Bulk Modulus (GPa) = 31.81985 46.26861 39.04423
# Shear Modulus (GPa) = 32.43772 50.59197 41.51484
#
# Velocity S-wave (km/s) = 3.55188 4.43582 4.01823
# Velocity P-wave (km/s) = 5.40339 6.65059 6.05917
#
# Compressibility (1/GPa) = 0.03142692
#
# Stress axis : x y z
#
# Youngs Moduli (GPa) = 91.57635 138.07157 46.40664
#
# Poissons Ratio (x) = 0.05262 0.11343
# Poissons Ratio (y) = 0.03490 0.06110
# Poissons Ratio (z) = 0.22384 0.18180
#
# Static dielectric constant tensor:
#      x y z
#    x 2.459760 -0.066470 -0.169510 
#    y -0.066470 2.045300 0.015350 
#    z -0.169510 0.015350 2.100820 
# 
# From -- ./inp_files/613699.got.cif
#   From: 2010.05.17/outbox.cif.g08.bks.cpg/sg2_307_cif.got.tgz:613699.got - 2010.06.03 11:33:40.
