data_PCOD9096776
_publ_section_title
;
Structure prediction by ZEFSAII (Michael W. Deem and Ramdas Pophale) SiO2 
 PCOD9096776
Probable space group: P -1
;
_chemical_formula_sum "Si O2"
_cell_formula_units_Z 14
_cell_length_a 11.823430
_cell_length_b 14.987610
_cell_length_c 19.795578
_cell_angle_alpha 20.279855
_cell_angle_beta 31.603894
_cell_angle_gamma 27.468479
_cell_volume 556.667646
_symmetry_space_group_name_H-M "P -1"
_symmetry_group_IT_number 2
_symmetry_cell_setting 'triclinic'
loop_
_space_group_symop_operation_xyz
x,y,z
-x,-y,-z
loop_
_atom_site_type_symbol
_atom_site_label
_atom_site_fract_x
_atom_site_fract_y
_atom_site_fract_z
Si Si1 0.153736 0.181052 0.683425
Si Si2 0.754351 0.432709 0.979848
Si Si3 0.008484 0.268938 0.106015
Si Si4 0.424667 0.700157 0.633689
Si Si5 0.199109 0.376741 0.721242
Si Si6 0.708753 0.247139 0.932073
Si Si7 0.458944 0.659528 0.303127
O O1 0.427350 0.136156 0.582090
O O2 0.000000 0.500000 0.500000
O O3 0.988333 0.199302 0.819626
O O4 0.170481 0.910832 0.823511
O O5 0.873254 0.440819 0.985375
O O6 0.459204 0.627775 0.003952
O O7 0.909262 0.503454 0.795713
O O8 0.851153 0.128082 0.320260
O O9 0.275734 0.004491 0.142232
O O10 0.000000 0.500000 0.000000
O O11 0.570724 0.498147 0.766873
O O12 0.434254 0.500250 0.708106
O O13 0.290694 0.522854 0.514703
O O14 0.335848 0.392633 0.708656
O O15 0.298305 0.036801 0.891901
#
# Coordination Sequence:
#
# PCOD9096776 Si02
#       7
#     2   2   2   2   2   2   2
#     4   9  18  33  55  84 109 139 179 220 270 317
#     4  10  20  36  58  81 111 142 178 225 268 317
#     4  11  22  35  57  86 110 139 179 223 271 318
#     4  10  21  35  57  84 108 139 182 224 266 316
#     4  10  22  37  55  79 107 147 182 215 272 325
#     4   9  19  36  58  81 107 141 180 222 267 318
#     4  11  22  37  55  78 113 144 177 224 267 319
#
# _framework density 25.149657000000001
#
# number of rings (size 3 to 8) (size 9 to 14) (size 15 to 20)
#    0.000    2.000    0.000    5.143    0.000    9.143 
#    0.000    6.429    0.000    5.143    0.000    0.000 
#    0.000    0.000    0.000    0.000    0.000    0.000 
#
# Total GULP energy -78388.756000 kJ/mol
# GULP energy per Si atom -5599.196857 kJ/mol
# Density = 2.509242 g / cm^3
# Si number density = 25.149657 Si / 1000 Ang^3
#
#
#
# Elastic Constant Matrix: (Units=GPa)
#
#
# Indices 1 2 3 4 5 6 
#
# 1 53.2152 4.7290 1.6357 8.0429 -10.5526 9.8190
# 2 4.7290 177.3517 50.5063 47.4483 -6.6991 1.7970
# 3 1.6357 50.5063 142.3383 37.6597 -9.5211 -1.1899
# 4 8.0429 47.4483 37.6597 48.1560 5.1477 1.1476
# 5 -10.5526 -6.6991 -9.5211 5.1477 33.8968 5.8096
# 6 9.8190 1.7970 -1.1899 1.1476 5.8096 31.7783
#
#
#
# Elastic Compliance Matrix: (Units=1/GPa)
#
#
# Indices 1 2 3 4 5 6 
#
# 1 0.023612 0.001407 0.001949 -0.007805 0.010907 -0.009015
# 2 0.001407 0.008050 -0.000522 -0.008085 0.003320 -0.001224
# 3 0.001949 -0.000522 0.009524 -0.007721 0.004481 -0.000756
# 4 -0.007805 -0.008085 -0.007721 0.037322 -0.012466 0.003511
# 5 0.010907 0.003320 0.004481 -0.012466 0.038412 -0.009962
# 6 -0.009015 -0.001224 -0.000756 0.003511 -0.009962 0.035989
#
#
# Mechanical properties :
#
#
# Convention : Reuss Voigt Hill
#
# Bulk Modulus (GPa) = 21.34265 54.07192 37.70729
# Shear Modulus (GPa) = 30.70109 43.83519 37.26814
#
# Velocity S-wave (km/s) = 3.49769 4.17942 3.85366
# Velocity P-wave (km/s) = 4.98162 6.69603 5.90141
#
# Compressibility (1/GPa) = 0.04685453
#
# Stress axis : x y z
#
# Youngs Moduli (GPa) = 42.35061 124.21780 104.99319
#
# Poissons Ratio (x) = -0.17475 -0.20459
# Poissons Ratio (y) = -0.05958 0.05479
# Poissons Ratio (z) = -0.08253 0.06482
#
# Static dielectric constant tensor:
#      x y z
#    x 2.046620 -0.001070 -0.063170 
#    y -0.001070 2.039880 0.017340 
#    z -0.063170 0.017340 2.029200 
# 
# From -- ./inp_files/260961.got.cif
#   From: 2010.05.17/outbox.cif.g08.bks.cpg/sg2_131_cif.got.tgz:260961.got - 2010.06.03 11:33:40.
