data_PCOD9096597
_publ_section_title
;
Structure prediction by ZEFSAII (Michael W. Deem and Ramdas Pophale) SiO2 
 PCOD9096597
Probable space group: P -1
;
_chemical_formula_sum "Si O2"
_cell_formula_units_Z 16
_cell_length_a 12.595466
_cell_length_b 15.043967
_cell_length_c 13.417087
_cell_angle_alpha 154.924141
_cell_angle_beta 71.243329
_cell_angle_gamma 124.128456
_cell_volume 755.268476
_symmetry_space_group_name_H-M "P -1"
_symmetry_group_IT_number 2
_symmetry_cell_setting 'triclinic'
loop_
_space_group_symop_operation_xyz
x,y,z
-x,-y,-z
loop_
_atom_site_type_symbol
_atom_site_label
_atom_site_fract_x
_atom_site_fract_y
_atom_site_fract_z
Si Si1 0.389069 0.687878 0.019264
Si Si2 0.890983 0.363125 0.986508
Si Si3 0.371779 0.668489 0.224420
Si Si4 0.897266 0.064092 0.970632
Si Si5 0.850119 0.942179 0.084484
Si Si6 0.310343 0.202086 0.422485
Si Si7 0.424089 0.692561 0.445562
Si Si8 0.113182 0.637770 0.366151
O O1 0.253892 0.684504 0.046986
O O2 0.363546 0.555255 0.002476
O O3 0.540438 0.016535 0.287377
O O4 0.365460 0.492129 0.741251
O O5 0.828957 0.060446 0.734877
O O6 0.000000 0.500000 0.000000
O O7 0.990832 0.575349 0.262319
O O8 0.428798 0.614571 0.249681
O O9 0.222323 0.609624 0.246352
O O10 0.500000 0.000000 0.500000
O O11 0.987984 0.957112 0.834884
O O12 0.753778 0.878572 0.751531
O O13 0.013915 0.383237 0.217224
O O14 0.855334 0.049915 0.083157
O O15 0.808932 0.066907 0.304233
O O16 0.733853 0.600930 0.768911
O O17 0.450631 0.228611 0.434520
#
# Coordination Sequence:
#
# PCOD9096597 Si02
#       8
#     2   2   2   2   2   2   2   2
#     4  10  21  40  57  86 125 160 190 242 291 352
#     4  10  20  36  56  89 121 153 201 235 284 365
#     4  10  21  37  57  86 126 154 195 239 283 356
#     4  10  23  44  59  92 116 150 204 251 291 359
#     4  11  23  39  68  86 115 155 201 249 303 340
#     4  10  23  39  62  81 124 160 192 242 302 342
#     4  10  23  39  58  91 115 153 205 243 278 363
#     4  11  21  39  62  88 122 158 190 248 298 347
#
# _framework density 21.184519999999999
#
# number of rings (size 3 to 8) (size 9 to 14) (size 15 to 20)
#    0.000    1.750    2.500    1.125    3.500    2.500 
#    0.000    0.625    0.000    0.000    0.000    0.000 
#    0.000    0.000    0.000    0.000    0.000    0.000 
#
# Total GULP energy -89183.383007 kJ/mol
# GULP energy per Si atom -5573.961438 kJ/mol
# Density = 2.113630 g / cm^3
# Si number density = 21.184520 Si / 1000 Ang^3
#
#
#
# Elastic Constant Matrix: (Units=GPa)
#
#
# Indices 1 2 3 4 5 6 
#
# 1 65.4021 4.6872 17.7315 -11.9175 27.6048 -15.5490
# 2 4.6872 78.3115 20.2556 1.4661 11.9630 -20.9880
# 3 17.7315 20.2556 95.5442 -4.4874 10.2671 -3.5846
# 4 -11.9175 1.4661 -4.4874 14.1226 -0.2199 10.9286
# 5 27.6048 11.9630 10.2671 -0.2199 32.4433 -8.6037
# 6 -15.5490 -20.9880 -3.5846 10.9286 -8.6037 30.6575
#
#
#
# Elastic Compliance Matrix: (Units=1/GPa)
#
#
# Indices 1 2 3 4 5 6 
#
# 1 0.031814 0.002816 -0.002437 0.024041 -0.026720 0.001710
# 2 0.002816 0.019653 -0.004364 -0.015890 -0.003302 0.019110
# 3 -0.002437 -0.004364 0.012112 0.006542 -0.001587 -0.005585
# 4 0.024041 -0.015890 0.006542 0.137193 -0.030419 -0.055363
# 5 -0.026720 -0.003302 -0.001587 -0.030419 0.058023 0.011129
# 6 0.001710 0.019110 -0.005585 -0.055363 0.011129 0.068774
#
#
# Mechanical properties :
#
#
# Convention : Reuss Voigt Hill
#
# Bulk Modulus (GPa) = 17.98209 36.06738 27.02473
# Shear Modulus (GPa) = 14.12131 28.55026 21.33578
#
# Velocity S-wave (km/s) = 2.58463 3.67508 3.17699
# Velocity P-wave (km/s) = 4.17299 5.92204 5.12272
#
# Compressibility (1/GPa) = 0.05561090
#
# Stress axis : x y z
#
# Youngs Moduli (GPa) = 31.43255 50.88219 82.56286
#
# Poissons Ratio (x) = -0.14329 0.20117
# Poissons Ratio (y) = -0.08852 0.36028
# Poissons Ratio (z) = 0.07659 0.22203
#
# Static dielectric constant tensor:
#      x y z
#    x 1.945800 -0.042750 0.109870 
#    y -0.042750 1.778140 -0.016830 
#    z 0.109870 -0.016830 1.842960 
# 
# From -- ./inp_files/97420.got.cif
#   From: 2010.05.17/outbox.cif.g08.bks.cpg/sg2_49_cif.got.tgz:97420.got - 2010.06.03 11:33:40.
