data_PCOD9096645
_publ_section_title
;
Structure prediction by ZEFSAII (Michael W. Deem and Ramdas Pophale) SiO2 
 PCOD9096645
Probable space group: P -1
;
_chemical_formula_sum "Si O2"
_cell_formula_units_Z 14
_cell_length_a 14.144250
_cell_length_b 10.726781
_cell_length_c 7.959449
_cell_angle_alpha 73.648386
_cell_angle_beta 89.473589
_cell_angle_gamma 150.293404
_cell_volume 485.671123
_symmetry_space_group_name_H-M "P -1"
_symmetry_group_IT_number 2
_symmetry_cell_setting 'triclinic'
loop_
_space_group_symop_operation_xyz
x,y,z
-x,-y,-z
loop_
_atom_site_type_symbol
_atom_site_label
_atom_site_fract_x
_atom_site_fract_y
_atom_site_fract_z
Si Si1 0.921413 0.352000 0.287793
Si Si2 0.268405 0.974746 0.919831
Si Si3 0.330777 0.684895 0.194295
Si Si4 0.191178 0.132199 0.653539
Si Si5 0.706300 0.883309 0.685366
Si Si6 0.790489 0.672764 0.019341
Si Si7 0.173452 0.401162 0.641049
O O1 0.770114 0.159361 0.197475
O O2 0.094720 0.447911 0.221983
O O3 0.776515 0.117675 0.535359
O O4 0.077375 0.674880 0.160578
O O5 0.246851 0.095058 0.810117
O O6 0.518536 0.254401 0.870451
O O7 0.285476 0.633531 0.414963
O O8 0.500000 0.000000 0.000000
O O9 0.721632 0.814643 0.542926
O O10 0.269495 0.377325 0.593824
O O11 0.919699 0.811168 0.791186
O O12 0.453849 0.568455 0.880034
O O13 0.905045 0.076799 0.728179
O O14 0.764689 0.511770 0.197831
O O15 0.000000 0.000000 0.000000
#
# Coordination Sequence:
#
# PCOD9096645 Si02
#       7
#     2   2   2   2   2   2   2
#     4   8  16  30  52  77 101 142 185 218 270 323
#     4   9  16  30  50  76 110 138 176 229 268 318
#     4   9  17  30  53  80 104 142 187 221 267 328
#     4  10  21  36  57  86 113 145 188 228 279 335
#     4  10  20  38  59  78 112 150 186 233 274 325
#     4  10  23  38  54  83 116 148 185 226 281 336
#     4  10  20  36  57  82 114 148 186 230 279 332
#
# _framework density 28.826090000000001
#
# number of rings (size 3 to 8) (size 9 to 14) (size 15 to 20)
#    0.000    2.571    0.000    2.143    0.000    7.429 
#    0.000    6.429    0.000    7.714    0.000    0.000 
#    0.000    0.000    0.000    0.000    0.000    0.000 
#
# Total GULP energy -78236.456490 kJ/mol
# GULP energy per Si atom -5588.318321 kJ/mol
# Density = 2.876048 g / cm^3
# Si number density = 28.826090 Si / 1000 Ang^3
#
#
#
# Elastic Constant Matrix: (Units=GPa)
#
#
# Indices 1 2 3 4 5 6 
#
# 1 137.3425 45.1138 39.4139 -7.9099 -2.4177 21.5940
# 2 45.1138 95.2836 40.1470 -32.9567 -14.5708 36.1612
# 3 39.4139 40.1470 157.4205 -25.6352 -9.8671 15.8425
# 4 -7.9099 -32.9567 -25.6352 60.6160 16.4145 -18.0038
# 5 -2.4177 -14.5708 -9.8671 16.4145 62.7967 -1.4921
# 6 21.5940 36.1612 15.8425 -18.0038 -1.4921 48.4547
#
#
#
# Elastic Compliance Matrix: (Units=1/GPa)
#
#
# Indices 1 2 3 4 5 6 
#
# 1 0.009071 -0.003832 -0.001475 -0.001852 -0.000321 -0.001398
# 2 -0.003832 0.019088 -0.001874 0.005554 0.002303 -0.009790
# 3 -0.001475 -0.001874 0.007503 0.002023 0.000167 0.000360
# 4 -0.001852 0.005554 0.002023 0.022551 -0.004258 0.004267
# 5 -0.000321 0.002303 0.000167 -0.004258 0.017522 -0.002673
# 6 -0.001398 -0.009790 0.000360 0.004267 -0.002673 0.029952
#
#
# Mechanical properties :
#
#
# Convention : Reuss Voigt Hill
#
# Bulk Modulus (GPa) = 46.95110 71.04401 58.99755
# Shear Modulus (GPa) = 39.32363 52.06493 45.69428
#
# Velocity S-wave (km/s) = 3.69747 4.25452 3.98574
# Velocity P-wave (km/s) = 5.87805 6.98812 6.45698
#
# Compressibility (1/GPa) = 0.02129876
#
# Stress axis : x y z
#
# Youngs Moduli (GPa) = 110.24611 52.39000 133.27233
#
# Poissons Ratio (x) = 0.20078 0.19653
# Poissons Ratio (y) = 0.42250 0.24981
# Poissons Ratio (z) = 0.16258 0.09820
#
# Static dielectric constant tensor:
#      x y z
#    x 2.277410 -0.099340 -0.002740 
#    y -0.099340 2.386110 0.046570 
#    z -0.002740 0.046570 2.383390 
# 
# From -- ./inp_files/423460.got.cif
#   From: 2010.05.17/outbox.cif.g08.bks.cpg/sg2_212_cif.got.tgz:423460.got - 2010.06.03 11:33:40.
