data_PCOD9096306
_publ_section_title
;
Structure prediction by ZEFSAII (Michael W. Deem and Ramdas Pophale) SiO2 
 PCOD9096306
Probable space group: P -1
;
_chemical_formula_sum "Si O2"
_cell_formula_units_Z 16
_cell_length_a 8.044082
_cell_length_b 11.531350
_cell_length_c 15.692434
_cell_angle_alpha 41.319845
_cell_angle_beta 133.853041
_cell_angle_gamma 137.166267
_cell_volume 619.837391
_symmetry_space_group_name_H-M "P -1"
_symmetry_group_IT_number 2
_symmetry_cell_setting 'triclinic'
loop_
_space_group_symop_operation_xyz
x,y,z
-x,-y,-z
loop_
_atom_site_type_symbol
_atom_site_label
_atom_site_fract_x
_atom_site_fract_y
_atom_site_fract_z
Si Si1 0.393699 0.030541 0.229514
Si Si2 0.552872 0.677965 0.050046
Si Si3 0.701333 0.184611 0.418674
Si Si4 0.628539 0.639379 0.725699
Si Si5 0.103500 0.062806 0.650076
Si Si6 0.853912 0.009811 0.109721
Si Si7 0.078711 0.685370 0.172952
Si Si8 0.700690 0.616460 0.578356
O O1 0.617911 0.100344 0.340896
O O2 0.150747 0.041238 0.186456
O O3 0.255240 0.831376 0.231956
O O4 0.519395 0.201310 0.110096
O O5 0.324072 0.488265 0.114301
O O6 0.785792 0.649523 0.103881
O O7 0.686161 0.822770 0.095976
O O8 0.617848 0.346744 0.329622
O O9 0.972202 0.209459 0.535991
O O10 0.500000 0.000000 0.500000
O O11 0.565158 0.558906 0.653147
O O12 0.875323 0.844444 0.683012
O O13 0.227245 0.160082 0.550022
O O14 0.234815 0.042582 0.794925
O O15 0.842410 0.193056 0.955438
O O16 0.100834 0.481977 0.293827
O O17 0.500000 0.500000 0.500000
#
# Coordination Sequence:
#
# PCOD9096306 Si02
#       8
#     2   2   2   2   2   2   2   2
#     4   9  17  37  65  99 120 161 201 261 305 353
#     4   9  19  37  69  95 121 155 213 257 299 358
#     4  10  20  35  65  91 127 155 207 247 314 362
#     4  11  23  40  59  95 128 162 199 251 311 370
#     4  11  23  42  65  90 124 166 201 258 310 361
#     4   9  17  39  65  94 123 156 207 260 302 350
#     4   9  21  40  68  92 125 158 211 255 302 361
#     4  12  27  43  62  89 126 167 210 250 307 373
#
# _framework density 25.813220999999999
#
# number of rings (size 3 to 8) (size 9 to 14) (size 15 to 20)
#    0.000    2.000    2.500    3.375    3.500    0.500 
#    2.250    9.375    0.000    0.000    0.000    0.000 
#    0.000    0.000    0.000    0.000    0.000    0.000 
#
# Total GULP energy -89280.083007 kJ/mol
# GULP energy per Si atom -5580.005188 kJ/mol
# Density = 2.575447 g / cm^3
# Si number density = 25.813221 Si / 1000 Ang^3
#
#
#
# Elastic Constant Matrix: (Units=GPa)
#
#
# Indices 1 2 3 4 5 6 
#
# 1 78.7080 28.9523 48.8204 3.3654 -19.1936 -14.9828
# 2 28.9523 65.0755 50.2953 0.0466 -11.8359 -0.7909
# 3 48.8204 50.2953 156.8618 -5.5645 -56.6331 -3.0707
# 4 3.3654 0.0466 -5.5645 45.8657 12.2307 -13.5632
# 5 -19.1936 -11.8359 -56.6331 12.2307 37.2430 1.5723
# 6 -14.9828 -0.7909 -3.0707 -13.5632 1.5723 33.3172
#
#
#
# Elastic Compliance Matrix: (Units=1/GPa)
#
#
# Indices 1 2 3 4 5 6 
#
# 1 0.018755 -0.005616 -0.002487 -0.000437 0.003918 0.007709
# 2 -0.005616 0.023210 -0.009316 0.001418 -0.010075 -0.001780
# 3 -0.002487 -0.009316 0.020137 -0.005909 0.028455 -0.003232
# 4 -0.000437 0.001418 -0.005909 0.029858 -0.019086 0.012348
# 5 0.003918 -0.010075 0.028455 -0.019086 0.075509 -0.007188
# 6 0.007709 -0.001780 -0.003232 0.012348 -0.007188 0.038507
#
#
# Mechanical properties :
#
#
# Convention : Reuss Voigt Hill
#
# Bulk Modulus (GPa) = 36.67796 61.86458 49.27127
# Shear Modulus (GPa) = 20.00793 34.79034 27.39913
#
# Velocity S-wave (km/s) = 2.78709 3.67518 3.26151
# Velocity P-wave (km/s) = 4.95953 6.48287 5.77168
#
# Compressibility (1/GPa) = 0.02726433
#
# Stress axis : x y z
#
# Youngs Moduli (GPa) = 53.31984 43.08404 49.66070
#
# Poissons Ratio (x) = 0.24194 0.12349
# Poissons Ratio (y) = 0.29942 0.46266
# Poissons Ratio (z) = 0.13259 0.40139
#
# Static dielectric constant tensor:
#      x y z
#    x 2.276160 -0.003080 0.106940 
#    y -0.003080 2.110970 -0.106270 
#    z 0.106940 -0.106270 2.100010 
# 
# From -- ./inp_files/499948.got.cif
#   From: 2010.05.17/outbox.cif.g08.bks.cpg/sg2_250_cif.got.tgz:499948.got - 2010.06.03 11:33:40.
