data_PCOD9096637
_publ_section_title
;
Structure prediction by ZEFSAII (Michael W. Deem and Ramdas Pophale) SiO2 
 PCOD9096637
Probable space group: P -1
;
_chemical_formula_sum "Si O2"
_cell_formula_units_Z 12
_cell_length_a 23.905946
_cell_length_b 14.609244
_cell_length_c 8.641480
_cell_angle_alpha 153.690146
_cell_angle_beta 152.553044
_cell_angle_gamma 19.126394
_cell_volume 420.890721
_symmetry_space_group_name_H-M "P -1"
_symmetry_group_IT_number 2
_symmetry_cell_setting 'triclinic'
loop_
_space_group_symop_operation_xyz
x,y,z
-x,-y,-z
loop_
_atom_site_type_symbol
_atom_site_label
_atom_site_fract_x
_atom_site_fract_y
_atom_site_fract_z
Si Si1 0.205610 0.683744 0.021978
Si Si2 0.962635 0.750433 0.074033
Si Si3 0.209804 0.075758 0.777471
Si Si4 0.594093 0.158264 0.597718
Si Si5 0.827536 0.565776 0.148594
Si Si6 0.455409 0.313571 0.805314
O O1 0.282249 0.510828 0.785947
O O2 0.289275 0.799693 0.447023
O O3 0.224423 0.496751 0.921634
O O4 0.000000 0.000000 0.000000
O O5 0.904451 0.887087 0.308658
O O6 0.072870 0.399745 0.848599
O O7 0.102969 0.670421 0.175663
O O8 0.776445 0.971648 0.860273
O O9 0.375978 0.975393 0.119842
O O10 0.522755 0.463861 0.824833
O O11 0.661055 0.927420 0.274957
O O12 0.466514 0.228091 0.524928
O O13 0.000000 0.500000 0.500000
#
# Coordination Sequence:
#
# PCOD9096637 Si02
#       6
#     2   2   2   2   2   2
#     4  12  23  36  60  89 117 156 200 239 288 352
#     4   9  18  37  62  84 116 156 189 233 294 349
#     4  10  21  38  61  88 117 150 193 244 292 343
#     4   9  18  37  62  84 116 156 189 233 294 349
#     4  10  20  36  57  81 114 154 195 235 279 338
#     4  10  21  38  61  88 117 150 193 244 292 343
#
# _framework density 28.510964000000001
#
# number of rings (size 3 to 8) (size 9 to 14) (size 15 to 20)
#    0.000    2.000    0.000    5.500    0.000    1.333 
#    0.000    3.333    0.000    0.000    0.000    0.000 
#    0.000    0.000    0.000    0.000    0.000    0.000 
#
# Total GULP energy -67138.281169 kJ/mol
# GULP energy per Si atom -5594.856764 kJ/mol
# Density = 2.844607 g / cm^3
# Si number density = 28.510964 Si / 1000 Ang^3
#
#
#
# Elastic Constant Matrix: (Units=GPa)
#
#
# Indices 1 2 3 4 5 6 
#
# 1 200.7116 45.5534 -0.7222 18.1742 1.1378 -38.6749
# 2 45.5534 165.6801 40.3226 2.9256 -7.7991 -13.9922
# 3 -0.7222 40.3226 56.3048 -4.9581 -7.9554 -11.7393
# 4 18.1742 2.9256 -4.9581 57.4397 1.3615 -7.2082
# 5 1.1378 -7.7991 -7.9554 1.3615 41.9053 26.3905
# 6 -38.6749 -13.9922 -11.7393 -7.2082 26.3905 68.6683
#
#
#
# Elastic Compliance Matrix: (Units=1/GPa)
#
#
# Indices 1 2 3 4 5 6 
#
# 1 0.006444 -0.001976 0.001930 -0.001121 -0.003042 0.004608
# 2 -0.001976 0.007973 -0.005820 -0.000423 0.001027 -0.000922
# 3 0.001930 -0.005820 0.023037 0.002126 0.000805 0.003753
# 4 -0.001121 -0.000423 0.002126 0.018282 -0.001615 0.002185
# 5 -0.003042 0.001027 0.000805 -0.001615 0.033391 -0.014369
# 6 0.004608 -0.000922 0.003753 0.002185 -0.014369 0.023363
#
#
# Mechanical properties :
#
#
# Convention : Reuss Voigt Hill
#
# Bulk Modulus (GPa) = 38.87609 65.88935 52.38272
# Shear Modulus (GPa) = 37.65145 56.10550 46.87847
#
# Velocity S-wave (km/s) = 3.63794 4.44087 4.05930
# Velocity P-wave (km/s) = 5.59565 7.03245 6.35479
#
# Compressibility (1/GPa) = 0.02572275
#
# Stress axis : x y z
#
# Youngs Moduli (GPa) = 155.17368 125.41824 43.40921
#
# Poissons Ratio (x) = 0.24780 -0.08377
# Poissons Ratio (y) = 0.30659 0.25264
# Poissons Ratio (z) = -0.29946 0.72992
#
# Static dielectric constant tensor:
#      x y z
#    x 2.236630 -0.001420 0.001850 
#    y -0.001420 2.129050 -0.001360 
#    z 0.001850 -0.001360 2.541220 
# 
# From -- ./inp_files/145631.got.cif
#   From: 2010.05.17/outbox.cif.g08.bks.cpg/sg2_73_cif.got.tgz:145631.got - 2010.06.03 11:33:40.
