data_PCOD9096566
_publ_section_title
;
Structure prediction by ZEFSAII (Michael W. Deem and Ramdas Pophale) SiO2 
 PCOD9096566
Probable space group: P -1
;
_chemical_formula_sum "Si O2"
_cell_formula_units_Z 16
_cell_length_a 8.227243
_cell_length_b 7.352421
_cell_length_c 15.343102
_cell_angle_alpha 87.515910
_cell_angle_beta 70.009250
_cell_angle_gamma 124.370033
_cell_volume 685.680197
_symmetry_space_group_name_H-M "P -1"
_symmetry_group_IT_number 2
_symmetry_cell_setting 'triclinic'
loop_
_space_group_symop_operation_xyz
x,y,z
-x,-y,-z
loop_
_atom_site_type_symbol
_atom_site_label
_atom_site_fract_x
_atom_site_fract_y
_atom_site_fract_z
Si Si1 0.249887 0.353209 0.476554
Si Si2 0.489093 0.586495 0.904234
Si Si3 0.067638 0.162862 0.884257
Si Si4 0.354174 0.874085 0.661935
Si Si5 0.298595 0.423739 0.669571
Si Si6 0.802873 0.322508 0.975163
Si Si7 0.213917 0.887527 0.494277
Si Si8 0.937849 0.745226 0.835954
O O1 0.243481 0.403929 0.577902
O O2 0.473631 0.539627 0.380175
O O3 0.039754 0.304751 0.472875
O O4 0.242323 0.126561 0.483664
O O5 0.294466 0.369935 0.886421
O O6 0.736628 0.712786 0.822333
O O7 0.500000 0.500000 0.000000
O O8 0.414150 0.746050 0.934373
O O9 0.123636 0.223125 0.769896
O O10 0.858361 0.153537 0.943815
O O11 0.992008 0.904356 0.907939
O O12 0.333319 0.648883 0.695199
O O13 0.280538 0.854331 0.576009
O O14 0.174465 0.867805 0.747657
O O15 0.614577 0.081186 0.607988
O O16 0.844694 0.485659 0.883340
O O17 0.000000 0.500000 0.000000
#
# Coordination Sequence:
#
# PCOD9096566 Si02
#       8
#     2   2   2   2   2   2   2   2
#     4   9  19  36  57  82 117 161 201 249 300 356
#     4   9  22  41  63  91 121 154 204 252 306 368
#     4  11  22  40  65  89 123 165 197 253 308 363
#     4  10  20  36  56  84 125 154 202 254 297 353
#     4  10  20  36  56  85 121 157 204 248 302 355
#     4   9  20  41  63  88 121 152 200 252 303 362
#     4   9  19  36  57  82 116 163 200 249 299 358
#     4  11  22  40  63  92 123 160 200 254 300 371
#
# _framework density 23.334493999999999
#
# number of rings (size 3 to 8) (size 9 to 14) (size 15 to 20)
#    0.000    2.250    1.250    0.750    1.750    6.500 
#    4.500    3.750    0.000    0.000    0.000    0.000 
#    0.000    0.000    0.000    0.000    0.000    0.000 
#
# Total GULP energy -89265.112917 kJ/mol
# GULP energy per Si atom -5579.069557 kJ/mol
# Density = 2.328138 g / cm^3
# Si number density = 23.334494 Si / 1000 Ang^3
#
#
#
# Elastic Constant Matrix: (Units=GPa)
#
#
# Indices 1 2 3 4 5 6 
#
# 1 110.2388 25.9533 28.8983 1.4993 -34.0765 6.7671
# 2 25.9533 55.9282 6.7323 11.0391 -14.4788 2.1576
# 3 28.8983 6.7323 72.4439 6.7624 -31.5038 -7.2565
# 4 1.4993 11.0391 6.7624 24.4534 -9.4673 -5.9516
# 5 -34.0765 -14.4788 -31.5038 -9.4673 29.6510 -4.0238
# 6 6.7671 2.1576 -7.2565 -5.9516 -4.0238 44.3330
#
#
#
# Elastic Compliance Matrix: (Units=1/GPa)
#
#
# Indices 1 2 3 4 5 6 
#
# 1 0.016076 -0.003668 0.003476 0.009234 0.023552 0.001671
# 2 -0.003668 0.022859 0.003626 -0.007988 0.008210 -0.000286
# 3 0.003476 0.003626 0.030543 0.008248 0.042101 0.009221
# 4 0.009234 -0.007988 0.008248 0.058206 0.035603 0.011375
# 5 0.023552 0.008210 0.042101 0.035603 0.123464 0.018882
# 6 0.001671 -0.000286 0.009221 0.011375 0.018882 0.027066
#
#
# Mechanical properties :
#
#
# Convention : Reuss Voigt Hill
#
# Bulk Modulus (GPa) = 13.09854 40.19765 26.64809
# Shear Modulus (GPa) = 16.84673 31.48926 24.16800
#
# Velocity S-wave (km/s) = 2.68986 3.67750 3.22175
# Velocity P-wave (km/s) = 3.90803 5.94106 5.02836
#
# Compressibility (1/GPa) = 0.07634440
#
# Stress axis : x y z
#
# Youngs Moduli (GPa) = 62.20523 43.74653 32.74117
#
# Poissons Ratio (x) = 0.16047 -0.11380
# Poissons Ratio (y) = 0.22818 -0.11872
# Poissons Ratio (z) = -0.21620 -0.15863
#
# Static dielectric constant tensor:
#      x y z
#    x 1.878590 -0.010360 -0.009080 
#    y -0.010360 1.954210 -0.026130 
#    z -0.009080 -0.026130 1.981220 
# 
# From -- ./inp_files/556278.got.cif
#   From: 2010.05.17/outbox.cif.g08.bks.cpg/sg2_279_cif.got.tgz:556278.got - 2010.06.03 11:33:40.
