data_PCOD9096260
_publ_section_title
;
Structure prediction by ZEFSAII (Michael W. Deem and Ramdas Pophale) SiO2 
 PCOD9096260
Probable space group: P -1
;
_chemical_formula_sum "Si O2"
_cell_formula_units_Z 14
_cell_length_a 13.188077
_cell_length_b 17.455054
_cell_length_c 11.320542
_cell_angle_alpha 135.522594
_cell_angle_beta 42.470971
_cell_angle_gamma 160.327439
_cell_volume 590.293683
_symmetry_space_group_name_H-M "P -1"
_symmetry_group_IT_number 2
_symmetry_cell_setting 'triclinic'
loop_
_space_group_symop_operation_xyz
x,y,z
-x,-y,-z
loop_
_atom_site_type_symbol
_atom_site_label
_atom_site_fract_x
_atom_site_fract_y
_atom_site_fract_z
Si Si1 0.809184 0.995567 0.929225
Si Si2 0.835567 0.769565 0.630133
Si Si3 0.236399 0.975848 0.746600
Si Si4 0.806813 0.267884 0.878519
Si Si5 0.342926 0.573847 0.578327
Si Si6 0.104671 0.906916 0.285591
Si Si7 0.910314 0.367861 0.537282
O O1 0.029646 0.156012 0.801111
O O2 0.682846 0.790449 0.802601
O O3 0.924260 0.079380 0.057784
O O4 0.539583 0.914482 0.055989
O O5 0.589794 0.512383 0.571043
O O6 0.084286 0.914429 0.684008
O O7 0.973912 0.856277 0.472940
O O8 0.612539 0.234645 0.710732
O O9 0.197380 0.820721 0.616310
O O10 0.004007 0.353813 0.691518
O O11 0.823297 0.176262 0.853034
O O12 0.000000 0.500000 0.000000
O O13 0.590270 0.818116 0.682785
O O14 0.239855 0.557217 0.525911
O O15 0.000000 0.500000 0.500000
#
# Coordination Sequence:
#
# PCOD9096260 Si02
#       7
#     2   2   2   2   2   2   2
#     4  12  23  41  66  94 127 165 206 264 312 363
#     4  10  24  44  61  90 132 170 206 251 312 380
#     4  10  22  40  61  92 125 164 209 253 307 370
#     4  11  23  41  62  95 125 159 207 267 310 364
#     4  10  21  40  63  89 127 164 208 256 311 368
#     4  11  24  42  67  92 127 164 211 257 312 371
#     4  10  20  35  64  90 122 165 206 255 310 365
#
# _framework density 23.717009000000001
#
# number of rings (size 3 to 8) (size 9 to 14) (size 15 to 20)
#    0.000    1.429    2.857    2.143    4.000    0.571 
#    2.571    0.000    0.000    5.143    0.000    0.000 
#    0.000    0.000    0.000    0.000    0.000    0.000 
#
# Total GULP energy -78053.060239 kJ/mol
# GULP energy per Si atom -5575.218589 kJ/mol
# Density = 2.366303 g / cm^3
# Si number density = 23.717009 Si / 1000 Ang^3
#
#
#
# Elastic Constant Matrix: (Units=GPa)
#
#
# Indices 1 2 3 4 5 6 
#
# 1 149.0116 46.6354 49.5247 6.2344 11.9039 -34.7342
# 2 46.6354 59.5048 19.2359 -11.1621 6.9100 -7.5446
# 3 49.5247 19.2359 108.3995 -6.5703 15.5740 -12.5156
# 4 6.2344 -11.1621 -6.5703 32.2428 -15.0389 5.5363
# 5 11.9039 6.9100 15.5740 -15.0389 47.8576 4.8063
# 6 -34.7342 -7.5446 -12.5156 5.5363 4.8063 30.1915
#
#
#
# Elastic Compliance Matrix: (Units=1/GPa)
#
#
# Indices 1 2 3 4 5 6 
#
# 1 0.017656 -0.012176 -0.003309 -0.015738 -0.008525 0.020141
# 2 -0.012176 0.027478 -0.000393 0.016220 0.005405 -0.011139
# 3 -0.003309 -0.000393 0.011352 0.001531 -0.002424 0.000906
# 4 -0.015738 0.016220 0.001531 0.054272 0.020809 -0.026683
# 5 -0.008525 0.005405 -0.002424 0.020809 0.031399 -0.018276
# 6 0.020141 -0.011139 0.000906 -0.026683 -0.018276 0.061687
#
#
# Mechanical properties :
#
#
# Convention : Reuss Voigt Hill
#
# Bulk Modulus (GPa) = 40.43719 60.85644 50.64682
# Shear Modulus (GPa) = 20.50495 35.49303 27.99899
#
# Velocity S-wave (km/s) = 2.94354 3.87269 3.43963
# Velocity P-wave (km/s) = 5.35159 6.76107 6.09719
#
# Compressibility (1/GPa) = 0.02472971
#
# Stress axis : x y z
#
# Youngs Moduli (GPa) = 56.63909 36.39327 88.08649
#
# Poissons Ratio (x) = 0.44312 0.29152
# Poissons Ratio (y) = 0.68963 0.03459
# Poissons Ratio (z) = 0.18744 0.01429
#
# Static dielectric constant tensor:
#      x y z
#    x 2.005640 0.071680 -0.009590 
#    y 0.071680 1.943410 -0.102250 
#    z -0.009590 -0.102250 2.072070 
# 
# From -- ./inp_files/278465.got.cif
#   From: 2010.05.17/outbox.cif.g08.bks.cpg/sg2_140_cif.got.tgz:278465.got - 2010.06.03 11:33:40.
