data_PCOD9096209
_publ_section_title
;
Structure prediction by ZEFSAII (Michael W. Deem and Ramdas Pophale) SiO2 
 PCOD9096209
Probable space group: P -1
;
_chemical_formula_sum "Si O2"
_cell_formula_units_Z 16
_cell_length_a 5.085126
_cell_length_b 24.946609
_cell_length_c 9.332350
_cell_angle_alpha 134.873188
_cell_angle_beta 117.959307
_cell_angle_gamma 45.118410
_cell_volume 593.475463
_symmetry_space_group_name_H-M "P -1"
_symmetry_group_IT_number 2
_symmetry_cell_setting 'triclinic'
loop_
_space_group_symop_operation_xyz
x,y,z
-x,-y,-z
loop_
_atom_site_type_symbol
_atom_site_label
_atom_site_fract_x
_atom_site_fract_y
_atom_site_fract_z
Si Si1 0.305313 0.750529 0.918301
Si Si2 0.920120 0.913329 0.960220
Si Si3 0.725865 0.433188 0.796559
Si Si4 0.285675 0.806848 0.556626
Si Si5 0.875768 0.718464 0.184739
Si Si6 0.363163 0.586194 0.789123
Si Si7 0.251974 0.359258 0.450072
Si Si8 0.106395 0.017895 0.407551
O O1 0.371643 0.659441 0.833338
O O2 0.544347 0.714717 0.767635
O O3 0.923324 0.839076 0.925996
O O4 0.468999 0.782451 0.137031
O O5 0.086683 0.871100 0.767574
O O6 0.500000 0.000000 0.000000
O O7 0.135896 0.946355 0.162535
O O8 0.725986 0.493690 0.781676
O O9 0.482288 0.399577 0.616645
O O10 0.097071 0.345678 0.799765
O O11 0.500000 0.500000 0.000000
O O12 0.678833 0.710437 0.532768
O O13 0.050790 0.769301 0.376138
O O14 0.215917 0.878305 0.547964
O O15 0.123255 0.647256 0.982718
O O16 0.137021 0.564525 0.584882
O O17 0.500000 0.000000 0.500000
O O18 0.000000 0.000000 0.500000
#
# Coordination Sequence:
#
# PCOD9096209 Si02
#       8
#     2   2   2   2   2   2   2   2
#     4  10  22  38  62  90 126 171 214 274 337 402
#     4  11  25  45  69  98 137 176 235 294 351 421
#     4   9  18  36  60  90 123 168 210 266 325 395
#     4  10  22  44  67  91 130 178 219 276 351 410
#     4   9  20  41  62  88 132 167 215 265 332 411
#     4  10  20  35  63  92 124 166 215 264 331 394
#     4   9  20  39  60  88 127 167 212 268 326 403
#     4  12  27  46  72 103 137 184 236 297 357 423
#
# _framework density 26.959835000000002
#
# number of rings (size 3 to 8) (size 9 to 14) (size 15 to 20)
#    0.000    2.000    0.000    2.250    3.500    1.000 
#    2.250    7.500    0.000    0.000    0.000    0.000 
#    0.000    0.000    0.000    0.000    0.000    0.000 
#
# Total GULP energy -89554.513929 kJ/mol
# GULP energy per Si atom -5597.157121 kJ/mol
# Density = 2.689847 g / cm^3
# Si number density = 26.959835 Si / 1000 Ang^3
#
#
#
# Elastic Constant Matrix: (Units=GPa)
#
#
# Indices 1 2 3 4 5 6 
#
# 1 70.0636 41.6362 25.7030 -21.9443 -3.8448 15.6217
# 2 41.6362 275.9597 24.3243 -30.3691 -3.5835 31.2039
# 3 25.7030 24.3243 184.3464 -32.5512 3.6794 10.2554
# 4 -21.9443 -30.3691 -32.5512 39.5749 9.0240 -5.1107
# 5 -3.8448 -3.5835 3.6794 9.0240 51.9667 -9.3119
# 6 15.6217 31.2039 10.2554 -5.1107 -9.3119 49.1992
#
#
#
# Elastic Compliance Matrix: (Units=1/GPa)
#
#
# Indices 1 2 3 4 5 6 
#
# 1 0.018919 -0.001386 -0.000698 0.008504 -0.000888 -0.004267
# 2 -0.001386 0.004343 0.000218 0.002609 -0.000668 -0.002215
# 3 -0.000698 0.000218 0.006535 0.005391 -0.001619 -0.001025
# 4 0.008504 0.002609 0.005391 0.037561 -0.006602 -0.002827
# 5 -0.000888 -0.000668 -0.001619 -0.006602 0.021175 0.004365
# 6 -0.004267 -0.002215 -0.001025 -0.002827 0.004365 0.023831
#
#
# Mechanical properties :
#
#
# Convention : Reuss Voigt Hill
#
# Bulk Modulus (GPa) = 38.36957 79.29965 58.83461
# Shear Modulus (GPa) = 40.06932 57.39523 48.73228
#
# Velocity S-wave (km/s) = 3.85939 4.61902 4.25619
# Velocity P-wave (km/s) = 5.84148 7.61085 6.78409
#
# Compressibility (1/GPa) = 0.02606232
#
# Stress axis : x y z
#
# Youngs Moduli (GPa) = 52.85772 230.27802 153.03284
#
# Poissons Ratio (x) = 0.31918 0.10685
# Poissons Ratio (y) = 0.07326 -0.03329
# Poissons Ratio (z) = 0.03691 -0.05009
#
# Static dielectric constant tensor:
#      x y z
#    x 2.138760 -0.036690 0.004880 
#    y -0.036690 2.204500 0.063020 
#    z 0.004880 0.063020 2.069930 
# 
# From -- ./inp_files/142689.got.cif
#   From: 2010.05.17/outbox.cif.g08.bks.cpg/sg2_72_cif.got.tgz:142689.got - 2010.06.03 11:33:40.
