data_PCOD9096655
_publ_section_title
;
Structure prediction by ZEFSAII (Michael W. Deem and Ramdas Pophale) SiO2 
 PCOD9096655
Probable space group: P -1
;
_chemical_formula_sum "Si O2"
_cell_formula_units_Z 16
_cell_length_a 8.539953
_cell_length_b 23.515984
_cell_length_c 14.437939
_cell_angle_alpha 21.986840
_cell_angle_beta 132.626227
_cell_angle_gamma 133.191297
_cell_volume 781.771532
_symmetry_space_group_name_H-M "P -1"
_symmetry_group_IT_number 2
_symmetry_cell_setting 'triclinic'
loop_
_space_group_symop_operation_xyz
x,y,z
-x,-y,-z
loop_
_atom_site_type_symbol
_atom_site_label
_atom_site_fract_x
_atom_site_fract_y
_atom_site_fract_z
Si Si1 0.800252 0.066819 0.280678
Si Si2 0.010520 0.512137 0.135855
Si Si3 0.999684 0.249494 0.375090
Si Si4 0.707610 0.383958 0.741432
Si Si5 0.392295 0.099255 0.734685
Si Si6 0.241021 0.286051 0.771138
Si Si7 0.219776 0.754373 0.445437
Si Si8 0.354472 0.984034 0.324965
O O1 0.707415 0.987663 0.267105
O O2 0.611589 0.029972 0.339528
O O3 0.000000 0.000000 0.500000
O O4 0.842912 0.248875 0.995286
O O5 0.029383 0.388995 0.249801
O O6 0.222553 0.547266 0.232219
O O7 0.817318 0.415563 0.266399
O O8 0.975077 0.669206 0.837652
O O9 0.192288 0.160389 0.605921
O O10 0.763843 0.137348 0.462828
O O11 0.453413 0.305050 0.760640
O O12 0.751238 0.535142 0.465070
O O13 0.591882 0.227199 0.582372
O O14 0.500000 0.000000 0.000000
O O15 0.010257 0.234374 0.707919
O O16 0.272842 0.145038 0.061789
O O17 0.270652 0.889788 0.338662
#
# Coordination Sequence:
#
# PCOD9096655 Si02
#       8
#     2   2   2   2   2   2   2   2
#     4  10  21  39  59  82 116 157 192 227 280 349
#     4   9  19  36  58  81 107 147 194 238 281 334
#     4  10  20  36  57  83 113 142 189 246 286 327
#     4   9  18  32  55  81 107 145 188 227 274 340
#     4  11  23  36  57  87 118 148 186 240 289 329
#     4   9  16  29  51  77 102 135 181 227 269 323
#     4   9  18  33  54  81 111 148 190 229 281 340
#     4   9  18  33  57  81 106 146 192 232 276 335
#
# _framework density 20.466338
#
# number of rings (size 3 to 8) (size 9 to 14) (size 15 to 20)
#    0.000    2.500    0.000    1.875    0.000    9.500 
#    0.000   13.125    0.000    7.500    0.000    0.000 
#    0.000    0.000    0.000    0.000    0.000    0.000 
#
# Total GULP energy -89104.751552 kJ/mol
# GULP energy per Si atom -5569.046972 kJ/mol
# Density = 2.041976 g / cm^3
# Si number density = 20.466338 Si / 1000 Ang^3
#
#
#
# Elastic Constant Matrix: (Units=GPa)
#
#
# Indices 1 2 3 4 5 6 
#
# 1 64.0077 14.3896 43.1994 3.5802 -11.2090 16.3163
# 2 14.3896 54.6504 23.9418 5.9522 -2.1361 14.2913
# 3 43.1994 23.9418 140.2381 -0.0105 4.7468 18.2984
# 4 3.5802 5.9522 -0.0105 27.4048 5.8845 2.2382
# 5 -11.2090 -2.1361 4.7468 5.8845 26.6284 1.5630
# 6 16.3163 14.2913 18.2984 2.2382 1.5630 16.6073
#
#
#
# Elastic Compliance Matrix: (Units=1/GPa)
#
#
# Indices 1 2 3 4 5 6 
#
# 1 0.028925 0.002994 -0.006815 -0.005969 0.016372 -0.024221
# 2 0.002994 0.025117 -0.002611 -0.005421 0.006202 -0.021532
# 3 -0.006815 -0.002611 0.010131 0.002787 -0.005377 -0.002089
# 4 -0.005969 -0.005421 0.002787 0.040912 -0.012669 0.003137
# 5 0.016372 0.006202 -0.005377 -0.012669 0.049786 -0.018475
# 6 -0.024221 -0.021532 -0.002089 0.003137 -0.018475 0.106158
#
#
# Mechanical properties :
#
#
# Convention : Reuss Voigt Hill
#
# Bulk Modulus (GPa) = 19.49030 46.88418 33.18724
# Shear Modulus (GPa) = 17.18228 25.95247 21.56737
#
# Velocity S-wave (km/s) = 2.90062 3.56484 3.24975
# Velocity P-wave (km/s) = 4.55653 6.31679 5.50744
#
# Compressibility (1/GPa) = 0.05130758
#
# Stress axis : x y z
#
# Youngs Moduli (GPa) = 34.57214 39.81318 98.70964
#
# Poissons Ratio (x) = -0.11919 0.67275
# Poissons Ratio (y) = -0.10350 0.25774
# Poissons Ratio (z) = 0.23562 0.10396
#
# Static dielectric constant tensor:
#      x y z
#    x 1.733660 -0.019850 -0.019060 
#    y -0.019850 1.752910 -0.016110 
#    z -0.019060 -0.016110 1.790170 
# 
# From -- ./inp_files/426565.got.cif
#   From: 2010.05.17/outbox.cif.g08.bks.cpg/sg2_214_cif.got.tgz:426565.got - 2010.06.03 11:33:40.
