data_PCOD9096691
_publ_section_title
;
Structure prediction by ZEFSAII (Michael W. Deem and Ramdas Pophale) SiO2 
 PCOD9096691
Probable space group: P -1
;
_chemical_formula_sum "Si O2"
_cell_formula_units_Z 14
_cell_length_a 6.847733
_cell_length_b 11.589500
_cell_length_c 7.260372
_cell_angle_alpha 101.471358
_cell_angle_beta 86.211696
_cell_angle_gamma 113.893651
_cell_volume 516.224534
_symmetry_space_group_name_H-M "P -1"
_symmetry_group_IT_number 2
_symmetry_cell_setting 'triclinic'
loop_
_space_group_symop_operation_xyz
x,y,z
-x,-y,-z
loop_
_atom_site_type_symbol
_atom_site_label
_atom_site_fract_x
_atom_site_fract_y
_atom_site_fract_z
Si Si1 0.383279 0.659972 0.659588
Si Si2 0.742462 0.360499 0.954438
Si Si3 0.103179 0.294827 0.728425
Si Si4 0.724491 0.876474 0.105419
Si Si5 0.152600 0.929824 0.524134
Si Si6 0.595161 0.950946 0.802317
Si Si7 0.408272 0.508863 0.276574
O O1 0.456991 0.811658 0.675864
O O2 0.310937 0.571909 0.457246
O O3 0.577814 0.624826 0.717705
O O4 0.218449 0.624175 0.825856
O O5 0.519673 0.233760 0.906968
O O6 0.693092 0.474561 0.901959
O O7 0.935384 0.343775 0.838692
O O8 0.135468 0.194094 0.837878
O O9 0.340843 0.395499 0.706881
O O10 0.995301 0.219907 0.523577
O O11 0.743502 0.996422 0.273379
O O12 0.771081 0.920861 0.904812
O O13 0.308467 0.956969 0.346559
O O14 0.000000 0.000000 0.500000
O O15 0.500000 0.000000 0.000000
#
# Coordination Sequence:
#
# PCOD9096691 Si02
#       7
#     2   2   2   2   2   2   2
#     4  10  21  40  63  87 119 159 198 239 295 353
#     4  10  20  38  61  87 116 152 200 245 292 349
#     4  10  21  38  61  89 118 154 200 243 292 352
#     4   9  21  38  58  85 124 159 190 244 299 342
#     4  10  20  36  57  85 118 154 195 238 290 351
#     4  11  22  37  61  90 117 153 199 240 292 355
#     4  10  22  42  62  84 122 160 193 244 295 343
#
# _framework density 27.119982
#
# number of rings (size 3 to 8) (size 9 to 14) (size 15 to 20)
#    0.000    2.000    0.000    4.714    0.000    6.286 
#    0.000   11.429    0.000    0.000    0.000    0.000 
#    0.000    0.000    0.000    0.000    0.000    0.000 
#
# Total GULP energy -78375.653111 kJ/mol
# GULP energy per Si atom -5598.260937 kJ/mol
# Density = 2.705826 g / cm^3
# Si number density = 27.119982 Si / 1000 Ang^3
#
#
#
# Elastic Constant Matrix: (Units=GPa)
#
#
# Indices 1 2 3 4 5 6 
#
# 1 83.2701 17.8492 28.3618 5.1648 -11.5403 12.1189
# 2 17.8492 102.4609 23.1351 15.4225 -4.1878 0.1785
# 3 28.3618 23.1351 142.1092 17.5032 -0.0853 16.2557
# 4 5.1648 15.4225 17.5032 43.8738 -9.8569 1.6250
# 5 -11.5403 -4.1878 -0.0853 -9.8569 52.5375 9.9373
# 6 12.1189 0.1785 16.2557 1.6250 9.9373 37.2323
#
#
#
# Elastic Compliance Matrix: (Units=1/GPa)
#
#
# Indices 1 2 3 4 5 6 
#
# 1 0.014372 -0.001997 -0.002099 0.000949 0.004097 -0.004887
# 2 -0.001997 0.010832 -0.001116 -0.003278 -0.000447 0.001347
# 3 -0.002099 -0.001116 0.008272 -0.002683 -0.000536 -0.002663
# 4 0.000949 -0.003278 -0.002683 0.026122 0.005153 -0.001637
# 5 0.004097 -0.000447 -0.000536 0.005153 0.022237 -0.007257
# 6 -0.004887 0.001347 -0.002663 -0.001637 -0.007257 0.031614
#
#
# Mechanical properties :
#
#
# Convention : Reuss Voigt Hill
#
# Bulk Modulus (GPa) = 43.37546 51.83693 47.60619
# Shear Modulus (GPa) = 38.00673 43.96166 40.98420
#
# Velocity S-wave (km/s) = 3.74763 4.03054 3.89166
# Velocity P-wave (km/s) = 5.89533 6.38872 6.14698
#
# Compressibility (1/GPa) = 0.02305451
#
# Stress axis : x y z
#
# Youngs Moduli (GPa) = 69.57946 92.31612 120.88943
#
# Poissons Ratio (x) = 0.18432 0.25370
# Poissons Ratio (y) = 0.13893 0.13487
# Poissons Ratio (z) = 0.14602 0.10299
#
# Static dielectric constant tensor:
#      x y z
#    x 2.224790 0.006570 0.012170 
#    y 0.006570 2.203180 0.033770 
#    z 0.012170 0.033770 2.117490 
# 
# From -- ./inp_files/134434.got.cif
#   From: 2010.05.17/outbox.cif.g08.bks.cpg/sg2_68_cif.got.tgz:134434.got - 2010.06.03 11:33:40.
