data_PCOD9096960
_publ_section_title
;
Structure prediction by ZEFSAII (Michael W. Deem and Ramdas Pophale) SiO2 
 PCOD9096960
Probable space group: P -1
;
_chemical_formula_sum "Si O2"
_cell_formula_units_Z 15
_cell_length_a 14.103286
_cell_length_b 12.085119
_cell_length_c 11.922840
_cell_angle_alpha 33.190209
_cell_angle_beta 125.700781
_cell_angle_gamma 140.420342
_cell_volume 697.697845
_symmetry_space_group_name_H-M "P -1"
_symmetry_group_IT_number 2
_symmetry_cell_setting 'triclinic'
loop_
_space_group_symop_operation_xyz
x,y,z
-x,-y,-z
loop_
_atom_site_type_symbol
_atom_site_label
_atom_site_fract_x
_atom_site_fract_y
_atom_site_fract_z
Si Si1 0.645624 0.663248 0.382971
Si Si2 0.561532 0.557201 0.159858
Si Si3 0.033413 0.033374 0.209278
Si Si4 0.076501 0.733956 0.942679
Si Si5 0.000000 0.000000 0.000000
Si Si6 0.152787 0.499118 0.379466
Si Si7 0.774729 0.416394 0.386782
Si Si8 0.702961 0.895458 0.759603
O O1 0.500000 0.500000 0.500000
O O2 0.591441 0.645326 0.233355
O O3 0.720944 0.523432 0.551878
O O4 0.781060 0.969053 0.248575
O O5 0.637318 0.425110 0.288796
O O6 0.384658 0.323904 0.210348
O O7 0.616498 0.776096 0.918009
O O8 0.140234 0.061147 0.157978
O O9 0.048904 0.246547 0.112402
O O10 0.901164 0.925745 0.118468
O O11 0.998012 0.805998 0.455992
O O12 0.135057 0.659819 0.146622
O O13 0.000000 0.500000 0.000000
O O14 0.083264 0.323284 0.795216
O O15 0.184997 0.596561 0.446417
O O16 0.730395 0.154046 0.525284
#
# Coordination Sequence:
#
# PCOD9096960 Si02
#       8
#     2   2   2   2   1   2   2   2
#     4  10  23  45  66  88 126 170 219 268 317 381
#     4  10  22  41  58  93 133 165 214 265 316 392
#     4  10  23  37  60  97 127 164 208 264 317 383
#     4  11  25  44  65  93 127 165 220 273 311 381
#     4  10  20  36  58  90 132 154 206 256 308 384
#     4   9  22  39  63  92 124 167 206 261 326 372
#     4  10  20  37  60  92 128 164 205 253 318 388
#     4  11  22  36  64  93 131 173 203 263 328 384
#
# _framework density 21.499279000000001
#
# number of rings (size 3 to 8) (size 9 to 14) (size 15 to 20)
#    0.000    1.867    1.333    2.000    3.733    5.867 
#    0.000    2.667    0.000    0.000    0.000    0.000 
#    0.000    0.000    0.000    0.000    0.000    0.000 
#
# Total GULP energy -83541.841552 kJ/mol
# GULP energy per Si atom -5569.456103 kJ/mol
# Density = 2.145035 g / cm^3
# Si number density = 21.499279 Si / 1000 Ang^3
#
#
#
# Elastic Constant Matrix: (Units=GPa)
#
#
# Indices 1 2 3 4 5 6 
#
# 1 66.0650 12.9666 19.7466 -16.1362 -20.6797 -8.5390
# 2 12.9666 79.2453 10.7893 -22.3535 -7.6395 -2.1062
# 3 19.7466 10.7893 96.4423 -22.5365 -10.6645 5.4246
# 4 -16.1362 -22.3535 -22.5365 35.0934 -1.3286 6.3878
# 5 -20.6797 -7.6395 -10.6645 -1.3286 26.6617 -0.0698
# 6 -8.5390 -2.1062 5.4246 6.3878 -0.0698 24.5457
#
#
#
# Elastic Compliance Matrix: (Units=1/GPa)
#
#
# Indices 1 2 3 4 5 6 
#
# 1 0.024956 0.001370 -0.000673 0.011585 0.020073 0.005990
# 2 0.001370 0.016406 0.001767 0.012815 0.007104 -0.001821
# 3 -0.000673 0.001767 0.013908 0.011074 0.006083 -0.006021
# 4 0.011585 0.012815 0.011074 0.051795 0.019640 -0.010741
# 5 0.020073 0.007104 0.006083 0.019640 0.058527 0.001304
# 6 0.005990 -0.001821 -0.006021 -0.010741 0.001304 0.046797
#
#
# Mechanical properties :
#
#
# Convention : Reuss Voigt Hill
#
# Bulk Modulus (GPa) = 16.61199 36.52863 26.57031
# Shear Modulus (GPa) = 21.97541 30.47685 26.22613
#
# Velocity S-wave (km/s) = 3.20057 3.76915 3.49644
# Velocity P-wave (km/s) = 4.62620 5.99746 5.35590
#
# Compressibility (1/GPa) = 0.06019750
#
# Stress axis : x y z
#
# Youngs Moduli (GPa) = 40.07049 60.95497 71.90075
#
# Poissons Ratio (x) = -0.08354 0.04840
# Poissons Ratio (y) = -0.05492 -0.12702
# Poissons Ratio (z) = 0.02697 -0.10768
#
# Static dielectric constant tensor:
#      x y z
#    x 1.840720 0.058360 0.004230 
#    y 0.058360 1.921520 0.006720 
#    z 0.004230 0.006720 1.804430 
# 
# From -- ./inp_files/69343.got.cif
#   From: 2010.05.17/outbox.cif.g08.bks.cpg/sg2_35_cif.got.tgz:69343.got - 2010.06.03 11:33:40.
