data_PCOD9096241
_publ_section_title
;
Structure prediction by ZEFSAII (Michael W. Deem and Ramdas Pophale) SiO2 
 PCOD9096241
Probable space group: P -1
;
_chemical_formula_sum "Si O2"
_cell_formula_units_Z 16
_cell_length_a 20.051022
_cell_length_b 9.657698
_cell_length_c 5.169839
_cell_angle_alpha 65.877171
_cell_angle_beta 93.226046
_cell_angle_gamma 63.064365
_cell_volume 777.895844
_symmetry_space_group_name_H-M "P -1"
_symmetry_group_IT_number 2
_symmetry_cell_setting 'triclinic'
loop_
_space_group_symop_operation_xyz
x,y,z
-x,-y,-z
loop_
_atom_site_type_symbol
_atom_site_label
_atom_site_fract_x
_atom_site_fract_y
_atom_site_fract_z
Si Si1 0.732104 0.568339 0.133668
Si Si2 0.526654 0.337112 0.436696
Si Si3 0.331365 0.035114 0.223692
Si Si4 0.880267 0.050068 0.338499
Si Si5 0.374372 0.566115 0.994177
Si Si6 0.040244 0.829551 0.322610
Si Si7 0.830189 0.405509 0.785241
Si Si8 0.729904 0.047304 0.209728
O O1 0.686411 0.468104 0.138363
O O2 0.766934 0.513912 0.468896
O O3 0.674330 0.778407 0.936592
O O4 0.799026 0.509044 0.970076
O O5 0.500000 0.500000 0.500000
O O6 0.578496 0.370988 0.219618
O O7 0.583600 0.136554 0.695288
O O8 0.442798 0.383890 0.273272
O O9 0.308559 0.005907 0.528271
O O10 0.270685 0.043051 0.989142
O O11 0.901003 0.143654 0.501995
O O12 0.812240 0.007707 0.372387
O O13 0.845814 0.208399 0.995996
O O14 0.963866 0.870822 0.436406
O O15 0.322610 0.740204 0.024105
O O16 0.087190 0.653613 0.292693
O O17 0.000000 0.000000 0.000000
#
# Coordination Sequence:
#
# PCOD9096241 Si02
#       8
#     2   2   2   2   2   2   2   2
#     4  12  25  40  63  93 126 170 207 254 307 376
#     4  10  21  41  63  89 122 161 204 266 311 366
#     4  11  26  42  60  91 130 165 208 253 317 369
#     4  10  20  35  64 102 121 159 210 263 308 352
#     4  10  22  37  66  91 118 162 212 254 314 366
#     4   9  19  34  60 102 129 151 200 273 304 355
#     4  11  21  38  62  92 128 160 204 256 307 359
#     4  11  22  40  65  90 125 162 210 261 300 373
#
# _framework density 20.568307999999998
#
# number of rings (size 3 to 8) (size 9 to 14) (size 15 to 20)
#    0.000    1.500    3.750    0.750    8.750    0.500 
#    0.000    0.625    0.000    4.500    0.000    0.000 
#    0.000    0.000    0.000    0.000    0.000    0.000 
#
# Total GULP energy -89101.242811 kJ/mol
# GULP energy per Si atom -5568.827676 kJ/mol
# Density = 2.052149 g / cm^3
# Si number density = 20.568308 Si / 1000 Ang^3
#
#
#
# Elastic Constant Matrix: (Units=GPa)
#
#
# Indices 1 2 3 4 5 6 
#
# 1 23.5770 -2.9942 1.2278 2.7368 11.2548 -5.8982
# 2 -2.9942 52.2528 10.8435 1.9624 3.0987 -2.8085
# 3 1.2278 10.8435 95.8020 1.5174 10.5470 2.4835
# 4 2.7368 1.9624 1.5174 26.8817 -5.0463 -6.8487
# 5 11.2548 3.0987 10.5470 -5.0463 16.5066 -5.3083
# 6 -5.8982 -2.8085 2.4835 -6.8487 -5.3083 20.1431
#
#
#
# Elastic Compliance Matrix: (Units=1/GPa)
#
#
# Indices 1 2 3 4 5 6 
#
# 1 0.075217 0.007619 0.005453 -0.020624 -0.062881 -0.001168
# 2 0.007619 0.020616 -0.001493 -0.003301 -0.008501 0.001927
# 3 0.005453 -0.001493 0.012425 -0.005471 -0.014962 -0.005947
# 4 -0.020624 -0.003301 -0.005471 0.053780 0.042203 0.023582
# 5 -0.062881 -0.008501 -0.014962 0.042203 0.138125 0.032996
# 6 -0.001168 0.001927 -0.005947 0.023582 0.032996 0.067018
#
#
# Mechanical properties :
#
#
# Convention : Reuss Voigt Hill
#
# Bulk Modulus (GPa) = 7.60937 21.08733 14.34835
# Shear Modulus (GPa) = 12.89233 23.54328 18.21781
#
# Velocity S-wave (km/s) = 2.50633 3.38692 2.97934
# Velocity P-wave (km/s) = 3.47608 5.05664 4.33894
#
# Compressibility (1/GPa) = 0.13141687
#
# Stress axis : x y z
#
# Youngs Moduli (GPa) = 13.29493 48.50650 80.48102
#
# Poissons Ratio (x) = -0.36958 -0.43888
# Poissons Ratio (y) = -0.10130 0.12015
# Poissons Ratio (z) = -0.07250 0.07241
#
# Static dielectric constant tensor:
#      x y z
#    x 1.793670 -0.081260 0.015280 
#    y -0.081260 1.791130 0.025180 
#    z 0.015280 0.025180 1.789840 
# 
# From -- ./inp_files/53826.got.cif
#   From: 2010.05.17/outbox.cif.g08.bks.cpg/sg2_27_cif.got.tgz:53826.got - 2010.06.03 11:33:40.
