data_PCOD9096977
_publ_section_title
;
Structure prediction by ZEFSAII (Michael W. Deem and Ramdas Pophale) SiO2 
 PCOD9096977
Probable space group: P -1
;
_chemical_formula_sum "Si O2"
_cell_formula_units_Z 16
_cell_length_a 12.932615
_cell_length_b 9.553635
_cell_length_c 9.068050
_cell_angle_alpha 90.854509
_cell_angle_beta 139.771777
_cell_angle_gamma 86.200374
_cell_volume 720.887179
_symmetry_space_group_name_H-M "P -1"
_symmetry_group_IT_number 2
_symmetry_cell_setting 'triclinic'
loop_
_space_group_symop_operation_xyz
x,y,z
-x,-y,-z
loop_
_atom_site_type_symbol
_atom_site_label
_atom_site_fract_x
_atom_site_fract_y
_atom_site_fract_z
Si Si1 0.670455 0.954885 0.755246
Si Si2 0.744308 0.100089 0.259548
Si Si3 0.512559 0.227228 0.251538
Si Si4 0.721254 0.269438 0.759754
Si Si5 0.304621 0.414453 0.795293
Si Si6 0.043678 0.151334 0.113440
Si Si7 0.079099 0.186246 0.504428
Si Si8 0.404993 0.661140 0.072017
O O1 0.622466 0.872009 0.844436
O O2 0.781461 0.849111 0.771377
O O3 0.500000 0.000000 0.500000
O O4 0.735087 0.108217 0.835793
O O5 0.657943 0.143738 0.319562
O O6 0.625760 0.177235 0.011300
O O7 0.918226 0.157322 0.417233
O O8 0.782820 0.933578 0.299773
O O9 0.598709 0.284350 0.491032
O O10 0.420711 0.339797 0.046396
O O11 0.655393 0.358198 0.829113
O O12 0.907654 0.273198 0.917804
O O13 0.144221 0.336867 0.606007
O O14 0.297654 0.574535 0.842432
O O15 0.410417 0.389481 0.761701
O O16 0.054107 0.161326 0.301949
O O17 0.000000 0.000000 0.000000
#
# Coordination Sequence:
#
# PCOD9096977 Si02
#       8
#     2   2   2   2   2   2   2   2
#     4   9  19  32  58  91 122 151 198 252 305 356
#     4  10  22  38  61  91 125 153 205 245 318 360
#     4  10  22  38  58  92 120 163 197 267 297 364
#     4  10  20  36  62  82 124 164 204 247 311 357
#     4  10  25  39  62  88 127 161 211 251 308 361
#     4  10  20  36  58  93 128 157 200 250 312 362
#     4  11  22  37  64  95 119 164 197 260 305 369
#     4  10  22  43  59  89 122 171 204 252 302 371
#
# _framework density 22.194873000000001
#
# number of rings (size 3 to 8) (size 9 to 14) (size 15 to 20)
#    0.000    2.000    1.250    2.250    7.000    4.000 
#    0.000    0.000    0.000    1.500    0.000    0.000 
#    0.000    0.000    0.000    0.000    0.000    0.000 
#
# Total GULP energy -89212.659575 kJ/mol
# GULP energy per Si atom -5575.791223 kJ/mol
# Density = 2.214436 g / cm^3
# Si number density = 22.194873 Si / 1000 Ang^3
#
#
#
# Elastic Constant Matrix: (Units=GPa)
#
#
# Indices 1 2 3 4 5 6 
#
# 1 110.4056 -1.1144 16.1417 1.7765 -0.6460 -15.4949
# 2 -1.1144 32.2009 -0.8208 -6.5243 -2.4546 -0.0748
# 3 16.1417 -0.8208 79.8426 1.2604 -10.5487 -10.7990
# 4 1.7765 -6.5243 1.2604 21.0814 -0.7264 4.3624
# 5 -0.6460 -2.4546 -10.5487 -0.7264 22.5814 5.2002
# 6 -15.4949 -0.0748 -10.7990 4.3624 5.2002 32.0097
#
#
#
# Elastic Compliance Matrix: (Units=1/GPa)
#
#
# Indices 1 2 3 4 5 6 
#
# 1 0.009980 -0.000184 -0.001553 -0.001860 -0.001631 0.004825
# 2 -0.000184 0.033647 0.000554 0.010992 0.004746 -0.002093
# 3 -0.001553 0.000554 0.014059 -0.000997 0.005818 0.003183
# 4 -0.001860 0.010992 -0.000997 0.053108 0.004498 -0.009179
# 5 -0.001631 0.004746 0.005818 0.004498 0.049330 -0.007443
# 6 0.004825 -0.002093 0.003183 -0.009179 -0.007443 0.037105
#
#
# Mechanical properties :
#
#
# Convention : Reuss Voigt Hill
#
# Bulk Modulus (GPa) = 18.07688 27.87355 22.97521
# Shear Modulus (GPa) = 22.93190 29.01733 25.97462
#
# Velocity S-wave (km/s) = 3.21784 3.61971 3.42467
# Velocity P-wave (km/s) = 4.68704 5.48229 5.10019
#
# Compressibility (1/GPa) = 0.05531927
#
# Stress axis : x y z
#
# Youngs Moduli (GPa) = 100.19733 29.72044 71.12723
#
# Poissons Ratio (x) = 0.00547 0.11047
# Poissons Ratio (y) = 0.01845 -0.03938
# Poissons Ratio (z) = 0.15562 -0.01645
#
# Static dielectric constant tensor:
#      x y z
#    x 2.048420 0.056490 0.123800 
#    y 0.056490 1.891750 0.029700 
#    z 0.123800 0.029700 1.931920 
# 
# From -- ./inp_files/222214.got.cif
#   From: 2010.05.17/outbox.cif.g08.bks.cpg/sg2_112_cif.got.tgz:222214.got - 2010.06.03 11:33:40.
