data_PCOD9096271
_publ_section_title
;
Structure prediction by ZEFSAII (Michael W. Deem and Ramdas Pophale) SiO2 
 PCOD9096271
Probable space group: P -1
;
_chemical_formula_sum "Si O2"
_cell_formula_units_Z 14
_cell_length_a 17.756055
_cell_length_b 7.669786
_cell_length_c 9.476410
_cell_angle_alpha 108.315495
_cell_angle_beta 118.651848
_cell_angle_gamma 28.977916
_cell_volume 531.608685
_symmetry_space_group_name_H-M "P -1"
_symmetry_group_IT_number 2
_symmetry_cell_setting 'triclinic'
loop_
_space_group_symop_operation_xyz
x,y,z
-x,-y,-z
loop_
_atom_site_type_symbol
_atom_site_label
_atom_site_fract_x
_atom_site_fract_y
_atom_site_fract_z
Si Si1 0.950089 0.964464 0.316773
Si Si2 0.425958 0.912004 0.515658
Si Si3 0.662268 0.276985 0.002235
Si Si4 0.844892 0.586076 0.074583
Si Si5 0.244136 0.500707 0.271969
Si Si6 0.892455 0.707176 0.606110
Si Si7 0.567205 0.036133 0.167094
O O1 0.051700 0.866843 0.254642
O O2 0.037018 0.609695 0.340603
O O3 0.000000 0.000000 0.500000
O O4 0.759992 0.254717 0.172366
O O5 0.633618 0.552359 0.599986
O O6 0.393883 0.098021 0.674125
O O7 0.345109 0.153183 0.364704
O O8 0.315117 0.942050 0.477219
O O9 0.577130 0.533300 0.856206
O O10 0.788804 0.867069 0.999866
O O11 0.500000 0.500000 0.000000
O O12 0.786973 0.516134 0.917501
O O13 0.038512 0.261184 0.220381
O O14 0.734160 0.798845 0.173618
O O15 0.000000 0.500000 0.500000
O O16 0.500000 0.000000 0.000000
#
# Coordination Sequence:
#
# PCOD9096271 Si02
#       7
#     2   2   2   2   2   2   2
#     4  10  23  40  62  86 120 163 206 248 302 369
#     4  10  21  36  61  93 117 157 208 243 295 363
#     4   9  22  36  59  90 119 155 199 249 301 353
#     4  10  20  39  61  90 125 158 199 249 303 361
#     4  10  22  39  63  88 122 163 204 247 309 357
#     4  10  20  35  64  94 119 154 205 249 297 357
#     4  11  20  35  65  90 117 161 207 243 295 364
#
# _framework density 26.335158
#
# number of rings (size 3 to 8) (size 9 to 14) (size 15 to 20)
#    0.000    2.000    2.857    0.000    4.000    6.286 
#    0.000    1.429    6.286    0.000    0.000    0.000 
#    0.000    0.000    0.000    0.000    0.000    0.000 
#
# Total GULP energy -78143.168958 kJ/mol
# GULP energy per Si atom -5581.654926 kJ/mol
# Density = 2.627522 g / cm^3
# Si number density = 26.335158 Si / 1000 Ang^3
#
#
#
# Elastic Constant Matrix: (Units=GPa)
#
#
# Indices 1 2 3 4 5 6 
#
# 1 136.6172 42.0388 46.1864 -17.5743 21.8209 -25.2317
# 2 42.0388 49.7143 27.8446 -27.9132 12.2902 -19.1505
# 3 46.1864 27.8446 156.1804 -26.0794 28.0807 -26.8314
# 4 -17.5743 -27.9132 -26.0794 36.0478 -19.7780 10.5422
# 5 21.8209 12.2902 28.0807 -19.7780 56.8106 -10.1835
# 6 -25.2317 -19.1505 -26.8314 10.5422 -10.1835 50.0197
#
#
#
# Elastic Compliance Matrix: (Units=1/GPa)
#
#
# Indices 1 2 3 4 5 6 
#
# 1 0.011075 -0.010573 -0.001624 -0.006003 -0.003018 0.001319
# 2 -0.010573 0.050051 0.000215 0.035167 0.006789 0.007915
# 3 -0.001624 0.000215 0.008200 0.003592 -0.001769 0.002544
# 4 -0.006003 0.035167 0.003592 0.062193 0.014988 0.002306
# 5 -0.003018 0.006789 -0.001769 0.014988 0.023707 0.001796
# 6 0.001319 0.007915 0.002544 0.002306 0.001796 0.024932
#
#
# Mechanical properties :
#
#
# Convention : Reuss Voigt Hill
#
# Bulk Modulus (GPa) = 22.04441 63.85018 42.94729
# Shear Modulus (GPa) = 22.80592 43.67177 33.23885
#
# Velocity S-wave (km/s) = 2.94596 4.07665 3.55653
# Velocity P-wave (km/s) = 4.46771 6.81591 5.76268
#
# Compressibility (1/GPa) = 0.04536297
#
# Stress axis : x y z
#
# Youngs Moduli (GPa) = 90.29143 19.97972 121.95498
#
# Poissons Ratio (x) = 0.21124 0.19800
# Poissons Ratio (y) = 0.95461 -0.02618
# Poissons Ratio (z) = 0.14659 -0.00429
#
# Static dielectric constant tensor:
#      x y z
#    x 2.200300 -0.052780 0.011370 
#    y -0.052780 2.227070 -0.055780 
#    z 0.011370 -0.055780 2.040130 
# 
# From -- ./inp_files/303793.got.cif
#   From: 2010.05.17/outbox.cif.g08.bks.cpg/sg2_152_cif.got.tgz:303793.got - 2010.06.03 11:33:40.
