data_PCOD9096173
_publ_section_title
;
Structure prediction by ZEFSAII (Michael W. Deem and Ramdas Pophale) SiO2 
 PCOD9096173
Probable space group: P -1
;
_chemical_formula_sum "Si O2"
_cell_formula_units_Z 16
_cell_length_a 21.092562
_cell_length_b 5.306315
_cell_length_c 29.936457
_cell_angle_alpha 125.731580
_cell_angle_beta 14.929394
_cell_angle_gamma 119.328375
_cell_volume 654.801437
_symmetry_space_group_name_H-M "P -1"
_symmetry_group_IT_number 2
_symmetry_cell_setting 'triclinic'
loop_
_space_group_symop_operation_xyz
x,y,z
-x,-y,-z
loop_
_atom_site_type_symbol
_atom_site_label
_atom_site_fract_x
_atom_site_fract_y
_atom_site_fract_z
Si Si1 0.645612 0.910188 0.254626
Si Si2 0.999580 0.657960 0.772692
Si Si3 0.219975 0.448953 0.782985
Si Si4 0.862401 0.306857 0.544878
Si Si5 0.730455 0.448408 0.552046
Si Si6 0.879933 0.721903 0.262417
Si Si7 0.603696 0.866743 0.136428
Si Si8 0.191277 0.585873 0.209135
O O1 0.677487 0.833870 0.278319
O O2 0.396177 0.826573 0.398957
O O3 0.482432 0.197946 0.282769
O O4 0.910784 0.638029 0.024732
O O5 0.175879 0.420263 0.666903
O O6 0.879702 0.468992 0.799414
O O7 0.124446 0.905021 0.691027
O O8 0.757214 0.904450 0.992025
O O9 0.344241 0.736408 0.729848
O O10 0.261014 0.310050 0.690445
O O11 0.642168 0.240039 0.717404
O O12 0.977475 0.608506 0.670677
O O13 0.000000 0.500000 0.500000
O O14 0.262413 0.497721 0.394456
O O15 0.055167 0.958446 0.358154
O O16 0.174715 0.449230 0.025009
O O17 0.500000 0.500000 0.000000
#
# Coordination Sequence:
#
# PCOD9096173 Si02
#       8
#     2   2   2   2   2   2   2   2
#     4  10  22  34  63  99 147 179 229 286 360 404
#     4  10  23  41  70  99 138 187 232 290 341 425
#     4  10  20  35  63 105 138 182 229 293 339 428
#     4  11  26  43  71 101 138 181 232 303 355 422
#     4  11  25  43  66  98 146 185 234 293 365 415
#     4  10  21  38  69  99 140 178 239 275 353 403
#     4   9  22  37  67  97 138 177 234 284 355 411
#     4  11  29  46  70 101 139 191 243 290 354 426
#
# _framework density 24.434888999999998
#
# number of rings (size 3 to 8) (size 9 to 14) (size 15 to 20)
#    0.750    1.000    0.000    3.000   15.750    1.500 
#    0.000    0.000    0.000    4.500    0.000    0.000 
#    0.000    0.000    0.000    0.000    0.000    0.000 
#
# Total GULP energy -89456.244573 kJ/mol
# GULP energy per Si atom -5591.015286 kJ/mol
# Density = 2.437927 g / cm^3
# Si number density = 24.434889 Si / 1000 Ang^3
#
#
#
# Elastic Constant Matrix: (Units=GPa)
#
#
# Indices 1 2 3 4 5 6 
#
# 1 121.3381 33.8476 17.6314 -15.3570 -7.6254 17.2438
# 2 33.8476 103.5266 38.7878 -14.6834 -21.4307 -4.0458
# 3 17.6314 38.7878 135.1550 -7.6640 1.1327 -4.4724
# 4 -15.3570 -14.6834 -7.6640 41.8710 -5.9063 -2.9217
# 5 -7.6254 -21.4307 1.1327 -5.9063 27.0810 -13.4231
# 6 17.2438 -4.0458 -4.4724 -2.9217 -13.4231 39.1260
#
#
#
# Elastic Compliance Matrix: (Units=1/GPa)
#
#
# Indices 1 2 3 4 5 6 
#
# 1 0.010175 -0.003707 -0.000337 0.001624 -0.002497 -0.005642
# 2 -0.003707 0.018211 -0.004112 0.007922 0.020569 0.010695
# 3 -0.000337 -0.004112 0.008595 -0.000647 -0.004246 -0.000799
# 4 0.001624 0.007922 -0.000647 0.030173 0.017429 0.008262
# 5 -0.002497 0.020569 -0.004246 0.017429 0.070466 0.028219
# 6 -0.005642 0.010695 -0.000799 0.008262 0.028219 0.039357
#
#
# Mechanical properties :
#
#
# Convention : Reuss Voigt Hill
#
# Bulk Modulus (GPa) = 48.38177 60.06150 54.22163
# Shear Modulus (GPa) = 24.97735 39.59912 32.28824
#
# Velocity S-wave (km/s) = 3.20066 4.03003 3.63905
# Velocity P-wave (km/s) = 5.78811 6.80356 6.31627
#
# Compressibility (1/GPa) = 0.02066894
#
# Stress axis : x y z
#
# Youngs Moduli (GPa) = 98.28019 54.91040 116.34051
#
# Poissons Ratio (x) = 0.20357 0.03921
# Poissons Ratio (y) = 0.36436 0.47840
# Poissons Ratio (z) = 0.03313 0.22580
#
# Static dielectric constant tensor:
#      x y z
#    x 1.964080 -0.066420 0.004550 
#    y -0.066420 1.973620 0.060750 
#    z 0.004550 0.060750 1.972380 
# 
# From -- ./inp_files/620058.got.cif
#   From: 2010.05.17/outbox.cif.g08.bks.cpg/sg2_311_cif.got.tgz:620058.got - 2010.06.03 11:33:40.
