data_PCOD9096890
_publ_section_title
;
Structure prediction by ZEFSAII (Michael W. Deem and Ramdas Pophale) SiO2 
 PCOD9096890
Probable space group: P -1
;
_chemical_formula_sum "Si O2"
_cell_formula_units_Z 15
_cell_length_a 17.559115
_cell_length_b 9.089481
_cell_length_c 11.038449
_cell_angle_alpha 40.008903
_cell_angle_beta 31.877128
_cell_angle_gamma 56.552262
_cell_volume 572.026026
_symmetry_space_group_name_H-M "P -1"
_symmetry_group_IT_number 2
_symmetry_cell_setting 'triclinic'
loop_
_space_group_symop_operation_xyz
x,y,z
-x,-y,-z
loop_
_atom_site_type_symbol
_atom_site_label
_atom_site_fract_x
_atom_site_fract_y
_atom_site_fract_z
Si Si1 0.990235 0.951783 0.239661
Si Si2 0.500000 0.000000 0.500000
Si Si3 0.827696 0.160548 0.501417
Si Si4 0.203011 0.676023 0.037917
Si Si5 0.703827 0.759763 0.241594
Si Si6 0.720956 0.688197 0.648463
Si Si7 0.869968 0.549959 0.980324
Si Si8 0.590473 0.332125 0.828846
O O1 0.874374 0.905533 0.311485
O O2 0.072103 0.749761 0.238148
O O3 0.877512 0.947235 0.507036
O O4 0.137223 0.171331 0.938676
O O5 0.388650 0.053162 0.727611
O O6 0.651472 0.094235 0.317033
O O7 0.841846 0.343280 0.252418
O O8 0.672323 0.145604 0.786609
O O9 0.958852 0.288225 0.337263
O O10 0.262074 0.500361 0.153816
O O11 0.153615 0.566341 0.044289
O O12 0.760093 0.707853 0.067055
O O13 0.594771 0.515076 0.597235
O O14 0.680677 0.520477 0.690653
O O15 0.576513 0.766656 0.833285
#
# Coordination Sequence:
#
# PCOD9096890 Si02
#       8
#     2   1   2   2   2   2   2   2
#     4  10  22  36  62  88 119 146 204 245 288 343
#     4  10  20  36  58  86 122 144 198 246 282 348
#     4   9  19  39  59  90 116 152 199 243 289 352
#     4  11  22  39  59  90 119 157 195 245 296 352
#     4   9  19  39  60  89 113 154 196 244 290 342
#     4  11  23  39  58  87 118 163 194 239 298 358
#     4   9  19  36  64  88 117 153 195 247 295 340
#     4  10  21  40  63  77 124 164 193 239 296 346
#
# _framework density 26.222581999999999
#
# number of rings (size 3 to 8) (size 9 to 14) (size 15 to 20)
#    0.000    2.133    1.333    2.000    0.000    4.267 
#    0.000    7.333    0.000    0.000    0.000    0.000 
#    0.000    0.000    0.000    0.000    0.000    0.000 
#
# Total GULP energy -83642.911886 kJ/mol
# GULP energy per Si atom -5576.194126 kJ/mol
# Density = 2.616290 g / cm^3
# Si number density = 26.222582 Si / 1000 Ang^3
#
#
#
# Elastic Constant Matrix: (Units=GPa)
#
#
# Indices 1 2 3 4 5 6 
#
# 1 66.8255 46.6894 32.2158 27.4345 -2.3460 10.1181
# 2 46.6894 166.1031 77.1085 67.7785 -12.0840 6.6800
# 3 32.2158 77.1085 129.5421 45.7213 -9.5805 -4.8760
# 4 27.4345 67.7785 45.7213 52.3037 -3.5619 1.8428
# 5 -2.3460 -12.0840 -9.5805 -3.5619 34.0103 -3.4993
# 6 10.1181 6.6800 -4.8760 1.8428 -3.4993 29.0641
#
#
#
# Elastic Compliance Matrix: (Units=1/GPa)
#
#
# Indices 1 2 3 4 5 6 
#
# 1 0.021078 -0.002268 -0.002081 -0.006142 -0.001294 -0.006932
# 2 -0.002268 0.013996 -0.002526 -0.014516 0.002416 -0.001640
# 3 -0.002081 -0.002526 0.012308 -0.006388 0.002172 0.004036
# 4 -0.006142 -0.014516 -0.006388 0.046532 -0.002388 0.001165
# 5 -0.001294 0.002416 0.002172 -0.002388 0.030960 0.004139
# 6 -0.006932 -0.001640 0.004036 0.001165 0.004139 0.038299
#
#
# Mechanical properties :
#
#
# Convention : Reuss Voigt Hill
#
# Bulk Modulus (GPa) = 29.73446 74.94422 52.33934
# Shear Modulus (GPa) = 26.57709 36.83941 31.70825
#
# Velocity S-wave (km/s) = 3.18704 3.75223 3.48112
# Velocity P-wave (km/s) = 4.99067 6.88581 6.01337
#
# Compressibility (1/GPa) = 0.03363102
#
# Stress axis : x y z
#
# Youngs Moduli (GPa) = 47.44377 71.45062 81.24801
#
# Poissons Ratio (x) = 0.16205 0.16906
# Poissons Ratio (y) = 0.10760 0.20527
# Poissons Ratio (z) = 0.09872 0.18051
#
# Static dielectric constant tensor:
#      x y z
#    x 2.066210 -0.057790 0.036540 
#    y -0.057790 2.119290 -0.084500 
#    z 0.036540 -0.084500 2.063850 
# 
# From -- ./inp_files/460394.got.cif
#   From: 2010.05.17/outbox.cif.g08.bks.cpg/sg2_231_cif.got.tgz:460394.got - 2010.06.03 11:33:40.
