data_PCOD9096904
_publ_section_title
;
Structure prediction by ZEFSAII (Michael W. Deem and Ramdas Pophale) SiO2 
 PCOD9096904
Probable space group: P -1
;
_chemical_formula_sum "Si O2"
_cell_formula_units_Z 14
_cell_length_a 21.780069
_cell_length_b 6.987458
_cell_length_c 9.657409
_cell_angle_alpha 69.529316
_cell_angle_beta 154.780518
_cell_angle_gamma 111.997367
_cell_volume 580.426020
_symmetry_space_group_name_H-M "P -1"
_symmetry_group_IT_number 2
_symmetry_cell_setting 'triclinic'
loop_
_space_group_symop_operation_xyz
x,y,z
-x,-y,-z
loop_
_atom_site_type_symbol
_atom_site_label
_atom_site_fract_x
_atom_site_fract_y
_atom_site_fract_z
Si Si1 0.831079 0.922756 0.676722
Si Si2 0.920079 0.197222 0.434550
Si Si3 0.969434 0.746452 0.663715
Si Si4 0.295203 0.529747 0.950992
Si Si5 0.610972 0.203905 0.148234
Si Si6 0.231141 0.545958 0.353658
Si Si7 0.240493 0.337651 0.154698
O O1 0.766083 0.869700 0.713948
O O2 0.918339 0.963706 0.542984
O O3 0.753463 0.107248 0.417812
O O4 0.000000 0.000000 0.000000
O O5 0.781727 0.302920 0.164095
O O6 0.943905 0.199623 0.317861
O O7 0.067910 0.325805 0.767378
O O8 0.828320 0.584968 0.375241
O O9 0.801460 0.695037 0.606497
O O10 0.083895 0.650675 0.018508
O O11 0.420174 0.646204 0.078173
O O12 0.323045 0.369913 0.169246
O O13 0.650851 0.332204 0.336124
O O14 0.500000 0.000000 0.000000
O O15 0.281065 0.517750 0.304432
#
# Coordination Sequence:
#
# PCOD9096904 Si02
#       7
#     2   2   2   2   2   2   2
#     4  10  21  41  69  95 121 160 201 254 312 375
#     4  10  16  30  56  97 130 148 190 251 323 360
#     4  10  18  30  62  95 122 155 196 257 307 371
#     4  11  20  39  58  88 127 159 204 254 311 358
#     4  12  28  43  60  87 128 170 211 255 307 364
#     4  10  21  39  60  86 126 159 209 248 312 359
#     4   9  18  37  61  88 121 157 197 256 303 364
#
# _framework density 24.120214000000001
#
# number of rings (size 3 to 8) (size 9 to 14) (size 15 to 20)
#    0.857    0.857    2.857    3.429    0.000    5.143 
#    0.000    1.429    0.000    0.000    0.000    0.000 
#    0.000    0.000    0.000    0.000    0.000    0.000 
#
# Total GULP energy -78229.145753 kJ/mol
# GULP energy per Si atom -5587.796125 kJ/mol
# Density = 2.406532 g / cm^3
# Si number density = 24.120214 Si / 1000 Ang^3
#
#
#
# Elastic Constant Matrix: (Units=GPa)
#
#
# Indices 1 2 3 4 5 6 
#
# 1 82.7732 32.5147 31.2132 13.5056 -23.4309 15.6988
# 2 32.5147 126.3341 29.9314 17.3843 -16.5080 13.9941
# 3 31.2132 29.9314 59.7976 9.9826 -15.2613 3.7016
# 4 13.5056 17.3843 9.9826 48.7105 -3.8467 -1.4195
# 5 -23.4309 -16.5080 -15.2613 -3.8467 33.9049 -6.5336
# 6 15.6988 13.9941 3.7016 -1.4195 -6.5336 60.6089
#
#
#
# Elastic Compliance Matrix: (Units=1/GPa)
#
#
# Indices 1 2 3 4 5 6 
#
# 1 0.018357 -0.001465 -0.006068 -0.002761 0.008309 -0.003215
# 2 -0.001465 0.009770 -0.003195 -0.002333 0.001743 -0.001548
# 3 -0.006068 -0.003195 0.022828 -0.001450 0.004627 0.001380
# 4 -0.002761 -0.002333 -0.001450 0.022413 -0.000811 0.001780
# 5 0.008309 0.001743 0.004627 -0.000811 0.038321 0.001275
# 6 -0.003215 -0.001548 0.001380 0.001780 0.001275 0.017784
#
#
# Mechanical properties :
#
#
# Convention : Reuss Voigt Hill
#
# Bulk Modulus (GPa) = 33.90172 50.69150 42.29661
# Shear Modulus (GPa) = 31.10169 40.32789 35.71479
#
# Velocity S-wave (km/s) = 3.59478 4.09339 3.85216
# Velocity P-wave (km/s) = 5.59605 6.58809 6.11223
#
# Compressibility (1/GPa) = 0.02949703
#
# Stress axis : x y z
#
# Youngs Moduli (GPa) = 54.47430 102.35474 43.80674
#
# Poissons Ratio (x) = 0.14997 0.26584
# Poissons Ratio (y) = 0.07981 0.13998
# Poissons Ratio (z) = 0.33057 0.32706
#
# Static dielectric constant tensor:
#      x y z
#    x 2.504840 2.022160 -5.434280 
#    y 2.022160 10.041410 -22.342720 
#    z -5.434280 -22.342720 63.399880 
# 
# From -- ./inp_files/168394.got.cif
#   From: 2010.05.17/outbox.cif.g08.bks.cpg/sg2_85_cif.got.tgz:168394.got - 2010.06.03 11:33:40.
