data_PCOD9096467
_publ_section_title
;
Structure prediction by ZEFSAII (Michael W. Deem and Ramdas Pophale) SiO2 
 PCOD9096467
Probable space group: P -1
;
_chemical_formula_sum "Si O2"
_cell_formula_units_Z 16
_cell_length_a 16.062071
_cell_length_b 13.134294
_cell_length_c 10.481293
_cell_angle_alpha 33.038229
_cell_angle_beta 49.646535
_cell_angle_gamma 38.279403
_cell_volume 746.455912
_symmetry_space_group_name_H-M "P -1"
_symmetry_group_IT_number 2
_symmetry_cell_setting 'triclinic'
loop_
_space_group_symop_operation_xyz
x,y,z
-x,-y,-z
loop_
_atom_site_type_symbol
_atom_site_label
_atom_site_fract_x
_atom_site_fract_y
_atom_site_fract_z
Si Si1 0.729047 0.384609 0.916601
Si Si2 0.449905 0.396930 0.914217
Si Si3 0.610002 0.946706 0.738971
Si Si4 0.988603 0.826407 0.107238
Si Si5 0.624986 0.256692 0.572306
Si Si6 0.672563 0.749762 0.421460
Si Si7 0.246365 0.965159 0.076514
Si Si8 0.766971 0.903844 0.395901
O O1 0.735555 0.487265 0.668189
O O2 0.856932 0.346480 0.904947
O O3 0.595721 0.574899 0.924917
O O4 0.731933 0.158480 0.148050
O O5 0.365098 0.649842 0.671322
O O6 0.610626 0.249794 0.897604
O O7 0.406206 0.258680 0.022816
O O8 0.601968 0.066091 0.753228
O O9 0.478988 0.136178 0.588970
O O10 0.736739 0.871410 0.603189
O O11 0.919254 0.747293 0.354937
O O12 0.884975 0.951846 0.961754
O O13 0.000000 0.000000 0.000000
O O14 0.500000 0.500000 0.500000
O O15 0.743479 0.126710 0.694547
O O16 0.684723 0.859231 0.424331
O O17 0.738387 0.823545 0.174465
#
# Coordination Sequence:
#
# PCOD9096467 Si02
#       8
#     2   2   2   2   2   2   2   2
#     4  11  21  36  60  90 118 156 196 233 295 353
#     4  10  21  37  62  90 115 154 198 240 288 347
#     4  11  21  36  58  89 124 151 191 246 295 340
#     4   9  21  38  56  87 119 154 189 239 296 348
#     4  10  22  40  60  85 116 158 201 240 287 344
#     4  10  22  34  57  92 121 150 187 240 299 348
#     4   9  21  39  58  81 121 151 192 240 292 336
#     4  10  20  36  55  83 126 152 185 237 295 347
#
# _framework density 21.434621
#
# number of rings (size 3 to 8) (size 9 to 14) (size 15 to 20)
#    0.000    2.000    2.500    0.375    3.500   14.000 
#    0.000    0.625    0.000    0.750    0.000    0.000 
#    0.000    0.000    0.000    0.000    0.000    0.000 
#
# Total GULP energy -89155.850876 kJ/mol
# GULP energy per Si atom -5572.240680 kJ/mol
# Density = 2.138583 g / cm^3
# Si number density = 21.434621 Si / 1000 Ang^3
#
#
#
# Elastic Constant Matrix: (Units=GPa)
#
#
# Indices 1 2 3 4 5 6 
#
# 1 89.4226 24.8589 19.8554 2.2311 -10.4903 -10.3214
# 2 24.8589 45.5141 -1.4689 -4.9578 -7.6390 -7.0962
# 3 19.8554 -1.4689 93.9777 -10.7980 2.5868 -10.4009
# 4 2.2311 -4.9578 -10.7980 22.3308 8.0121 -5.0183
# 5 -10.4903 -7.6390 2.5868 8.0121 25.9909 -7.2849
# 6 -10.3214 -7.0962 -10.4009 -5.0183 -7.2849 32.6354
#
#
#
# Elastic Compliance Matrix: (Units=1/GPa)
#
#
# Indices 1 2 3 4 5 6 
#
# 1 0.015640 -0.007880 -0.004225 -0.007470 0.007389 0.002387
# 2 -0.007880 0.029308 0.003911 0.009342 0.004271 0.007517
# 3 -0.004225 0.003911 0.013355 0.010098 -0.003740 0.004488
# 4 -0.007470 0.009342 0.010098 0.060681 -0.017661 0.008276
# 5 0.007389 0.004271 -0.003740 -0.017661 0.051576 0.010871
# 6 0.002387 0.007517 0.004488 0.008276 0.010871 0.038161
#
#
# Mechanical properties :
#
#
# Convention : Reuss Voigt Hill
#
# Bulk Modulus (GPa) = 23.85852 35.04503 29.45178
# Shear Modulus (GPa) = 20.91346 28.56934 24.74140
#
# Velocity S-wave (km/s) = 3.12699 3.65480 3.40114
# Velocity P-wave (km/s) = 4.91858 5.84767 5.40313
#
# Compressibility (1/GPa) = 0.04191375
#
# Stress axis : x y z
#
# Youngs Moduli (GPa) = 63.93729 34.12055 74.88062
#
# Poissons Ratio (x) = 0.26887 0.31638
# Poissons Ratio (y) = 0.50383 -0.29284
# Poissons Ratio (z) = 0.27014 -0.13344
#
# Static dielectric constant tensor:
#      x y z
#    x 1.780690 0.008360 0.008150 
#    y 0.008360 1.856060 -0.016200 
#    z 0.008150 -0.016200 1.877840 
# 
# From -- ./inp_files/454348.got.cif
#   From: 2010.05.17/outbox.cif.g08.bks.cpg/sg2_228_cif.got.tgz:454348.got - 2010.06.03 11:33:40.
