data_PCOD9096773
_publ_section_title
;
Structure prediction by ZEFSAII (Michael W. Deem and Ramdas Pophale) SiO2 
 PCOD9096773
Probable space group: P -1
;
_chemical_formula_sum "Si O2"
_cell_formula_units_Z 16
_cell_length_a 7.968530
_cell_length_b 22.546144
_cell_length_c 5.242358
_cell_angle_alpha 125.284228
_cell_angle_beta 77.805649
_cell_angle_gamma 123.515602
_cell_volume 632.913332
_symmetry_space_group_name_H-M "P -1"
_symmetry_group_IT_number 2
_symmetry_cell_setting 'triclinic'
loop_
_space_group_symop_operation_xyz
x,y,z
-x,-y,-z
loop_
_atom_site_type_symbol
_atom_site_label
_atom_site_fract_x
_atom_site_fract_y
_atom_site_fract_z
Si Si1 0.305982 0.176582 0.729215
Si Si2 0.216120 0.738467 0.222391
Si Si3 0.763553 0.372621 0.432146
Si Si4 0.802075 0.591407 0.119143
Si Si5 0.328634 0.272228 0.479895
Si Si6 0.736361 0.999716 0.675216
Si Si7 0.779569 0.498110 0.375528
Si Si8 0.758059 0.090228 0.393468
O O1 0.545743 0.215499 0.687267
O O2 0.236116 0.206273 0.580856
O O3 0.220735 0.076043 0.546793
O O4 0.288294 0.219829 0.099326
O O5 0.161871 0.810399 0.427127
O O6 0.048928 0.654510 0.222216
O O7 0.196102 0.700315 0.850289
O O8 0.574547 0.331400 0.574205
O O9 0.692705 0.403483 0.280384
O O10 0.977632 0.457878 0.639895
O O11 0.733227 0.658244 0.334670
O O12 0.708408 0.519888 0.193317
O O13 0.759497 0.548874 0.747615
O O14 0.489495 0.955086 0.637031
O O15 0.815643 0.065820 0.579466
O O16 0.809050 0.049415 0.041699
#
# Coordination Sequence:
#
# PCOD9096773 Si02
#       8
#     2   2   2   2   2   2   2   2
#     4  10  20  36  58  81 109 144 182 224 267 321
#     4   9  20  36  58  82 109 143 183 224 269 322
#     4   9  21  38  59  83 109 143 185 224 270 323
#     4  11  23  38  56  81 112 145 181 224 274 322
#     4  11  22  36  57  82 110 145 183 224 269 320
#     4   9  17  30  50  79 107 134 174 221 268 311
#     4  10  22  39  58  80 111 145 180 226 272 322
#     4   9  17  29  50  79 107 134 172 223 267 311
#
# _framework density 25.279924999999999
#
# number of rings (size 3 to 8) (size 9 to 14) (size 15 to 20)
#    0.000    2.250    0.000    2.250    0.000   15.500 
#    0.000    0.000    0.000    4.500    0.000    0.000 
#    0.000    0.000    0.000    0.000    0.000    0.000 
#
# Total GULP energy -89581.423834 kJ/mol
# GULP energy per Si atom -5598.838990 kJ/mol
# Density = 2.522239 g / cm^3
# Si number density = 25.279925 Si / 1000 Ang^3
#
#
#
# Elastic Constant Matrix: (Units=GPa)
#
#
# Indices 1 2 3 4 5 6 
#
# 1 57.6207 6.0346 27.5589 -9.4003 -13.3666 4.4746
# 2 6.0346 152.0566 65.0556 -7.2346 7.4308 -16.8939
# 3 27.5589 65.0556 179.7338 2.1603 -24.3374 -37.9358
# 4 -9.4003 -7.2346 2.1603 45.8458 -11.0935 6.7574
# 5 -13.3666 7.4308 -24.3374 -11.0935 22.8398 3.9186
# 6 4.4746 -16.8939 -37.9358 6.7574 3.9186 45.7366
#
#
#
# Elastic Compliance Matrix: (Units=1/GPa)
#
#
# Indices 1 2 3 4 5 6 
#
# 1 0.025854 -0.001169 -0.002882 0.011219 0.019377 -0.008669
# 2 -0.001169 0.008760 -0.003899 -0.000807 -0.008243 0.000941
# 3 -0.002882 -0.003899 0.009983 -0.000474 0.008886 0.006431
# 4 0.011219 -0.000807 -0.000474 0.030709 0.022657 -0.008267
# 5 0.019377 -0.008243 0.008886 0.022657 0.079606 -0.007738
# 6 -0.008669 0.000941 0.006431 -0.008267 -0.007738 0.030279
#
#
# Mechanical properties :
#
#
# Convention : Reuss Voigt Hill
#
# Bulk Modulus (GPa) = 34.84725 65.18993 50.01859
# Shear Modulus (GPa) = 23.73515 42.26856 33.00185
#
# Velocity S-wave (km/s) = 3.06746 4.09347 3.61703
# Velocity P-wave (km/s) = 5.13422 6.94156 6.10514
#
# Compressibility (1/GPa) = 0.02869667
#
# Stress axis : x y z
#
# Youngs Moduli (GPa) = 38.67842 114.15308 100.16691
#
# Poissons Ratio (x) = 0.13350 0.28867
# Poissons Ratio (y) = 0.04523 0.39057
# Poissons Ratio (z) = 0.11147 0.44511
#
# Static dielectric constant tensor:
#      x y z
#    x 2.087120 0.031350 0.040340 
#    y 0.031350 1.948010 -0.010600 
#    z 0.040340 -0.010600 1.940840 
# 
# From -- ./inp_files/53925.got.cif
#   From: 2010.05.17/outbox.cif.g08.bks.cpg/sg2_27_cif.got.tgz:53925.got - 2010.06.03 11:33:40.
