data_PCOD9096771
_publ_section_title
;
Structure prediction by ZEFSAII (Michael W. Deem and Ramdas Pophale) SiO2 
 PCOD9096771
Probable space group: P -1
;
_chemical_formula_sum "Si O2"
_cell_formula_units_Z 13
_cell_length_a 11.461558
_cell_length_b 7.116340
_cell_length_c 12.742830
_cell_angle_alpha 136.089686
_cell_angle_beta 46.170107
_cell_angle_gamma 106.856364
_cell_volume 472.490651
_symmetry_space_group_name_H-M "P -1"
_symmetry_group_IT_number 2
_symmetry_cell_setting 'triclinic'
loop_
_space_group_symop_operation_xyz
x,y,z
-x,-y,-z
loop_
_atom_site_type_symbol
_atom_site_label
_atom_site_fract_x
_atom_site_fract_y
_atom_site_fract_z
Si Si1 0.614856 0.772938 0.746692
Si Si2 0.132714 0.273500 0.690588
Si Si3 0.000000 0.500000 0.500000
Si Si4 0.552236 0.215109 0.781077
Si Si5 0.176768 0.039932 0.040503
Si Si6 0.260751 0.489215 0.899005
Si Si7 0.206649 0.757903 0.698980
O O1 0.645793 0.437269 0.554219
O O2 0.822573 0.690227 0.614052
O O3 0.540472 0.969644 0.767879
O O4 0.500000 0.000000 0.000000
O O5 0.165540 0.514999 0.695209
O O6 0.925108 0.360666 0.861997
O O7 0.243601 0.940216 0.446275
O O8 0.220723 0.298595 0.756708
O O9 0.127312 0.351249 0.254458
O O10 0.500000 0.500000 0.000000
O O11 0.421285 0.310219 0.803001
O O12 0.976519 0.045470 0.166005
O O13 0.284062 0.761687 0.936271
O O14 0.237781 0.960347 0.850268
#
# Coordination Sequence:
#
# PCOD9096771 Si02
#       7
#     2   2   1   2   2   2   2
#     4  10  22  38  56  79 108 148 192 233 278 331
#     4   9  20  38  59  84 112 150 191 231 281 334
#     4  10  20  36  58  80 112 146 182 232 280 332
#     4  11  23  36  54  85 119 148 183 233 287 338
#     4   9  17  33  58  84 110 147 183 226 282 334
#     4  10  20  37  61  84 113 150 189 231 281 344
#     4   8  17  35  57  81 111 143 188 235 275 328
#
# _framework density 27.513773
#
# number of rings (size 3 to 8) (size 9 to 14) (size 15 to 20)
#    0.000    2.462    0.000    1.385    0.000    6.769 
#    0.000    0.769    0.000    0.000    0.000    0.000 
#    0.000    0.000    0.000    0.000    0.000    0.000 
#
# Total GULP energy -72501.054292 kJ/mol
# GULP energy per Si atom -5577.004176 kJ/mol
# Density = 2.745115 g / cm^3
# Si number density = 27.513773 Si / 1000 Ang^3
#
#
#
# Elastic Constant Matrix: (Units=GPa)
#
#
# Indices 1 2 3 4 5 6 
#
# 1 87.3835 32.8467 44.0684 4.0924 -11.6179 -37.3872
# 2 32.8467 107.4281 27.8789 4.0400 -12.2258 -24.8901
# 3 44.0684 27.8789 269.2161 7.5694 4.1397 -8.0263
# 4 4.0924 4.0400 7.5694 37.1744 -8.7770 -3.7960
# 5 -11.6179 -12.2258 4.1397 -8.7770 54.0708 16.4179
# 6 -37.3872 -24.8901 -8.0263 -3.7960 16.4179 52.4270
#
#
#
# Elastic Compliance Matrix: (Units=1/GPa)
#
#
# Indices 1 2 3 4 5 6 
#
# 1 0.018594 -0.002313 -0.002453 -0.000077 0.000078 0.011756
# 2 -0.002313 0.011051 -0.000682 -0.000236 0.001061 0.003143
# 3 -0.002453 -0.000682 0.004184 -0.000814 -0.000752 -0.001256
# 4 -0.000077 -0.000236 -0.000814 0.028189 0.004461 0.000352
# 5 0.000078 0.001061 -0.000752 0.004461 0.021328 -0.005912
# 6 0.011756 0.003143 -0.001256 0.000352 -0.005912 0.030635
#
#
# Mechanical properties :
#
#
# Convention : Reuss Voigt Hill
#
# Bulk Modulus (GPa) = 43.60481 74.84619 59.22550
# Shear Modulus (GPa) = 37.73025 52.68334 45.20680
#
# Velocity S-wave (km/s) = 3.70715 4.38059 4.05787
# Velocity P-wave (km/s) = 5.84865 7.26968 6.59754
#
# Compressibility (1/GPa) = 0.02293325
#
# Stress axis : x y z
#
# Youngs Moduli (GPa) = 53.78026 90.49314 239.03004
#
# Poissons Ratio (x) = 0.20933 0.58627
# Poissons Ratio (y) = 0.12440 0.16294
# Poissons Ratio (z) = 0.13191 0.06169
#
# Static dielectric constant tensor:
#      x y z
#    x 2.188300 0.034580 0.028250 
#    y 0.034580 2.162010 0.014110 
#    z 0.028250 0.014110 2.095870 
# 
# From -- ./inp_files/304450.got.cif
#   From: 2010.05.17/outbox.cif.g08.bks.cpg/sg2_153_cif.got.tgz:304450.got - 2010.06.03 11:33:40.
