data_PCOD9096683
_publ_section_title
;
Structure prediction by ZEFSAII (Michael W. Deem and Ramdas Pophale) SiO2 
 PCOD9096683
Probable space group: P -1
;
_chemical_formula_sum "Si O2"
_cell_formula_units_Z 16
_cell_length_a 8.008921
_cell_length_b 8.293590
_cell_length_c 14.415636
_cell_angle_alpha 70.299905
_cell_angle_beta 49.939178
_cell_angle_gamma 81.572586
_cell_volume 686.658607
_symmetry_space_group_name_H-M "P -1"
_symmetry_group_IT_number 2
_symmetry_cell_setting 'triclinic'
loop_
_space_group_symop_operation_xyz
x,y,z
-x,-y,-z
loop_
_atom_site_type_symbol
_atom_site_label
_atom_site_fract_x
_atom_site_fract_y
_atom_site_fract_z
Si Si1 0.381732 0.997079 0.140623
Si Si2 0.693016 0.242890 0.317376
Si Si3 0.266279 0.156081 0.820738
Si Si4 0.598131 0.103903 0.575921
Si Si5 0.477546 0.359190 0.115177
Si Si6 0.677630 0.566975 0.642550
Si Si7 0.899644 0.217692 0.605635
Si Si8 0.079307 0.774096 0.935936
O O1 0.357615 0.186734 0.148059
O O2 0.551220 0.911312 0.163721
O O3 0.153858 0.881090 0.259725
O O4 0.500000 0.000000 0.000000
O O5 0.709502 0.187235 0.428095
O O6 0.552240 0.404605 0.327619
O O7 0.904440 0.274047 0.169031
O O8 0.533916 0.082122 0.360675
O O9 0.406093 0.209978 0.668381
O O10 0.112594 0.982878 0.882076
O O11 0.126611 0.270536 0.914176
O O12 0.787409 0.101902 0.585498
O O13 0.356833 0.420795 0.237218
O O14 0.712685 0.303889 0.076618
O O15 0.500000 0.500000 0.000000
O O16 0.775542 0.390635 0.618127
O O17 0.851363 0.720189 0.514965
#
# Coordination Sequence:
#
# PCOD9096683 Si02
#       8
#     2   2   2   2   2   2   2   2
#     4  10  20  36  57  85 113 148 190 236 287 342
#     4   9  18  34  55  83 113 146 186 233 293 338
#     4   8  15  31  52  79 108 143 184 226 276 333
#     4   9  18  34  56  82 111 146 188 236 283 346
#     4  10  20  36  59  82 116 152 185 235 290 341
#     4  10  21  38  57  81 113 155 192 239 289 331
#     4  10  21  38  57  81 115 150 196 238 282 339
#     4   8  15  31  53  77 109 144 182 225 275 338
#
# _framework density 23.301245000000002
#
# number of rings (size 3 to 8) (size 9 to 14) (size 15 to 20)
#    0.000    2.750    0.000    3.000    0.000    2.500 
#   18.000    0.000    0.000    6.750    0.000    0.000 
#    0.000    0.000    0.000    0.000    0.000    0.000 
#
# Total GULP energy -89335.217717 kJ/mol
# GULP energy per Si atom -5583.451107 kJ/mol
# Density = 2.324821 g / cm^3
# Si number density = 23.301245 Si / 1000 Ang^3
#
#
#
# Elastic Constant Matrix: (Units=GPa)
#
#
# Indices 1 2 3 4 5 6 
#
# 1 21.6391 13.5851 24.8209 3.6373 2.9394 -1.0059
# 2 13.5851 50.4837 39.9579 11.3278 -6.4516 -5.7972
# 3 24.8209 39.9579 160.6213 8.9496 4.5410 -8.7535
# 4 3.6373 11.3278 8.9496 41.5820 -2.6183 -7.4976
# 5 2.9394 -6.4516 4.5410 -2.6183 31.9372 0.2283
# 6 -1.0059 -5.7972 -8.7535 -7.4976 0.2283 20.9840
#
#
#
# Elastic Compliance Matrix: (Units=1/GPa)
#
#
# Indices 1 2 3 4 5 6 
#
# 1 0.062756 -0.012824 -0.006399 -0.001773 -0.007575 -0.003755
# 2 -0.012824 0.029810 -0.005182 -0.004746 0.007524 0.003681
# 3 -0.006399 -0.005182 0.008640 0.000370 -0.001670 0.002016
# 4 -0.001773 -0.004746 0.000370 0.027013 0.001306 0.008396
# 5 -0.007575 0.007524 -0.001670 0.001306 0.033865 0.001117
# 6 -0.003755 0.003681 0.002016 0.008396 0.001117 0.052321
#
#
# Mechanical properties :
#
#
# Convention : Reuss Voigt Hill
#
# Bulk Modulus (GPa) = 19.08536 43.27465 31.18000
# Shear Modulus (GPa) = 17.81377 29.19266 23.50322
#
# Velocity S-wave (km/s) = 2.76796 3.54338 3.17940
# Velocity P-wave (km/s) = 4.29231 5.94583 5.18540
#
# Compressibility (1/GPa) = 0.05239618
#
# Stress axis : x y z
#
# Youngs Moduli (GPa) = 15.93468 33.54585 115.73753
#
# Poissons Ratio (x) = 0.43020 0.74062
# Poissons Ratio (y) = 0.20435 0.59972
# Poissons Ratio (z) = 0.10197 0.17383
#
# Static dielectric constant tensor:
#      x y z
#    x 1.902310 0.034170 -0.035300 
#    y 0.034170 1.897190 0.002540 
#    z -0.035300 0.002540 1.950050 
# 
# From -- ./inp_files/494601.got.cif
#   From: 2010.05.17/outbox.cif.g08.bks.cpg/sg2_248_cif.got.tgz:494601.got - 2010.06.03 11:33:40.
