data_PCOD9096848
_publ_section_title
;
Structure prediction by ZEFSAII (Michael W. Deem and Ramdas Pophale) SiO2 
 PCOD9096848
Probable space group: P -1
;
_chemical_formula_sum "Si O2"
_cell_formula_units_Z 16
_cell_length_a 18.096039
_cell_length_b 14.434312
_cell_length_c 8.355294
_cell_angle_alpha 67.850449
_cell_angle_beta 110.069378
_cell_angle_gamma 160.155668
_cell_volume 685.731170
_symmetry_space_group_name_H-M "P -1"
_symmetry_group_IT_number 2
_symmetry_cell_setting 'triclinic'
loop_
_space_group_symop_operation_xyz
x,y,z
-x,-y,-z
loop_
_atom_site_type_symbol
_atom_site_label
_atom_site_fract_x
_atom_site_fract_y
_atom_site_fract_z
Si Si1 0.340440 0.718435 0.461216
Si Si2 0.911165 0.092579 0.090351
Si Si3 0.593919 0.563580 0.365838
Si Si4 0.233216 0.008603 0.274556
Si Si5 0.717765 0.054073 0.136415
Si Si6 0.723542 0.531288 0.653102
Si Si7 0.565608 0.951486 0.769934
Si Si8 0.151395 0.734568 0.586875
O O1 0.229997 0.506463 0.405082
O O2 0.308532 0.794595 0.335164
O O3 0.342807 0.703554 0.664540
O O4 0.599848 0.005371 0.431323
O O5 0.127196 0.301613 0.189869
O O6 0.715752 0.790005 0.202828
O O7 0.866909 0.148790 0.099411
O O8 0.905163 0.097715 0.891758
O O9 0.500000 0.500000 0.500000
O O10 0.410392 0.291068 0.301160
O O11 0.752452 0.664484 0.483008
O O12 0.341739 0.043826 0.234066
O O13 0.120958 0.814839 0.461786
O O14 0.528612 0.773965 0.280096
O O15 0.857303 0.284462 0.215787
O O16 0.583346 0.957792 0.968260
O O17 0.000000 0.500000 0.500000
#
# Coordination Sequence:
#
# PCOD9096848 Si02
#       8
#     2   2   2   2   2   2   2   2
#     4   9  19  37  58  86 126 165 197 254 309 362
#     4  11  24  38  68  92 122 164 211 256 311 360
#     4  12  21  44  68  84 124 171 202 260 319 357
#     4  10  21  41  60  92 126 163 204 258 309 370
#     4  10  21  40  60  91 126 164 203 257 307 364
#     4  11  22  41  62  93 126 155 214 252 303 377
#     4   9  18  35  61  84 118 164 200 241 313 365
#     4  10  20  36  58  84 127 166 208 243 307 368
#
# _framework density 23.332757999999998
#
# number of rings (size 3 to 8) (size 9 to 14) (size 15 to 20)
#    0.000    1.750    5.000    0.750    0.000    7.000 
#    0.000    6.250    0.000    0.000    0.000    0.000 
#    0.000    0.000    0.000    0.000    0.000    0.000 
#
# Total GULP energy -89306.031956 kJ/mol
# GULP energy per Si atom -5581.626997 kJ/mol
# Density = 2.327965 g / cm^3
# Si number density = 23.332758 Si / 1000 Ang^3
#
#
#
# Elastic Constant Matrix: (Units=GPa)
#
#
# Indices 1 2 3 4 5 6 
#
# 1 68.2524 25.2842 17.4283 7.8296 -0.6974 -18.2715
# 2 25.2842 89.8761 42.6289 29.5618 -0.0677 -22.9967
# 3 17.4283 42.6289 161.3596 33.9483 3.3007 -22.4066
# 4 7.8296 29.5618 33.9483 46.4634 -3.6446 -1.8393
# 5 -0.6974 -0.0677 3.3007 -3.6446 26.2517 -1.1976
# 6 -18.2715 -22.9967 -22.4066 -1.8393 -1.1976 34.9993
#
#
#
# Elastic Compliance Matrix: (Units=1/GPa)
#
#
# Indices 1 2 3 4 5 6 
#
# 1 0.017787 -0.002832 0.000026 -0.000867 0.000680 0.007419
# 2 -0.002832 0.018031 -0.001090 -0.009904 -0.000851 0.009122
# 3 0.000026 -0.001090 0.008209 -0.005265 -0.001573 0.004222
# 4 -0.000867 -0.009904 -0.005265 0.031845 0.004647 -0.008498
# 5 0.000680 -0.000851 -0.001573 0.004647 0.038968 0.000367
# 6 0.007419 0.009122 0.004222 -0.008498 0.000367 0.040708
#
#
# Mechanical properties :
#
#
# Convention : Reuss Voigt Hill
#
# Bulk Modulus (GPa) = 27.59823 54.46342 41.03083
# Shear Modulus (GPa) = 28.50356 37.15264 32.82810
#
# Velocity S-wave (km/s) = 3.49895 3.99469 3.75501
# Velocity P-wave (km/s) = 5.30823 6.68352 6.03518
#
# Compressibility (1/GPa) = 0.03623421
#
# Stress axis : x y z
#
# Youngs Moduli (GPa) = 56.22229 55.45982 121.82410
#
# Poissons Ratio (x) = 0.15706 -0.00315
# Poissons Ratio (y) = 0.15922 0.13277
# Poissons Ratio (z) = -0.00145 0.06045
#
# Static dielectric constant tensor:
#      x y z
#    x 1.946620 0.080790 -0.022460 
#    y 0.080790 1.967400 -0.017610 
#    z -0.022460 -0.017610 1.913950 
# 
# From -- ./inp_files/347547.got.cif
#   From: 2010.05.17/outbox.cif.g08.bks.cpg/sg2_174_cif.got.tgz:347547.got - 2010.06.03 11:33:40.
