data_PCOD9096980
_publ_section_title
;
Structure prediction by ZEFSAII (Michael W. Deem and Ramdas Pophale) SiO2 
 PCOD9096980
Probable space group: P -1
;
_chemical_formula_sum "Si O2"
_cell_formula_units_Z 16
_cell_length_a 20.935116
_cell_length_b 20.034493
_cell_length_c 11.455742
_cell_angle_alpha 151.370681
_cell_angle_beta 155.391465
_cell_angle_gamma 22.402033
_cell_volume 741.294687
_symmetry_space_group_name_H-M "P -1"
_symmetry_group_IT_number 2
_symmetry_cell_setting 'triclinic'
loop_
_space_group_symop_operation_xyz
x,y,z
-x,-y,-z
loop_
_atom_site_type_symbol
_atom_site_label
_atom_site_fract_x
_atom_site_fract_y
_atom_site_fract_z
Si Si1 0.948231 0.402799 0.113965
Si Si2 0.336607 0.720893 0.874762
Si Si3 0.273590 0.588972 0.049396
Si Si4 0.921408 0.477167 0.664004
Si Si5 0.177978 0.992004 0.827283
Si Si6 0.150621 0.789546 0.911977
Si Si7 0.711723 0.583136 0.695658
Si Si8 0.507247 0.298996 0.277700
O O1 0.909282 0.384734 0.155459
O O2 0.717905 0.545583 0.904103
O O3 0.088586 0.197088 0.987198
O O4 0.061488 0.471552 0.357938
O O5 0.557410 0.610404 0.023395
O O6 0.305111 0.740736 0.991490
O O7 0.283535 0.589522 0.550067
O O8 0.218618 0.906992 0.893944
O O9 0.368661 0.634688 0.377947
O O10 0.233030 0.705176 0.046564
O O11 0.952719 0.293952 0.430749
O O12 0.725305 0.608630 0.619908
O O13 0.093188 0.461960 0.992771
O O14 0.365003 0.857403 0.845453
O O15 0.000000 0.000000 0.500000
O O16 0.000000 0.000000 0.000000
O O17 0.534116 0.741819 0.724795
#
# Coordination Sequence:
#
# PCOD9096980 Si02
#       8
#     2   2   2   2   2   2   2   2
#     4  11  21  36  63  89 126 159 193 253 304 353
#     4  10  21  38  63  87 121 157 203 247 296 352
#     4  11  20  37  60  86 122 162 195 246 304 346
#     4   9  19  38  59  84 120 160 200 239 306 353
#     4  12  20  31  61 100 121 152 195 250 304 350
#     4  11  24  40  60  86 116 163 209 244 287 366
#     4   8  17  35  62  83 117 163 189 250 304 341
#     4  10  20  36  58  94 125 152 198 251 300 348
#
# _framework density 21.583860000000001
#
# number of rings (size 3 to 8) (size 9 to 14) (size 15 to 20)
#    0.000    1.750    2.500    3.750    0.000    0.500 
#    0.000    0.625   19.250    1.500    0.000    0.000 
#    0.000    0.000    0.000    0.000    0.000    0.000 
#
# Total GULP energy -89092.692599 kJ/mol
# GULP energy per Si atom -5568.293287 kJ/mol
# Density = 2.153473 g / cm^3
# Si number density = 21.583860 Si / 1000 Ang^3
#
#
#
# Elastic Constant Matrix: (Units=GPa)
#
#
# Indices 1 2 3 4 5 6 
#
# 1 168.4406 54.6197 24.1083 16.0071 -0.2773 -43.4136
# 2 54.6197 100.0324 15.8862 11.4882 -5.1752 -10.9233
# 3 24.1083 15.8862 44.7690 3.6149 -2.7758 -12.8865
# 4 16.0071 11.4882 3.6149 20.7999 -0.0627 -8.1706
# 5 -0.2773 -5.1752 -2.7758 -0.0627 32.1068 -4.6713
# 6 -43.4136 -10.9233 -12.8865 -8.1706 -4.6713 32.1090
#
#
#
# Elastic Compliance Matrix: (Units=1/GPa)
#
#
# Indices 1 2 3 4 5 6 
#
# 1 0.010795 -0.004255 -0.000432 -0.000789 0.001253 0.012956
# 2 -0.004255 0.013009 -0.002868 -0.004786 0.001292 -0.003509
# 3 -0.000432 -0.002868 0.026534 0.001191 0.003266 0.009867
# 4 -0.000789 -0.004786 0.001191 0.055911 0.001207 0.012186
# 5 0.001253 0.001292 0.003266 0.001207 0.032892 0.008537
# 6 0.012956 -0.003509 0.009867 0.012186 0.008537 0.055770
#
#
# Mechanical properties :
#
#
# Convention : Reuss Voigt Hill
#
# Bulk Modulus (GPa) = 28.38807 55.83005 42.10906
# Shear Modulus (GPa) = 22.54638 31.57834 27.06236
#
# Velocity S-wave (km/s) = 3.23552 3.82914 3.54478
# Velocity P-wave (km/s) = 5.20953 6.74333 6.02543
#
# Compressibility (1/GPa) = 0.03522606
#
# Stress axis : x y z
#
# Youngs Moduli (GPa) = 92.63730 76.86901 37.68760
#
# Poissons Ratio (x) = 0.32710 0.01630
# Poissons Ratio (y) = 0.39420 0.10810
# Poissons Ratio (z) = 0.04005 0.22048
#
# Static dielectric constant tensor:
#      x y z
#    x 2.122790 0.333790 -0.011420 
#    y 0.333790 2.274390 0.018820 
#    z -0.011420 0.018820 1.827150 
# 
# From -- ./inp_files/424079.got.cif
#   From: 2010.05.17/outbox.cif.g08.bks.cpg/sg2_213_cif.got.tgz:424079.got - 2010.06.03 11:33:40.
