data_PCOD9096745
_publ_section_title
;
Structure prediction by ZEFSAII (Michael W. Deem and Ramdas Pophale) SiO2 
 PCOD9096745
Probable space group: P -1
;
_chemical_formula_sum "Si O2"
_cell_formula_units_Z 16
_cell_length_a 5.424508
_cell_length_b 29.531134
_cell_length_c 11.974075
_cell_angle_alpha 21.809340
_cell_angle_beta 93.958242
_cell_angle_gamma 93.471568
_cell_volume 710.897108
_symmetry_space_group_name_H-M "P -1"
_symmetry_group_IT_number 2
_symmetry_cell_setting 'triclinic'
loop_
_space_group_symop_operation_xyz
x,y,z
-x,-y,-z
loop_
_atom_site_type_symbol
_atom_site_label
_atom_site_fract_x
_atom_site_fract_y
_atom_site_fract_z
Si Si1 0.265546 0.350721 0.601261
Si Si2 0.424474 0.857203 0.334131
Si Si3 0.423312 0.769359 0.922382
Si Si4 0.146952 0.571663 0.243145
Si Si5 0.194577 0.986652 0.324906
Si Si6 0.935170 0.804658 0.586650
Si Si7 0.093160 0.837700 0.953187
Si Si8 0.498197 0.196335 0.786195
O O1 0.371989 0.264561 0.902842
O O2 0.242499 0.481893 0.354740
O O3 0.416886 0.320219 0.563904
O O4 0.002115 0.291407 0.707230
O O5 0.668622 0.803371 0.524916
O O6 0.395672 0.798308 0.345601
O O7 0.169124 0.832243 0.448881
O O8 0.500000 0.000000 0.000000
O O9 0.368739 0.647817 0.130680
O O10 0.183932 0.805269 0.907640
O O11 0.418489 0.888882 0.571896
O O12 0.000000 0.500000 0.500000
O O13 0.978091 0.676586 0.943182
O O14 0.975284 0.911456 0.434102
O O15 0.272662 0.100890 0.989959
O O16 0.108325 0.057299 0.272144
O O17 0.321358 0.867127 0.972761
#
# Coordination Sequence:
#
# PCOD9096745 Si02
#       8
#     2   2   2   2   2   2   2   2
#     4  10  22  39  61  90 126 176 220 271 332 393
#     4  12  24  46  71 101 140 176 222 286 339 395
#     4  10  21  36  60  92 124 171 217 271 336 400
#     4  11  23  46  68  96 132 176 222 283 329 399
#     4  10  21  36  57  96 131 167 215 276 332 409
#     4  11  27  43  72 106 130 179 232 270 345 404
#     4  10  20  36  57  91 126 174 215 263 340 397
#     4  10  23  38  64  88 130 175 217 273 341 387
#
# _framework density 22.506774
#
# number of rings (size 3 to 8) (size 9 to 14) (size 15 to 20)
#    0.000    1.500    2.500    1.875    3.500    8.500 
#    0.000    1.250    0.000    0.000    0.000    0.000 
#    0.000    0.000    0.000    0.000    0.000    0.000 
#
# Total GULP energy -89299.327011 kJ/mol
# GULP energy per Si atom -5581.207938 kJ/mol
# Density = 2.245555 g / cm^3
# Si number density = 22.506774 Si / 1000 Ang^3
#
#
#
# Elastic Constant Matrix: (Units=GPa)
#
#
# Indices 1 2 3 4 5 6 
#
# 1 59.2759 18.1039 14.3749 -6.5212 -6.7584 -9.4946
# 2 18.1039 147.6970 42.1243 -35.3916 -6.9351 -18.0895
# 3 14.3749 42.1243 77.8150 -24.3474 -1.4725 -13.0200
# 4 -6.5212 -35.3916 -24.3474 44.6701 -1.9325 -0.5259
# 5 -6.7584 -6.9351 -1.4725 -1.9325 19.0752 4.8415
# 6 -9.4946 -18.0895 -13.0200 -0.5259 4.8415 32.0964
#
#
#
# Elastic Compliance Matrix: (Units=1/GPa)
#
#
# Indices 1 2 3 4 5 6 
#
# 1 0.018925 -0.000727 -0.001961 0.001399 0.005522 0.003583
# 2 -0.000727 0.009699 -0.002382 0.006445 0.002728 0.003979
# 3 -0.001961 -0.002382 0.017774 0.007543 -0.000830 0.005536
# 4 0.001399 0.006445 0.007543 0.032102 0.004925 0.006889
# 5 0.005522 0.002728 -0.000830 0.004925 0.057259 -0.005722
# 6 0.003583 0.003979 0.005536 0.006889 -0.005722 0.037680
#
#
# Mechanical properties :
#
#
# Convention : Reuss Voigt Hill
#
# Bulk Modulus (GPa) = 27.58050 48.22157 37.90104
# Shear Modulus (GPa) = 25.55385 33.18067 29.36726
#
# Velocity S-wave (km/s) = 3.37320 3.84377 3.61615
# Velocity P-wave (km/s) = 5.23949 6.41648 5.85762
#
# Compressibility (1/GPa) = 0.03625750
#
# Stress axis : x y z
#
# Youngs Moduli (GPa) = 52.83946 103.10505 56.26353
#
# Poissons Ratio (x) = 0.07498 0.11031
# Poissons Ratio (y) = 0.03842 0.13403
# Poissons Ratio (z) = 0.10360 0.24562
#
# Static dielectric constant tensor:
#      x y z
#    x 1.883080 -0.024620 0.002060 
#    y -0.024620 1.862330 0.045620 
#    z 0.002060 0.045620 1.852580 
# 
# From -- ./inp_files/81428.got.cif
#   From: 2010.05.17/outbox.cif.g08.bks.cpg/sg2_41_cif.got.tgz:81428.got - 2010.06.03 11:33:40.
