data_PCOD9096441
_publ_section_title
;
Structure prediction by ZEFSAII (Michael W. Deem and Ramdas Pophale) SiO2 
 PCOD9096441
Probable space group: P -1
;
_chemical_formula_sum "Si O2"
_cell_formula_units_Z 16
_cell_length_a 5.038031
_cell_length_b 10.014952
_cell_length_c 23.495567
_cell_angle_alpha 138.546495
_cell_angle_beta 93.556196
_cell_angle_gamma 91.668135
_cell_volume 778.149384
_symmetry_space_group_name_H-M "P -1"
_symmetry_group_IT_number 2
_symmetry_cell_setting 'triclinic'
loop_
_space_group_symop_operation_xyz
x,y,z
-x,-y,-z
loop_
_atom_site_type_symbol
_atom_site_label
_atom_site_fract_x
_atom_site_fract_y
_atom_site_fract_z
Si Si1 0.096334 0.207632 0.599017
Si Si2 0.546978 0.692030 0.792094
Si Si3 0.581912 0.256108 0.820867
Si Si4 0.924283 0.924430 0.179485
Si Si5 0.919898 0.638711 0.990769
Si Si6 0.981472 0.369009 0.294538
Si Si7 0.630481 0.282659 0.700960
Si Si8 0.749471 0.061496 0.981311
O O1 0.073288 0.401755 0.619034
O O2 0.389063 0.210721 0.631417
O O3 0.900014 0.241442 0.659882
O O4 0.000000 0.000000 0.500000
O O5 0.230037 0.674759 0.774519
O O6 0.615842 0.524267 0.784161
O O7 0.709779 0.629600 0.718924
O O8 0.676608 0.912207 0.880026
O O9 0.283352 0.202062 0.821933
O O10 0.692056 0.491370 0.909140
O O11 0.602048 0.198305 0.736773
O O12 0.779168 0.127581 0.818387
O O13 0.910189 0.164165 0.263755
O O14 0.844857 0.837704 0.087320
O O15 0.000000 0.500000 0.000000
O O16 0.152257 0.719987 0.975314
O O17 0.500000 0.000000 0.000000
O O18 0.000000 0.000000 0.000000
#
# Coordination Sequence:
#
# PCOD9096441 Si02
#       8
#     2   2   2   2   2   2   2   2
#     4  10  21  39  67  93 114 150 190 247 313 378
#     4  10  20  36  55  79 110 153 191 244 301 352
#     4  11  23  38  59  87 121 166 206 250 302 346
#     4  11  22  38  61  82 119 166 216 247 288 353
#     4  10  24  40  59  85 122 171 221 259 290 354
#     4  10  20  36  61  83 114 147 198 242 295 355
#     4  10  21  38  61  88 125 148 195 247 309 371
#     4  12  25  37  56  82 118 159 206 264 314 345
#
# _framework density 20.561606999999999
#
# number of rings (size 3 to 8) (size 9 to 14) (size 15 to 20)
#    0.000    1.500    1.250    3.750    1.750    6.000 
#    0.000    0.000    0.000    4.500    0.000    0.000 
#    0.000    0.000    0.000    0.000    0.000    0.000 
#
# Total GULP energy -89248.604188 kJ/mol
# GULP energy per Si atom -5578.037762 kJ/mol
# Density = 2.051481 g / cm^3
# Si number density = 20.561607 Si / 1000 Ang^3
#
#
#
# Elastic Constant Matrix: (Units=GPa)
#
#
# Indices 1 2 3 4 5 6 
#
# 1 81.6780 14.6796 -1.4937 0.3512 4.5908 11.9276
# 2 14.6796 101.3776 33.9507 16.6093 1.9552 16.0263
# 3 -1.4937 33.9507 56.3453 25.7180 11.4135 1.7064
# 4 0.3512 16.6093 25.7180 34.5398 5.6779 -1.3111
# 5 4.5908 1.9552 11.4135 5.6779 19.5374 2.1924
# 6 11.9276 16.0263 1.7064 -1.3111 2.1924 33.2192
#
#
#
# Elastic Compliance Matrix: (Units=1/GPa)
#
#
# Indices 1 2 3 4 5 6 
#
# 1 0.013452 -0.002135 0.002917 -0.000763 -0.004012 -0.003715
# 2 -0.002135 0.014232 -0.008958 -0.001262 0.005355 -0.006043
# 3 0.002917 -0.008958 0.034958 -0.019253 -0.014806 0.001696
# 4 -0.000763 -0.001262 -0.019253 0.044332 -0.001750 0.003737
# 5 -0.004012 0.005355 -0.014806 -0.001750 0.061253 -0.004494
# 6 -0.003715 -0.006043 0.001696 0.003737 -0.004494 0.034709
#
#
# Mechanical properties :
#
#
# Convention : Reuss Voigt Hill
#
# Bulk Modulus (GPa) = 21.60314 37.07488 29.33901
# Shear Modulus (GPa) = 21.30223 30.27690 25.78957
#
# Velocity S-wave (km/s) = 3.22222 3.84148 3.54539
# Velocity P-wave (km/s) = 4.93690 6.14379 5.57311
#
# Compressibility (1/GPa) = 0.04628956
#
# Stress axis : x y z
#
# Youngs Moduli (GPa) = 74.34097 70.26511 28.60563
#
# Poissons Ratio (x) = 0.15000 -0.08343
# Poissons Ratio (y) = 0.15870 0.25624
# Poissons Ratio (z) = -0.21682 0.62942
#
# Static dielectric constant tensor:
#      x y z
#    x 1.743950 0.011700 -0.034240 
#    y 0.011700 1.796700 0.029040 
#    z -0.034240 0.029040 1.724370 
# 
# From -- ./inp_files/582070.got.cif
#   From: 2010.05.17/outbox.cif.g08.bks.cpg/sg2_292_cif.got.tgz:582070.got - 2010.06.03 11:33:40.
