data_PCOD9096148
_publ_section_title
;
Structure prediction by ZEFSAII (Michael W. Deem and Ramdas Pophale) SiO2 
 PCOD9096148
Probable space group: P -1
;
_chemical_formula_sum "Si O2"
_cell_formula_units_Z 13
_cell_length_a 9.957064
_cell_length_b 11.469221
_cell_length_c 5.024936
_cell_angle_alpha 73.890840
_cell_angle_beta 81.056289
_cell_angle_gamma 104.961911
_cell_volume 516.434260
_symmetry_space_group_name_H-M "P -1"
_symmetry_group_IT_number 2
_symmetry_cell_setting 'triclinic'
loop_
_space_group_symop_operation_xyz
x,y,z
-x,-y,-z
loop_
_atom_site_type_symbol
_atom_site_label
_atom_site_fract_x
_atom_site_fract_y
_atom_site_fract_z
Si Si1 0.873363 0.006921 0.836428
Si Si2 0.287944 0.663122 0.450690
Si Si3 0.408556 0.178661 0.774912
Si Si4 0.500000 0.500000 0.500000
Si Si5 0.049119 0.214314 0.314127
Si Si6 0.646928 0.683291 0.787165
Si Si7 0.900440 0.369193 0.976854
O O1 0.712324 0.952877 0.029472
O O2 0.882288 0.897136 0.699065
O O3 0.921158 0.143836 0.595533
O O4 0.000000 0.000000 0.000000
O O5 0.356487 0.549622 0.503644
O O6 0.233173 0.677733 0.751780
O O7 0.422447 0.790245 0.258588
O O8 0.159641 0.628571 0.298982
O O9 0.380066 0.291740 0.906533
O O10 0.376541 0.203979 0.463315
O O11 0.541663 0.568920 0.732161
O O12 0.191830 0.321069 0.298651
O O13 0.987717 0.268749 0.049435
O O14 0.000000 0.500000 0.000000
#
# Coordination Sequence:
#
# PCOD9096148 Si02
#       7
#     2   2   2   1   2   2   2
#     4  10  20  40  72 102 126 174 228 283 330 380
#     4  11  25  42  63  94 130 178 219 273 331 391
#     4  10  21  39  63  95 131 159 220 279 330 386
#     4  10  22  40  66  92 126 172 232 268 324 384
#     4  10  23  40  66 102 135 172 227 275 333 398
#     4  10  20  35  62  94 127 167 212 282 323 380
#     4  12  27  45  65  95 139 180 218 267 338 408
#
# _framework density 25.172611
#
# number of rings (size 3 to 8) (size 9 to 14) (size 15 to 20)
#    0.000    1.538    1.538    3.231    2.154   10.462 
#    0.000    1.538    0.000    0.000    0.000    0.000 
#    0.000    0.000    0.000    0.000    0.000    0.000 
#
# Total GULP energy -72380.015846 kJ/mol
# GULP energy per Si atom -5567.693527 kJ/mol
# Density = 2.511532 g / cm^3
# Si number density = 25.172611 Si / 1000 Ang^3
#
#
#
# Elastic Constant Matrix: (Units=GPa)
#
#
# Indices 1 2 3 4 5 6 
#
# 1 98.2764 24.5971 16.3552 -10.3019 16.0031 27.8726
# 2 24.5971 44.8738 18.4794 11.7280 14.4254 9.5428
# 3 16.3552 18.4794 69.2532 15.8609 8.7420 7.0236
# 4 -10.3019 11.7280 15.8609 19.6906 7.7429 8.1898
# 5 16.0031 14.4254 8.7420 7.7429 55.9859 -2.0934
# 6 27.8726 9.5428 7.0236 8.1898 -2.0934 47.1603
#
#
#
# Elastic Compliance Matrix: (Units=1/GPa)
#
#
# Indices 1 2 3 4 5 6 
#
# 1 0.026262 -0.014700 -0.008586 0.040610 -0.008694 -0.018706
# 2 -0.014700 0.037593 0.000387 -0.032888 -0.000746 0.006702
# 3 -0.008586 0.000387 0.021219 -0.025587 0.002819 0.006404
# 4 0.040610 -0.032888 -0.025587 0.135607 -0.019312 -0.037943
# 5 -0.008694 -0.000746 0.002819 -0.019312 0.023115 0.009249
# 6 -0.018706 0.006702 0.006404 -0.037943 0.009249 0.036950
#
#
# Mechanical properties :
#
#
# Convention : Reuss Voigt Hill
#
# Bulk Modulus (GPa) = 25.46100 36.80743 31.13421
# Shear Modulus (GPa) = 14.72169 34.76548 24.74358
#
# Velocity S-wave (km/s) = 2.42095 3.72032 3.13862
# Velocity P-wave (km/s) = 4.23688 5.75397 5.05269
#
# Compressibility (1/GPa) = 0.03927576
#
# Stress axis : x y z
#
# Youngs Moduli (GPa) = 38.07850 26.60079 47.12786
#
# Poissons Ratio (x) = 0.39103 0.40463
# Poissons Ratio (y) = 0.55976 -0.01824
# Poissons Ratio (z) = 0.32694 -0.01030
#
# Static dielectric constant tensor:
#      x y z
#    x 1.959790 -0.109060 0.032620 
#    y -0.109060 1.550750 0.366140 
#    z 0.032620 0.366140 1.622340 
# 
# From -- ./inp_files/23436.got.cif
#   From: 2010.05.17/outbox.cif.g08.bks.cpg/sg2_12_cif.got.tgz:23436.got - 2010.06.03 11:33:40.
