data_PCOD9096238
_publ_section_title
;
Structure prediction by ZEFSAII (Michael W. Deem and Ramdas Pophale) SiO2 
 PCOD9096238
Probable space group: P -1
;
_chemical_formula_sum "Si O2"
_cell_formula_units_Z 16
_cell_length_a 5.164640
_cell_length_b 8.182113
_cell_length_c 19.935948
_cell_angle_alpha 123.263284
_cell_angle_beta 89.142417
_cell_angle_gamma 102.936599
_cell_volume 680.504280
_symmetry_space_group_name_H-M "P -1"
_symmetry_group_IT_number 2
_symmetry_cell_setting 'triclinic'
loop_
_space_group_symop_operation_xyz
x,y,z
-x,-y,-z
loop_
_atom_site_type_symbol
_atom_site_label
_atom_site_fract_x
_atom_site_fract_y
_atom_site_fract_z
Si Si1 0.624911 0.160997 0.400642
Si Si2 0.815288 0.215252 0.264137
Si Si3 0.770310 0.408820 0.035044
Si Si4 0.595019 0.561577 0.730127
Si Si5 0.976872 0.117932 0.642612
Si Si6 0.491248 0.217595 0.876125
Si Si7 0.331906 0.767606 0.442354
Si Si8 0.106315 0.577465 0.184826
O O1 0.725504 0.248987 0.347845
O O2 0.312715 0.036536 0.372906
O O3 0.683631 0.308495 0.498265
O O4 0.804068 0.004773 0.379906
O O5 0.641536 0.329703 0.245687
O O6 0.130103 0.295693 0.269431
O O7 0.720521 0.980863 0.191888
O O8 0.613978 0.581473 0.084356
O O9 0.914884 0.398504 0.102483
O O10 0.585393 0.218465 0.953503
O O11 0.000000 0.500000 0.000000
O O12 0.542310 0.367800 0.637738
O O13 0.681983 0.498283 0.787893
O O14 0.933031 0.211069 0.591197
O O15 0.033460 0.298934 0.736422
O O16 0.739129 0.259053 0.833272
O O17 0.500000 0.000000 0.500000
#
# Coordination Sequence:
#
# PCOD9096238 Si02
#       8
#     2   2   2   2   2   2   2   2
#     4  11  21  37  63  88 124 172 211 261 323 385
#     4  12  26  43  63  97 137 175 210 266 337 387
#     4   9  20  37  69 103 122 158 228 268 309 374
#     4  11  28  43  63  97 136 171 218 269 328 389
#     4  10  20  35  63  98 117 161 222 265 315 369
#     4  10  21  40  70  95 129 168 218 267 317 389
#     4   9  22  42  66  94 128 168 223 277 318 377
#     4  10  21  39  66  91 128 172 219 268 311 386
#
# _framework density 23.511975
#
# number of rings (size 3 to 8) (size 9 to 14) (size 15 to 20)
#    0.000    1.750    1.250    1.875    5.250    8.000 
#    0.000    1.250    0.000    0.000    0.000    0.000 
#    0.000    0.000    0.000    0.000    0.000    0.000 
#
# Total GULP energy -89494.529783 kJ/mol
# GULP energy per Si atom -5593.408111 kJ/mol
# Density = 2.345846 g / cm^3
# Si number density = 23.511975 Si / 1000 Ang^3
#
#
#
# Elastic Constant Matrix: (Units=GPa)
#
#
# Indices 1 2 3 4 5 6 
#
# 1 85.1170 8.8095 9.3212 -2.3763 6.0411 5.5617
# 2 8.8095 38.0727 31.6028 -8.7861 7.0590 0.7361
# 3 9.3212 31.6028 151.8852 -33.4684 17.9801 5.1905
# 4 -2.3763 -8.7861 -33.4684 29.4659 -1.9145 6.5347
# 5 6.0411 7.0590 17.9801 -1.9145 26.9041 7.8820
# 6 5.5617 0.7361 5.1905 6.5347 7.8820 37.0688
#
#
#
# Elastic Compliance Matrix: (Units=1/GPa)
#
#
# Indices 1 2 3 4 5 6 
#
# 1 0.012228 -0.002466 0.000167 0.000677 -0.001703 -0.001566
# 2 -0.002466 0.032923 -0.005600 0.002758 -0.004426 0.000955
# 3 0.000167 -0.005600 0.010691 0.010744 -0.004245 -0.002402
# 4 0.000677 0.002758 0.010744 0.049123 -0.001639 -0.009972
# 5 -0.001703 -0.004426 -0.004245 -0.001639 0.043802 -0.008087
# 6 -0.001566 0.000955 -0.002402 -0.009972 -0.008087 0.031007
#
#
# Mechanical properties :
#
#
# Convention : Reuss Voigt Hill
#
# Bulk Modulus (GPa) = 24.97230 41.61575 33.29403
# Shear Modulus (GPa) = 23.93286 33.71052 28.82169
#
# Velocity S-wave (km/s) = 3.19392 3.79061 3.50498
# Velocity P-wave (km/s) = 4.92399 6.07425 5.52911
#
# Compressibility (1/GPa) = 0.04004437
#
# Stress axis : x y z
#
# Youngs Moduli (GPa) = 81.78246 30.37398 93.53802
#
# Poissons Ratio (x) = 0.07489 -0.01562
# Poissons Ratio (y) = 0.20164 0.52381
# Poissons Ratio (z) = -0.01366 0.17009
#
# Static dielectric constant tensor:
#      x y z
#    x 1.949940 0.044840 0.010380 
#    y 0.044840 1.926890 -0.070090 
#    z 0.010380 -0.070090 1.933420 
# 
# From -- ./inp_files/137515.got.cif
#   From: 2010.05.17/outbox.cif.g08.bks.cpg/sg2_69_cif.got.tgz:137515.got - 2010.06.03 11:33:40.
