data_PCOD9096325
_publ_section_title
;
Structure prediction by ZEFSAII (Michael W. Deem and Ramdas Pophale) SiO2 
 PCOD9096325
Probable space group: P -1
;
_chemical_formula_sum "Si O2"
_cell_formula_units_Z 16
_cell_length_a 9.129956
_cell_length_b 15.458181
_cell_length_c 8.185257
_cell_angle_alpha 78.082066
_cell_angle_beta 75.113754
_cell_angle_gamma 130.526930
_cell_volume 730.762930
_symmetry_space_group_name_H-M "P -1"
_symmetry_group_IT_number 2
_symmetry_cell_setting 'triclinic'
loop_
_space_group_symop_operation_xyz
x,y,z
-x,-y,-z
loop_
_atom_site_type_symbol
_atom_site_label
_atom_site_fract_x
_atom_site_fract_y
_atom_site_fract_z
Si Si1 0.401944 0.357686 0.063350
Si Si2 0.675657 0.461232 0.471025
Si Si3 0.359790 0.682785 0.207319
Si Si4 0.973285 0.400040 0.942322
Si Si5 0.827348 0.857397 0.519820
Si Si6 0.065933 0.806308 0.916832
Si Si7 0.766508 0.935412 0.178286
Si Si8 0.845330 0.711944 0.367790
O O1 0.358152 0.269510 0.260212
O O2 0.152476 0.261761 0.098149
O O3 0.500000 0.500000 0.000000
O O4 0.550580 0.366238 0.890679
O O5 0.733433 0.394064 0.564301
O O6 0.780411 0.513845 0.239806
O O7 0.796912 0.592182 0.486018
O O8 0.407714 0.363856 0.579415
O O9 0.573188 0.834057 0.140109
O O10 0.187927 0.653587 0.145764
O O11 0.000000 0.500000 0.000000
O O12 0.880917 0.272540 0.109374
O O13 0.734495 0.867060 0.382148
O O14 0.949755 0.823692 0.423947
O O15 0.000000 0.000000 0.500000
O O16 0.229405 0.961024 0.806543
O O17 0.993459 0.773540 0.140346
O O18 0.000000 0.000000 0.000000
#
# Coordination Sequence:
#
# PCOD9096325 Si02
#       8
#     2   2   2   2   2   2   2   2
#     4  12  24  36  65 101 133 169 221 281 334 375
#     4  10  20  40  64  91 126 167 221 265 325 390
#     4  12  23  41  66  90 128 180 216 267 331 398
#     4  11  27  42  63  95 135 172 217 274 339 396
#     4  12  22  35  62 103 134 163 209 283 341 378
#     4  11  22  44  63  93 133 172 218 275 326 396
#     4  12  21  42  67  96 129 170 228 276 323 402
#     4  10  20  35  66  95 121 166 218 270 317 393
#
# _framework density 21.894926000000002
#
# number of rings (size 3 to 8) (size 9 to 14) (size 15 to 20)
#    0.000    0.750    6.250    1.875    5.250    0.500 
#    0.000    0.000    0.000    1.500    0.000    0.000 
#    0.000    0.000    0.000    0.000    0.000    0.000 
#
# Total GULP energy -89287.981249 kJ/mol
# GULP energy per Si atom -5580.498828 kJ/mol
# Density = 2.184509 g / cm^3
# Si number density = 21.894926 Si / 1000 Ang^3
#
#
#
# Elastic Constant Matrix: (Units=GPa)
#
#
# Indices 1 2 3 4 5 6 
#
# 1 68.3745 28.5973 1.5863 -14.2738 14.5558 -7.2461
# 2 28.5973 170.5423 19.4313 -15.0035 2.4235 -27.8865
# 3 1.5863 19.4313 66.0690 -7.7446 26.2944 -10.9766
# 4 -14.2738 -15.0035 -7.7446 28.4277 -9.4590 4.6234
# 5 14.5558 2.4235 26.2944 -9.4590 26.6460 -2.7774
# 6 -7.2461 -27.8865 -10.9766 4.6234 -2.7774 48.8770
#
#
#
# Elastic Compliance Matrix: (Units=1/GPa)
#
#
# Indices 1 2 3 4 5 6 
#
# 1 0.020731 -0.003499 0.008202 0.004821 -0.017234 0.001484
# 2 -0.003499 0.007533 -0.003804 0.002782 0.006283 0.003019
# 3 0.008202 -0.003804 0.030043 -0.001655 -0.033949 0.004020
# 4 0.004821 0.002782 -0.001655 0.043515 0.014049 -0.001388
# 5 -0.017234 0.006283 -0.033949 0.014049 0.084535 -0.003120
# 6 0.001484 0.003019 0.004020 -0.001388 -0.003120 0.023258
#
#
# Mechanical properties :
#
#
# Convention : Reuss Voigt Hill
#
# Bulk Modulus (GPa) = 16.63790 44.91282 30.77536
# Shear Modulus (GPa) = 21.94395 37.81488 29.87942
#
# Velocity S-wave (km/s) = 3.16925 4.16036 3.69816
# Velocity P-wave (km/s) = 4.58341 6.60572 5.68521
#
# Compressibility (1/GPa) = 0.06010372
#
# Stress axis : x y z
#
# Youngs Moduli (GPa) = 48.23667 132.75110 33.28597
#
# Poissons Ratio (x) = 0.46452 -0.27301
# Poissons Ratio (y) = 0.16879 0.12663
# Poissons Ratio (z) = -0.39563 0.50501
#
# Static dielectric constant tensor:
#      x y z
#    x 1.826300 -0.040560 0.019750 
#    y -0.040560 1.861500 -0.005620 
#    z 0.019750 -0.005620 1.900850 
# 
# From -- ./inp_files/206862.got.cif
#   From: 2010.05.17/outbox.cif.g08.bks.cpg/sg2_104_cif.got.tgz:206862.got - 2010.06.03 11:33:40.
