data_PCOD9096925
_publ_section_title
;
Structure prediction by ZEFSAII (Michael W. Deem and Ramdas Pophale) SiO2 
 PCOD9096925
Probable space group: P -1
;
_chemical_formula_sum "Si O2"
_cell_formula_units_Z 12
_cell_length_a 9.922006
_cell_length_b 12.175215
_cell_length_c 8.976414
_cell_angle_alpha 51.008005
_cell_angle_beta 147.261212
_cell_angle_gamma 116.195095
_cell_volume 445.739846
_symmetry_space_group_name_H-M "P -1"
_symmetry_group_IT_number 2
_symmetry_cell_setting 'triclinic'
loop_
_space_group_symop_operation_xyz
x,y,z
-x,-y,-z
loop_
_atom_site_type_symbol
_atom_site_label
_atom_site_fract_x
_atom_site_fract_y
_atom_site_fract_z
Si Si1 0.574723 0.424515 0.478721
Si Si2 0.312433 0.902376 0.773823
Si Si3 0.269601 0.344915 0.030767
Si Si4 0.307174 0.642174 0.820440
Si Si5 0.290430 0.074913 0.119449
Si Si6 0.112924 0.858816 0.934183
O O1 0.500000 0.500000 0.500000
O O2 0.375179 0.330671 0.310128
O O3 0.838048 0.309523 0.835257
O O4 0.533430 0.556631 0.212373
O O5 0.176637 0.784104 0.666584
O O6 0.568098 0.884839 0.931639
O O7 0.313677 0.870284 0.977044
O O8 0.148944 0.061016 0.452625
O O9 0.544015 0.325637 0.213916
O O10 0.153239 0.223383 0.945281
O O11 0.151298 0.515828 0.761251
O O12 0.500000 0.000000 0.500000
O O13 0.144520 0.956673 0.022385
#
# Coordination Sequence:
#
# PCOD9096925 Si02
#       6
#     2   2   2   2   2   2
#     4  10  16  30  57  78 101 143 184 218 266 325
#     4  10  22  36  56  81 114 143 183 226 268 323
#     4   8  16  30  51  74 105 138 178 216 263 323
#     4   8  15  32  51  74 106 141 175 219 264 317
#     4  11  20  36  55  82 113 144 181 225 275 321
#     4  11  21  36  56  85 110 144 182 224 275 323
#
# _framework density 26.921534000000001
#
# number of rings (size 3 to 8) (size 9 to 14) (size 15 to 20)
#    1.000    1.333    3.333    0.500    0.000    0.667 
#    0.000    0.833    0.000    7.000    0.000    0.000 
#    0.000    0.000    0.000    0.000    0.000    0.000 
#
# Total GULP energy -67030.721752 kJ/mol
# GULP energy per Si atom -5585.893479 kJ/mol
# Density = 2.686026 g / cm^3
# Si number density = 26.921534 Si / 1000 Ang^3
#
#
#
# Elastic Constant Matrix: (Units=GPa)
#
#
# Indices 1 2 3 4 5 6 
#
# 1 102.1564 56.6815 25.4018 7.8234 -10.9959 -18.6689
# 2 56.6815 179.2573 32.7356 -14.4391 -9.4912 -36.1088
# 3 25.4018 32.7356 113.2685 -21.4586 -7.0708 -2.8888
# 4 7.8234 -14.4391 -21.4586 55.5855 -8.2969 -7.3727
# 5 -10.9959 -9.4912 -7.0708 -8.2969 31.3446 0.2165
# 6 -18.6689 -36.1088 -2.8888 -7.3727 0.2165 53.4615
#
#
#
# Elastic Compliance Matrix: (Units=1/GPa)
#
#
# Indices 1 2 3 4 5 6 
#
# 1 0.013093 -0.003523 -0.002333 -0.003120 0.002163 0.001628
# 2 -0.003523 0.008119 -0.000708 0.003230 0.001886 0.004653
# 3 -0.002333 -0.000708 0.010587 0.004603 0.002574 -0.000096
# 4 -0.003120 0.003230 0.004603 0.022662 0.006890 0.004439
# 5 0.002163 0.001886 0.002574 0.006890 0.035617 0.002974
# 6 0.001628 0.004653 -0.000096 0.004439 0.002974 0.023011
#
#
# Mechanical properties :
#
#
# Convention : Reuss Voigt Hill
#
# Bulk Modulus (GPa) = 53.55758 69.36889 61.46323
# Shear Modulus (GPa) = 37.75284 46.73587 42.24435
#
# Velocity S-wave (km/s) = 3.74883 4.17106 3.96557
# Velocity P-wave (km/s) = 6.21896 7.00143 6.62176
#
# Compressibility (1/GPa) = 0.01867150
#
# Stress axis : x y z
#
# Youngs Moduli (GPa) = 76.37802 123.16491 94.45937
#
# Poissons Ratio (x) = 0.43390 0.22033
# Poissons Ratio (y) = 0.26907 0.06689
# Poissons Ratio (z) = 0.17815 0.08721
#
# Static dielectric constant tensor:
#      x y z
#    x 2.250050 0.163920 0.089810 
#    y 0.163920 2.255930 0.070350 
#    z 0.089810 0.070350 2.197420 
# 
# From -- ./inp_files/194058.got.cif
#   From: 2010.05.17/outbox.cif.g08.bks.cpg/sg2_98_cif.got.tgz:194058.got - 2010.06.03 11:33:40.
