data_PCOD9096399
_publ_section_title
;
Structure prediction by ZEFSAII (Michael W. Deem and Ramdas Pophale) SiO2 
 PCOD9096399
Probable space group: P -1
;
_chemical_formula_sum "Si O2"
_cell_formula_units_Z 16
_cell_length_a 17.868088
_cell_length_b 9.853310
_cell_length_c 5.202650
_cell_angle_alpha 86.610324
_cell_angle_beta 96.945575
_cell_angle_gamma 116.440516
_cell_volume 814.130505
_symmetry_space_group_name_H-M "P -1"
_symmetry_group_IT_number 2
_symmetry_cell_setting 'triclinic'
loop_
_space_group_symop_operation_xyz
x,y,z
-x,-y,-z
loop_
_atom_site_type_symbol
_atom_site_label
_atom_site_fract_x
_atom_site_fract_y
_atom_site_fract_z
Si Si1 0.809007 0.847865 0.232158
Si Si2 0.640411 0.356572 0.685974
Si Si3 0.842630 0.053030 0.720816
Si Si4 0.599479 0.080740 0.002743
Si Si5 0.493459 0.621012 0.680237
Si Si6 0.304099 0.864025 0.458330
Si Si7 0.360141 0.387898 0.039843
Si Si8 0.017335 0.105297 0.745438
O O1 0.816920 0.921373 0.507696
O O2 0.882663 0.793482 0.233513
O O3 0.825808 0.975771 0.004071
O O4 0.718199 0.716472 0.149810
O O5 0.625639 0.258838 0.949295
O O6 0.551419 0.295559 0.504754
O O7 0.700130 0.304074 0.555101
O O8 0.666850 0.529310 0.754084
O O9 0.783685 0.133818 0.630617
O O10 0.943008 0.156701 0.717673
O O11 0.631806 0.044053 0.753352
O O12 0.651914 0.065331 0.263683
O O13 0.500000 0.000000 0.000000
O O14 0.500000 0.500000 0.500000
O O15 0.587062 0.699272 0.824281
O O16 0.428433 0.523585 0.883755
O O17 0.000000 0.000000 0.500000
O O18 0.000000 0.000000 0.000000
#
# Coordination Sequence:
#
# PCOD9096399 Si02
#       8
#     2   2   2   2   2   2   2   2
#     4  10  21  34  58  85 110 142 176 224 272 328
#     4   9  21  35  56  70 109 143 184 213 277 308
#     4  10  20  37  54  86 114 137 178 222 276 327
#     4  10  21  37  52  77 103 140 188 223 264 311
#     4   9  19  36  49  75 102 150 177 226 262 306
#     4  10  21  37  53  78 105 146 178 215 275 314
#     4  10  20  36  54  79 109 139 191 219 270 318
#     4   8  16  33  55  78 111 140 168 217 277 324
#
# _framework density 19.65287
#
# number of rings (size 3 to 8) (size 9 to 14) (size 15 to 20)
#    0.750    1.750    0.000    1.875    3.500    1.000 
#   13.500    0.000    0.000    0.750    0.000    1.750 
#    0.000    0.000    0.000    0.000    0.000    0.000 
#
# Total GULP energy -89079.889635 kJ/mol
# GULP energy per Si atom -5567.493102 kJ/mol
# Density = 1.960814 g / cm^3
# Si number density = 19.652870 Si / 1000 Ang^3
#
#
#
# Elastic Constant Matrix: (Units=GPa)
#
#
# Indices 1 2 3 4 5 6 
#
# 1 137.4857 12.9172 7.7972 -5.0843 35.1318 -3.6596
# 2 12.9172 21.5051 -6.6431 4.1959 5.3387 -3.5112
# 3 7.7972 -6.6431 94.9143 -9.2800 7.0384 0.1037
# 4 -5.0843 4.1959 -9.2800 15.1322 2.2746 9.1291
# 5 35.1318 5.3387 7.0384 2.2746 35.2290 1.8430
# 6 -3.6596 -3.5112 0.1037 9.1291 1.8430 21.4160
#
#
#
# Elastic Compliance Matrix: (Units=1/GPa)
#
#
# Indices 1 2 3 4 5 6 
#
# 1 0.010640 -0.005513 0.000254 0.007696 -0.010245 -0.001486
# 2 -0.005513 0.060822 0.001951 -0.030474 -0.003308 0.022295
# 3 0.000254 0.001951 0.011815 0.009334 -0.003335 -0.003386
# 4 0.007696 -0.030474 0.009334 0.115832 -0.009666 -0.052271
# 5 -0.010245 -0.003308 -0.003335 -0.009666 0.040480 -0.001640
# 6 -0.001486 0.022295 -0.003386 -0.052271 -0.001640 0.072535
#
#
# Mechanical properties :
#
#
# Convention : Reuss Voigt Hill
#
# Bulk Modulus (GPa) = 13.04450 31.33864 22.19157
# Shear Modulus (GPa) = 14.52245 30.34436 22.43340
#
# Velocity S-wave (km/s) = 2.72131 3.93366 3.38225
# Velocity P-wave (km/s) = 4.06520 6.05081 5.15452
#
# Compressibility (1/GPa) = 0.07666068
#
# Stress axis : x y z
#
# Youngs Moduli (GPa) = 93.98435 16.44137 84.63719
#
# Poissons Ratio (x) = 0.09065 -0.02148
# Poissons Ratio (y) = 0.51817 -0.16515
# Poissons Ratio (z) = -0.02386 -0.03208
#
# Static dielectric constant tensor:
#      x y z
#    x 1.745930 -0.024380 0.001150 
#    y -0.024380 1.716480 -0.002230 
#    z 0.001150 -0.002230 1.755040 
# 
# From -- ./inp_files/93673.got.cif
#   From: 2010.05.17/outbox.cif.g08.bks.cpg/sg2_47_cif.got.tgz:93673.got - 2010.06.03 11:33:40.
