data_PCOD9096186
_publ_section_title
;
Structure prediction by ZEFSAII (Michael W. Deem and Ramdas Pophale) SiO2 
 PCOD9096186
Probable space group: P -1
;
_chemical_formula_sum "Si O2"
_cell_formula_units_Z 16
_cell_length_a 9.820798
_cell_length_b 16.222229
_cell_length_c 8.868821
_cell_angle_alpha 75.916372
_cell_angle_beta 136.389106
_cell_angle_gamma 125.558303
_cell_volume 752.035250
_symmetry_space_group_name_H-M "P -1"
_symmetry_group_IT_number 2
_symmetry_cell_setting 'triclinic'
loop_
_space_group_symop_operation_xyz
x,y,z
-x,-y,-z
loop_
_atom_site_type_symbol
_atom_site_label
_atom_site_fract_x
_atom_site_fract_y
_atom_site_fract_z
Si Si1 0.243725 0.177065 0.048310
Si Si2 0.357249 0.667910 0.913024
Si Si3 0.834767 0.569934 0.662889
Si Si4 0.493188 0.361464 0.653674
Si Si5 0.956926 0.258415 0.703750
Si Si6 0.276439 0.486500 0.737150
Si Si7 0.492926 0.186778 0.553840
Si Si8 0.269393 0.963198 0.440484
O O1 0.459612 0.221784 0.077779
O O2 0.180500 0.261909 0.954907
O O3 0.341989 0.171725 0.288149
O O4 0.977761 0.071063 0.831790
O O5 0.516938 0.656829 0.168097
O O6 0.251238 0.572097 0.752227
O O7 0.126155 0.644458 0.831108
O O8 0.737137 0.479362 0.750948
O O9 0.731207 0.636872 0.579876
O O10 0.701426 0.505181 0.428740
O O11 0.493077 0.269181 0.620130
O O12 0.766682 0.234877 0.692411
O O13 0.826341 0.155038 0.533403
O O14 0.047933 0.364574 0.644988
O O15 0.500000 0.500000 0.000000
O O16 0.367076 0.067486 0.569876
O O17 0.500000 0.000000 0.500000
#
# Coordination Sequence:
#
# PCOD9096186 Si02
#       8
#     2   2   2   2   2   2   2   2
#     4  10  20  35  63  86 112 147 190 243 287 328
#     4  12  23  39  59  87 120 154 191 238 289 343
#     4  11  24  40  57  84 120 157 197 234 282 343
#     4  11  25  39  56  84 124 159 189 231 289 350
#     4   9  20  33  57  91 111 141 190 245 287 325
#     4  12  19  37  63  83 116 150 194 239 283 336
#     4  11  20  37  61  86 113 150 194 235 291 341
#     4   8  18  37  58  90 113 140 189 250 282 331
#
# _framework density 21.275599
#
# number of rings (size 3 to 8) (size 9 to 14) (size 15 to 20)
#    0.750    0.750    2.500    3.375    0.000    1.000 
#    0.000    0.625    0.000    0.750    0.000    0.000 
#    0.000    0.000    0.000    0.000    0.000    0.000 
#
# Total GULP energy -89260.286973 kJ/mol
# GULP energy per Si atom -5578.767936 kJ/mol
# Density = 2.122717 g / cm^3
# Si number density = 21.275599 Si / 1000 Ang^3
#
#
#
# Elastic Constant Matrix: (Units=GPa)
#
#
# Indices 1 2 3 4 5 6 
#
# 1 74.7370 31.7436 13.1474 12.8354 14.6138 -15.8823
# 2 31.7436 100.5140 20.2305 12.6785 -0.4204 -12.2617
# 3 13.1474 20.2305 45.7740 1.0340 14.8936 9.0409
# 4 12.8354 12.6785 1.0340 24.3414 3.9216 1.7823
# 5 14.6138 -0.4204 14.8936 3.9216 40.2102 -3.5682
# 6 -15.8823 -12.2617 9.0409 1.7823 -3.5682 35.0897
#
#
#
# Elastic Compliance Matrix: (Units=1/GPa)
#
#
# Indices 1 2 3 4 5 6 
#
# 1 0.019661 -0.003105 -0.004625 -0.008601 -0.003823 0.009054
# 2 -0.003105 0.014345 -0.008468 -0.006882 0.005682 0.006716
# 3 -0.004625 -0.008468 0.034133 0.008685 -0.013285 -0.015639
# 4 -0.008601 -0.006882 0.008685 0.050683 -0.006147 -0.011735
# 5 -0.003823 0.005682 -0.013285 -0.006147 0.032485 0.007294
# 6 0.009054 0.006716 -0.015639 -0.011735 0.007294 0.040311
#
#
# Mechanical properties :
#
#
# Convention : Reuss Voigt Hill
#
# Bulk Modulus (GPa) = 27.97770 39.02978 33.50374
# Shear Modulus (GPa) = 21.19285 30.32182 25.75733
#
# Velocity S-wave (km/s) = 3.15955 3.77927 3.48322
# Velocity P-wave (km/s) = 5.14675 6.11788 5.65321
#
# Compressibility (1/GPa) = 0.03574275
#
# Stress axis : x y z
#
# Youngs Moduli (GPa) = 50.86116 69.71058 29.29736
#
# Poissons Ratio (x) = 0.21645 0.13550
# Poissons Ratio (y) = 0.15793 0.24809
# Poissons Ratio (z) = 0.23524 0.59032
#
# Static dielectric constant tensor:
#      x y z
#    x 1.770690 -0.016530 0.044360 
#    y -0.016530 1.811080 0.013070 
#    z 0.044360 0.013070 1.812130 
# 
# From -- ./inp_files/215230.got.cif
#   From: 2010.05.17/outbox.cif.g08.bks.cpg/sg2_108_cif.got.tgz:215230.got - 2010.06.03 11:33:40.
