data_PCOD9096201
_publ_section_title
;
Structure prediction by ZEFSAII (Michael W. Deem and Ramdas Pophale) SiO2 
 PCOD9096201
Probable space group: P -1
;
_chemical_formula_sum "Si O2"
_cell_formula_units_Z 16
_cell_length_a 15.069521
_cell_length_b 8.166998
_cell_length_c 9.208345
_cell_angle_alpha 90.201240
_cell_angle_beta 63.211086
_cell_angle_gamma 49.312138
_cell_volume 689.139134
_symmetry_space_group_name_H-M "P -1"
_symmetry_group_IT_number 2
_symmetry_cell_setting 'triclinic'
loop_
_space_group_symop_operation_xyz
x,y,z
-x,-y,-z
loop_
_atom_site_type_symbol
_atom_site_label
_atom_site_fract_x
_atom_site_fract_y
_atom_site_fract_z
Si Si1 0.459837 0.661774 0.394897
Si Si2 0.331475 0.605991 0.260855
Si Si3 0.579691 0.697563 0.064343
Si Si4 0.953819 0.703319 0.932630
Si Si5 0.154955 0.637657 0.583394
Si Si6 0.078986 0.186943 0.474205
Si Si7 0.137060 0.025763 0.719599
Si Si8 0.269292 0.153083 0.141782
O O1 0.500000 0.500000 0.500000
O O2 0.456713 0.547585 0.255433
O O3 0.554947 0.692035 0.254187
O O4 0.296105 0.909942 0.562601
O O5 0.304251 0.480075 0.384214
O O6 0.202478 0.895475 0.365322
O O7 0.346404 0.533431 0.086286
O O8 0.678514 0.736937 0.960022
O O9 0.420914 0.906028 0.101871
O O10 0.819151 0.832332 0.922253
O O11 0.904760 0.900026 0.084155
O O12 0.000000 0.500000 0.000000
O O13 0.101051 0.572017 0.737647
O O14 0.138329 0.832728 0.676785
O O15 0.045974 0.735561 0.532047
O O16 0.036238 0.238382 0.675122
O O17 0.152576 0.264369 0.359580
#
# Coordination Sequence:
#
# PCOD9096201 Si02
#       8
#     2   2   2   2   2   2   2   2
#     4  10  22  37  61  93 121 152 199 252 299 355
#     4  10  20  35  63  90 115 150 204 246 296 355
#     4  11  22  41  61  88 123 160 207 242 294 367
#     4  11  25  40  59  86 126 160 203 247 305 364
#     4   9  20  39  60  90 116 155 197 254 301 355
#     4   9  18  38  61  88 118 152 202 248 300 353
#     4  10  20  38  60  86 121 154 197 249 304 351
#     4  10  23  40  60  85 122 164 200 244 300 357
#
# _framework density 23.217374
#
# number of rings (size 3 to 8) (size 9 to 14) (size 15 to 20)
#    0.000    2.250    2.500    2.250    1.750    6.000 
#    0.000    3.125    0.000    0.000    0.000    0.000 
#    0.000    0.000    0.000    0.000    0.000    0.000 
#
# Total GULP energy -89134.241304 kJ/mol
# GULP energy per Si atom -5570.890081 kJ/mol
# Density = 2.316453 g / cm^3
# Si number density = 23.217374 Si / 1000 Ang^3
#
#
#
# Elastic Constant Matrix: (Units=GPa)
#
#
# Indices 1 2 3 4 5 6 
#
# 1 58.6891 5.3893 21.0516 -2.8953 -5.1775 5.0442
# 2 5.3893 41.5775 22.2604 -18.7624 -0.1713 -0.1249
# 3 21.0516 22.2604 124.3744 -30.3773 -12.3390 3.9290
# 4 -2.8953 -18.7624 -30.3773 39.3758 6.2648 -2.6169
# 5 -5.1775 -0.1713 -12.3390 6.2648 45.1651 -10.0901
# 6 5.0442 -0.1249 3.9290 -2.6169 -10.0901 15.3259
#
#
#
# Elastic Compliance Matrix: (Units=1/GPa)
#
#
# Indices 1 2 3 4 5 6 
#
# 1 0.018750 -0.001797 -0.003226 -0.002391 0.000357 -0.005532
# 2 -0.001797 0.031692 -0.002309 0.013678 -0.002075 0.002411
# 3 -0.003226 -0.002309 0.010807 0.006757 0.001768 0.000590
# 4 -0.002391 0.013678 0.006757 0.037640 -0.002753 0.003781
# 5 0.000357 -0.002075 0.001768 -0.002753 0.026735 0.016544
# 6 -0.005532 0.002411 0.000590 0.003781 0.016544 0.078475
#
#
# Mechanical properties :
#
#
# Convention : Reuss Voigt Hill
#
# Bulk Modulus (GPa) = 21.46669 35.78265 28.62467
# Shear Modulus (GPa) = 21.34091 31.70266 26.52178
#
# Velocity S-wave (km/s) = 3.03508 3.69924 3.38350
# Velocity P-wave (km/s) = 4.64202 5.80442 5.25546
#
# Compressibility (1/GPa) = 0.04658380
#
# Stress axis : x y z
#
# Youngs Moduli (GPa) = 53.33321 31.55388 92.53457
#
# Poissons Ratio (x) = 0.05672 0.29849
# Poissons Ratio (y) = 0.09586 0.21369
# Poissons Ratio (z) = 0.17204 0.07287
#
# Static dielectric constant tensor:
#      x y z
#    x 1.913900 -0.002360 -0.021610 
#    y -0.002360 2.038500 -0.015260 
#    z -0.021610 -0.015260 1.955300 
# 
# From -- ./inp_files/205956.got.cif
#   From: 2010.05.17/outbox.cif.g08.bks.cpg/sg2_103_cif.got.tgz:205956.got - 2010.06.03 11:33:40.
