data_PCOD9096543
_publ_section_title
;
Structure prediction by ZEFSAII (Michael W. Deem and Ramdas Pophale) SiO2 
 PCOD9096543
Probable space group: P -1
;
_chemical_formula_sum "Si O2"
_cell_formula_units_Z 16
_cell_length_a 9.019369
_cell_length_b 9.652166
_cell_length_c 11.771489
_cell_angle_alpha 119.726725
_cell_angle_beta 102.953480
_cell_angle_gamma 46.906987
_cell_volume 639.161184
_symmetry_space_group_name_H-M "P -1"
_symmetry_group_IT_number 2
_symmetry_cell_setting 'triclinic'
loop_
_space_group_symop_operation_xyz
x,y,z
-x,-y,-z
loop_
_atom_site_type_symbol
_atom_site_label
_atom_site_fract_x
_atom_site_fract_y
_atom_site_fract_z
Si Si1 0.944423 0.366253 0.884229
Si Si2 0.664877 0.696051 0.462559
Si Si3 0.876120 0.205767 0.240268
Si Si4 0.299682 0.237627 0.754169
Si Si5 0.618807 0.770509 0.864406
Si Si6 0.757417 0.854339 0.740393
Si Si7 0.269905 0.632150 0.963204
Si Si8 0.391756 0.745181 0.611100
O O1 0.719699 0.562931 0.874033
O O2 0.127715 0.235136 0.769067
O O3 0.910143 0.249114 0.921549
O O4 0.000000 0.500000 0.000000
O O5 0.778375 0.449754 0.353932
O O6 0.657555 0.796921 0.385993
O O7 0.784975 0.717163 0.583927
O O8 0.448219 0.803673 0.531216
O O9 0.781224 0.236756 0.110183
O O10 0.822257 0.146242 0.320756
O O11 0.116313 0.074707 0.215369
O O12 0.259395 0.452755 0.855615
O O13 0.514324 0.059991 0.784264
O O14 0.805819 0.726197 0.811974
O O15 0.500627 0.759150 0.740860
O O16 0.500000 0.000000 0.000000
O O17 0.500000 0.500000 0.000000
O O18 0.500000 0.500000 0.500000
#
# Coordination Sequence:
#
# PCOD9096543 Si02
#       8
#     2   2   2   2   2   2   2   2
#     4  10  20  36  56  83 114 151 191 236 291 348
#     4   9  19  37  59  80 111 151 193 242 291 345
#     4  10  20  36  58  84 112 151 195 239 292 349
#     4  10  21  37  55  81 113 149 192 237 286 345
#     4  11  21  36  60  88 115 150 196 245 291 345
#     4  11  21  35  56  85 116 148 191 244 289 343
#     4  10  20  37  57  79 110 148 186 229 287 350
#     4   9  20  38  60  86 117 152 192 240 295 351
#
# _framework density 25.032809
#
# number of rings (size 3 to 8) (size 9 to 14) (size 15 to 20)
#    0.000    2.000    0.000    5.250    0.000    2.000 
#    0.000    8.125    0.000    0.000    0.000    0.000 
#    0.000    0.000    0.000    0.000    0.000    0.000 
#
# Total GULP energy -89268.155256 kJ/mol
# GULP energy per Si atom -5579.259704 kJ/mol
# Density = 2.497583 g / cm^3
# Si number density = 25.032809 Si / 1000 Ang^3
#
#
#
# Elastic Constant Matrix: (Units=GPa)
#
#
# Indices 1 2 3 4 5 6 
#
# 1 154.9134 15.6810 49.4550 -16.3152 -38.9862 10.8209
# 2 15.6810 52.8131 18.7123 -6.4858 -11.7085 3.1391
# 3 49.4550 18.7123 149.9468 -3.8549 -21.9061 0.6366
# 4 -16.3152 -6.4858 -3.8549 38.3568 11.6327 -6.9076
# 5 -38.9862 -11.7085 -21.9061 11.6327 51.9798 -2.5732
# 6 10.8209 3.1391 0.6366 -6.9076 -2.5732 44.7467
#
#
#
# Elastic Compliance Matrix: (Units=1/GPa)
#
#
# Indices 1 2 3 4 5 6 
#
# 1 0.008715 -0.000444 -0.002018 0.001595 0.005154 -0.001505
# 2 -0.000444 0.020725 -0.001943 0.002057 0.003015 -0.000828
# 3 -0.002018 -0.001943 0.007778 -0.000781 0.001525 0.000481
# 4 0.001595 0.002057 -0.000781 0.029209 -0.005023 0.003701
# 5 0.005154 0.003015 0.001525 -0.005023 0.025511 -0.000788
# 6 -0.001505 -0.000828 0.000481 0.003701 -0.000788 0.023289
#
#
# Mechanical properties :
#
#
# Convention : Reuss Voigt Hill
#
# Bulk Modulus (GPa) = 35.20346 58.37444 46.78895
# Shear Modulus (GPa) = 37.45118 45.27166 41.36142
#
# Velocity S-wave (km/s) = 3.87212 4.25725 4.06924
# Velocity P-wave (km/s) = 5.83820 6.89459 6.38827
#
# Compressibility (1/GPa) = 0.02840630
#
# Stress axis : x y z
#
# Youngs Moduli (GPa) = 114.74769 48.25027 128.56986
#
# Poissons Ratio (x) = 0.02144 0.25951
# Poissons Ratio (y) = 0.05100 0.24980
# Poissons Ratio (z) = 0.23161 0.09375
#
# Static dielectric constant tensor:
#      x y z
#    x 1.910450 0.036900 -0.009550 
#    y 0.036900 2.128930 0.019010 
#    z -0.009550 0.019010 2.070660 
# 
# From -- ./inp_files/391056.got.cif
#   From: 2010.05.17/outbox.cif.g08.bks.cpg/sg2_196_cif.got.tgz:391056.got - 2010.06.03 11:33:40.
