data_PCOD9096710
_publ_section_title
;
Structure prediction by ZEFSAII (Michael W. Deem and Ramdas Pophale) SiO2 
 PCOD9096710
Probable space group: P -1
;
_chemical_formula_sum "Si O2"
_cell_formula_units_Z 16
_cell_length_a 12.463153
_cell_length_b 11.560870
_cell_length_c 9.187620
_cell_angle_alpha 66.410084
_cell_angle_beta 91.452667
_cell_angle_gamma 134.873441
_cell_volume 789.555671
_symmetry_space_group_name_H-M "P -1"
_symmetry_group_IT_number 2
_symmetry_cell_setting 'triclinic'
loop_
_space_group_symop_operation_xyz
x,y,z
-x,-y,-z
loop_
_atom_site_type_symbol
_atom_site_label
_atom_site_fract_x
_atom_site_fract_y
_atom_site_fract_z
Si Si1 0.329000 0.633557 0.517163
Si Si2 0.382946 0.552494 0.978611
Si Si3 0.357321 0.801897 0.693355
Si Si4 0.596946 0.702223 0.643423
Si Si5 0.672000 0.820791 0.077162
Si Si6 0.567307 0.972070 0.145440
Si Si7 0.856929 0.889280 0.773570
Si Si8 0.769154 0.723481 0.386719
O O1 0.250077 0.653753 0.627007
O O2 0.497790 0.722823 0.546996
O O3 0.398825 0.767799 0.313840
O O4 0.224495 0.418243 0.579577
O O5 0.373528 0.684144 0.843301
O O6 0.479546 0.566283 0.844653
O O7 0.496330 0.667655 0.065879
O O8 0.222514 0.323248 0.118351
O O9 0.500000 0.000000 0.500000
O O10 0.336215 0.876862 0.791617
O O11 0.766201 0.883166 0.642923
O O12 0.648821 0.645552 0.555761
O O13 0.677992 0.959361 0.089624
O O14 0.700341 0.738203 0.238963
O O15 0.804363 0.911869 0.909389
O O16 0.500000 0.000000 0.000000
O O17 0.051021 0.063812 0.677790
#
# Coordination Sequence:
#
# PCOD9096710 Si02
#       8
#     2   2   2   2   2   2   2   2
#     4  10  21  36  63  86 118 150 194 251 286 341
#     4  10  20  37  60  86 120 154 188 244 294 342
#     4   9  19  35  54  87 112 144 196 250 286 316
#     4  10  20  36  57  87 116 154 193 232 287 349
#     4  11  21  36  60  90 120 149 195 246 291 347
#     4  11  21  35  60  93 110 147 206 255 274 332
#     4  11  24  37  57  90 130 154 179 238 312 360
#     4  12  23  37  59  94 123 153 190 234 305 361
#
# _framework density 20.264562000000002
#
# number of rings (size 3 to 8) (size 9 to 14) (size 15 to 20)
#    0.000    1.500    2.500    4.875    3.500    0.000 
#    0.000    0.000    0.000    3.750   13.000    0.000 
#    0.000    0.000    0.000    0.000    0.000    0.000 
#
# Total GULP energy -89072.926028 kJ/mol
# GULP energy per Si atom -5567.057877 kJ/mol
# Density = 2.021844 g / cm^3
# Si number density = 20.264562 Si / 1000 Ang^3
#
#
#
# Elastic Constant Matrix: (Units=GPa)
#
#
# Indices 1 2 3 4 5 6 
#
# 1 23.5825 28.7352 18.4956 -8.8043 -4.0546 -9.3681
# 2 28.7352 94.9803 33.6503 -3.1957 -9.0509 -11.9223
# 3 18.4956 33.6503 94.1691 10.1776 15.4228 7.9041
# 4 -8.8043 -3.1957 10.1776 38.2461 -8.2535 -6.9645
# 5 -4.0546 -9.0509 15.4228 -8.2535 29.8034 6.4969
# 6 -9.3681 -11.9223 7.9041 -6.9645 6.4969 50.1012
#
#
#
# Elastic Compliance Matrix: (Units=1/GPa)
#
#
# Indices 1 2 3 4 5 6 
#
# 1 0.120765 -0.018049 -0.029871 0.046074 0.033709 0.025032
# 2 -0.018049 0.017714 -0.003493 -0.000665 0.004388 0.000730
# 3 -0.029871 -0.003493 0.024189 -0.019998 -0.020935 -0.010298
# 4 0.046074 -0.000665 -0.019998 0.050630 0.027138 0.015131
# 5 0.033709 0.004388 -0.020935 0.027138 0.056267 0.007126
# 6 0.025032 0.000730 -0.010298 0.015131 0.007126 0.027618
#
#
# Mechanical properties :
#
#
# Convention : Reuss Voigt Hill
#
# Bulk Modulus (GPa) = 16.71069 41.61048 29.16058
# Shear Modulus (GPa) = 11.90602 32.42018 22.16310
#
# Velocity S-wave (km/s) = 2.42653 4.00415 3.31068
# Velocity P-wave (km/s) = 4.01434 6.47733 5.38844
#
# Compressibility (1/GPa) = 0.05984194
#
# Stress axis : x y z
#
# Youngs Moduli (GPa) = 8.28056 56.45309 41.34152
#
# Poissons Ratio (x) = 1.01890 1.23492
# Poissons Ratio (y) = 0.14945 0.14441
# Poissons Ratio (z) = 0.24735 0.19719
#
# Static dielectric constant tensor:
#      x y z
#    x 1.742240 -0.036090 0.024860 
#    y -0.036090 1.804860 0.011260 
#    z 0.024860 0.011260 1.747630 
# 
# From -- ./inp_files/307042.got.cif
#   From: 2010.05.17/outbox.cif.g08.bks.cpg/sg2_154_cif.got.tgz:307042.got - 2010.06.03 11:33:40.
