data_PCOD9096518
_publ_section_title
;
Structure prediction by ZEFSAII (Michael W. Deem and Ramdas Pophale) SiO2 
 PCOD9096518
Probable space group: P -1
;
_chemical_formula_sum "Si O2"
_cell_formula_units_Z 16
_cell_length_a 17.081592
_cell_length_b 15.669480
_cell_length_c 7.467556
_cell_angle_alpha 95.273383
_cell_angle_beta 108.675958
_cell_angle_gamma 23.439005
_cell_volume 635.976781
_symmetry_space_group_name_H-M "P -1"
_symmetry_group_IT_number 2
_symmetry_cell_setting 'triclinic'
loop_
_space_group_symop_operation_xyz
x,y,z
-x,-y,-z
loop_
_atom_site_type_symbol
_atom_site_label
_atom_site_fract_x
_atom_site_fract_y
_atom_site_fract_z
Si Si1 0.528501 0.351753 0.032003
Si Si2 0.321300 0.173735 0.616705
Si Si3 0.054993 0.861674 0.130300
Si Si4 0.728146 0.301190 0.385571
Si Si5 0.460285 0.888626 0.437129
Si Si6 0.721433 0.705807 0.033917
Si Si7 0.839449 0.430306 0.847706
Si Si8 0.670952 0.032209 0.039298
O O1 0.327357 0.572968 0.780119
O O2 0.536222 0.245707 0.064246
O O3 0.540514 0.408797 0.211865
O O4 0.790655 0.106385 0.077660
O O5 0.338268 0.239411 0.513762
O O6 0.283659 0.121929 0.472170
O O7 0.610513 0.876495 0.835265
O O8 0.182867 0.336582 0.730225
O O9 0.257381 0.680528 0.398399
O O10 0.117460 0.706632 0.065657
O O11 0.000000 0.000000 0.000000
O O12 0.000000 0.000000 0.500000
O O13 0.579512 0.701197 0.615431
O O14 0.369167 0.933443 0.197931
O O15 0.867432 0.485384 0.008978
O O16 0.471061 0.905887 0.961275
O O17 0.037675 0.245837 0.794738
#
# Coordination Sequence:
#
# PCOD9096518 Si02
#       8
#     2   2   2   2   2   2   2   2
#     4   9  19  35  55  79 108 144 191 231 274 338
#     4   8  16  34  54  81 112 143 179 227 278 329
#     4  10  21  36  54  79 113 148 185 233 283 327
#     4   9  18  34  55  77 104 143 186 230 279 332
#     4   9  17  35  60  78 111 148 180 229 279 328
#     4   9  18  35  57  79 114 144 178 231 276 327
#     4  10  21  37  56  82 109 146 190 225 275 339
#     4  10  20  36  56  81 110 146 183 228 279 325
#
# _framework density 25.158152000000001
#
# number of rings (size 3 to 8) (size 9 to 14) (size 15 to 20)
#    0.000    2.750    0.000    0.750    0.000    3.500 
#    0.000   36.250    0.000    0.000    0.000    0.000 
#    0.000    0.000    0.000    0.000    0.000    0.000 
#
# Total GULP energy -89290.599682 kJ/mol
# GULP energy per Si atom -5580.662480 kJ/mol
# Density = 2.510089 g / cm^3
# Si number density = 25.158152 Si / 1000 Ang^3
#
#
#
# Elastic Constant Matrix: (Units=GPa)
#
#
# Indices 1 2 3 4 5 6 
#
# 1 78.6745 17.5351 9.3997 -11.8570 -14.3653 26.4759
# 2 17.5351 161.7546 23.3739 8.5316 -12.9723 26.0621
# 3 9.3997 23.3739 101.7213 7.1899 -22.0500 12.0611
# 4 -11.8570 8.5316 7.1899 37.9877 0.9304 -4.5056
# 5 -14.3653 -12.9723 -22.0500 0.9304 27.8866 -2.7653
# 6 26.4759 26.0621 12.0611 -4.5056 -2.7653 44.8567
#
#
#
# Elastic Compliance Matrix: (Units=1/GPa)
#
#
# Indices 1 2 3 4 5 6 
#
# 1 0.018274 0.000004 0.001233 0.004040 0.009249 -0.010143
# 2 0.000004 0.007237 -0.000445 -0.002096 0.002677 -0.004133
# 3 0.001233 -0.000445 0.012613 -0.002565 0.010140 -0.003493
# 4 0.004040 -0.002096 -0.002565 0.028857 -0.001655 0.002319
# 5 0.009249 0.002677 0.010140 -0.001655 0.049261 -0.006870
# 6 -0.010143 -0.004133 -0.003493 0.002319 -0.006870 0.031430
#
#
# Mechanical properties :
#
#
# Convention : Reuss Voigt Hill
#
# Bulk Modulus (GPa) = 25.18471 49.19644 37.19058
# Shear Modulus (GPa) = 31.38260 41.60231 36.49245
#
# Velocity S-wave (km/s) = 3.53570 4.07090 3.81270
# Velocity P-wave (km/s) = 5.16726 6.45706 5.84783
#
# Compressibility (1/GPa) = 0.03970663
#
# Stress axis : x y z
#
# Youngs Moduli (GPa) = 54.72366 138.17486 79.28565
#
# Poissons Ratio (x) = -0.00054 -0.09772
# Poissons Ratio (y) = -0.00021 0.03527
# Poissons Ratio (z) = -0.06745 0.06147
#
# Static dielectric constant tensor:
#      x y z
#    x 2.007940 -0.025230 0.033400 
#    y -0.025230 2.067190 0.031780 
#    z 0.033400 0.031780 2.032970 
# 
# From -- ./inp_files/56473.got.cif
#   From: 2010.05.17/outbox.cif.g08.bks.cpg/sg2_29_cif.got.tgz:56473.got - 2010.06.03 11:33:40.
