data_PCOD9096632
_publ_section_title
;
Structure prediction by ZEFSAII (Michael W. Deem and Ramdas Pophale) SiO2 
 PCOD9096632
Probable space group: P -1
;
_chemical_formula_sum "Si O2"
_cell_formula_units_Z 14
_cell_length_a 26.618459
_cell_length_b 14.299207
_cell_length_c 6.476765
_cell_angle_alpha 63.979865
_cell_angle_beta 53.661169
_cell_angle_gamma 18.668819
_cell_volume 559.070080
_symmetry_space_group_name_H-M "P -1"
_symmetry_group_IT_number 2
_symmetry_cell_setting 'triclinic'
loop_
_space_group_symop_operation_xyz
x,y,z
-x,-y,-z
loop_
_atom_site_type_symbol
_atom_site_label
_atom_site_fract_x
_atom_site_fract_y
_atom_site_fract_z
Si Si1 0.336149 0.436278 0.605558
Si Si2 0.873590 0.074973 0.584720
Si Si3 0.779710 0.108282 0.394205
Si Si4 0.168245 0.207250 0.559985
Si Si5 0.235566 0.170547 0.891065
Si Si6 0.415480 0.402524 0.849569
Si Si7 0.156213 0.540119 0.737979
O O1 0.137003 0.812625 0.656650
O O2 0.352850 0.411184 0.835592
O O3 0.327334 0.340469 0.608839
O O4 0.527797 0.200246 0.293566
O O5 0.794373 0.106384 0.604473
O O6 0.729063 0.344690 0.855672
O O7 0.070686 0.727887 0.557204
O O8 0.616078 0.441868 0.363404
O O9 0.765370 0.010227 0.473252
O O10 0.985817 0.812817 0.065619
O O11 0.193723 0.170808 0.786563
O O12 0.357463 0.979732 0.265569
O O13 0.926375 0.607357 0.756037
O O14 0.194356 0.358969 0.775459
#
# Coordination Sequence:
#
# PCOD9096632 Si02
#       7
#     2   2   2   2   2   2   2
#     4  10  20  36  57  81 110 142 178 221 268 319
#     4  10  21  35  54  84 110 139 181 220 268 320
#     4   9  19  34  55  83 110 140 178 221 269 318
#     4   9  17  35  57  76 107 145 180 219 265 320
#     4   9  19  36  58  80 107 145 180 218 270 319
#     4   9  19  34  55  83 110 140 178 221 269 318
#     4  10  20  36  57  81 110 142 178 221 268 319
#
# _framework density 25.041584
#
# number of rings (size 3 to 8) (size 9 to 14) (size 15 to 20)
#    0.000    2.571    0.000    1.286    0.000    6.857 
#    0.000   14.286    0.000    8.571    0.000    0.000 
#    0.000    0.000    0.000    0.000    0.000    0.000 
#
# Total GULP energy -78133.769542 kJ/mol
# GULP energy per Si atom -5580.983539 kJ/mol
# Density = 2.498459 g / cm^3
# Si number density = 25.041584 Si / 1000 Ang^3
#
#
#
# Elastic Constant Matrix: (Units=GPa)
#
#
# Indices 1 2 3 4 5 6 
#
# 1 162.9845 51.0669 15.1160 -6.3393 29.8526 -17.5575
# 2 51.0669 107.1260 6.2732 7.8724 8.2078 -6.6131
# 3 15.1160 6.2732 85.0349 2.5105 21.4408 -6.1130
# 4 -6.3393 7.8724 2.5105 17.2771 -0.5304 3.2837
# 5 29.8526 8.2078 21.4408 -0.5304 38.8056 0.8618
# 6 -17.5575 -6.6131 -6.1130 3.2837 0.8618 36.2485
#
#
#
# Elastic Compliance Matrix: (Units=1/GPa)
#
#
# Indices 1 2 3 4 5 6 
#
# 1 0.009037 -0.003936 0.000419 0.004187 -0.006371 0.003502
# 2 -0.003936 0.011741 -0.000010 -0.006941 0.000436 0.000852
# 3 0.000419 -0.000010 0.014046 -0.002706 -0.008184 0.003009
# 4 0.004187 -0.006941 -0.002706 0.064043 0.000740 -0.005514
# 5 -0.006371 0.000436 -0.008184 0.000740 0.035228 -0.005291
# 6 0.003502 0.000852 0.003009 -0.005514 -0.005291 0.030572
#
#
# Mechanical properties :
#
#
# Convention : Reuss Voigt Hill
#
# Bulk Modulus (GPa) = 36.01185 55.56194 45.78689
# Shear Modulus (GPa) = 27.62757 37.31217 32.46987
#
# Velocity S-wave (km/s) = 3.32515 3.86425 3.60479
# Velocity P-wave (km/s) = 5.39946 6.49199 5.97077
#
# Compressibility (1/GPa) = 0.02776864
#
# Stress axis : x y z
#
# Youngs Moduli (GPa) = 110.65591 85.17260 71.19441
#
# Poissons Ratio (x) = 0.33522 -0.02980
# Poissons Ratio (y) = 0.43552 0.00074
# Poissons Ratio (z) = -0.04631 0.00088
#
# Static dielectric constant tensor:
#      x y z
#    x 1.998850 -0.072020 0.000800 
#    y -0.072020 2.046190 0.006480 
#    z 0.000800 0.006480 2.034590 
# 
# From -- ./inp_files/109333.got.cif
#   From: 2010.05.17/outbox.cif.g08.bks.cpg/sg2_55_cif.got.tgz:109333.got - 2010.06.03 11:33:40.
