data_PCOD9096583
_publ_section_title
;
Structure prediction by ZEFSAII (Michael W. Deem and Ramdas Pophale) SiO2 
 PCOD9096583
Probable space group: P -1
;
_chemical_formula_sum "Si O2"
_cell_formula_units_Z 16
_cell_length_a 8.867536
_cell_length_b 14.657830
_cell_length_c 12.463756
_cell_angle_alpha 118.725742
_cell_angle_beta 124.857621
_cell_angle_gamma 105.960419
_cell_volume 752.350677
_symmetry_space_group_name_H-M "P -1"
_symmetry_group_IT_number 2
_symmetry_cell_setting 'triclinic'
loop_
_space_group_symop_operation_xyz
x,y,z
-x,-y,-z
loop_
_atom_site_type_symbol
_atom_site_label
_atom_site_fract_x
_atom_site_fract_y
_atom_site_fract_z
Si Si1 0.305637 0.322297 0.856513
Si Si2 0.167606 0.142850 0.486262
Si Si3 0.215853 0.215182 0.313441
Si Si4 0.579919 0.842891 0.816482
Si Si5 0.690391 0.030756 0.503150
Si Si6 0.702926 0.406604 0.245648
Si Si7 0.429186 0.005391 0.806662
Si Si8 0.998644 0.661006 0.682311
O O1 0.286336 0.238222 0.699522
O O2 0.985853 0.216632 0.699534
O O3 0.500000 0.500000 0.000000
O O4 0.466706 0.338057 0.028232
O O5 0.308875 0.242557 0.490072
O O6 0.847807 0.050544 0.303006
O O7 0.200414 0.033761 0.447439
O O8 0.402153 0.230602 0.315408
O O9 0.190454 0.327127 0.339930
O O10 0.901632 0.024732 0.071072
O O11 0.452647 0.725683 0.798434
O O12 0.404957 0.870774 0.731558
O O13 0.525462 0.951064 0.276991
O O14 0.500000 0.000000 0.500000
O O15 0.931669 0.425818 0.296668
O O16 0.860136 0.571177 0.460419
O O17 0.690377 0.152695 0.071111
#
# Coordination Sequence:
#
# PCOD9096583 Si02
#       8
#     2   2   2   2   2   2   2   2
#     4  11  24  42  65  92 127 167 209 260 311 371
#     4  11  21  39  65  89 122 165 213 257 303 375
#     4  10  20  36  56  87 119 156 198 250 313 360
#     4  10  21  35  58  85 121 155 195 254 309 371
#     4  11  23  40  65  93 125 167 213 261 308 370
#     4  11  22  39  59  89 120 160 206 250 313 370
#     4  10  20  38  60  91 121 160 211 257 309 364
#     4  10  21  35  58  85 119 154 198 253 302 367
#
# _framework density 21.266679
#
# number of rings (size 3 to 8) (size 9 to 14) (size 15 to 20)
#    0.000    1.500    0.000    6.750    0.000    7.500 
#    0.000    1.875    0.000    0.000    0.000    0.000 
#    0.000    0.000    0.000    0.000    0.000    0.000 
#
# Total GULP energy -89330.539758 kJ/mol
# GULP energy per Si atom -5583.158735 kJ/mol
# Density = 2.121827 g / cm^3
# Si number density = 21.266679 Si / 1000 Ang^3
#
#
#
# Elastic Constant Matrix: (Units=GPa)
#
#
# Indices 1 2 3 4 5 6 
#
# 1 180.1561 76.5527 58.8338 1.4625 -23.1137 -9.6131
# 2 76.5527 99.8419 26.3271 -11.0047 3.5020 -4.9163
# 3 58.8338 26.3271 110.0230 -9.5652 -7.3144 -4.5243
# 4 1.4625 -11.0047 -9.5652 38.4052 1.8856 -6.2938
# 5 -23.1137 3.5020 -7.3144 1.8856 25.5324 0.6698
# 6 -9.6131 -4.9163 -4.5243 -6.2938 0.6698 37.8518
#
#
#
# Elastic Compliance Matrix: (Units=1/GPa)
#
#
# Indices 1 2 3 4 5 6 
#
# 1 0.012386 -0.009341 -0.003996 -0.004639 0.011680 0.000477
# 2 -0.009341 0.018223 0.000499 0.006476 -0.011326 0.001331
# 3 -0.003996 0.000499 0.011389 0.003326 -0.000694 0.000977
# 4 -0.004639 0.006476 0.003326 0.030066 -0.006491 0.005175
# 5 0.011680 -0.011326 -0.000694 -0.006491 0.051588 -0.000580
# 6 0.000477 0.001331 0.000977 0.005175 -0.000580 0.027700
#
#
# Mechanical properties :
#
#
# Convention : Reuss Voigt Hill
#
# Bulk Modulus (GPa) = 61.25891 79.27202 70.26547
# Shear Modulus (GPa) = 27.40201 35.57838 31.49020
#
# Velocity S-wave (km/s) = 3.59346 4.09462 3.85220
# Velocity P-wave (km/s) = 6.78858 7.72727 7.27309
#
# Compressibility (1/GPa) = 0.01632415
#
# Stress axis : x y z
#
# Youngs Moduli (GPa) = 80.73393 54.87607 87.80196
#
# Poissons Ratio (x) = 0.51260 0.35081
# Poissons Ratio (y) = 0.75414 -0.04384
# Poissons Ratio (z) = 0.32257 -0.02740
#
# Static dielectric constant tensor:
#      x y z
#    x 1.779350 -0.002010 0.006140 
#    y -0.002010 1.780000 0.030120 
#    z 0.006140 0.030120 1.780880 
# 
# From -- ./inp_files/399482.got.cif
#   From: 2010.05.17/outbox.cif.g08.bks.cpg/sg2_200_cif.got.tgz:399482.got - 2010.06.03 11:33:40.
