data_PCOD9096675
_publ_section_title
;
Structure prediction by ZEFSAII (Michael W. Deem and Ramdas Pophale) SiO2 
 PCOD9096675
Probable space group: P -1
;
_chemical_formula_sum "Si O2"
_cell_formula_units_Z 16
_cell_length_a 9.685404
_cell_length_b 13.445767
_cell_length_c 15.574520
_cell_angle_alpha 150.728859
_cell_angle_beta 58.972021
_cell_angle_gamma 102.180465
_cell_volume 698.470500
_symmetry_space_group_name_H-M "P -1"
_symmetry_group_IT_number 2
_symmetry_cell_setting 'triclinic'
loop_
_space_group_symop_operation_xyz
x,y,z
-x,-y,-z
loop_
_atom_site_type_symbol
_atom_site_label
_atom_site_fract_x
_atom_site_fract_y
_atom_site_fract_z
Si Si1 0.062611 0.436527 0.530465
Si Si2 0.027906 0.814889 0.427965
Si Si3 0.369690 0.558747 0.505225
Si Si4 0.417668 0.902024 0.026691
Si Si5 0.677444 0.544019 0.815899
Si Si6 0.039944 0.180234 0.806581
Si Si7 0.245394 0.258173 0.648494
Si Si8 0.666812 0.135556 0.398501
O O1 0.193668 0.541621 0.579399
O O2 0.000000 0.500000 0.500000
O O3 0.867428 0.535445 0.719381
O O4 0.201227 0.143855 0.280716
O O5 0.878081 0.746417 0.395191
O O6 0.247449 0.570638 0.197483
O O7 0.000000 0.000000 0.500000
O O8 0.980305 0.998303 0.660490
O O9 0.500000 0.500000 0.500000
O O10 0.297360 0.807826 0.665652
O O11 0.517131 0.349743 0.231369
O O12 0.506308 0.804561 0.021508
O O13 0.500000 0.000000 0.000000
O O14 0.655766 0.340251 0.621076
O O15 0.199154 0.145006 0.659022
O O16 0.145303 0.115047 0.814735
O O17 0.854578 0.459300 0.077738
O O18 0.471382 0.141154 0.469999
#
# Coordination Sequence:
#
# PCOD9096675 Si02
#       8
#     2   2   2   2   2   2   2   2
#     4  11  19  38  62  78 110 157 197 231 288 349
#     4   9  20  38  60  87 117 149 197 242 286 353
#     4  10  22  37  53  84 121 146 190 244 282 335
#     4   9  18  36  59  79 110 149 194 233 283 343
#     4  10  20  36  60  82 114 156 193 235 298 346
#     4   9  20  40  62  83 118 155 186 240 300 346
#     4  10  20  38  61  89 115 149 196 241 290 349
#     4  10  20  36  57  84 115 151 192 237 293 346
#
# _framework density 22.907195999999999
#
# number of rings (size 3 to 8) (size 9 to 14) (size 15 to 20)
#    0.000    2.250    3.750    0.375    1.750    4.000 
#    4.500    3.125    0.000   13.500    0.000    0.000 
#    0.000    0.000    0.000    0.000    0.000    0.000 
#
# Total GULP energy -89086.162693 kJ/mol
# GULP energy per Si atom -5567.885168 kJ/mol
# Density = 2.285506 g / cm^3
# Si number density = 22.907196 Si / 1000 Ang^3
#
#
#
# Elastic Constant Matrix: (Units=GPa)
#
#
# Indices 1 2 3 4 5 6 
#
# 1 130.9638 35.5520 5.4612 3.9826 -16.2300 -9.9574
# 2 35.5520 114.7860 31.1863 28.4800 -18.2190 -10.2266
# 3 5.4612 31.1863 35.2854 15.1656 -18.7528 -9.1698
# 4 3.9826 28.4800 15.1656 27.5516 -10.7144 -21.7698
# 5 -16.2300 -18.2190 -18.7528 -10.7144 28.2337 11.8462
# 6 -9.9574 -10.2266 -9.1698 -21.7698 11.8462 40.6069
#
#
#
# Elastic Compliance Matrix: (Units=1/GPa)
#
#
# Indices 1 2 3 4 5 6 
#
# 1 0.009450 -0.004180 0.003755 0.006091 0.006021 0.003621
# 2 -0.004180 0.015877 -0.008271 -0.018307 -0.001076 -0.008395
# 3 0.003755 -0.008271 0.056851 -0.015869 0.031028 -0.005883
# 4 0.006091 -0.018307 -0.015869 0.100063 -0.000656 0.047136
# 5 0.006021 -0.001076 0.031028 -0.000656 0.062953 -0.010505
# 6 0.003621 -0.008395 -0.005883 0.047136 -0.010505 0.050406
#
#
# Mechanical properties :
#
#
# Convention : Reuss Voigt Hill
#
# Bulk Modulus (GPa) = 15.43536 47.27046 31.35291
# Shear Modulus (GPa) = 14.94377 33.20080 24.07229
#
# Velocity S-wave (km/s) = 2.55691 3.81118 3.24522
# Velocity P-wave (km/s) = 3.93318 6.32829 5.26864
#
# Compressibility (1/GPa) = 0.06478630
#
# Stress axis : x y z
#
# Youngs Moduli (GPa) = 105.81832 62.98363 17.58984
#
# Poissons Ratio (x) = 0.26328 -0.06605
# Poissons Ratio (y) = 0.44233 0.14549
# Poissons Ratio (z) = -0.39736 0.52094
#
# Static dielectric constant tensor:
#      x y z
#    x 1.861930 -0.023990 0.041960 
#    y -0.023990 1.976310 0.056640 
#    z 0.041960 0.056640 2.063400 
# 
# From -- ./inp_files/561415.got.cif
#   From: 2010.05.17/outbox.cif.g08.bks.cpg/sg2_281_cif.got.tgz:561415.got - 2010.06.03 11:33:40.
