data_PCOD9096053
_publ_section_title
;
Structure prediction by ZEFSAII (Michael W. Deem and Ramdas Pophale) SiO2 
 PCOD9096053
Probable space group: P -1
;
_chemical_formula_sum "Si O2"
_cell_formula_units_Z 14
_cell_length_a 14.717385
_cell_length_b 7.577021
_cell_length_c 11.735140
_cell_angle_alpha 116.437152
_cell_angle_beta 149.133320
_cell_angle_gamma 58.062172
_cell_volume 569.633060
_symmetry_space_group_name_H-M "P -1"
_symmetry_group_IT_number 2
_symmetry_cell_setting 'triclinic'
loop_
_space_group_symop_operation_xyz
x,y,z
-x,-y,-z
loop_
_atom_site_type_symbol
_atom_site_label
_atom_site_fract_x
_atom_site_fract_y
_atom_site_fract_z
Si Si1 0.774673 0.166804 0.908707
Si Si2 0.669662 0.949622 0.323311
Si Si3 0.840485 0.718728 0.874313
Si Si4 0.618774 0.269659 0.016551
Si Si5 0.100558 0.362849 0.325291
Si Si6 0.000304 0.701416 0.480087
Si Si7 0.545130 0.258607 0.458838
O O1 0.668185 0.160323 0.674015
O O2 0.897337 0.927267 0.998470
O O3 0.639833 0.253436 0.896747
O O4 0.913010 0.302474 0.084697
O O5 0.780543 0.789007 0.494688
O O6 0.807896 0.881984 0.346684
O O7 0.635455 0.170651 0.409769
O O8 0.483671 0.886943 0.091002
O O9 0.777346 0.685147 0.669552
O O10 0.657300 0.771889 0.768538
O O11 0.000000 0.500000 0.000000
O O12 0.828519 0.228692 0.273693
O O13 0.500000 0.500000 0.000000
O O14 0.039726 0.599896 0.369231
O O15 0.000000 0.500000 0.500000
O O16 0.500000 0.500000 0.500000
#
# Coordination Sequence:
#
# PCOD9096053 Si02
#       7
#     2   2   2   2   2   2   2
#     4  12  23  41  68  99 131 178 218 272 343 388
#     4  11  21  40  64  97 135 169 223 272 329 396
#     4  12  26  42  66  99 134 174 223 277 335 397
#     4  12  20  35  66  99 131 174 224 269 327 402
#     4  11  21  39  67  99 131 171 220 269 334 399
#     4  10  20  35  62 102 126 171 222 269 327 396
#     4  12  27  43  66  99 133 178 222 278 333 394
#
# _framework density 24.577224999999999
#
# number of rings (size 3 to 8) (size 9 to 14) (size 15 to 20)
#    0.000    0.571    8.571    2.571    2.000    0.000 
#    0.000    0.000    3.143    4.286    3.714    0.000 
#    0.000    0.000    0.000    0.000    0.000    0.000 
#
# Total GULP energy -78327.444706 kJ/mol
# GULP energy per Si atom -5594.817479 kJ/mol
# Density = 2.452129 g / cm^3
# Si number density = 24.577225 Si / 1000 Ang^3
#
#
#
# Elastic Constant Matrix: (Units=GPa)
#
#
# Indices 1 2 3 4 5 6 
#
# 1 45.0860 35.0203 6.8887 -2.4027 13.9356 -26.8883
# 2 35.0203 153.2797 28.7896 13.8431 -6.6717 -35.1130
# 3 6.8887 28.7896 110.8959 8.3219 25.6588 8.6907
# 4 -2.4027 13.8431 8.3219 35.0292 3.0547 -5.7227
# 5 13.9356 -6.6717 25.6588 3.0547 33.4749 -0.7636
# 6 -26.8883 -35.1130 8.6907 -5.7227 -0.7636 44.9191
#
#
#
# Elastic Compliance Matrix: (Units=1/GPa)
#
#
# Indices 1 2 3 4 5 6 
#
# 1 0.052565 -0.008895 0.002062 0.013023 -0.025846 0.025333
# 2 -0.008895 0.011129 -0.004633 -0.004135 0.009938 0.003913
# 3 0.002062 -0.004633 0.013376 -0.001021 -0.012062 -0.005310
# 4 0.013023 -0.004135 -0.001021 0.033495 -0.008317 0.008887
# 5 -0.025846 0.009938 -0.012062 -0.008317 0.052492 -0.005536
# 6 0.025333 0.003913 -0.005310 0.008887 -0.005536 0.042551
#
#
# Mechanical properties :
#
#
# Convention : Reuss Voigt Hill
#
# Bulk Modulus (GPa) = 18.47142 50.07317 34.27230
# Shear Modulus (GPa) = 20.27708 38.58885 29.43296
#
# Velocity S-wave (km/s) = 2.87546 3.96676 3.46435
# Velocity P-wave (km/s) = 4.30771 6.43415 5.47515
#
# Compressibility (1/GPa) = 0.05413768
#
# Stress axis : x y z
#
# Youngs Moduli (GPa) = 19.02422 89.85675 74.76231
#
# Poissons Ratio (x) = 0.79925 -0.15413
# Poissons Ratio (y) = 0.16922 0.34634
# Poissons Ratio (z) = -0.03922 0.41626
#
# Static dielectric constant tensor:
#      x y z
#    x 2.029310 0.028050 0.002420 
#    y 0.028050 1.994840 0.022900 
#    z 0.002420 0.022900 2.074340 
# 
# From -- ./inp_files/448114.got.cif
#   From: 2010.05.17/outbox.cif.g08.bks.cpg/sg2_225_cif.got.tgz:448114.got - 2010.06.03 11:33:40.
