data_PCOD9096096
_publ_section_title
;
Structure prediction by ZEFSAII (Michael W. Deem and Ramdas Pophale) SiO2 
 PCOD9096096
Probable space group: P -1
;
_chemical_formula_sum "Si O2"
_cell_formula_units_Z 14
_cell_length_a 9.465487
_cell_length_b 10.666529
_cell_length_c 11.791479
_cell_angle_alpha 136.835743
_cell_angle_beta 100.865351
_cell_angle_gamma 106.754830
_cell_volume 618.693799
_symmetry_space_group_name_H-M "P -1"
_symmetry_group_IT_number 2
_symmetry_cell_setting 'triclinic'
loop_
_space_group_symop_operation_xyz
x,y,z
-x,-y,-z
loop_
_atom_site_type_symbol
_atom_site_label
_atom_site_fract_x
_atom_site_fract_y
_atom_site_fract_z
Si Si1 0.184835 0.327842 0.654029
Si Si2 0.979797 0.210456 0.776124
Si Si3 0.494249 0.571002 0.352898
Si Si4 0.236032 0.634629 0.250898
Si Si5 0.239097 0.150109 0.215759
Si Si6 0.124202 0.678336 0.502901
Si Si7 0.078388 0.831950 0.797458
O O1 0.392363 0.484430 0.741099
O O2 0.066333 0.377356 0.598528
O O3 0.137755 0.340960 0.785767
O O4 0.103300 0.059090 0.433631
O O5 0.818455 0.232777 0.745594
O O6 0.082476 0.361461 0.005204
O O7 0.419868 0.661088 0.311886
O O8 0.335024 0.348858 0.260641
O O9 0.630219 0.759194 0.596146
O O10 0.225275 0.714178 0.426754
O O11 0.044424 0.085712 0.179258
O O12 0.189527 0.926621 0.993733
O O13 0.079408 0.449582 0.401853
O O14 0.204718 0.880664 0.742249
#
# Coordination Sequence:
#
# PCOD9096096 Si02
#       7
#     2   2   2   2   2   2   2
#     4  10  21  39  62  84 117 150 198 249 288 339
#     4   9  22  41  64  84 106 157 214 231 282 360
#     4  11  22  36  60  90 126 144 186 249 304 326
#     4  10  21  39  62  84 117 150 198 249 288 339
#     4  10  22  37  58  93 118 157 191 236 282 366
#     4  10  20  35  62  88 112 159 198 234 276 358
#     4  10  20  37  62  85 116 159 205 222 274 374
#
# _framework density 22.628316999999999
#
# number of rings (size 3 to 8) (size 9 to 14) (size 15 to 20)
#    0.000    2.000    2.857    0.000    4.000    1.143 
#    0.000    2.857    0.000    0.000    0.000    0.000 
#    0.000    0.000    0.000    0.000    0.000    0.000 
#
# Total GULP energy -77972.730321 kJ/mol
# GULP energy per Si atom -5569.480737 kJ/mol
# Density = 2.257681 g / cm^3
# Si number density = 22.628317 Si / 1000 Ang^3
#
#
#
# Elastic Constant Matrix: (Units=GPa)
#
#
# Indices 1 2 3 4 5 6 
#
# 1 67.8586 12.0857 -12.7743 1.3518 -13.0985 -10.8489
# 2 12.0857 47.2207 6.2810 -7.5574 -4.5623 3.7073
# 3 -12.7743 6.2810 73.6885 -8.5756 -11.5045 4.4346
# 4 1.3518 -7.5574 -8.5756 23.2272 -2.1520 -6.3091
# 5 -13.0985 -4.5623 -11.5045 -2.1520 31.4658 -6.1662
# 6 -10.8489 3.7073 4.4346 -6.3091 -6.1662 33.2622
#
#
#
# Elastic Compliance Matrix: (Units=1/GPa)
#
#
# Indices 1 2 3 4 5 6 
#
# 1 0.020380 -0.005093 0.005579 0.002803 0.011777 0.009186
# 2 -0.005093 0.024085 -0.001891 0.006759 0.000614 -0.002698
# 3 0.005579 -0.001891 0.016765 0.006863 0.009196 0.002802
# 4 0.002803 0.006759 0.006863 0.051551 0.010325 0.010938
# 5 0.011777 0.000614 0.009196 0.010325 0.043296 0.012531
# 6 0.009186 -0.002698 0.002802 0.010938 0.012531 0.037385
#
#
# Mechanical properties :
#
#
# Convention : Reuss Voigt Hill
#
# Bulk Modulus (GPa) = 17.11739 22.21695 19.66717
# Shear Modulus (GPa) = 23.17556 29.80275 26.48915
#
# Velocity S-wave (km/s) = 3.20376 3.63306 3.42514
# Velocity P-wave (km/s) = 4.61156 5.23817 4.93482
#
# Compressibility (1/GPa) = 0.05842011
#
# Stress axis : x y z
#
# Youngs Moduli (GPa) = 49.06811 41.51954 59.64883
#
# Poissons Ratio (x) = 0.21145 -0.33279
# Poissons Ratio (y) = 0.24990 0.11280
# Poissons Ratio (z) = -0.27376 0.07851
#
# Static dielectric constant tensor:
#      x y z
#    x 1.856270 0.047930 -0.029370 
#    y 0.047930 1.930280 0.004360 
#    z -0.029370 0.004360 1.945690 
# 
# From -- ./inp_files/170020.got.cif
#   From: 2010.05.17/outbox.cif.g08.bks.cpg/sg2_86_cif.got.tgz:170020.got - 2010.06.03 11:33:40.
