data_PCOD9096526
_publ_section_title
;
Structure prediction by ZEFSAII (Michael W. Deem and Ramdas Pophale) SiO2 
 PCOD9096526
Probable space group: P -1
;
_chemical_formula_sum "Si O2"
_cell_formula_units_Z 16
_cell_length_a 16.282963
_cell_length_b 11.276020
_cell_length_c 5.397206
_cell_angle_alpha 130.116381
_cell_angle_beta 61.727182
_cell_angle_gamma 109.886170
_cell_volume 666.521459
_symmetry_space_group_name_H-M "P -1"
_symmetry_group_IT_number 2
_symmetry_cell_setting 'triclinic'
loop_
_space_group_symop_operation_xyz
x,y,z
-x,-y,-z
loop_
_atom_site_type_symbol
_atom_site_label
_atom_site_fract_x
_atom_site_fract_y
_atom_site_fract_z
Si Si1 0.133775 0.057412 0.141439
Si Si2 0.080879 0.389850 0.150659
Si Si3 0.590538 0.895013 0.201643
Si Si4 0.614964 0.007239 0.818163
Si Si5 0.917125 0.990955 0.350087
Si Si6 0.815965 0.593247 0.473111
Si Si7 0.454947 0.620402 0.044134
Si Si8 0.352895 0.647073 0.725566
O O1 0.137441 0.966790 0.268851
O O2 0.191102 0.220586 0.288993
O O3 0.143563 0.973837 0.755104
O O4 0.019295 0.078265 0.319117
O O5 0.157069 0.427688 0.307210
O O6 0.000000 0.500000 0.500000
O O7 0.068427 0.198290 0.918141
O O8 0.109233 0.433962 0.888990
O O9 0.542716 0.730537 0.988086
O O10 0.500000 0.000000 0.500000
O O11 0.635795 0.898228 0.411073
O O12 0.648992 0.953917 0.963694
O O13 0.654224 0.178572 0.927525
O O14 0.500000 0.000000 0.000000
O O15 0.729988 0.477510 0.375694
O O16 0.391581 0.690193 0.447481
O O17 0.500000 0.500000 0.000000
O O18 0.406300 0.576441 0.794536
#
# Coordination Sequence:
#
# PCOD9096526 Si02
#       8
#     2   2   2   2   2   2   2   2
#     4   8  14  27  44  71  94 119 173 207 239 301
#     4  10  19  34  53  79 110 139 174 220 267 324
#     4  10  16  32  53  77 100 132 191 235 248 319
#     4  10  16  30  55  77  97 135 194 232 245 315
#     4   8  14  25  47  70  91 125 169 208 236 294
#     4  10  21  33  53  80 108 140 174 222 278 317
#     4  12  23  35  55  83 110 141 184 240 284 321
#     4  12  21  36  55  81 112 143 183 238 277 333
#
# _framework density 24.005227999999999
#
# number of rings (size 3 to 8) (size 9 to 14) (size 15 to 20)
#    0.000    2.000    5.000    1.500    0.000    0.000 
#    0.000    0.000    0.000    4.500    0.000    0.000 
#    0.000    0.000    0.000    0.000    0.000    0.000 
#
# Total GULP energy -89112.069672 kJ/mol
# GULP energy per Si atom -5569.504355 kJ/mol
# Density = 2.395059 g / cm^3
# Si number density = 24.005228 Si / 1000 Ang^3
#
#
#
# Elastic Constant Matrix: (Units=GPa)
#
#
# Indices 1 2 3 4 5 6 
#
# 1 70.9560 38.5126 46.3667 6.8533 28.2588 9.8652
# 2 38.5126 102.5512 16.0625 0.9218 19.2875 13.5879
# 3 46.3667 16.0625 95.3170 -20.4584 41.0725 -3.1141
# 4 6.8533 0.9218 -20.4584 45.1582 -8.0879 23.2413
# 5 28.2588 19.2875 41.0725 -8.0879 48.0674 -2.7243
# 6 9.8652 13.5879 -3.1141 23.2413 -2.7243 38.8325
#
#
#
# Elastic Compliance Matrix: (Units=1/GPa)
#
#
# Indices 1 2 3 4 5 6 
#
# 1 0.030894 -0.008538 -0.014216 -0.012319 -0.004603 0.001049
# 2 -0.008538 0.013659 0.004353 0.005254 -0.003618 -0.005659
# 3 -0.014216 0.004353 0.024883 0.013631 -0.012638 -0.004961
# 4 -0.012319 0.005254 0.013631 0.041534 -0.000802 -0.022530
# 5 -0.004603 -0.003618 -0.012638 -0.000802 0.035876 0.004418
# 6 0.001049 -0.005659 -0.004961 -0.022530 0.004418 0.040862
#
#
# Mechanical properties :
#
#
# Convention : Reuss Voigt Hill
#
# Bulk Modulus (GPa) = 30.64299 52.30086 41.47192
# Shear Modulus (GPa) = 21.24161 37.60376 29.42269
#
# Velocity S-wave (km/s) = 2.97791 3.96217 3.50477
# Velocity P-wave (km/s) = 4.96153 6.53960 5.80444
#
# Compressibility (1/GPa) = 0.03263389
#
# Stress axis : x y z
#
# Youngs Moduli (GPa) = 32.36879 73.21255 40.18875
#
# Poissons Ratio (x) = 0.62509 0.57132
# Poissons Ratio (y) = 0.27637 -0.17495
# Poissons Ratio (z) = 0.46015 -0.31871
#
# Static dielectric constant tensor:
#      x y z
#    x 2.035090 -0.028910 0.026430 
#    y -0.028910 1.874060 -0.138560 
#    z 0.026430 -0.138560 0.880040 
# 
# From -- ./inp_files/109413.got.cif
#   From: 2010.05.17/outbox.cif.g08.bks.cpg/sg2_55_cif.got.tgz:109413.got - 2010.06.03 11:33:40.
