data_PCOD9096158
_publ_section_title
;
Structure prediction by ZEFSAII (Michael W. Deem and Ramdas Pophale) SiO2 
 PCOD9096158
Probable space group: P -1
;
_chemical_formula_sum "Si O2"
_cell_formula_units_Z 16
_cell_length_a 8.276036
_cell_length_b 13.217889
_cell_length_c 11.729309
_cell_angle_alpha 137.242182
_cell_angle_beta 130.204525
_cell_angle_gamma 69.580852
_cell_volume 645.645672
_symmetry_space_group_name_H-M "P -1"
_symmetry_group_IT_number 2
_symmetry_cell_setting 'triclinic'
loop_
_space_group_symop_operation_xyz
x,y,z
-x,-y,-z
loop_
_atom_site_type_symbol
_atom_site_label
_atom_site_fract_x
_atom_site_fract_y
_atom_site_fract_z
Si Si1 0.226585 0.890624 0.138917
Si Si2 0.042439 0.429543 0.157929
Si Si3 0.278833 0.066591 0.623919
Si Si4 0.395844 0.831261 0.770246
Si Si5 0.210516 0.453161 0.505619
Si Si6 0.014664 0.857102 0.769774
Si Si7 0.065711 0.767860 0.391070
Si Si8 0.635208 0.693902 0.930803
O O1 0.484089 0.936291 0.316267
O O2 0.077810 0.003901 0.206428
O O3 0.138825 0.717717 0.002426
O O4 0.175676 0.900465 0.988367
O O5 0.194471 0.469665 0.374612
O O6 0.984455 0.585080 0.217010
O O7 0.160533 0.373709 0.057756
O O8 0.124618 0.166508 0.580809
O O9 0.128927 0.893543 0.421621
O O10 0.334046 0.166082 0.850940
O O11 0.312208 0.804494 0.583918
O O12 0.571925 0.745751 0.820847
O O13 0.165109 0.789721 0.696791
O O14 0.500000 0.000000 0.000000
O O15 0.181260 0.276500 0.381488
O O16 0.423194 0.559048 0.748512
O O17 0.000000 0.500000 0.500000
#
# Coordination Sequence:
#
# PCOD9096158 Si02
#       8
#     2   2   2   2   2   2   2   2
#     4  10  21  40  63  93 127 166 207 260 319 374
#     4  11  24  38  65  99 127 159 219 269 305 374
#     4  11  25  45  64  87 131 175 207 255 326 384
#     4  12  20  37  66  95 123 164 209 261 315 371
#     4  11  20  37  61  98 132 162 206 264 322 372
#     4  10  20  35  62  96 129 157 209 266 315 370
#     4  11  25  42  65  92 128 167 216 257 316 380
#     4  12  22  38  66  96 125 164 211 263 317 371
#
# _framework density 24.781395
#
# number of rings (size 3 to 8) (size 9 to 14) (size 15 to 20)
#    0.000    1.000    5.000    1.875    1.750    2.000 
#    0.000    0.625    0.000    0.000    0.000    0.000 
#    0.000    0.000    0.000    0.000    0.000    0.000 
#
# Total GULP energy -89259.271529 kJ/mol
# GULP energy per Si atom -5578.704471 kJ/mol
# Density = 2.472499 g / cm^3
# Si number density = 24.781395 Si / 1000 Ang^3
#
#
#
# Elastic Constant Matrix: (Units=GPa)
#
#
# Indices 1 2 3 4 5 6 
#
# 1 81.5666 32.7860 33.0335 6.7869 -1.5628 -17.6470
# 2 32.7860 172.6327 47.5728 31.0920 8.7151 -11.9374
# 3 33.0335 47.5728 114.2572 10.7578 23.2442 0.7631
# 4 6.7869 31.0920 10.7578 45.6181 4.9392 1.4914
# 5 -1.5628 8.7151 23.2442 4.9392 41.1325 2.7186
# 6 -17.6470 -11.9374 0.7631 1.4914 2.7186 27.2554
#
#
#
# Elastic Compliance Matrix: (Units=1/GPa)
#
#
# Indices 1 2 3 4 5 6 
#
# 1 0.017232 -0.001043 -0.005153 -0.001335 0.003248 0.010593
# 2 -0.001043 0.007721 -0.002519 -0.004623 0.000104 0.003019
# 3 -0.005153 -0.002519 0.012620 0.000354 -0.006561 -0.004158
# 4 -0.001335 -0.004623 0.000354 0.025545 -0.002068 -0.004091
# 5 0.003248 0.000104 -0.006561 -0.002068 0.028395 -0.000387
# 6 0.010593 0.003019 -0.004158 -0.004091 -0.000387 0.045250
#
#
# Mechanical properties :
#
#
# Convention : Reuss Voigt Hill
#
# Bulk Modulus (GPa) = 49.64914 66.13790 57.89352
# Shear Modulus (GPa) = 31.07354 39.80548 35.43951
#
# Velocity S-wave (km/s) = 3.54490 4.01217 3.78575
# Velocity P-wave (km/s) = 6.06905 6.94333 6.52086
#
# Compressibility (1/GPa) = 0.02014133
#
# Stress axis : x y z
#
# Youngs Moduli (GPa) = 58.03310 129.51291 79.23775
#
# Poissons Ratio (x) = 0.13514 0.40833
# Poissons Ratio (y) = 0.06056 0.19961
# Poissons Ratio (z) = 0.29906 0.32626
#
# Static dielectric constant tensor:
#      x y z
#    x 2.001570 0.081000 -0.092450 
#    y 0.081000 2.025670 -0.048320 
#    z -0.092450 -0.048320 2.084830 
# 
# From -- ./inp_files/504569.got.cif
#   From: 2010.05.17/outbox.cif.g08.bks.cpg/sg2_253_cif.got.tgz:504569.got - 2010.06.03 11:33:40.
