data_PCOD9096049
_publ_section_title
;
Structure prediction by ZEFSAII (Michael W. Deem and Ramdas Pophale) SiO2 
 PCOD9096049
Probable space group: P -1
;
_chemical_formula_sum "Si O2"
_cell_formula_units_Z 15
_cell_length_a 6.965261
_cell_length_b 16.241681
_cell_length_c 12.517605
_cell_angle_alpha 135.998655
_cell_angle_beta 49.693881
_cell_angle_gamma 127.182506
_cell_volume 723.882540
_symmetry_space_group_name_H-M "P -1"
_symmetry_group_IT_number 2
_symmetry_cell_setting 'triclinic'
loop_
_space_group_symop_operation_xyz
x,y,z
-x,-y,-z
loop_
_atom_site_type_symbol
_atom_site_label
_atom_site_fract_x
_atom_site_fract_y
_atom_site_fract_z
Si Si1 0.726030 0.596647 0.070616
Si Si2 0.915316 0.864537 0.172013
Si Si3 0.608940 0.640281 0.390067
Si Si4 0.451049 0.797276 0.869154
Si Si5 0.297096 0.087391 0.330889
Si Si6 0.836352 0.468835 0.284726
Si Si7 0.717508 0.946293 0.104422
Si Si8 0.000000 0.500000 0.500000
O O1 0.746954 0.738213 0.164659
O O2 0.685091 0.587043 0.202242
O O3 0.500000 0.500000 0.000000
O O4 0.984982 0.567375 0.905093
O O5 0.760982 0.908192 0.172972
O O6 0.036688 0.975574 0.313781
O O7 0.173792 0.831647 0.999133
O O8 0.711066 0.787458 0.492533
O O9 0.743158 0.582879 0.382417
O O10 0.297563 0.594214 0.473174
O O11 0.626732 0.873949 0.784051
O O12 0.401548 0.653302 0.735297
O O13 0.575941 0.833735 0.973826
O O14 0.533444 0.038429 0.247487
O O15 0.980284 0.492892 0.368315
O O16 0.000000 0.000000 0.000000
#
# Coordination Sequence:
#
# PCOD9096049 Si02
#       8
#     2   2   2   2   2   2   2   1
#     4  11  25  49  71  96 136 184 236 278 330 426
#     4  10  22  41  63  95 129 177 222 274 337 395
#     4  12  27  45  68 101 143 184 225 281 351 396
#     4  10  20  35  61  99 130 163 224 274 334 400
#     4  11  22  39  60  99 136 167 226 279 328 412
#     4  11  25  45  71 100 137 183 224 284 347 406
#     4  11  19  35  66  95 132 178 214 277 345 392
#     4  12  24  42  66 106 136 168 230 288 338 392
#
# _framework density 20.721592000000001
#
# number of rings (size 3 to 8) (size 9 to 14) (size 15 to 20)
#    0.000    1.067    5.333    1.600    1.867    2.667 
#    2.400    0.667    0.000    0.000    0.000    0.000 
#    0.000    0.000    0.000    0.000    0.000    0.000 
#
# Total GULP energy -83567.191313 kJ/mol
# GULP energy per Si atom -5571.146088 kJ/mol
# Density = 2.067443 g / cm^3
# Si number density = 20.721592 Si / 1000 Ang^3
#
#
#
# Elastic Constant Matrix: (Units=GPa)
#
#
# Indices 1 2 3 4 5 6 
#
# 1 106.9920 37.5750 45.5147 20.2790 12.5810 -8.4197
# 2 37.5750 94.8928 27.6823 16.2886 -1.8978 9.1258
# 3 45.5147 27.6823 102.2872 10.1350 20.4255 -2.9278
# 4 20.2790 16.2886 10.1350 32.9822 -1.2309 7.5370
# 5 12.5810 -1.8978 20.4255 -1.2309 19.3118 2.3763
# 6 -8.4197 9.1258 -2.9278 7.5370 2.3763 22.1531
#
#
#
# Elastic Compliance Matrix: (Units=1/GPa)
#
#
# Indices 1 2 3 4 5 6 
#
# 1 0.016507 -0.005628 -0.002221 -0.010057 -0.011188 0.012920
# 2 -0.005628 0.015117 -0.003975 -0.000106 0.010578 -0.009990
# 3 -0.002221 -0.003975 0.015614 -0.003400 -0.016385 0.005771
# 4 -0.010057 -0.000106 -0.003400 0.042849 0.015385 -0.020456
# 5 -0.011188 0.010578 -0.016385 0.015385 0.081466 -0.024749
# 6 0.012920 -0.009990 0.005771 -0.020456 -0.024749 0.064543
#
#
# Mechanical properties :
#
#
# Convention : Reuss Voigt Hill
#
# Bulk Modulus (GPa) = 42.39151 58.41289 50.40220
# Shear Modulus (GPa) = 18.68408 27.78275 23.23342
#
# Velocity S-wave (km/s) = 3.00604 3.66562 3.35209
# Velocity P-wave (km/s) = 5.70530 6.79457 6.27362
#
# Compressibility (1/GPa) = 0.02358963
#
# Stress axis : x y z
#
# Youngs Moduli (GPa) = 60.58208 66.15152 64.04323
#
# Poissons Ratio (x) = 0.37231 0.14226
# Poissons Ratio (y) = 0.34096 0.25455
# Poissons Ratio (z) = 0.13457 0.26293
#
# Static dielectric constant tensor:
#      x y z
#    x 1.826550 -0.070470 -0.050930 
#    y -0.070470 1.821110 0.006610 
#    z -0.050930 0.006610 1.782850 
# 
# From -- ./inp_files/93274.got.cif
#   From: 2010.05.17/outbox.cif.g08.bks.cpg/sg2_47_cif.got.tgz:93274.got - 2010.06.03 11:33:40.
