data_PCOD9096221
_publ_section_title
;
Structure prediction by ZEFSAII (Michael W. Deem and Ramdas Pophale) SiO2 
 PCOD9096221
Probable space group: P -1
;
_chemical_formula_sum "Si O2"
_cell_formula_units_Z 16
_cell_length_a 17.831298
_cell_length_b 8.981411
_cell_length_c 12.569119
_cell_angle_alpha 124.671904
_cell_angle_beta 27.194708
_cell_angle_gamma 116.966045
_cell_volume 749.161581
_symmetry_space_group_name_H-M "P -1"
_symmetry_group_IT_number 2
_symmetry_cell_setting 'triclinic'
loop_
_space_group_symop_operation_xyz
x,y,z
-x,-y,-z
loop_
_atom_site_type_symbol
_atom_site_label
_atom_site_fract_x
_atom_site_fract_y
_atom_site_fract_z
Si Si1 0.797187 0.829217 0.686004
Si Si2 0.465770 0.943612 0.234698
Si Si3 0.987268 0.289230 0.436538
Si Si4 0.617103 0.661362 0.424688
Si Si5 0.732220 0.811799 0.126995
Si Si6 0.659833 0.165937 0.861208
Si Si7 0.309269 0.396031 0.457493
Si Si8 0.629263 0.207627 0.509550
O O1 0.941342 0.793143 0.574199
O O2 0.802495 0.698214 0.523489
O O3 0.748276 0.035922 0.788696
O O4 0.633672 0.806690 0.951274
O O5 0.397047 0.967967 0.212137
O O6 0.346503 0.847133 0.420571
O O7 0.486916 0.135641 0.342004
O O8 0.000000 0.500000 0.500000
O O9 0.796438 0.264008 0.670035
O O10 0.103501 0.212206 0.160903
O O11 0.500000 0.500000 0.500000
O O12 0.723970 0.690301 0.196026
O O13 0.721566 0.630527 0.389246
O O14 0.568628 0.767517 0.253197
O O15 0.700516 0.026242 0.282524
O O16 0.501687 0.306325 0.155113
O O17 0.298956 0.610793 0.536573
#
# Coordination Sequence:
#
# PCOD9096221 Si02
#       8
#     2   2   2   2   2   2   2   2
#     4  11  22  41  65  91 129 160 212 266 309 370
#     4  10  20  38  64  95 126 158 210 262 316 357
#     4  12  27  42  63  92 130 170 210 251 316 389
#     4  11  20  35  65  95 127 154 208 266 300 371
#     4  10  22  40  58  94 126 170 204 255 318 368
#     4  11  23  40  65  95 128 167 201 263 321 372
#     4  11  21  38  69 102 117 157 216 266 316 355
#     4  10  20  35  63  94 124 159 209 262 310 366
#
# _framework density 21.357209999999998
#
# number of rings (size 3 to 8) (size 9 to 14) (size 15 to 20)
#    0.000    1.250    5.000    1.875    1.750    1.000 
#    0.000    3.750    0.000    1.500    0.000    0.000 
#    0.000    0.000    0.000    0.000    0.000    0.000 
#
# Total GULP energy -89259.608998 kJ/mol
# GULP energy per Si atom -5578.725562 kJ/mol
# Density = 2.130860 g / cm^3
# Si number density = 21.357210 Si / 1000 Ang^3
#
#
#
# Elastic Constant Matrix: (Units=GPa)
#
#
# Indices 1 2 3 4 5 6 
#
# 1 79.9596 17.5134 26.9403 -9.6517 27.0676 -16.8895
# 2 17.5134 103.2925 21.2105 -2.4323 12.2255 -10.6328
# 3 26.9403 21.2105 54.7843 -18.7282 11.8464 -6.7861
# 4 -9.6517 -2.4323 -18.7282 24.3577 -2.9484 1.1189
# 5 27.0676 12.2255 11.8464 -2.9484 26.1092 -9.2639
# 6 -16.8895 -10.6328 -6.7861 1.1189 -9.2639 28.2802
#
#
#
# Elastic Compliance Matrix: (Units=1/GPa)
#
#
# Indices 1 2 3 4 5 6 
#
# 1 0.021892 0.000205 -0.005558 0.001978 -0.017970 0.005853
# 2 0.000205 0.011067 -0.004369 -0.002629 -0.002857 0.002404
# 3 -0.005558 -0.004369 0.030444 0.020319 -0.003581 0.000366
# 4 0.001978 -0.002629 0.020319 0.056754 -0.002973 0.001849
# 5 -0.017970 -0.002857 -0.003581 -0.002973 0.062352 0.007877
# 6 0.005853 0.002404 0.000366 0.001849 0.007877 0.042355
#
#
# Mechanical properties :
#
#
# Convention : Reuss Voigt Hill
#
# Bulk Modulus (GPa) = 22.74817 41.04053 31.89435
# Shear Modulus (GPa) = 19.30796 27.24091 23.27443
#
# Velocity S-wave (km/s) = 3.01000 3.57528 3.30475
# Velocity P-wave (km/s) = 4.77017 6.02507 5.43397
#
# Compressibility (1/GPa) = 0.04395958
#
# Stress axis : x y z
#
# Youngs Moduli (GPa) = 45.67837 90.35699 32.84735
#
# Poissons Ratio (x) = -0.01857 0.18257
# Poissons Ratio (y) = -0.00939 0.14351
# Poissons Ratio (z) = 0.25389 0.39478
#
# Static dielectric constant tensor:
#      x y z
#    x 1.851520 -0.025710 -0.009650 
#    y -0.025710 1.791820 -0.016740 
#    z -0.009650 -0.016740 1.793690 
# 
# From -- ./inp_files/180400.got.cif
#   From: 2010.05.17/outbox.cif.g08.bks.cpg/sg2_91_cif.got.tgz:180400.got - 2010.06.03 11:33:40.
