data_PCOD9096778
_publ_section_title
;
Structure prediction by ZEFSAII (Michael W. Deem and Ramdas Pophale) SiO2 
 PCOD9096778
Probable space group: P -1
;
_chemical_formula_sum "Si O2"
_cell_formula_units_Z 14
_cell_length_a 8.514359
_cell_length_b 27.541530
_cell_length_c 6.539763
_cell_angle_alpha 59.632350
_cell_angle_beta 120.701660
_cell_angle_gamma 146.351732
_cell_volume 720.125188
_symmetry_space_group_name_H-M "P -1"
_symmetry_group_IT_number 2
_symmetry_cell_setting 'triclinic'
loop_
_space_group_symop_operation_xyz
x,y,z
-x,-y,-z
loop_
_atom_site_type_symbol
_atom_site_label
_atom_site_fract_x
_atom_site_fract_y
_atom_site_fract_z
Si Si1 0.234155 0.998074 0.816144
Si Si2 0.310727 0.241644 0.631723
Si Si3 0.201580 0.589574 0.650944
Si Si4 0.683446 0.300527 0.132240
Si Si5 0.703157 0.068264 0.671068
Si Si6 0.189200 0.456978 0.865964
Si Si7 0.309854 0.146160 0.498737
O O1 0.525529 0.053106 0.770270
O O2 0.248059 0.068126 0.687994
O O3 0.982679 0.910453 0.698930
O O4 0.185520 0.962085 0.084490
O O5 0.514775 0.336479 0.461682
O O6 0.353056 0.196911 0.611654
O O7 0.969268 0.169628 0.562071
O O8 0.428064 0.258555 0.900019
O O9 0.255418 0.637334 0.789794
O O10 0.172098 0.515949 0.826464
O O11 0.942953 0.558409 0.414949
O O12 0.572196 0.220220 0.357732
O O13 0.960494 0.363540 0.034974
O O14 0.500000 0.000000 0.500000
O O15 0.500000 0.500000 0.000000
#
# Coordination Sequence:
#
# PCOD9096778 Si02
#       7
#     2   2   2   2   2   2   2
#     4  10  22  34  54  80 112 147 196 240 284 328
#     4  10  20  36  58  81 115 155 191 231 287 343
#     4   9  21  39  61  87 118 153 189 236 293 351
#     4  10  20  38  60  81 118 155 187 233 295 347
#     4  11  21  36  54  82 114 152 192 240 285 337
#     4  10  21  39  63  91 115 147 193 239 290 351
#     4  10  20  37  55  81 108 150 195 236 280 341
#
# _framework density 19.441063
#
# number of rings (size 3 to 8) (size 9 to 14) (size 15 to 20)
#    0.000    2.000    2.857    0.429    0.000    3.429 
#    0.000    7.143    0.000    0.000    0.000    0.000 
#    0.000    0.000    0.000    0.000    0.000    0.000 
#
# Total GULP energy -77958.028946 kJ/mol
# GULP energy per Si atom -5568.430639 kJ/mol
# Density = 1.939681 g / cm^3
# Si number density = 19.441063 Si / 1000 Ang^3
#
#
#
# Elastic Constant Matrix: (Units=GPa)
#
#
# Indices 1 2 3 4 5 6 
#
# 1 27.9058 15.1288 15.4341 6.4149 1.1619 11.1470
# 2 15.1288 95.8881 26.8037 6.6596 4.4971 13.9558
# 3 15.4341 26.8037 80.5116 12.4430 -1.3077 -5.1531
# 4 6.4149 6.6596 12.4430 37.7646 -0.0962 -10.4628
# 5 1.1619 4.4971 -1.3077 -0.0962 16.0110 5.9932
# 6 11.1470 13.9558 -5.1531 -10.4628 5.9932 37.4629
#
#
#
# Elastic Compliance Matrix: (Units=1/GPa)
#
#
# Indices 1 2 3 4 5 6 
#
# 1 0.052034 -0.002359 -0.008688 -0.010923 0.003369 -0.019389
# 2 -0.002359 0.012806 -0.003853 -0.001930 -0.001945 -0.004827
# 3 -0.008688 -0.003853 0.015983 -0.001545 0.000896 0.005644
# 4 -0.010923 -0.001930 -0.001545 0.032926 -0.003661 0.013538
# 5 0.003369 -0.001945 0.000896 -0.003661 0.067280 -0.011940
# 6 -0.019389 -0.004827 0.005644 0.013538 -0.011940 0.040728
#
#
# Mechanical properties :
#
#
# Convention : Reuss Voigt Hill
#
# Bulk Modulus (GPa) = 19.59866 35.44872 27.52369
# Shear Modulus (GPa) = 18.61750 28.04363 23.33057
#
# Velocity S-wave (km/s) = 3.09793 3.80214 3.46796
# Velocity P-wave (km/s) = 4.78531 6.12769 5.49762
#
# Compressibility (1/GPa) = 0.05102391
#
# Stress axis : x y z
#
# Youngs Moduli (GPa) = 19.21813 78.08932 62.56468
#
# Poissons Ratio (x) = 0.18419 0.54355
# Poissons Ratio (y) = 0.04533 0.24108
# Poissons Ratio (z) = 0.16696 0.30090
#
# Static dielectric constant tensor:
#      x y z
#    x 1.696910 0.034880 0.038390 
#    y 0.034880 1.713730 0.014540 
#    z 0.038390 0.014540 1.750920 
# 
# From -- ./inp_files/33418.got.cif
#   From: 2010.05.17/outbox.cif.g08.bks.cpg/sg2_17_cif.got.tgz:33418.got - 2010.06.03 11:33:40.
