data_PCOD9096150
_publ_section_title
;
Structure prediction by ZEFSAII (Michael W. Deem and Ramdas Pophale) SiO2 
 PCOD9096150
Probable space group: P -1
;
_chemical_formula_sum "Si O2"
_cell_formula_units_Z 16
_cell_length_a 9.337753
_cell_length_b 13.583571
_cell_length_c 19.696328
_cell_angle_alpha 156.982581
_cell_angle_beta 136.408082
_cell_angle_gamma 45.623359
_cell_volume 668.566828
_symmetry_space_group_name_H-M "P -1"
_symmetry_group_IT_number 2
_symmetry_cell_setting 'triclinic'
loop_
_space_group_symop_operation_xyz
x,y,z
-x,-y,-z
loop_
_atom_site_type_symbol
_atom_site_label
_atom_site_fract_x
_atom_site_fract_y
_atom_site_fract_z
Si Si1 0.879528 0.230588 0.948638
Si Si2 0.074568 0.180747 0.390107
Si Si3 0.327166 0.941647 0.959825
Si Si4 0.610085 0.742342 0.340791
Si Si5 0.642176 0.309207 0.479247
Si Si6 0.928774 0.748509 0.345369
Si Si7 0.547092 0.183724 0.927394
Si Si8 0.302675 0.506395 0.586751
O O1 0.706584 0.187145 0.919821
O O2 0.895690 0.528369 0.141614
O O3 0.862407 0.113262 0.792838
O O4 0.106395 0.099402 0.967601
O O5 0.187758 0.290013 0.560806
O O6 0.157840 0.292639 0.419148
O O7 0.829400 0.284217 0.373710
O O8 0.362150 0.955267 0.060433
O O9 0.324988 0.649574 0.754947
O O10 0.500000 0.000000 0.000000
O O11 0.507814 0.481890 0.126291
O O12 0.707890 0.808717 0.344953
O O13 0.500000 0.000000 0.500000
O O14 0.500000 0.500000 0.500000
O O15 0.880651 0.353563 0.602597
O O16 0.519704 0.388666 0.557295
O O17 0.621767 0.009973 0.271000
O O18 0.000000 0.000000 0.500000
#
# Coordination Sequence:
#
# PCOD9096150 Si02
#       8
#     2   2   2   2   2   2   2   2
#     4  10  22  41  66  91 125 176 216 266 322 397
#     4  10  20  39  64  95 123 163 218 261 312 379
#     4  11  21  34  59  98 134 167 209 268 331 383
#     4  11  26  45  68  91 127 178 224 270 318 399
#     4  12  24  42  67 100 137 172 213 272 335 388
#     4  11  27  46  66  96 134 172 220 275 333 388
#     4  11  23  40  64  94 127 173 223 266 321 395
#     4  10  20  35  62  94 131 163 202 267 319 376
#
# _framework density 23.931788000000001
#
# number of rings (size 3 to 8) (size 9 to 14) (size 15 to 20)
#    0.000    1.250    2.500    3.375    1.750    5.000 
#    0.000    3.750    0.000    0.000    0.000    0.000 
#    0.000    0.000    0.000    0.000    0.000    0.000 
#
# Total GULP energy -89187.198654 kJ/mol
# GULP energy per Si atom -5574.199916 kJ/mol
# Density = 2.387732 g / cm^3
# Si number density = 23.931788 Si / 1000 Ang^3
#
#
#
# Elastic Constant Matrix: (Units=GPa)
#
#
# Indices 1 2 3 4 5 6 
#
# 1 65.2477 12.0656 30.0301 22.1385 1.8042 -14.6057
# 2 12.0656 40.8053 7.8356 1.3103 -4.4377 -2.4359
# 3 30.0301 7.8356 187.0582 13.4743 -12.4478 -2.5329
# 4 22.1385 1.3103 13.4743 33.6920 -0.5582 -1.9861
# 5 1.8042 -4.4377 -12.4478 -0.5582 38.0219 8.3827
# 6 -14.6057 -2.4359 -2.5329 -1.9861 8.3827 29.4111
#
#
#
# Elastic Compliance Matrix: (Units=1/GPa)
#
#
# Indices 1 2 3 4 5 6 
#
# 1 0.026079 -0.006533 -0.003062 -0.015000 -0.006058 0.012860
# 2 -0.006533 0.026654 -0.000069 0.003234 0.003871 -0.001928
# 3 -0.003062 -0.000069 0.006015 -0.000453 0.002485 -0.001747
# 4 -0.015000 0.003234 -0.000453 0.039322 0.002694 -0.005333
# 5 -0.006058 0.003871 0.002485 0.002694 0.030302 -0.010929
# 6 0.012860 -0.001928 -0.001747 -0.005333 -0.010929 0.042832
#
#
# Mechanical properties :
#
#
# Convention : Reuss Voigt Hill
#
# Bulk Modulus (GPa) = 25.36775 43.66378 34.51576
# Shear Modulus (GPa) = 24.54941 36.43696 30.49319
#
# Velocity S-wave (km/s) = 3.20630 3.90620 3.57343
# Velocity P-wave (km/s) = 4.93256 6.21524 5.61068
#
# Compressibility (1/GPa) = 0.03942014
#
# Stress axis : x y z
#
# Youngs Moduli (GPa) = 38.34510 37.51835 166.26092
#
# Poissons Ratio (x) = 0.24510 0.50901
# Poissons Ratio (y) = 0.25050 0.01151
# Poissons Ratio (z) = 0.11739 0.00260
#
# Static dielectric constant tensor:
#      x y z
#    x 1.947580 0.041880 0.062870 
#    y 0.041880 2.010930 0.010140 
#    z 0.062870 0.010140 2.018610 
# 
# From -- ./inp_files/278981.got.cif
#   From: 2010.05.17/outbox.cif.g08.bks.cpg/sg2_140_cif.got.tgz:278981.got - 2010.06.03 11:33:40.
