data_PCOD9096177
_publ_section_title
;
Structure prediction by ZEFSAII (Michael W. Deem and Ramdas Pophale) SiO2 
 PCOD9096177
Probable space group: P -1
;
_chemical_formula_sum "Si O2"
_cell_formula_units_Z 16
_cell_length_a 7.131166
_cell_length_b 9.219047
_cell_length_c 11.248115
_cell_angle_alpha 107.238504
_cell_angle_beta 117.425661
_cell_angle_gamma 70.255280
_cell_volume 608.948905
_symmetry_space_group_name_H-M "P -1"
_symmetry_group_IT_number 2
_symmetry_cell_setting 'triclinic'
loop_
_space_group_symop_operation_xyz
x,y,z
-x,-y,-z
loop_
_atom_site_type_symbol
_atom_site_label
_atom_site_fract_x
_atom_site_fract_y
_atom_site_fract_z
Si Si1 0.756425 0.349760 0.414612
Si Si2 0.120685 0.092647 0.725077
Si Si3 0.391052 0.823117 0.875814
Si Si4 0.796760 0.923025 0.511637
Si Si5 0.622444 0.667897 0.128308
Si Si6 0.665466 0.688626 0.571031
Si Si7 0.751573 0.404812 0.907889
Si Si8 0.836397 0.697362 0.870074
O O1 0.693873 0.311250 0.252465
O O2 0.983522 0.222689 0.471555
O O3 0.757705 0.527964 0.487154
O O4 0.558702 0.322199 0.433277
O O5 0.168424 0.261882 0.782413
O O6 0.254448 0.029186 0.627635
O O7 0.227652 0.983970 0.837356
O O8 0.883616 0.061032 0.633167
O O9 0.619996 0.818357 0.878280
O O10 0.452175 0.780975 0.018075
O O11 0.640058 0.841772 0.519858
O O12 0.703462 0.510614 0.039249
O O13 0.469076 0.651152 0.189918
O O14 0.836379 0.702623 0.729622
O O15 0.965548 0.281604 0.984160
O O16 0.799113 0.525411 0.854006
#
# Coordination Sequence:
#
# PCOD9096177 Si02
#       8
#     2   2   2   2   2   2   2   2
#     4   9  20  36  58  92 114 142 193 242 284 341
#     4  10  22  38  56  82 116 151 197 230 269 345
#     4   9  19  38  56  78 120 149 181 241 275 331
#     4  10  22  39  58  82 119 155 190 239 278 336
#     4  10  20  35  63  83 108 153 187 230 294 337
#     4  10  20  35  63  87 113 155 184 237 297 341
#     4   9  20  35  57  89 113 140 182 249 286 333
#     4   9  19  36  56  82 123 137 184 238 292 337
#
# _framework density 26.274784
#
# number of rings (size 3 to 8) (size 9 to 14) (size 15 to 20)
#    0.000    2.500    0.000    0.750    5.250    5.000 
#    0.000   10.625   22.000    0.000    0.000    0.000 
#    0.000    0.000    0.000    0.000    0.000    0.000 
#
# Total GULP energy -89454.872527 kJ/mol
# GULP energy per Si atom -5590.929533 kJ/mol
# Density = 2.621498 g / cm^3
# Si number density = 26.274784 Si / 1000 Ang^3
#
#
#
# Elastic Constant Matrix: (Units=GPa)
#
#
# Indices 1 2 3 4 5 6 
#
# 1 93.9411 19.2449 1.6964 5.4581 3.9307 19.8000
# 2 19.2449 75.6934 22.4780 7.0267 1.9643 15.0190
# 3 1.6964 22.4780 73.6220 -3.4839 0.3899 2.2111
# 4 5.4581 7.0267 -3.4839 37.9489 -1.5949 6.0517
# 5 3.9307 1.9643 0.3899 -1.5949 18.2092 -7.6345
# 6 19.8000 15.0190 2.2111 6.0517 -7.6345 47.5336
#
#
#
# Elastic Compliance Matrix: (Units=1/GPa)
#
#
# Indices 1 2 3 4 5 6 
#
# 1 0.012395 -0.002079 0.000496 -0.000722 -0.004702 -0.005193
# 2 -0.002079 0.016380 -0.004933 -0.002643 -0.003231 -0.004262
# 3 0.000496 -0.004933 0.015165 0.002183 0.000478 0.000445
# 4 -0.000722 -0.002643 0.002183 0.027571 0.001899 -0.002171
# 5 -0.004702 -0.003231 0.000478 0.001899 0.061733 0.012631
# 6 -0.005193 -0.004262 0.000445 -0.002171 0.012631 0.026832
#
#
# Mechanical properties :
#
#
# Convention : Reuss Voigt Hill
#
# Bulk Modulus (GPa) = 32.35517 36.67721 34.51619
# Shear Modulus (GPa) = 27.26130 34.06082 30.66106
#
# Velocity S-wave (km/s) = 3.22459 3.60437 3.41975
# Velocity P-wave (km/s) = 5.11907 5.59565 5.36266
#
# Compressibility (1/GPa) = 0.03090696
#
# Stress axis : x y z
#
# Youngs Moduli (GPa) = 80.67688 61.05133 65.94130
#
# Poissons Ratio (x) = 0.12695 -0.03270
# Poissons Ratio (y) = 0.16776 0.32529
# Poissons Ratio (z) = -0.04001 0.30117
#
# Static dielectric constant tensor:
#      x y z
#    x 2.141100 -0.000520 0.020900 
#    y -0.000520 2.090880 0.040080 
#    z 0.020900 0.040080 2.098780 
# 
# From -- ./inp_files/378874.got.cif
#   From: 2010.05.17/outbox.cif.g08.bks.cpg/sg2_190_cif.got.tgz:378874.got - 2010.06.03 11:33:40.
