data_PCOD9096370
_publ_section_title
;
Structure prediction by ZEFSAII (Michael W. Deem and Ramdas Pophale) SiO2 
 PCOD9096370
Probable space group: P -1
;
_chemical_formula_sum "Si O2"
_cell_formula_units_Z 14
_cell_length_a 12.292342
_cell_length_b 8.984095
_cell_length_c 14.256478
_cell_angle_alpha 147.728843
_cell_angle_beta 44.493086
_cell_angle_gamma 119.521399
_cell_volume 562.906309
_symmetry_space_group_name_H-M "P -1"
_symmetry_group_IT_number 2
_symmetry_cell_setting 'triclinic'
loop_
_space_group_symop_operation_xyz
x,y,z
-x,-y,-z
loop_
_atom_site_type_symbol
_atom_site_label
_atom_site_fract_x
_atom_site_fract_y
_atom_site_fract_z
Si Si1 0.004999 0.856549 0.320955
Si Si2 0.967773 0.992407 0.824007
Si Si3 0.270993 0.285265 0.223561
Si Si4 0.282308 0.384394 0.655170
Si Si5 0.258051 0.235596 0.799541
Si Si6 0.522309 0.513770 0.102525
Si Si7 0.600009 0.867583 0.743791
O O1 0.043049 0.996357 0.276575
O O2 0.826227 0.832881 0.404305
O O3 0.121499 0.529103 0.070841
O O4 0.000000 0.000000 0.500000
O O5 0.148178 0.011973 0.748642
O O6 0.885018 0.733059 0.750156
O O7 0.839685 0.287080 0.099459
O O8 0.352008 0.520841 0.257887
O O9 0.281240 0.311030 0.343857
O O10 0.412434 0.974494 0.951179
O O11 0.328399 0.319705 0.701854
O O12 0.390584 0.297098 0.448614
O O13 0.403313 0.229938 0.778244
O O14 0.500000 0.500000 0.000000
O O15 0.632420 0.184234 0.885704
#
# Coordination Sequence:
#
# PCOD9096370 Si02
#       7
#     2   2   2   2   2   2   2
#     4   9  15  24  47  73 103 127 159 194 245 292
#     4   9  17  29  45  75 105 122 155 205 250 285
#     4   9  19  33  50  74 102 125 166 201 244 290
#     4   9  16  27  47  79 102 127 155 205 250 288
#     4   9  18  30  47  71 101 128 161 203 241 289
#     4  10  20  36  51  67  96 137 170 196 240 294
#     4   9  18  31  53  74 102 129 165 200 245 287
#
# _framework density 24.870923000000001
#
# number of rings (size 3 to 8) (size 9 to 14) (size 15 to 20)
#    0.857    2.000    0.000    5.143    0.000    0.571 
#    0.000    1.429    0.000    0.000    0.000   19.000 
#    0.000    0.000    0.000    0.000    0.000    0.000 
#
# Total GULP energy -77941.232448 kJ/mol
# GULP energy per Si atom -5567.230889 kJ/mol
# Density = 2.481432 g / cm^3
# Si number density = 24.870923 Si / 1000 Ang^3
#
#
#
# Elastic Constant Matrix: (Units=GPa)
#
#
# Indices 1 2 3 4 5 6 
#
# 1 89.4983 82.1312 35.4263 21.9636 54.0832 28.8338
# 2 82.1312 -66.1382 -17.5531 -57.6624 -74.9582 36.6714
# 3 35.4263 -17.5531 151.4281 -24.5471 1.3463 -12.3626
# 4 21.9636 -57.6624 -24.5471 -11.4534 -49.2428 12.4134
# 5 54.0832 -74.9582 1.3463 -49.2428 -7.1185 3.8495
# 6 28.8338 36.6714 -12.3626 12.4134 3.8495 43.3900
#
#
#
# Elastic Compliance Matrix: (Units=1/GPa)
#
#
# Indices 1 2 3 4 5 6 
#
# 1 0.012987 0.002390 -0.002311 0.009708 -0.001626 -0.013941
# 2 0.002390 0.014859 -0.002458 -0.018858 -0.012818 -0.008314
# 3 -0.002311 -0.002458 0.007624 0.001983 -0.001074 0.005314
# 4 0.009708 -0.018858 0.001983 0.039986 -0.004434 -0.000994
# 5 -0.001626 -0.012818 -0.001074 -0.004434 0.018679 0.011219
# 6 -0.013941 -0.008314 0.005314 -0.000994 0.011219 0.040141
#
#
# Mechanical properties :
#
#
# Convention : Reuss Voigt Hill
#
# Bulk Modulus (GPa) = 32.56243 41.64410 37.10327
# Shear Modulus (GPa) = 33.49529 9.94920 21.72225
#
# Velocity S-wave (km/s) = 3.67381 2.00225 2.95854
# Velocity P-wave (km/s) = 5.57825 4.70381 5.15959
#
# Compressibility (1/GPa) = 0.03071024
#
# Stress axis : x y z
#
# Youngs Moduli (GPa) = 77.00014 67.29881 131.15814
#
# Poissons Ratio (x) = -0.16082 0.30314
# Poissons Ratio (y) = -0.18400 0.32245
# Poissons Ratio (z) = 0.17797 0.16545
#
# Static dielectric constant tensor:
#      x y z
#    x 2.115190 0.022570 -0.009340 
#    y 0.022570 2.133670 -0.170620 
#    z -0.009340 -0.170620 2.193400 
# 
# From -- ./inp_files/518371.got.cif
#   From: 2010.05.17/outbox.cif.g08.bks.cpg/sg2_260_cif.got.tgz:518371.got - 2010.06.03 11:33:40.
