data_PCOD9096910
_publ_section_title
;
Structure prediction by ZEFSAII (Michael W. Deem and Ramdas Pophale) SiO2 
 PCOD9096910
Probable space group: P -1
;
_chemical_formula_sum "Si O2"
_cell_formula_units_Z 16
_cell_length_a 24.701073
_cell_length_b 5.332591
_cell_length_c 5.409729
_cell_angle_alpha 87.325674
_cell_angle_beta 64.925687
_cell_angle_gamma 92.726488
_cell_volume 642.928473
_symmetry_space_group_name_H-M "P -1"
_symmetry_group_IT_number 2
_symmetry_cell_setting 'triclinic'
loop_
_space_group_symop_operation_xyz
x,y,z
-x,-y,-z
loop_
_atom_site_type_symbol
_atom_site_label
_atom_site_fract_x
_atom_site_fract_y
_atom_site_fract_z
Si Si1 0.697878 0.621026 0.753497
Si Si2 0.307993 0.894783 0.998427
Si Si3 0.566852 0.030114 0.468475
Si Si4 0.811245 0.080342 0.967372
Si Si5 0.934854 0.378313 0.075924
Si Si6 0.569008 0.519062 0.772839
Si Si7 0.932864 0.082809 0.590918
Si Si8 0.183392 0.597154 0.567755
O O1 0.703246 0.922507 0.756953
O O2 0.629798 0.537968 0.811835
O O3 0.757479 0.549475 0.498388
O O4 0.701642 0.408681 0.974592
O O5 0.259208 0.010824 0.908370
O O6 0.378408 0.952589 0.824635
O O7 0.574889 0.780305 0.611242
O O8 0.500000 0.000000 0.500000
O O9 0.573184 0.277899 0.606792
O O10 0.869345 0.926797 0.795258
O O11 0.815079 0.276128 0.713905
O O12 0.818046 0.198643 0.219296
O O13 0.928540 0.159195 0.308374
O O14 0.881205 0.548422 0.254083
O O15 0.931536 0.299925 0.797778
O O16 0.000000 0.500000 0.000000
O O17 0.500000 0.500000 0.000000
O O18 0.000000 0.000000 0.500000
#
# Coordination Sequence:
#
# PCOD9096910 Si02
#       8
#     2   2   2   2   2   2   2   2
#     4  11  23  42  65  94 128 169 217 274 332 396
#     4  11  23  42  65  94 128 169 217 274 332 396
#     4  12  24  41  64  93 129 172 220 276 332 396
#     4   9  20  39  61  88 127 172 218 270 330 395
#     4  10  20  36  58  87 124 165 213 268 327 391
#     4  12  24  41  64  93 129 172 220 276 332 396
#     4  10  20  36  58  87 124 165 213 268 327 391
#     4   9  20  39  61  88 127 172 218 270 330 395
#
# _framework density 24.886127999999999
#
# number of rings (size 3 to 8) (size 9 to 14) (size 15 to 20)
#    0.000    1.500    0.000    5.250    0.000    3.000 
#    0.000    6.250    0.000    0.000    0.000    0.000 
#    0.000    0.000    0.000    0.000    0.000    0.000 
#
# Total GULP energy -89068.141116 kJ/mol
# GULP energy per Si atom -5566.758820 kJ/mol
# Density = 2.482949 g / cm^3
# Si number density = 24.886128 Si / 1000 Ang^3
#
#
#
# Elastic Constant Matrix: (Units=GPa)
#
#
# Indices 1 2 3 4 5 6 
#
# 1 171.6762 -0.5808 48.3463 7.5712 -31.7304 -8.0369
# 2 -0.5808 87.1009 26.4646 9.5156 14.1470 -13.3916
# 3 48.3463 26.4646 112.9555 18.2581 -15.7491 -18.8523
# 4 7.5712 9.5156 18.2581 32.8453 -7.2258 2.1313
# 5 -31.7304 14.1470 -15.7491 -7.2258 65.2644 8.9262
# 6 -8.0369 -13.3916 -18.8523 2.1313 8.9262 38.1753
#
#
#
# Elastic Compliance Matrix: (Units=1/GPa)
#
#
# Indices 1 2 3 4 5 6 
#
# 1 0.007117 0.000337 -0.002902 0.000527 0.002814 -0.000504
# 2 0.000337 0.014287 -0.002629 -0.004127 -0.004725 0.005120
# 3 -0.002902 -0.002629 0.012547 -0.005653 0.000909 0.004766
# 4 0.000527 -0.004127 -0.005653 0.036187 0.004787 -0.007268
# 5 0.002814 -0.004725 0.000909 0.004787 0.019199 -0.005372
# 6 -0.000504 0.005120 0.004766 -0.007268 -0.005372 0.031900
#
#
# Mechanical properties :
#
#
# Convention : Reuss Voigt Hill
#
# Bulk Modulus (GPa) = 42.43813 57.79920 50.11867
# Shear Modulus (GPa) = 35.84767 47.09050 41.46908
#
# Velocity S-wave (km/s) = 3.79947 4.35471 4.08653
# Velocity P-wave (km/s) = 6.02809 6.96854 6.51530
#
# Compressibility (1/GPa) = 0.02356371
#
# Stress axis : x y z
#
# Youngs Moduli (GPa) = 140.51829 69.99206 79.70018
#
# Poissons Ratio (x) = -0.02359 0.23128
# Poissons Ratio (y) = -0.04737 0.20952
# Poissons Ratio (z) = 0.40776 0.18400
#
# Static dielectric constant tensor:
#      x y z
#    x 1.776810 0.048530 0.077730 
#    y 0.048530 2.016120 -0.058420 
#    z 0.077730 -0.058420 2.001340 
# 
# From -- ./inp_files/121625.got.cif
#   From: 2010.05.17/outbox.cif.g08.bks.cpg/sg2_61_cif.got.tgz:121625.got - 2010.06.03 11:33:40.
