data_PCOD9096284
_publ_section_title
;
Structure prediction by ZEFSAII (Michael W. Deem and Ramdas Pophale) SiO2 
 PCOD9096284
Probable space group: P -1
;
_chemical_formula_sum "Si O2"
_cell_formula_units_Z 16
_cell_length_a 19.778095
_cell_length_b 5.619284
_cell_length_c 8.668761
_cell_angle_alpha 118.892217
_cell_angle_beta 53.015222
_cell_angle_gamma 126.099016
_cell_volume 609.337033
_symmetry_space_group_name_H-M "P -1"
_symmetry_group_IT_number 2
_symmetry_cell_setting 'triclinic'
loop_
_space_group_symop_operation_xyz
x,y,z
-x,-y,-z
loop_
_atom_site_type_symbol
_atom_site_label
_atom_site_fract_x
_atom_site_fract_y
_atom_site_fract_z
Si Si1 0.239538 0.802627 0.348754
Si Si2 0.947362 0.657722 0.016783
Si Si3 0.400784 0.802428 0.649653
Si Si4 0.784582 0.262490 0.283568
Si Si5 0.428376 0.341954 0.289658
Si Si6 0.186658 0.172819 0.117122
Si Si7 0.919292 0.250238 0.637795
Si Si8 0.388514 0.300137 0.993012
O O1 0.206986 0.712832 0.538896
O O2 0.216998 0.523555 0.179254
O O3 0.168094 0.919483 0.409577
O O4 0.350183 0.003872 0.276637
O O5 0.914647 0.468934 0.846982
O O6 0.853338 0.578978 0.215528
O O7 0.000000 0.500000 0.000000
O O8 0.000000 0.000000 0.000000
O O9 0.318131 0.811061 0.661080
O O10 0.397833 0.474178 0.522803
O O11 0.500000 0.000000 0.500000
O O12 0.402082 0.990821 0.859127
O O13 0.815755 0.010720 0.091724
O O14 0.540552 0.466286 0.156848
O O15 0.410472 0.452987 0.178965
O O16 0.094419 0.022538 0.306293
O O17 0.279464 0.182982 0.075695
O O18 0.000000 0.500000 0.500000
#
# Coordination Sequence:
#
# PCOD9096284 Si02
#       8
#     2   2   2   2   2   2   2   2
#     4  12  25  41  69 104 138 182 238 293 363 437
#     4  11  27  49  76 109 144 189 246 301 377 444
#     4   9  19  38  64  94 135 185 234 292 351 428
#     4  10  24  43  69 101 144 189 234 303 364 432
#     4  10  20  35  64  97 129 181 234 279 357 417
#     4  10  23  44  63  97 140 176 237 282 363 422
#     4  11  26  45  71  99 140 181 234 303 364 439
#     4   9  18  39  62  90 136 181 227 293 340 420
#
# _framework density 26.258050000000001
#
# number of rings (size 3 to 8) (size 9 to 14) (size 15 to 20)
#    0.000    1.750    1.250    1.500    5.250    3.000 
#    0.000    5.625    0.000    0.000    0.000    0.000 
#    0.000    0.000    0.000    0.000    0.000    0.000 
#
# Total GULP energy -89170.153777 kJ/mol
# GULP energy per Si atom -5573.134611 kJ/mol
# Density = 2.619829 g / cm^3
# Si number density = 26.258050 Si / 1000 Ang^3
#
#
#
# Elastic Constant Matrix: (Units=GPa)
#
#
# Indices 1 2 3 4 5 6 
#
# 1 85.3892 38.4104 42.2770 -12.0495 8.0482 19.1732
# 2 38.4104 144.4017 43.0855 0.2748 7.5855 18.2423
# 3 42.2770 43.0855 115.1311 -14.3807 3.2366 4.8375
# 4 -12.0495 0.2748 -14.3807 44.8390 -1.5356 0.2961
# 5 8.0482 7.5855 3.2366 -1.5356 16.5636 -0.8515
# 6 19.1732 18.2423 4.8375 0.2961 -0.8515 29.1299
#
#
#
# Elastic Compliance Matrix: (Units=1/GPa)
#
#
# Indices 1 2 3 4 5 6 
#
# 1 0.018520 -0.001679 -0.005125 0.003157 -0.007478 -0.010538
# 2 -0.001679 0.008826 -0.002607 -0.001419 -0.003057 -0.004064
# 3 -0.005125 -0.002607 0.011665 0.002421 0.001788 0.003096
# 4 0.003157 -0.001419 0.002421 0.023974 0.000772 -0.001812
# 5 -0.007478 -0.003057 0.001788 0.000772 0.065563 0.008448
# 6 -0.010538 -0.004064 0.003096 -0.001812 0.008448 0.043561
#
#
# Mechanical properties :
#
#
# Convention : Reuss Voigt Hill
#
# Bulk Modulus (GPa) = 49.53060 65.82975 57.68017
# Shear Modulus (GPa) = 25.29556 32.84978 29.07267
#
# Velocity S-wave (km/s) = 3.10715 3.54084 3.33106
# Velocity P-wave (km/s) = 5.63706 6.46850 6.06704
#
# Compressibility (1/GPa) = 0.02018954
#
# Stress axis : x y z
#
# Youngs Moduli (GPa) = 53.99461 113.29666 85.72375
#
# Poissons Ratio (x) = 0.19024 0.43934
# Poissons Ratio (y) = 0.09066 0.22349
# Poissons Ratio (z) = 0.27673 0.29537
#
# Static dielectric constant tensor:
#      x y z
#    x 2.200610 -0.069420 -0.115610 
#    y -0.069420 2.261750 0.013770 
#    z -0.115610 0.013770 2.133450 
# 
# From -- ./inp_files/110844.got.cif
#   From: 2010.05.17/outbox.cif.g08.bks.cpg/sg2_56_cif.got.tgz:110844.got - 2010.06.03 11:33:40.
