data_PCOD9096243
_publ_section_title
;
Structure prediction by ZEFSAII (Michael W. Deem and Ramdas Pophale) SiO2 
 PCOD9096243
Probable space group: P -1
;
_chemical_formula_sum "Si O2"
_cell_formula_units_Z 14
_cell_length_a 12.213209
_cell_length_b 7.707161
_cell_length_c 9.447753
_cell_angle_alpha 109.856045
_cell_angle_beta 38.357074
_cell_angle_gamma 113.463914
_cell_volume 505.648514
_symmetry_space_group_name_H-M "P -1"
_symmetry_group_IT_number 2
_symmetry_cell_setting 'triclinic'
loop_
_space_group_symop_operation_xyz
x,y,z
-x,-y,-z
loop_
_atom_site_type_symbol
_atom_site_label
_atom_site_fract_x
_atom_site_fract_y
_atom_site_fract_z
Si Si1 0.290250 0.534150 0.134164
Si Si2 0.392076 0.284482 0.447996
Si Si3 0.639001 0.867055 0.838896
Si Si4 0.370369 0.196657 0.774645
Si Si5 0.255005 0.598020 0.503267
Si Si6 0.909666 0.161985 0.077324
Si Si7 0.789048 0.212301 0.944120
O O1 0.499784 0.665973 0.960538
O O2 0.290712 0.344223 0.992227
O O3 0.780328 0.490669 0.640433
O O4 0.178529 0.660819 0.195001
O O5 0.283867 0.142540 0.399291
O O6 0.350265 0.249316 0.644404
O O7 0.341136 0.475339 0.495250
O O8 0.602420 0.273370 0.204179
O O9 0.500000 0.000000 0.000000
O O10 0.771992 0.993723 0.850065
O O11 0.573499 0.223088 0.634363
O O12 0.284125 0.974254 0.805089
O O13 0.100924 0.684411 0.752874
O O14 0.947152 0.260698 0.914438
O O15 0.000000 0.000000 0.000000
#
# Coordination Sequence:
#
# PCOD9096243 Si02
#       7
#     2   2   2   2   2   2   2
#     4  10  21  35  64 103 125 155 200 268 315 369
#     4  10  20  35  64 103 124 154 201 265 315 368
#     4   8  17  29  58  97 135 142 195 250 327 354
#     4  12  22  38  67  96 126 159 211 260 320 357
#     4  12  22  39  68 100 126 154 212 259 314 375
#     4  12  29  44  59  88 131 173 213 254 307 376
#     4  10  20  39  63  89 139 158 202 253 325 358
#
# _framework density 27.687215999999999
#
# number of rings (size 3 to 8) (size 9 to 14) (size 15 to 20)
#    0.000    1.714    4.286    3.000    8.000    0.000 
#    0.000    4.286    0.000    0.000    0.000    0.000 
#    0.000    0.000    0.000    0.000    0.000    0.000 
#
# Total GULP energy -78219.115694 kJ/mol
# GULP energy per Si atom -5587.079692 kJ/mol
# Density = 2.762420 g / cm^3
# Si number density = 27.687216 Si / 1000 Ang^3
#
#
#
# Elastic Constant Matrix: (Units=GPa)
#
#
# Indices 1 2 3 4 5 6 
#
# 1 147.2211 30.2233 85.4618 7.1465 48.7719 -34.0635
# 2 30.2233 117.2887 45.5612 22.6450 8.2696 -6.5575
# 3 85.4618 45.5612 120.6656 28.9733 40.0877 1.2094
# 4 7.1465 22.6450 28.9733 42.6356 9.3980 -2.4465
# 5 48.7719 8.2696 40.0877 9.3980 67.8735 5.8746
# 6 -34.0635 -6.5575 1.2094 -2.4465 5.8746 63.7159
#
#
#
# Elastic Compliance Matrix: (Units=1/GPa)
#
#
# Indices 1 2 3 4 5 6 
#
# 1 0.019534 -0.000327 -0.012998 0.008277 -0.008483 0.011756
# 2 -0.000327 0.010540 -0.003363 -0.003517 0.001363 0.000713
# 3 -0.012998 -0.003363 0.021812 -0.011122 -0.000896 -0.008054
# 4 0.008277 -0.003517 -0.011122 0.032711 -0.003990 0.005898
# 5 -0.008483 0.001363 -0.000896 -0.003990 0.022315 -0.006588
# 6 0.011756 0.000713 -0.008054 0.005898 -0.006588 0.023040
#
#
# Mechanical properties :
#
#
# Convention : Reuss Voigt Hill
#
# Bulk Modulus (GPa) = 54.02993 78.62978 66.32985
# Shear Modulus (GPa) = 29.49889 49.77361 39.63625
#
# Velocity S-wave (km/s) = 3.26764 4.24454 3.78772
# Velocity P-wave (km/s) = 5.81321 7.24448 6.56795
#
# Compressibility (1/GPa) = 0.01850826
#
# Stress axis : x y z
#
# Youngs Moduli (GPa) = 51.19360 94.88084 45.84559
#
# Poissons Ratio (x) = 0.03102 0.59592
# Poissons Ratio (y) = 0.01674 0.15420
# Poissons Ratio (z) = 0.66543 0.31912
#
# Static dielectric constant tensor:
#      x y z
#    x 2.269980 0.028370 -0.010080 
#    y 0.028370 2.366020 -0.165540 
#    z -0.010080 -0.165540 2.277720 
# 
# From -- ./inp_files/443275.got.cif
#   From: 2010.05.17/outbox.cif.g08.bks.cpg/sg2_222_cif.got.tgz:443275.got - 2010.06.03 11:33:40.
