data_PCOD9096430
_publ_section_title
;
Structure prediction by ZEFSAII (Michael W. Deem and Ramdas Pophale) SiO2 
 PCOD9096430
Probable space group: P -1
;
_chemical_formula_sum "Si O2"
_cell_formula_units_Z 16
_cell_length_a 7.436188
_cell_length_b 19.579840
_cell_length_c 7.115605
_cell_angle_alpha 83.809932
_cell_angle_beta 140.120774
_cell_angle_gamma 94.156167
_cell_volume 660.312655
_symmetry_space_group_name_H-M "P -1"
_symmetry_group_IT_number 2
_symmetry_cell_setting 'triclinic'
loop_
_space_group_symop_operation_xyz
x,y,z
-x,-y,-z
loop_
_atom_site_type_symbol
_atom_site_label
_atom_site_fract_x
_atom_site_fract_y
_atom_site_fract_z
Si Si1 0.310675 0.489568 0.169576
Si Si2 0.597797 0.012695 0.331561
Si Si3 0.999971 0.894934 0.591601
Si Si4 0.207733 0.763117 0.669387
Si Si5 0.962834 0.915863 0.134494
Si Si6 0.735308 0.366099 0.003773
Si Si7 0.659436 0.652914 0.655685
Si Si8 0.203639 0.220849 0.011051
O O1 0.500000 0.500000 0.500000
O O2 0.359142 0.554945 0.055315
O O3 0.362028 0.409423 0.191626
O O4 0.000000 0.500000 0.000000
O O5 0.756950 0.939105 0.484500
O O6 0.730353 0.056630 0.594418
O O7 0.263753 0.946976 0.751601
O O8 0.268974 0.024592 0.082144
O O9 0.087842 0.815826 0.717174
O O10 0.891908 0.886750 0.293555
O O11 0.993927 0.751130 0.327350
O O12 0.316878 0.692193 0.868494
O O13 0.483911 0.799329 0.801803
O O14 0.935233 0.849406 0.004599
O O15 0.598561 0.345448 0.698251
O O16 0.070350 0.364750 0.249567
O O17 0.732533 0.722100 0.800453
#
# Coordination Sequence:
#
# PCOD9096430 Si02
#       8
#     2   2   2   2   2   2   2   2
#     4   8  16  32  54  73  94 128 175 208 231 285
#     4   9  15  24  42  63  95 123 164 197 244 281
#     4   8  17  24  43  64  99 121 160 201 249 283
#     4  11  21  33  49  79 110 130 156 214 270 291
#     4   9  15  26  39  65  93 122 155 202 244 277
#     4  10  20  36  55  76 102 134 168 208 252 296
#     4  10  20  36  56  76  97 137 178 202 235 305
#     4  11  20  33  50  76 107 133 163 209 253 302
#
# _framework density 24.230944999999998
#
# number of rings (size 3 to 8) (size 9 to 14) (size 15 to 20)
#    0.750    1.750    1.250    1.875    0.000    0.000 
#    0.000    1.250    0.000    0.000    0.000    5.250 
#    0.000    0.000    0.000    0.000    0.000    0.000 
#
# Total GULP energy -89117.503587 kJ/mol
# GULP energy per Si atom -5569.843974 kJ/mol
# Density = 2.417579 g / cm^3
# Si number density = 24.230945 Si / 1000 Ang^3
#
#
#
# Elastic Constant Matrix: (Units=GPa)
#
#
# Indices 1 2 3 4 5 6 
#
# 1 7.7159 -40.7625 -7.3814 -8.0759 -20.9536 -8.6340
# 2 -40.7625 8.6764 -28.9663 -11.1401 -59.2700 -15.8205
# 3 -7.3814 -28.9663 95.1469 -7.7843 2.3519 -0.3473
# 4 -8.0759 -11.1401 -7.7843 36.8896 -0.7359 -5.6612
# 5 -20.9536 -59.2700 2.3519 -0.7359 9.0840 -10.0021
# 6 -8.6340 -15.8205 -0.3473 -5.6612 -10.0021 20.9055
#
#
#
# Elastic Compliance Matrix: (Units=1/GPa)
#
#
# Indices 1 2 3 4 5 6 
#
# 1 0.024355 -0.010279 -0.000776 0.000900 -0.016595 -0.005429
# 2 -0.010279 0.003498 0.000253 -0.002173 -0.007469 -0.005756
# 3 -0.000776 0.000253 0.010785 0.001837 -0.004604 -0.001655
# 4 0.000900 -0.002173 0.001837 0.027267 -0.007625 0.002493
# 5 -0.016595 -0.007469 -0.004604 -0.007625 0.015884 -0.007048
# 6 -0.005429 -0.005756 -0.001655 0.002493 -0.007048 0.038511
#
#
# Mechanical properties :
#
#
# Convention : Reuss Voigt Hill
#
# Bulk Modulus (GPa) = 58.70830 -4.74235 26.98297
# Shear Modulus (GPa) = 33.87955 25.95245 29.91600
#
# Velocity S-wave (km/s) = 3.74330 3.27623 3.51753
# Velocity P-wave (km/s) = 6.55472 3.51429 5.25902
#
# Compressibility (1/GPa) = 0.01703337
#
# Stress axis : x y z
#
# Youngs Moduli (GPa) = 41.05946 285.90328 92.72177
#
# Poissons Ratio (x) = 2.93889 0.07195
# Poissons Ratio (y) = 0.42206 -0.02348
# Poissons Ratio (z) = 0.03186 -0.07239
#
# Static dielectric constant tensor:
#      x y z
#    x 2.030120 0.070340 -0.047060 
#    y 0.070340 2.109150 -0.012880 
#    z -0.047060 -0.012880 1.924600 
# 
# From -- ./inp_files/222184.got.cif
#   From: 2010.05.17/outbox.cif.g08.bks.cpg/sg2_112_cif.got.tgz:222184.got - 2010.06.03 11:33:40.
