data_PCOD9096435
_publ_section_title
;
Structure prediction by ZEFSAII (Michael W. Deem and Ramdas Pophale) SiO2 
 PCOD9096435
Probable space group: P -1
;
_chemical_formula_sum "Si O2"
_cell_formula_units_Z 16
_cell_length_a 14.200386
_cell_length_b 10.537122
_cell_length_c 16.231093
_cell_angle_alpha 128.910803
_cell_angle_beta 148.098499
_cell_angle_gamma 30.808154
_cell_volume 609.812981
_symmetry_space_group_name_H-M "P -1"
_symmetry_group_IT_number 2
_symmetry_cell_setting 'triclinic'
loop_
_space_group_symop_operation_xyz
x,y,z
-x,-y,-z
loop_
_atom_site_type_symbol
_atom_site_label
_atom_site_fract_x
_atom_site_fract_y
_atom_site_fract_z
Si Si1 0.154282 0.267532 0.839688
Si Si2 0.585256 0.264911 0.429598
Si Si3 0.062605 0.697917 0.132293
Si Si4 0.878421 0.958129 0.674147
Si Si5 0.984071 0.238205 0.534313
Si Si6 0.473853 0.135055 0.799006
Si Si7 0.854724 0.404322 0.129626
Si Si8 0.554526 0.574655 0.225866
O O1 0.023561 0.294240 0.836693
O O2 0.036560 0.243254 0.668365
O O3 0.080997 0.504228 0.852492
O O4 0.500000 0.000000 0.000000
O O5 0.500000 0.500000 0.500000
O O6 0.383723 0.387330 0.247858
O O7 0.899840 0.014963 0.519300
O O8 0.613311 0.140054 0.485199
O O9 0.085328 0.876284 0.210530
O O10 0.792672 0.834976 0.933341
O O11 0.895496 0.835432 0.718743
O O12 0.170024 0.693794 0.732216
O O13 0.206968 0.205027 0.641195
O O14 0.660450 0.499367 0.367534
O O15 0.395003 0.329358 0.889220
O O16 0.487887 0.214800 0.755220
O O17 0.715559 0.346451 0.960547
#
# Coordination Sequence:
#
# PCOD9096435 Si02
#       8
#     2   2   2   2   2   2   2   2
#     4  11  21  37  55  87 122 147 182 235 298 338
#     4   9  21  36  56  84 116 152 193 237 276 338
#     4  11  18  35  59  82 116 150 187 229 291 331
#     4   9  16  33  55  81 107 149 196 226 269 338
#     4  10  21  34  54  88 117 146 189 238 282 339
#     4  10  17  30  55  83 115 138 192 238 283 321
#     4  10  17  31  57  80 112 153 187 227 282 339
#     4  10  16  30  54  86 109 142 192 241 275 324
#
# _framework density 26.237551
#
# number of rings (size 3 to 8) (size 9 to 14) (size 15 to 20)
#    0.000    2.000    5.000    1.125    0.000    1.500 
#    0.000   10.625    0.000    0.000    0.000    8.750 
#    0.000    0.000    0.000    0.000    0.000    0.000 
#
# Total GULP energy -89432.941171 kJ/mol
# GULP energy per Si atom -5589.558823 kJ/mol
# Density = 2.617783 g / cm^3
# Si number density = 26.237551 Si / 1000 Ang^3
#
#
#
# Elastic Constant Matrix: (Units=GPa)
#
#
# Indices 1 2 3 4 5 6 
#
# 1 108.6784 50.2209 20.9407 -7.4596 -15.2309 26.7288
# 2 50.2209 96.1666 42.4242 -15.4744 -17.5966 36.0578
# 3 20.9407 42.4242 110.6401 -29.7578 -22.0771 15.9598
# 4 -7.4596 -15.4744 -29.7578 39.2712 10.0342 -8.4158
# 5 -15.2309 -17.5966 -22.0771 10.0342 35.5569 4.9867
# 6 26.7288 36.0578 15.9598 -8.4158 4.9867 40.6731
#
#
#
# Elastic Compliance Matrix: (Units=1/GPa)
#
#
# Indices 1 2 3 4 5 6 
#
# 1 0.013124 -0.004079 0.000678 -0.001266 0.005248 -0.006180
# 2 -0.004079 0.021989 -0.003572 -0.000834 0.009501 -0.016749
# 3 0.000678 -0.003572 0.013498 0.007288 0.005084 -0.001691
# 4 -0.001266 -0.000834 0.007288 0.033547 -0.006806 0.006487
# 5 0.005248 0.009501 0.005084 -0.006806 0.043034 -0.020552
# 6 -0.006180 -0.016749 -0.001691 0.006487 -0.020552 0.048022
#
#
# Mechanical properties :
#
#
# Convention : Reuss Voigt Hill
#
# Bulk Modulus (GPa) = 28.84654 60.29518 44.57086
# Shear Modulus (GPa) = 25.16163 36.56021 30.86092
#
# Velocity S-wave (km/s) = 3.10012 3.73692 3.43332
# Velocity P-wave (km/s) = 4.88186 6.45366 5.72199
#
# Compressibility (1/GPa) = 0.03466620
#
# Stress axis : x y z
#
# Youngs Moduli (GPa) = 76.19391 45.47690 74.08376
#
# Poissons Ratio (x) = 0.18552 -0.05026
# Poissons Ratio (y) = 0.31083 0.26462
# Poissons Ratio (z) = -0.05169 0.16244
#
# Static dielectric constant tensor:
#      x y z
#    x 2.136890 -0.029810 0.088620 
#    y -0.029810 2.126190 -0.063150 
#    z 0.088620 -0.063150 2.403350 
# 
# From -- ./inp_files/464780.got.cif
#   From: 2010.05.17/outbox.cif.g08.bks.cpg/sg2_233_cif.got.tgz:464780.got - 2010.06.03 11:33:40.
