data_PCOD9096453
_publ_section_title
;
Structure prediction by ZEFSAII (Michael W. Deem and Ramdas Pophale) SiO2 
 PCOD9096453
Probable space group: P -1
;
_chemical_formula_sum "Si O2"
_cell_formula_units_Z 16
_cell_length_a 14.994881
_cell_length_b 8.756179
_cell_length_c 15.683311
_cell_angle_alpha 52.068691
_cell_angle_beta 153.320832
_cell_angle_gamma 125.716464
_cell_volume 725.777308
_symmetry_space_group_name_H-M "P -1"
_symmetry_group_IT_number 2
_symmetry_cell_setting 'triclinic'
loop_
_space_group_symop_operation_xyz
x,y,z
-x,-y,-z
loop_
_atom_site_type_symbol
_atom_site_label
_atom_site_fract_x
_atom_site_fract_y
_atom_site_fract_z
Si Si1 0.292529 0.427969 0.500059
Si Si2 0.908464 0.222971 0.490809
Si Si3 0.271636 0.510167 0.647981
Si Si4 0.777243 0.056806 0.129288
Si Si5 0.397505 0.730364 0.941095
Si Si6 0.607055 0.200567 0.774299
Si Si7 0.825883 0.594936 0.773330
Si Si8 0.523112 0.843086 0.500943
O O1 0.231226 0.442536 0.539966
O O2 0.423685 0.244046 0.663896
O O3 0.141510 0.393345 0.303940
O O4 0.406976 0.642739 0.506876
O O5 0.786218 0.275361 0.452476
O O6 0.756703 0.261634 0.271395
O O7 0.110575 0.369507 0.610662
O O8 0.011029 0.023324 0.642322
O O9 0.492583 0.464964 0.881485
O O10 0.721870 0.217212 0.094506
O O11 0.586777 0.891945 0.032786
O O12 0.768978 0.124973 0.000751
O O13 0.657167 0.416468 0.706368
O O14 0.562206 0.088186 0.686588
O O15 0.741207 0.779775 0.681637
O O16 0.000000 0.500000 0.000000
O O17 0.500000 0.000000 0.500000
#
# Coordination Sequence:
#
# PCOD9096453 Si02
#       8
#     2   2   2   2   2   2   2   2
#     4   9  18  37  59  75 110 151 181 217 276 338
#     4  10  22  36  53  86 113 140 187 236 269 320
#     4  10  20  38  57  78 114 149 182 225 279 328
#     4  10  20  36  55  81 112 142 187 228 270 326
#     4  10  20  36  58  77 110 151 181 224 280 327
#     4   9  18  37  58  77 110 151 178 220 276 333
#     4   9  19  37  57  83 108 140 185 223 271 334
#     4   9  19  37  58  81 109 140 183 226 272 332
#
# _framework density 22.045328999999999
#
# number of rings (size 3 to 8) (size 9 to 14) (size 15 to 20)
#    0.000    2.500    1.250    2.250    0.000    2.000 
#    9.000    1.250    0.000    0.000    0.000    0.000 
#    0.000    0.000    0.000    0.000    0.000    0.000 
#
# Total GULP energy -89111.557001 kJ/mol
# GULP energy per Si atom -5569.472313 kJ/mol
# Density = 2.199515 g / cm^3
# Si number density = 22.045329 Si / 1000 Ang^3
#
#
#
# Elastic Constant Matrix: (Units=GPa)
#
#
# Indices 1 2 3 4 5 6 
#
# 1 94.0016 31.7306 52.5973 -15.5796 1.0938 -49.5986
# 2 31.7306 55.5928 23.4302 -4.6532 12.0355 -23.1305
# 3 52.5973 23.4302 181.2119 -8.0024 4.5295 -42.1425
# 4 -15.5796 -4.6532 -8.0024 21.4178 -3.5036 -3.1385
# 5 1.0938 12.0355 4.5295 -3.5036 27.6976 2.9377
# 6 -49.5986 -23.1305 -42.1425 -3.1385 2.9377 51.4628
#
#
#
# Elastic Compliance Matrix: (Units=1/GPa)
#
#
# Indices 1 2 3 4 5 6 
#
# 1 0.033953 -0.003305 -0.000631 0.028558 0.000370 0.032441
# 2 -0.003305 0.026805 0.000242 0.002965 -0.012236 0.009940
# 3 -0.000631 0.000242 0.007135 0.002838 -0.001482 0.005601
# 4 0.028558 0.002965 0.002838 0.074843 0.002813 0.035584
# 5 0.000370 -0.012236 -0.001482 0.002813 0.042921 -0.008635
# 6 0.032441 0.009940 0.005601 0.035584 -0.008635 0.062415
#
#
# Mechanical properties :
#
#
# Convention : Reuss Voigt Hill
#
# Bulk Modulus (GPa) = 16.52773 60.70251 38.61512
# Shear Modulus (GPa) = 18.14030 34.98551 26.56290
#
# Velocity S-wave (km/s) = 2.87167 3.98801 3.47496
# Velocity P-wave (km/s) = 4.30218 6.98575 5.80127
#
# Compressibility (1/GPa) = 0.06050438
#
# Stress axis : x y z
#
# Youngs Moduli (GPa) = 29.45246 37.30593 140.14874
#
# Poissons Ratio (x) = 0.12331 0.08847
# Poissons Ratio (y) = 0.09735 -0.03389
# Poissons Ratio (z) = 0.01859 -0.00902
#
# Static dielectric constant tensor:
#      x y z
#    x 1.877290 0.087000 0.049220 
#    y 0.087000 1.957260 0.052540 
#    z 0.049220 0.052540 1.854860 
# 
# From -- ./inp_files/201645.got.cif
#   From: 2010.05.17/outbox.cif.g08.bks.cpg/sg2_101_cif.got.tgz:201645.got - 2010.06.03 11:33:40.
