data_PCOD9096448
_publ_section_title
;
Structure prediction by ZEFSAII (Michael W. Deem and Ramdas Pophale) SiO2 
 PCOD9096448
Probable space group: P -1
;
_chemical_formula_sum "Si O2"
_cell_formula_units_Z 16
_cell_length_a 15.385983
_cell_length_b 23.644498
_cell_length_c 23.465207
_cell_angle_alpha 11.907769
_cell_angle_beta 152.756554
_cell_angle_gamma 151.607886
_cell_volume 801.986728
_symmetry_space_group_name_H-M "P -1"
_symmetry_group_IT_number 2
_symmetry_cell_setting 'triclinic'
loop_
_space_group_symop_operation_xyz
x,y,z
-x,-y,-z
loop_
_atom_site_type_symbol
_atom_site_label
_atom_site_fract_x
_atom_site_fract_y
_atom_site_fract_z
Si Si1 0.902926 0.362244 0.490264
Si Si2 0.525163 0.112894 0.136042
Si Si3 0.242139 0.305176 0.482228
Si Si4 0.952144 0.255029 0.257851
Si Si5 0.489372 0.829960 0.064152
Si Si6 0.943453 0.804181 0.996298
Si Si7 0.714275 0.416492 0.444838
Si Si8 0.097989 0.268728 0.560655
O O1 0.774966 0.319347 0.514114
O O2 0.812489 0.567231 0.190160
O O3 0.098354 0.541334 0.447971
O O4 0.959029 0.068041 0.789585
O O5 0.728884 0.206783 0.189678
O O6 0.449049 0.795924 0.413658
O O7 0.543000 0.169092 0.023505
O O8 0.366790 0.290163 0.894393
O O9 0.392440 0.560338 0.303465
O O10 0.139658 0.315189 0.472981
O O11 0.084450 0.283241 0.362302
O O12 0.374502 0.059805 0.798140
O O13 0.000000 0.000000 0.500000
O O14 0.000000 0.500000 0.000000
O O15 0.714513 0.846058 0.189835
O O16 0.071787 0.566569 0.280315
O O17 0.933879 0.013755 0.729489
#
# Coordination Sequence:
#
# PCOD9096448 Si02
#       8
#     2   2   2   2   2   2   2   2
#     4  10  20  37  56  85 125 152 179 238 316 362
#     4  12  22  36  58  86 118 158 201 238 288 349
#     4  12  23  39  57  81 114 163 196 247 292 332
#     4  12  23  43  58  82 118 162 207 242 290 331
#     4  12  22  35  56  82 121 153 194 242 299 341
#     4  10  20  36  55  80 116 153 184 231 294 358
#     4  11  22  34  57  89 117 151 195 238 293 371
#     4  11  22  36  57  87 115 150 206 240 284 358
#
# _framework density 19.950453
#
# number of rings (size 3 to 8) (size 9 to 14) (size 15 to 20)
#    0.000    0.750    2.500    7.500    0.000    2.000 
#    0.000    0.000    0.000    0.000    0.000   17.500 
#    0.000    0.000    0.000    0.000    0.000    0.000 
#
# Total GULP energy -89111.892786 kJ/mol
# GULP energy per Si atom -5569.493299 kJ/mol
# Density = 1.990505 g / cm^3
# Si number density = 19.950453 Si / 1000 Ang^3
#
#
#
# Elastic Constant Matrix: (Units=GPa)
#
#
# Indices 1 2 3 4 5 6 
#
# 1 105.6094 -28.6603 117.6792 59.1082 44.8475 -4.9903
# 2 -28.6603 -1.6506 48.4223 44.9428 24.7425 7.7682
# 3 117.6792 48.4223 -41.5760 -205.7552 -115.9293 -41.2410
# 4 59.1082 44.9428 -205.7552 -139.2176 -88.9033 -33.0261
# 5 44.8475 24.7425 -115.9293 -88.9033 -28.2334 -24.8646
# 6 -4.9903 7.7682 -41.2410 -33.0261 -24.8646 15.8738
#
#
#
# Elastic Compliance Matrix: (Units=1/GPa)
#
#
# Indices 1 2 3 4 5 6 
#
# 1 0.009767 0.008273 -0.000848 0.005646 0.000390 0.009175
# 2 0.008273 0.098144 0.004542 0.016563 0.011604 0.019009
# 3 -0.000848 0.004542 0.004375 -0.003802 -0.001768 -0.001804
# 4 0.005646 0.016563 -0.003802 0.020338 -0.020144 -0.005450
# 5 0.000390 0.011604 -0.001768 -0.020144 0.038626 0.008443
# 6 0.009175 0.019009 -0.001804 -0.005450 0.008443 0.053777
#
#
# Mechanical properties :
#
#
# Convention : Reuss Voigt Hill
#
# Bulk Modulus (GPa) = 7.34101 37.47392 22.40746
# Shear Modulus (GPa) = 20.28403 -35.31934 -7.51766
#
# Velocity S-wave (km/s) = 3.19206 -4.21212 -1.94328
# Velocity P-wave (km/s) = 4.15612 2.19811 2.49416
#
# Compressibility (1/GPa) = 0.13622105
#
# Stress axis : x y z
#
# Youngs Moduli (GPa) = 102.38154 10.18910 228.57645
#
# Poissons Ratio (x) = -0.08430 0.19392
# Poissons Ratio (y) = -0.84704 -1.03827
# Poissons Ratio (z) = 0.08686 -0.04628
#
# Static dielectric constant tensor:
#      x y z
#    x 1.716600 -0.025260 -0.025960 
#    y -0.025260 1.699190 0.002320 
#    z -0.025960 0.002320 1.679670 
# 
# From -- ./inp_files/433987.got.cif
#   From: 2010.05.17/outbox.cif.g08.bks.cpg/sg2_217_cif.got.tgz:433987.got - 2010.06.03 11:33:40.
