data_PCOD9096560
_publ_section_title
;
Structure prediction by ZEFSAII (Michael W. Deem and Ramdas Pophale) SiO2 
 PCOD9096560
Probable space group: P -1
;
_chemical_formula_sum "Si O2"
_cell_formula_units_Z 16
_cell_length_a 13.508248
_cell_length_b 15.419621
_cell_length_c 19.316753
_cell_angle_alpha 20.650515
_cell_angle_beta 35.944077
_cell_angle_gamma 47.738533
_cell_volume 759.368235
_symmetry_space_group_name_H-M "P -1"
_symmetry_group_IT_number 2
_symmetry_cell_setting 'triclinic'
loop_
_space_group_symop_operation_xyz
x,y,z
-x,-y,-z
loop_
_atom_site_type_symbol
_atom_site_label
_atom_site_fract_x
_atom_site_fract_y
_atom_site_fract_z
Si Si1 0.688197 0.673636 0.058256
Si Si2 0.946205 0.887632 0.537265
Si Si3 0.665641 0.128457 0.524290
Si Si4 0.237791 0.867625 0.985696
Si Si5 0.853194 0.628830 0.323842
Si Si6 0.333306 0.685741 0.201465
Si Si7 0.639509 0.740792 0.192650
Si Si8 0.851598 0.437183 0.328294
O O1 0.722490 0.402104 0.243391
O O2 0.530894 0.666997 0.098810
O O3 0.603114 0.689713 0.169713
O O4 0.881258 0.923692 0.748529
O O5 0.766342 0.940308 0.583959
O O6 0.000000 0.000000 0.500000
O O7 0.957777 0.599384 0.749462
O O8 0.728450 0.234761 0.488876
O O9 0.445773 0.980626 0.756238
O O10 0.205608 0.125394 0.840288
O O11 0.231793 0.664107 0.202364
O O12 0.074781 0.739319 0.119002
O O13 0.784415 0.523905 0.517591
O O14 0.783351 0.403994 0.471563
O O15 0.363140 0.980355 0.992321
O O16 0.500000 0.500000 0.500000
O O17 0.836591 0.715106 0.109190
#
# Coordination Sequence:
#
# PCOD9096560 Si02
#       8
#     2   2   2   2   2   2   2   2
#     4  11  20  32  55  91 118 156 197 241 305 360
#     4  10  20  36  56  84 118 157 202 253 296 347
#     4  10  21  38  59  84 117 155 199 251 297 348
#     4  11  23  40  57  86 122 157 201 249 303 362
#     4  11  23  39  59  86 121 160 196 249 308 366
#     4  12  20  34  57  86 119 163 194 232 306 374
#     4  11  20  32  54  91 129 156 188 246 303 366
#     4  10  20  36  58  84 116 151 194 243 304 347
#
# _framework density 21.070145
#
# number of rings (size 3 to 8) (size 9 to 14) (size 15 to 20)
#    0.000    1.250    2.500    6.375    0.000    0.000 
#    0.000    0.625    0.000    0.000    0.000    8.750 
#    0.000    0.000    0.000    0.000    0.000    0.000 
#
# Total GULP energy -89260.155665 kJ/mol
# GULP energy per Si atom -5578.759729 kJ/mol
# Density = 2.102219 g / cm^3
# Si number density = 21.070145 Si / 1000 Ang^3
#
#
#
# Elastic Constant Matrix: (Units=GPa)
#
#
# Indices 1 2 3 4 5 6 
#
# 1 75.1756 46.1724 27.3840 2.9702 3.6717 -37.6549
# 2 46.1724 110.8019 6.3837 -1.5311 -6.2110 -42.1979
# 3 27.3840 6.3837 47.4577 4.6744 2.2442 -8.7005
# 4 2.9702 -1.5311 4.6744 25.3180 -9.7375 2.9312
# 5 3.6717 -6.2110 2.2442 -9.7375 32.8633 6.1662
# 6 -37.6549 -42.1979 -8.7005 2.9312 6.1662 45.5566
#
#
#
# Elastic Compliance Matrix: (Units=1/GPa)
#
#
# Indices 1 2 3 4 5 6 
#
# 1 0.033206 -0.005470 -0.013110 -0.008337 -0.010413 0.021821
# 2 -0.005470 0.014873 0.002774 0.000543 0.001605 0.009532
# 3 -0.013110 0.002774 0.028134 -0.003352 -0.000434 -0.002619
# 4 -0.008337 0.000543 -0.003352 0.049661 0.018362 -0.012710
# 5 -0.010413 0.001605 -0.000434 0.018362 0.039954 -0.013793
# 6 0.021821 0.009532 -0.002619 -0.012710 -0.013793 0.051001
#
#
# Mechanical properties :
#
#
# Convention : Reuss Voigt Hill
#
# Bulk Modulus (GPa) = 22.42208 43.70171 33.06190
# Shear Modulus (GPa) = 18.98915 30.98059 24.98487
#
# Velocity S-wave (km/s) = 3.00531 3.83868 3.44727
# Velocity P-wave (km/s) = 4.76522 6.35872 5.61875
#
# Compressibility (1/GPa) = 0.04459889
#
# Stress axis : x y z
#
# Youngs Moduli (GPa) = 30.11514 67.23778 35.54463
#
# Poissons Ratio (x) = 0.36782 0.46600
# Poissons Ratio (y) = 0.16474 -0.09861
# Poissons Ratio (z) = 0.39482 -0.18653
#
# Static dielectric constant tensor:
#      x y z
#    x 1.838140 -0.031190 -0.001710 
#    y -0.031190 1.801930 0.001120 
#    z -0.001710 0.001120 1.805660 
# 
# From -- ./inp_files/598309.got.cif
#   From: 2010.05.17/outbox.cif.g08.bks.cpg/sg2_300_cif.got.tgz:598309.got - 2010.06.03 11:33:40.
