data_PCOD9096261
_publ_section_title
;
Structure prediction by ZEFSAII (Michael W. Deem and Ramdas Pophale) SiO2 
 PCOD9096261
Probable space group: P -1
;
_chemical_formula_sum "Si O2"
_cell_formula_units_Z 14
_cell_length_a 13.534835
_cell_length_b 11.294394
_cell_length_c 5.275318
_cell_angle_alpha 53.409783
_cell_angle_beta 85.602286
_cell_angle_gamma 112.369376
_cell_volume 546.451690
_symmetry_space_group_name_H-M "P -1"
_symmetry_group_IT_number 2
_symmetry_cell_setting 'triclinic'
loop_
_space_group_symop_operation_xyz
x,y,z
-x,-y,-z
loop_
_atom_site_type_symbol
_atom_site_label
_atom_site_fract_x
_atom_site_fract_y
_atom_site_fract_z
Si Si1 0.889206 0.711834 0.292322
Si Si2 0.254502 0.609931 0.544026
Si Si3 0.679726 0.569015 0.847284
Si Si4 0.903395 0.043720 0.742833
Si Si5 0.751261 0.944626 0.421302
Si Si6 0.620235 0.005648 0.991929
Si Si7 0.489971 0.657099 0.189472
O O1 0.862434 0.534081 0.395756
O O2 0.758439 0.653745 0.475807
O O3 0.976339 0.782311 0.422795
O O4 0.927418 0.886288 0.901425
O O5 0.277069 0.798666 0.350734
O O6 0.374716 0.651802 0.326916
O O7 0.256861 0.510229 0.916088
O O8 0.693635 0.738998 0.754925
O O9 0.552815 0.406782 0.007862
O O10 0.837306 0.048619 0.501998
O O11 0.827087 0.998250 0.075752
O O12 0.650702 0.977859 0.307351
O O13 0.500000 0.000000 0.000000
O O14 0.595862 0.842519 0.031399
O O15 0.500000 0.500000 0.500000
#
# Coordination Sequence:
#
# PCOD9096261 Si02
#       7
#     2   2   2   2   2   2   2
#     4   9  20  37  63  95 126 161 211 266 326 373
#     4  10  21  39  59  91 124 169 206 269 324 388
#     4  10  20  35  64  90 124 161 218 260 316 388
#     4  10  22  38  69  96 128 166 219 271 314 382
#     4  11  22  42  63  99 127 170 218 268 315 384
#     4  10  23  44  60  89 134 169 215 265 333 380
#     4  10  20  38  59  89 121 163 220 266 317 381
#
# _framework density 25.619828999999999
#
# number of rings (size 3 to 8) (size 9 to 14) (size 15 to 20)
#    0.000    2.000    2.857    0.000    2.000    2.857 
#   12.857    1.429    0.000    0.000    0.000    0.000 
#    0.000    0.000    0.000    0.000    0.000    0.000 
#
# Total GULP energy -78152.772656 kJ/mol
# GULP energy per Si atom -5582.340904 kJ/mol
# Density = 2.556152 g / cm^3
# Si number density = 25.619829 Si / 1000 Ang^3
#
#
#
# Elastic Constant Matrix: (Units=GPa)
#
#
# Indices 1 2 3 4 5 6 
#
# 1 75.7288 65.0540 31.8502 -2.4310 16.2011 25.4202
# 2 65.0540 251.2384 85.6953 -34.9166 27.1373 50.6957
# 3 31.8502 85.6953 103.0968 -19.5694 26.9029 19.1091
# 4 -2.4310 -34.9166 -19.5694 56.7723 4.2844 3.3140
# 5 16.2011 27.1373 26.9029 4.2844 48.2832 5.7002
# 6 25.4202 50.6957 19.1091 3.3140 5.7002 59.2699
#
#
#
# Elastic Compliance Matrix: (Units=1/GPa)
#
#
# Indices 1 2 3 4 5 6 
#
# 1 0.018779 -0.003250 -0.001813 -0.001353 -0.002832 -0.004342
# 2 -0.003250 0.007396 -0.003503 0.003503 -0.000964 -0.003906
# 3 -0.001813 -0.003503 0.015712 0.003719 -0.006403 -0.000884
# 4 -0.001353 0.003503 0.003719 0.021623 -0.004993 -0.004344
# 5 -0.002832 -0.000964 -0.006403 -0.004993 0.025992 0.001883
# 6 -0.004342 -0.003906 -0.000884 -0.004344 0.001883 0.022421
#
#
# Mechanical properties :
#
#
# Convention : Reuss Voigt Hill
#
# Bulk Modulus (GPa) = 40.39649 88.36253 64.37951
# Shear Modulus (GPa) = 36.41476 49.36271 42.88873
#
# Velocity S-wave (km/s) = 3.77417 4.39422 4.09595
# Velocity P-wave (km/s) = 5.89868 7.76598 6.89582
#
# Compressibility (1/GPa) = 0.02475462
#
# Stress axis : x y z
#
# Youngs Moduli (GPa) = 53.24979 135.21339 63.64554
#
# Poissons Ratio (x) = 0.43947 0.11539
# Poissons Ratio (y) = 0.17307 0.22295
# Poissons Ratio (z) = 0.09655 0.47365
#
# Static dielectric constant tensor:
#      x y z
#    x 2.128430 -0.047480 -0.204950 
#    y -0.047480 2.098370 -0.033000 
#    z -0.204950 -0.033000 0.560250 
# 
# From -- ./inp_files/27257.got.cif
#   From: 2010.05.17/outbox.cif.g08.bks.cpg/sg2_14_cif.got.tgz:27257.got - 2010.06.03 11:33:40.
