data_PCOD9096062
_publ_section_title
;
Structure prediction by ZEFSAII (Michael W. Deem and Ramdas Pophale) SiO2 
 PCOD9096062
Probable space group: P -1
;
_chemical_formula_sum "Si O2"
_cell_formula_units_Z 14
_cell_length_a 5.252948
_cell_length_b 24.417147
_cell_length_c 4.993618
_cell_angle_alpha 58.833349
_cell_angle_beta 96.217492
_cell_angle_gamma 84.312289
_cell_volume 535.683059
_symmetry_space_group_name_H-M "P -1"
_symmetry_group_IT_number 2
_symmetry_cell_setting 'triclinic'
loop_
_space_group_symop_operation_xyz
x,y,z
-x,-y,-z
loop_
_atom_site_type_symbol
_atom_site_label
_atom_site_fract_x
_atom_site_fract_y
_atom_site_fract_z
Si Si1 0.432522 0.762705 0.642942
Si Si2 0.514342 0.424248 0.154098
Si Si3 0.737100 0.352404 0.845866
Si Si4 0.793292 0.039467 0.673546
Si Si5 0.815657 0.669094 0.620526
Si Si6 0.759220 0.917932 0.602063
Si Si7 0.872307 0.802412 0.299949
O O1 0.526198 0.705134 0.587247
O O2 0.682345 0.797514 0.546716
O O3 0.164617 0.806172 0.407216
O O4 0.367779 0.716428 0.991762
O O5 0.739748 0.385398 0.473725
O O6 0.255204 0.399380 0.295693
O O7 0.500000 0.500000 0.000000
O O8 0.564763 0.404215 0.899454
O O9 0.009548 0.339588 0.068413
O O10 0.497202 0.068063 0.648984
O O11 0.949729 0.094607 0.451926
O O12 0.761463 0.986239 0.580877
O O13 0.000000 0.000000 0.000000
O O14 0.896860 0.732149 0.329995
O O15 0.741292 0.861790 0.953400
#
# Coordination Sequence:
#
# PCOD9096062 Si02
#       7
#     2   2   2   2   2   2   2
#     4   8  17  34  61  85 119 156 194 267 305 384
#     4  11  23  39  63  93 127 169 217 264 324 386
#     4  10  21  40  61  91 126 168 211 268 324 384
#     4  10  21  37  54  86 122 157 203 249 310 363
#     4   8  20  38  59  88 123 158 200 268 312 384
#     4  10  20  35  62  82 117 163 197 259 298 376
#     4   9  16  35  61  89 120 154 210 248 321 366
#
# _framework density 26.134858999999999
#
# number of rings (size 3 to 8) (size 9 to 14) (size 15 to 20)
#    0.857    1.714    0.000    1.714    0.000    3.429 
#    0.000    4.286    0.000    0.000    0.000    0.000 
#    0.000    0.000    0.000    0.000    0.000    0.000 
#
# Total GULP energy -78010.113345 kJ/mol
# GULP energy per Si atom -5572.150953 kJ/mol
# Density = 2.607538 g / cm^3
# Si number density = 26.134859 Si / 1000 Ang^3
#
#
#
# Elastic Constant Matrix: (Units=GPa)
#
#
# Indices 1 2 3 4 5 6 
#
# 1 153.8178 19.0644 39.7406 -4.8167 17.1170 37.4780
# 2 19.0644 48.9164 14.1045 -12.2856 -1.4419 6.5722
# 3 39.7406 14.1045 116.0125 -8.2984 3.4125 15.2744
# 4 -4.8167 -12.2856 -8.2984 40.5089 6.5727 -0.6625
# 5 17.1170 -1.4419 3.4125 6.5727 39.3281 -1.3586
# 6 37.4780 6.5722 15.2744 -0.6625 -1.3586 9.6129
#
#
#
# Elastic Compliance Matrix: (Units=1/GPa)
#
#
# Indices 1 2 3 4 5 6 
#
# 1 -0.071143 -0.013370 -0.019121 -0.018688 0.046385 0.322156
# 2 -0.013370 0.021941 -0.003949 0.003707 0.007893 0.044771
# 3 -0.019121 -0.003949 0.006070 -0.002805 0.010499 0.068894
# 4 -0.018688 0.003707 -0.002805 0.023091 0.007328 0.077410
# 5 0.046385 0.007893 0.010499 0.007328 -0.003618 -0.202927
# 6 0.322156 0.044771 0.068894 0.077410 -0.202927 -1.315394
#
#
# Mechanical properties :
#
#
# Convention : Reuss Voigt Hill
#
# Bulk Modulus (GPa) = -8.61980 51.61841 21.49931
# Shear Modulus (GPa) = -3.83188 34.27913 15.22363
#
# Velocity S-wave (km/s) = -1.21218 3.62557 2.41613
# Velocity P-wave (km/s) = 2.29446 6.10901 4.00346
#
# Compressibility (1/GPa) = -0.11601203
#
# Stress axis : x y z
#
# Youngs Moduli (GPa) = -14.05628 45.57689 164.74989
#
# Poissons Ratio (x) = 0.60936 3.15018
# Poissons Ratio (y) = -0.18793 0.65063
# Poissons Ratio (z) = -0.26877 0.17999
#
# Static dielectric constant tensor:
#      x y z
#    x 2.264410 -0.000570 -0.049030 
#    y -0.000570 2.186770 -0.011080 
#    z -0.049030 -0.011080 2.068970 
# 
# From -- ./inp_files/14951.got.cif
#   From: 2010.05.17/outbox.cif.g08.bks.cpg/sg2_8_cif.got.tgz:14951.got - 2010.06.03 11:33:40.
