data_PCOD9096267
_publ_section_title
;
Structure prediction by ZEFSAII (Michael W. Deem and Ramdas Pophale) SiO2 
 PCOD9096267
Probable space group: P -1
;
_chemical_formula_sum "Si O2"
_cell_formula_units_Z 16
_cell_length_a 9.838571
_cell_length_b 16.945307
_cell_length_c 9.654330
_cell_angle_alpha 50.591175
_cell_angle_beta 95.435531
_cell_angle_gamma 53.063249
_cell_volume 632.853914
_symmetry_space_group_name_H-M "P -1"
_symmetry_group_IT_number 2
_symmetry_cell_setting 'triclinic'
loop_
_space_group_symop_operation_xyz
x,y,z
-x,-y,-z
loop_
_atom_site_type_symbol
_atom_site_label
_atom_site_fract_x
_atom_site_fract_y
_atom_site_fract_z
Si Si1 0.044563 0.375975 0.240796
Si Si2 0.815716 0.025245 0.297551
Si Si3 0.774017 0.890888 0.659274
Si Si4 0.547289 0.821414 0.135528
Si Si5 0.488777 0.432969 0.851334
Si Si6 0.074761 0.583183 0.509657
Si Si7 0.562203 0.335791 0.284032
Si Si8 0.378857 0.928055 0.296925
O O1 0.028220 0.294356 0.219490
O O2 0.349400 0.183421 0.534346
O O3 0.901817 0.479871 0.260779
O O4 0.000000 0.500000 0.000000
O O5 0.757878 0.014383 0.453987
O O6 0.652177 0.054183 0.150494
O O7 0.700646 0.213698 0.061841
O O8 0.127027 0.829775 0.514627
O O9 0.500000 0.000000 0.500000
O O10 0.827120 0.878813 0.839903
O O11 0.748181 0.596309 0.379538
O O12 0.361413 0.926654 0.133473
O O13 0.765446 0.772262 0.225445
O O14 0.229100 0.588116 0.554941
O O15 0.563943 0.501953 0.801785
O O16 0.453694 0.419647 0.023765
O O17 0.561365 0.222316 0.467409
#
# Coordination Sequence:
#
# PCOD9096267 Si02
#       8
#     2   2   2   2   2   2   2   2
#     4  10  20  35  64  92 121 157 205 273 321 363
#     4  11  22  41  65  92 128 173 211 262 316 383
#     4  10  22  38  61  92 123 155 210 270 316 365
#     4   9  21  38  68  87 130 174 203 261 323 377
#     4  10  21  37  64  94 123 166 215 265 311 370
#     4   9  18  39  62  92 123 166 212 254 320 379
#     4  11  22  38  65  93 129 171 215 261 313 375
#     4  10  21  40  57  93 130 160 212 262 308 376
#
# _framework density 25.282298000000001
#
# number of rings (size 3 to 8) (size 9 to 14) (size 15 to 20)
#    0.000    2.000    1.250    1.875    5.250    1.500 
#    0.000   12.500    5.500    0.000    0.000    0.000 
#    0.000    0.000    0.000    0.000    0.000    0.000 
#
# Total GULP energy -89326.884551 kJ/mol
# GULP energy per Si atom -5582.930284 kJ/mol
# Density = 2.522475 g / cm^3
# Si number density = 25.282298 Si / 1000 Ang^3
#
#
#
# Elastic Constant Matrix: (Units=GPa)
#
#
# Indices 1 2 3 4 5 6 
#
# 1 90.1995 38.6007 19.9506 -4.7826 16.5536 25.0287
# 2 38.6007 142.7401 41.1148 8.3925 -10.8996 12.2624
# 3 19.9506 41.1148 63.3471 1.7082 24.2968 8.7331
# 4 -4.7826 8.3925 1.7082 36.1789 7.2665 2.4094
# 5 16.5536 -10.8996 24.2968 7.2665 47.7521 -1.3014
# 6 25.0287 12.2624 8.7331 2.4094 -1.3014 41.6795
#
#
#
# Elastic Compliance Matrix: (Units=1/GPa)
#
#
# Indices 1 2 3 4 5 6 
#
# 1 0.018317 -0.006420 0.003961 0.006671 -0.011137 -0.010674
# 2 -0.006420 0.012959 -0.011211 -0.005917 0.011873 0.003105
# 3 0.003961 -0.011211 0.030411 0.006242 -0.020532 -0.006454
# 4 0.006671 -0.005917 0.006242 0.032383 -0.011926 -0.005818
# 5 -0.011137 0.011873 -0.020532 -0.011926 0.040031 0.009436
# 6 -0.010674 0.003105 -0.006454 -0.005818 0.009436 0.031472
#
#
# Mechanical properties :
#
#
# Convention : Reuss Voigt Hill
#
# Bulk Modulus (GPa) = 29.11420 55.06877 42.09148
# Shear Modulus (GPa) = 24.46621 38.23014 31.34817
#
# Velocity S-wave (km/s) = 3.11420 3.89283 3.52508
# Velocity P-wave (km/s) = 4.94688 6.48339 5.76654
#
# Compressibility (1/GPa) = 0.03434750
#
# Stress axis : x y z
#
# Youngs Moduli (GPa) = 54.59301 77.16629 32.88237
#
# Poissons Ratio (x) = 0.49542 -0.13026
# Poissons Ratio (y) = 0.35050 0.36865
# Poissons Ratio (z) = -0.21626 0.86513
#
# Static dielectric constant tensor:
#      x y z
#    x 2.066500 0.014990 0.004290 
#    y 0.014990 2.046930 -0.048310 
#    z 0.004290 -0.048310 2.032890 
# 
# From -- ./inp_files/279234.got.cif
#   From: 2010.05.17/outbox.cif.g08.bks.cpg/sg2_140_cif.got.tgz:279234.got - 2010.06.03 11:33:40.
