data_PCOD9096923
_publ_section_title
;
Structure prediction by ZEFSAII (Michael W. Deem and Ramdas Pophale) SiO2 
 PCOD9096923
Probable space group: P -1
;
_chemical_formula_sum "Si O2"
_cell_formula_units_Z 14
_cell_length_a 7.871280
_cell_length_b 7.891197
_cell_length_c 11.012376
_cell_angle_alpha 88.693493
_cell_angle_beta 87.729356
_cell_angle_gamma 119.496246
_cell_volume 594.191631
_symmetry_space_group_name_H-M "P -1"
_symmetry_group_IT_number 2
_symmetry_cell_setting 'triclinic'
loop_
_space_group_symop_operation_xyz
x,y,z
-x,-y,-z
loop_
_atom_site_type_symbol
_atom_site_label
_atom_site_fract_x
_atom_site_fract_y
_atom_site_fract_z
Si Si1 0.319696 0.642533 0.897920
Si Si2 0.080614 0.261494 0.044479
Si Si3 0.492185 0.669885 0.664925
Si Si4 0.669917 0.933695 0.039234
Si Si5 0.727019 0.476812 0.558505
Si Si6 0.932860 0.268899 0.292118
Si Si7 0.539702 0.949584 0.316172
O O1 0.193372 0.486465 0.003596
O O2 0.442874 0.583347 0.803485
O O3 0.179648 0.663481 0.801975
O O4 0.488019 0.834039 0.955076
O O5 0.211210 0.183426 0.978350
O O6 0.060630 0.225847 0.190731
O O7 0.856440 0.148253 0.003849
O O8 0.646214 0.621547 0.599299
O O9 0.304937 0.555013 0.583521
O O10 0.541546 0.896310 0.670749
O O11 0.586952 0.915993 0.177375
O O12 0.935047 0.575459 0.615845
O O13 0.593889 0.258019 0.617354
O O14 0.760164 0.074943 0.361188
#
# Coordination Sequence:
#
# PCOD9096923 Si02
#       7
#     2   2   2   2   2   2   2
#     4  11  21  36  57  89 122 155 195 244 295 353
#     4  10  20  36  58  88 119 158 195 238 296 355
#     4  10  24  40  64  90 115 158 209 242 294 362
#     4  10  21  36  59  87 122 155 195 242 294 356
#     4  11  22  45  63  83 123 159 196 257 298 336
#     4  10  23  37  60  91 118 154 206 241 292 368
#     4  10  22  41  63  90 119 157 197 247 300 350
#
# _framework density 23.561423000000001
#
# number of rings (size 3 to 8) (size 9 to 14) (size 15 to 20)
#    0.000    1.714    0.000    3.857    0.000    9.714 
#    0.000    7.143    0.000    0.000    0.000    0.000 
#    0.000    0.000    0.000    0.000    0.000    0.000 
#
# Total GULP energy -78115.363660 kJ/mol
# GULP energy per Si atom -5579.668833 kJ/mol
# Density = 2.350780 g / cm^3
# Si number density = 23.561423 Si / 1000 Ang^3
#
#
#
# Elastic Constant Matrix: (Units=GPa)
#
#
# Indices 1 2 3 4 5 6 
#
# 1 94.9142 29.7473 27.3888 21.6599 0.8188 0.8031
# 2 29.7473 144.6569 48.2667 22.7303 12.0531 21.2557
# 3 27.3888 48.2667 111.9276 36.6009 -2.1795 17.9538
# 4 21.6599 22.7303 36.6009 31.8404 4.7988 1.1741
# 5 0.8188 12.0531 -2.1795 4.7988 40.3852 23.4752
# 6 0.8031 21.2557 17.9538 1.1741 23.4752 42.3056
#
#
#
# Elastic Compliance Matrix: (Units=1/GPa)
#
#
# Indices 1 2 3 4 5 6 
#
# 1 0.012774 -0.001530 0.000131 -0.007917 0.001099 0.000081
# 2 -0.001530 0.008852 -0.002064 -0.002703 -0.000569 -0.003151
# 3 0.000131 -0.002064 0.019445 -0.022291 0.012026 -0.013272
# 4 -0.007917 -0.002703 -0.022291 0.066595 -0.019854 0.020137
# 5 0.001099 -0.000569 0.012026 -0.019854 0.044889 -0.029196
# 6 0.000081 -0.003151 -0.013272 0.020137 -0.029196 0.046494
#
#
# Mechanical properties :
#
#
# Convention : Reuss Voigt Hill
#
# Bulk Modulus (GPa) = 29.28751 62.47825 45.88288
# Shear Modulus (GPa) = 23.00378 39.31262 31.15820
#
# Velocity S-wave (km/s) = 3.12802 4.08918 3.64046
# Velocity P-wave (km/s) = 5.05008 6.99070 6.09808
#
# Compressibility (1/GPa) = 0.03414425
#
# Stress axis : x y z
#
# Youngs Moduli (GPa) = 78.28405 112.97428 51.42803
#
# Poissons Ratio (x) = 0.17286 -0.00675
# Poissons Ratio (y) = 0.11978 0.10616
# Poissons Ratio (z) = -0.01028 0.23321
#
# Static dielectric constant tensor:
#      x y z
#    x 2.071570 -0.057200 -0.052670 
#    y -0.057200 1.917130 0.026250 
#    z -0.052670 0.026250 1.902120 
# 
# From -- ./inp_files/227342.got.cif
#   From: 2010.05.17/outbox.cif.g08.bks.cpg/sg2_114_cif.got.tgz:227342.got - 2010.06.03 11:33:40.
