data_PCOD9096045
_publ_section_title
;
Structure prediction by ZEFSAII (Michael W. Deem and Ramdas Pophale) SiO2 
 PCOD9096045
Probable space group: P -1
;
_chemical_formula_sum "Si O2"
_cell_formula_units_Z 14
_cell_length_a 9.038938
_cell_length_b 18.420127
_cell_length_c 5.686466
_cell_angle_alpha 107.185566
_cell_angle_beta 75.369493
_cell_angle_gamma 138.565361
_cell_volume 597.854022
_symmetry_space_group_name_H-M "P -1"
_symmetry_group_IT_number 2
_symmetry_cell_setting 'triclinic'
loop_
_space_group_symop_operation_xyz
x,y,z
-x,-y,-z
loop_
_atom_site_type_symbol
_atom_site_label
_atom_site_fract_x
_atom_site_fract_y
_atom_site_fract_z
Si Si1 0.641097 0.759642 0.231788
Si Si2 0.594371 0.912688 0.456354
Si Si3 0.199049 0.731220 0.808144
Si Si4 0.322719 0.911370 0.181736
Si Si5 0.827915 0.575923 0.480013
Si Si6 0.183033 0.626941 0.109774
Si Si7 0.363773 0.324283 0.351144
O O1 0.707129 0.873305 0.310826
O O2 0.368482 0.663493 0.244220
O O3 0.698753 0.741569 0.442351
O O4 0.691006 0.736616 0.936740
O O5 0.393901 0.819917 0.629169
O O6 0.463558 0.908319 0.296398
O O7 0.749388 0.036050 0.618361
O O8 0.965227 0.612013 0.698936
O O9 0.148261 0.793610 0.011268
O O10 0.304108 0.706624 0.913807
O O11 0.500000 0.000000 0.000000
O O12 0.626894 0.445338 0.380237
O O13 0.751338 0.634762 0.564732
O O14 0.030647 0.639272 0.279331
O O15 0.000000 0.500000 0.000000
#
# Coordination Sequence:
#
# PCOD9096045 Si02
#       7
#     2   2   2   2   2   2   2
#     4  12  23  42  64  93 129 166 217 267 325 372
#     4  10  20  35  61  98 124 160 211 277 325 381
#     4  11  20  37  62  93 129 167 211 270 322 379
#     4   9  19  34  59  95 128 156 206 272 336 381
#     4  11  25  40  61  89 131 177 220 258 318 388
#     4  12  23  36  64  94 128 166 221 270 314 372
#     4  11  28  42  61  91 134 182 214 260 322 393
#
# _framework density 23.417086000000001
#
# number of rings (size 3 to 8) (size 9 to 14) (size 15 to 20)
#    0.000    1.143    4.286    1.714    4.000    2.286 
#    0.000    0.000    0.000    1.714    0.000    0.000 
#    0.000    0.000    0.000    0.000    0.000    0.000 
#
# Total GULP energy -78083.199310 kJ/mol
# GULP energy per Si atom -5577.371379 kJ/mol
# Density = 2.336379 g / cm^3
# Si number density = 23.417086 Si / 1000 Ang^3
#
#
#
# Elastic Constant Matrix: (Units=GPa)
#
#
# Indices 1 2 3 4 5 6 
#
# 1 62.1859 8.5516 31.7013 -17.5059 -9.6991 -21.3759
# 2 8.5516 68.4595 44.6559 -4.1023 0.0825 -31.6120
# 3 31.7013 44.6559 136.8482 3.6648 -10.4430 -33.6982
# 4 -17.5059 -4.1023 3.6648 44.1323 -19.4140 2.2628
# 5 -9.6991 0.0825 -10.4430 -19.4140 31.4851 2.4052
# 6 -21.3759 -31.6120 -33.6982 2.2628 2.4052 41.7470
#
#
#
# Elastic Compliance Matrix: (Units=1/GPa)
#
#
# Indices 1 2 3 4 5 6 
#
# 1 0.032997 0.008247 -0.005285 0.022767 0.021174 0.016420
# 2 0.008247 0.026595 -0.005815 0.006643 0.003177 0.019124
# 3 -0.005285 -0.005815 0.010986 -0.003877 -0.000513 0.001998
# 4 0.022767 0.006643 -0.003877 0.047169 0.034105 0.009037
# 5 0.021174 0.003177 -0.000513 0.034105 0.058554 0.007612
# 6 0.016420 0.019124 0.001998 0.009037 0.007612 0.047527
#
#
# Mechanical properties :
#
#
# Convention : Reuss Voigt Hill
#
# Bulk Modulus (GPa) = 15.41529 48.59014 32.00271
# Shear Modulus (GPa) = 19.90765 35.64521 27.77643
#
# Velocity S-wave (km/s) = 2.91887 3.90576 3.44780
# Velocity P-wave (km/s) = 4.23756 6.41364 5.43561
#
# Compressibility (1/GPa) = 0.06487067
#
# Stress axis : x y z
#
# Youngs Moduli (GPa) = 30.30560 37.60073 91.02476
#
# Poissons Ratio (x) = -0.31008 0.48111
# Poissons Ratio (y) = -0.24992 0.52931
# Poissons Ratio (z) = 0.16018 0.21865
#
# Static dielectric constant tensor:
#      x y z
#    x 1.878700 -0.011410 -0.024920 
#    y -0.011410 1.838650 0.045250 
#    z -0.024920 0.045250 2.121450 
# 
# From -- ./inp_files/37809.got.cif
#   From: 2010.05.17/outbox.cif.g08.bks.cpg/sg2_19_cif.got.tgz:37809.got - 2010.06.03 11:33:40.
