data_PCOD9096266
_publ_section_title
;
Structure prediction by ZEFSAII (Michael W. Deem and Ramdas Pophale) SiO2 
 PCOD9096266
Probable space group: P -1
;
_chemical_formula_sum "Si O2"
_cell_formula_units_Z 14
_cell_length_a 9.379039
_cell_length_b 8.056945
_cell_length_c 16.551102
_cell_angle_alpha 61.121769
_cell_angle_beta 137.321801
_cell_angle_gamma 89.606844
_cell_volume 588.445668
_symmetry_space_group_name_H-M "P -1"
_symmetry_group_IT_number 2
_symmetry_cell_setting 'triclinic'
loop_
_space_group_symop_operation_xyz
x,y,z
-x,-y,-z
loop_
_atom_site_type_symbol
_atom_site_label
_atom_site_fract_x
_atom_site_fract_y
_atom_site_fract_z
Si Si1 0.259241 0.331419 0.801599
Si Si2 0.459308 0.118572 0.254081
Si Si3 0.513026 0.273126 0.082516
Si Si4 0.998753 0.838640 0.632914
Si Si5 0.683852 0.652249 0.350284
Si Si6 0.220765 0.119816 0.310901
Si Si7 0.744311 0.342491 0.576622
O O1 0.424039 0.241781 0.808153
O O2 0.147732 0.609552 0.691401
O O3 0.002742 0.333879 0.700791
O O4 0.436739 0.210469 0.983717
O O5 0.721827 0.045940 0.428434
O O6 0.560331 0.867838 0.312538
O O7 0.367189 0.296498 0.098820
O O8 0.242402 0.202973 0.213296
O O9 0.819898 0.084013 0.284176
O O10 0.500000 0.500000 0.000000
O O11 0.965721 0.730447 0.726527
O O12 0.641812 0.471744 0.416119
O O13 0.000000 0.500000 0.500000
O O14 0.500000 0.000000 0.500000
O O15 0.181387 0.917575 0.329344
O O16 0.500000 0.500000 0.500000
#
# Coordination Sequence:
#
# PCOD9096266 Si02
#       7
#     2   2   2   2   2   2   2
#     4  10  22  41  59  91 128 156 202 252 304 356
#     4  11  20  40  62  92 121 159 211 250 296 360
#     4  10  24  40  60  88 127 164 199 253 309 355
#     4  10  20  40  64  90 119 161 205 251 301 359
#     4  10  20  35  64  92 121 153 205 254 296 355
#     4  10  22  36  59  94 120 152 203 258 299 354
#     4  11  19  38  63  90 122 157 202 248 303 361
#
# _framework density 23.79149
#
# number of rings (size 3 to 8) (size 9 to 14) (size 15 to 20)
#    0.000    1.714    4.286    1.286    4.000    5.143 
#    0.000    5.000    0.000    0.000    0.000    0.000 
#    0.000    0.000    0.000    0.000    0.000    0.000 
#
# Total GULP energy -78113.990637 kJ/mol
# GULP energy per Si atom -5579.570760 kJ/mol
# Density = 2.373734 g / cm^3
# Si number density = 23.791490 Si / 1000 Ang^3
#
#
#
# Elastic Constant Matrix: (Units=GPa)
#
#
# Indices 1 2 3 4 5 6 
#
# 1 155.2412 8.5348 50.2747 21.9333 -51.4155 -11.3746
# 2 8.5348 58.5306 26.7683 21.1681 -9.3590 -0.1650
# 3 50.2747 26.7683 100.1097 24.3226 -41.7524 9.9777
# 4 21.9333 21.1681 24.3226 44.6710 2.4789 -3.8115
# 5 -51.4155 -9.3590 -41.7524 2.4789 59.6540 2.2185
# 6 -11.3746 -0.1650 9.9777 -3.8115 2.2185 42.6724
#
#
#
# Elastic Compliance Matrix: (Units=1/GPa)
#
#
# Indices 1 2 3 4 5 6 
#
# 1 0.010664 0.002612 -0.000901 -0.006319 0.009158 0.002023
# 2 0.002612 0.022573 -0.003196 -0.010426 0.003975 0.000393
# 3 -0.000901 -0.003196 0.020036 -0.010256 0.013415 -0.006551
# 4 -0.006319 -0.010426 -0.010256 0.037313 -0.015990 0.004837
# 5 0.009158 0.003975 0.013415 -0.015990 0.035481 -0.003953
# 6 0.002023 0.000393 -0.006551 0.004837 -0.003953 0.026144
#
#
# Mechanical properties :
#
#
# Convention : Reuss Voigt Hill
#
# Bulk Modulus (GPa) = 19.87937 53.89302 36.88619
# Shear Modulus (GPa) = 29.07863 44.61973 36.84918
#
# Velocity S-wave (km/s) = 3.49983 4.33534 3.93980
# Velocity P-wave (km/s) = 4.97047 6.91098 6.01944
#
# Compressibility (1/GPa) = 0.05030340
#
# Stress axis : x y z
#
# Youngs Moduli (GPa) = 93.77650 44.30030 49.91120
#
# Poissons Ratio (x) = -0.11572 0.04496
# Poissons Ratio (y) = -0.24497 0.15952
# Poissons Ratio (z) = 0.08447 0.14159
#
# Static dielectric constant tensor:
#      x y z
#    x 2.401460 -0.636890 0.005680 
#    y -0.636890 2.811320 0.017930 
#    z 0.005680 0.017930 2.045180 
# 
# From -- ./inp_files/154760.got.cif
#   From: 2010.05.17/outbox.cif.g08.bks.cpg/sg2_78_cif.got.tgz:154760.got - 2010.06.03 11:33:40.
