data_PCOD9096026
_publ_section_title
;
Structure prediction by ZEFSAII (Michael W. Deem and Ramdas Pophale) SiO2 
 PCOD9096026
Probable space group: P -1
;
_chemical_formula_sum "Si O2"
_cell_formula_units_Z 14
_cell_length_a 12.725492
_cell_length_b 5.849487
_cell_length_c 7.234635
_cell_angle_alpha 87.333205
_cell_angle_beta 87.372818
_cell_angle_gamma 68.477530
_cell_volume 500.196864
_symmetry_space_group_name_H-M "P -1"
_symmetry_group_IT_number 2
_symmetry_cell_setting 'triclinic'
loop_
_space_group_symop_operation_xyz
x,y,z
-x,-y,-z
loop_
_atom_site_type_symbol
_atom_site_label
_atom_site_fract_x
_atom_site_fract_y
_atom_site_fract_z
Si Si1 0.458341 0.314991 0.124703
Si Si2 0.893863 0.711372 0.345406
Si Si3 0.859517 0.242088 0.348264
Si Si4 0.286171 0.166951 0.940028
Si Si5 0.900751 0.342751 0.921642
Si Si6 0.611029 0.272847 0.429887
Si Si7 0.277199 0.788232 0.230829
O O1 0.401515 0.199936 0.981262
O O2 0.554374 0.175040 0.271402
O O3 0.352018 0.500120 0.240439
O O4 0.500000 0.500000 0.000000
O O5 0.900945 0.446490 0.434654
O O6 0.984958 0.656183 0.174978
O O7 0.895235 0.961519 0.427774
O O8 0.770085 0.800502 0.256096
O O9 0.720687 0.337092 0.354427
O O10 0.902533 0.230452 0.131795
O O11 0.189592 0.381875 0.055746
O O12 0.294360 0.913841 0.039425
O O13 0.849080 0.201458 0.785487
O O14 0.500000 0.500000 0.500000
O O15 0.668196 0.109037 0.611173
#
# Coordination Sequence:
#
# PCOD9096026 Si02
#       7
#     2   2   2   2   2   2   2
#     4  10  21  39  61  89 121 163 222 277 325 379
#     4  11  23  39  72  99 132 166 218 278 324 377
#     4  11  22  43  65 100 127 171 223 269 316 391
#     4  10  20  35  61  94 122 164 216 267 324 389
#     4  10  21  39  68  94 129 166 212 271 330 380
#     4  10  23  45  63  89 134 173 218 268 330 382
#     4  10  21  38  59  90 125 169 214 261 326 396
#
# _framework density 27.988979
#
# number of rings (size 3 to 8) (size 9 to 14) (size 15 to 20)
#    0.000    1.714    1.429    4.714    2.000    1.143 
#   12.857    1.429    0.000    0.000    0.000    0.000 
#    0.000    0.000    0.000    0.000    0.000    0.000 
#
# Total GULP energy -78199.557001 kJ/mol
# GULP energy per Si atom -5585.682643 kJ/mol
# Density = 2.792528 g / cm^3
# Si number density = 27.988979 Si / 1000 Ang^3
#
#
#
# Elastic Constant Matrix: (Units=GPa)
#
#
# Indices 1 2 3 4 5 6 
#
# 1 161.3230 51.2983 12.3556 8.7839 7.7676 18.9946
# 2 51.2983 153.4461 26.1408 5.5740 9.0559 13.4761
# 3 12.3556 26.1408 96.4279 14.8174 12.0675 8.1885
# 4 8.7839 5.5740 14.8174 47.7396 2.7682 12.2689
# 5 7.7676 9.0559 12.0675 2.7682 48.7220 7.7204
# 6 18.9946 13.4761 8.1885 12.2689 7.7204 59.6730
#
#
#
# Elastic Compliance Matrix: (Units=1/GPa)
#
#
# Indices 1 2 3 4 5 6 
#
# 1 0.007141 -0.002193 -0.000037 -0.000612 -0.000435 -0.001590
# 2 -0.002193 0.007629 -0.001695 0.000270 -0.000541 -0.000778
# 3 -0.000037 -0.001695 0.011642 -0.003211 -0.002342 -0.000240
# 4 -0.000612 0.000270 -0.003211 0.023092 0.000196 -0.004199
# 5 -0.000435 -0.000541 -0.002342 0.000196 0.021621 -0.002256
# 6 -0.001590 -0.000778 -0.000240 -0.004199 -0.002256 0.018628
#
#
# Mechanical properties :
#
#
# Convention : Reuss Voigt Hill
#
# Bulk Modulus (GPa) = 53.87569 65.64292 59.75930
# Shear Modulus (GPa) = 48.17428 52.65374 50.41401
#
# Velocity S-wave (km/s) = 4.15322 4.34202 4.24867
# Velocity P-wave (km/s) = 6.50305 6.97435 6.74282
#
# Compressibility (1/GPa) = 0.01856125
#
# Stress axis : x y z
#
# Youngs Moduli (GPa) = 140.04558 131.07282 85.89915
#
# Poissons Ratio (x) = 0.28748 0.00316
# Poissons Ratio (y) = 0.30716 0.14560
# Poissons Ratio (z) = 0.00515 0.22217
#
# Static dielectric constant tensor:
#      x y z
#    x 2.217330 -0.020010 -0.005620 
#    y -0.020010 2.297310 0.138570 
#    z -0.005620 0.138570 2.239870 
# 
# From -- ./inp_files/111072.got.cif
#   From: 2010.05.17/outbox.cif.g08.bks.cpg/sg2_56_cif.got.tgz:111072.got - 2010.06.03 11:33:40.
