data_PCOD9096755
_publ_section_title
;
Structure prediction by ZEFSAII (Michael W. Deem and Ramdas Pophale) SiO2 
 PCOD9096755
Probable space group: P -1
;
_chemical_formula_sum "Si O2"
_cell_formula_units_Z 16
_cell_length_a 8.604551
_cell_length_b 9.732723
_cell_length_c 12.263993
_cell_angle_alpha 128.424088
_cell_angle_beta 51.637677
_cell_angle_gamma 117.505347
_cell_volume 626.048454
_symmetry_space_group_name_H-M "P -1"
_symmetry_group_IT_number 2
_symmetry_cell_setting 'triclinic'
loop_
_space_group_symop_operation_xyz
x,y,z
-x,-y,-z
loop_
_atom_site_type_symbol
_atom_site_label
_atom_site_fract_x
_atom_site_fract_y
_atom_site_fract_z
Si Si1 0.470210 0.645469 0.925511
Si Si2 0.749590 0.293677 0.270835
Si Si3 0.763987 0.735263 0.195114
Si Si4 0.407958 0.802371 0.255041
Si Si5 0.357032 0.341907 0.562723
Si Si6 0.202230 0.892296 0.046114
Si Si7 0.880068 0.512663 0.669076
Si Si8 0.828572 0.929520 0.626977
O O1 0.320753 0.467096 0.889243
O O2 0.688110 0.612092 0.778557
O O3 0.480569 0.687201 0.068875
O O4 0.379423 0.800710 0.978974
O O5 0.582757 0.294154 0.438747
O O6 0.668418 0.452231 0.313671
O O7 0.967784 0.371354 0.257772
O O8 0.747205 0.116981 0.110465
O O9 0.597754 0.845073 0.271414
O O10 0.760307 0.757993 0.337040
O O11 0.987252 0.774509 0.077290
O O12 0.223722 0.677877 0.332226
O O13 0.340446 0.965949 0.301426
O O14 0.245545 0.273989 0.466963
O O15 0.155891 0.030626 0.230715
O O16 0.000000 0.500000 0.500000
O O17 0.000000 0.000000 0.500000
#
# Coordination Sequence:
#
# PCOD9096755 Si02
#       8
#     2   2   2   2   2   2   2   2
#     4  10  20  36  57  95 124 158 204 259 303 357
#     4  11  23  40  65  93 118 168 204 256 311 362
#     4  11  19  36  61  93 118 160 206 258 298 363
#     4  10  22  37  64  89 126 164 201 257 311 362
#     4  11  24  39  64  90 130 153 213 255 307 371
#     4  11  22  37  67  89 125 161 211 254 307 369
#     4  11  22  37  62  96 130 157 203 259 314 363
#     4  11  23  43  60  93 127 166 203 258 312 369
#
# _framework density 25.557126
#
# number of rings (size 3 to 8) (size 9 to 14) (size 15 to 20)
#    0.000    1.250    2.500    5.625    3.500    1.000 
#    0.000    0.000    0.000    3.750    0.000    0.000 
#    0.000    0.000    0.000    0.000    0.000    0.000 
#
# Total GULP energy -89392.403590 kJ/mol
# GULP energy per Si atom -5587.025224 kJ/mol
# Density = 2.549896 g / cm^3
# Si number density = 25.557126 Si / 1000 Ang^3
#
#
#
# Elastic Constant Matrix: (Units=GPa)
#
#
# Indices 1 2 3 4 5 6 
#
# 1 70.8489 16.6210 16.8452 -4.9318 0.8112 23.3961
# 2 16.6210 61.4011 26.4240 -16.1419 -2.7775 13.4231
# 3 16.8452 26.4240 142.8281 -16.0157 13.3942 21.0880
# 4 -4.9318 -16.1419 -16.0157 42.0163 17.1010 -3.2047
# 5 0.8112 -2.7775 13.3942 17.1010 48.7938 -6.4367
# 6 23.3961 13.4231 21.0880 -3.2047 -6.4367 31.3947
#
#
#
# Elastic Compliance Matrix: (Units=1/GPa)
#
#
# Indices 1 2 3 4 5 6 
#
# 1 0.019395 -0.002013 0.000771 0.002021 -0.003280 -0.014578
# 2 -0.002013 0.020683 -0.001781 0.007243 -0.001595 -0.005735
# 3 0.000771 -0.001781 0.009186 0.004470 -0.005069 -0.006567
# 4 0.002021 0.007243 0.004470 0.033489 -0.013503 -0.006955
# 5 -0.003280 -0.001595 -0.005069 -0.013503 0.028020 0.010897
# 6 -0.014578 -0.005735 -0.006567 -0.006955 0.010897 0.051104
#
#
# Mechanical properties :
#
#
# Convention : Reuss Voigt Hill
#
# Bulk Modulus (GPa) = 23.13678 43.87316 33.50497
# Shear Modulus (GPa) = 27.42313 38.78679 33.10496
#
# Velocity S-wave (km/s) = 3.27924 3.89993 3.60298
# Velocity P-wave (km/s) = 4.83844 6.12236 5.51787
#
# Compressibility (1/GPa) = 0.04322123
#
# Stress axis : x y z
#
# Youngs Moduli (GPa) = 51.55843 48.34843 108.86128
#
# Poissons Ratio (x) = 0.09730 -0.08397
# Poissons Ratio (y) = 0.10376 0.19383
# Poissons Ratio (z) = -0.03977 0.08609
#
# Static dielectric constant tensor:
#      x y z
#    x 1.998160 -0.012130 0.016910 
#    y -0.012130 2.069230 0.053410 
#    z 0.016910 0.053410 2.052050 
# 
# From -- ./inp_files/218339.got.cif
#   From: 2010.05.17/outbox.cif.g08.bks.cpg/sg2_110_cif.got.tgz:218339.got - 2010.06.03 11:33:40.
