data_PCOD9096107
_publ_section_title
;
Structure prediction by ZEFSAII (Michael W. Deem and Ramdas Pophale) SiO2 
 PCOD9096107
Probable space group: P -1
;
_chemical_formula_sum "Si O2"
_cell_formula_units_Z 16
_cell_length_a 12.703683
_cell_length_b 6.871600
_cell_length_c 25.935510
_cell_angle_alpha 62.306115
_cell_angle_beta 23.948721
_cell_angle_gamma 51.315471
_cell_volume 675.665595
_symmetry_space_group_name_H-M "P -1"
_symmetry_group_IT_number 2
_symmetry_cell_setting 'triclinic'
loop_
_space_group_symop_operation_xyz
x,y,z
-x,-y,-z
loop_
_atom_site_type_symbol
_atom_site_label
_atom_site_fract_x
_atom_site_fract_y
_atom_site_fract_z
Si Si1 0.768330 0.521683 0.027791
Si Si2 0.858434 0.297318 0.507408
Si Si3 0.674549 0.187111 0.271034
Si Si4 0.735594 0.555622 0.756119
Si Si5 0.134871 0.089378 0.995316
Si Si6 0.599756 0.415480 0.417450
Si Si7 0.349377 0.142541 0.592973
Si Si8 0.858852 0.768614 0.869517
O O1 0.424545 0.583159 0.179302
O O2 0.789029 0.733400 0.025709
O O3 0.858082 0.535442 0.927311
O O4 0.015058 0.239211 0.976400
O O5 0.634031 0.515242 0.623975
O O6 0.628291 0.384884 0.550090
O O7 0.114542 0.349877 0.364611
O O8 0.000000 0.000000 0.500000
O O9 0.941744 0.168946 0.190005
O O10 0.601607 0.996802 0.356137
O O11 0.842656 0.105894 0.151007
O O12 0.999190 0.355975 0.702740
O O13 0.447897 0.805665 0.883118
O O14 0.581337 0.133421 0.439926
O O15 0.557017 0.642636 0.454043
O O16 0.960490 0.292191 0.257157
O O17 0.500000 0.000000 0.000000
#
# Coordination Sequence:
#
# PCOD9096107 Si02
#       8
#     2   2   2   2   2   2   2   2
#     4  10  23  41  66  92 139 170 211 275 334 392
#     4  10  23  42  67  91 135 181 219 267 340 399
#     4  10  21  42  63  90 129 172 208 274 333 376
#     4  11  23  41  70  94 124 178 222 266 332 400
#     4  10  24  42  64  99 132 167 220 275 326 393
#     4  10  23  40  62  95 126 166 217 275 325 386
#     4  11  20  43  64  86 128 170 214 267 328 388
#     4  10  20  35  62  89 121 167 208 254 330 388
#
# _framework density 23.680351999999999
#
# number of rings (size 3 to 8) (size 9 to 14) (size 15 to 20)
#    0.000    1.750    3.750    1.125    7.000    5.500 
#    2.250    0.625    0.000    0.000    0.000    0.000 
#    0.000    0.000    0.000    0.000    0.000    0.000 
#
# Total GULP energy -89346.687604 kJ/mol
# GULP energy per Si atom -5584.167975 kJ/mol
# Density = 2.362645 g / cm^3
# Si number density = 23.680352 Si / 1000 Ang^3
#
#
#
# Elastic Constant Matrix: (Units=GPa)
#
#
# Indices 1 2 3 4 5 6 
#
# 1 60.6498 47.7872 41.4659 -5.0316 10.8653 8.1127
# 2 47.7872 211.8535 92.9741 1.7692 10.3308 -15.0954
# 3 41.4659 92.9741 186.7107 -0.6234 26.8552 -5.9629
# 4 -5.0316 1.7692 -0.6234 42.5858 7.2678 -8.3595
# 5 10.8653 10.3308 26.8552 7.2678 48.5410 -4.0853
# 6 8.1127 -15.0954 -5.9629 -8.3595 -4.0853 31.9515
#
#
#
# Elastic Compliance Matrix: (Units=1/GPa)
#
#
# Indices 1 2 3 4 5 6 
#
# 1 0.024095 -0.004694 -0.002726 0.001936 -0.003920 -0.008839
# 2 -0.004694 0.007144 -0.002577 -0.000299 0.001353 0.004181
# 3 -0.002726 -0.002577 0.007719 0.000564 -0.003141 0.000661
# 4 0.001936 -0.000299 0.000564 0.025525 -0.004029 0.005635
# 5 -0.003920 0.001353 -0.003141 -0.004029 0.023787 0.003036
# 6 -0.008839 0.004181 0.000661 0.005635 0.003036 0.037503
#
#
# Mechanical properties :
#
#
# Convention : Reuss Voigt Hill
#
# Bulk Modulus (GPa) = 52.72764 91.51869 72.12317
# Shear Modulus (GPa) = 32.87535 43.08146 37.97841
#
# Velocity S-wave (km/s) = 3.73003 4.26994 4.00908
# Velocity P-wave (km/s) = 6.39262 7.93986 7.20787
#
# Compressibility (1/GPa) = 0.01896539
#
# Stress axis : x y z
#
# Youngs Moduli (GPa) = 41.50202 139.96840 129.54334
#
# Poissons Ratio (x) = 0.65695 0.35313
# Poissons Ratio (y) = 0.19479 0.33387
# Poissons Ratio (z) = 0.11313 0.36074
#
# Static dielectric constant tensor:
#      x y z
#    x 2.013380 0.157820 0.018570 
#    y 0.157820 2.012930 -0.053960 
#    z 0.018570 -0.053960 1.877250 
# 
# From -- ./inp_files/623460.got.cif
#   From: 2010.05.17/outbox.cif.g08.bks.cpg/sg2_312_cif.got.tgz:623460.got - 2010.06.03 11:33:40.
