data_PCOD9096770
_publ_section_title
;
Structure prediction by ZEFSAII (Michael W. Deem and Ramdas Pophale) SiO2 
 PCOD9096770
Probable space group: P -1
;
_chemical_formula_sum "Si O2"
_cell_formula_units_Z 12
_cell_length_a 10.026295
_cell_length_b 12.034808
_cell_length_c 8.864774
_cell_angle_alpha 145.114435
_cell_angle_beta 117.307474
_cell_angle_gamma 50.859583
_cell_volume 470.280324
_symmetry_space_group_name_H-M "P -1"
_symmetry_group_IT_number 2
_symmetry_cell_setting 'triclinic'
loop_
_space_group_symop_operation_xyz
x,y,z
-x,-y,-z
loop_
_atom_site_type_symbol
_atom_site_label
_atom_site_fract_x
_atom_site_fract_y
_atom_site_fract_z
Si Si1 0.483021 0.771690 0.341363
Si Si2 0.455920 0.848295 0.089779
Si Si3 0.882581 0.485144 0.161668
Si Si4 0.895555 0.961524 0.031579
Si Si5 0.813056 0.062498 0.409629
Si Si6 0.805955 0.591241 0.886667
O O1 0.459298 0.014267 0.640160
O O2 0.349066 0.764434 0.381719
O O3 0.690468 0.623019 0.284009
O O4 0.422313 0.751686 0.119069
O O5 0.808847 0.828211 0.141279
O O6 0.276509 0.018153 0.107978
O O7 0.602053 0.674502 0.857532
O O8 0.032902 0.556774 0.308009
O O9 0.971741 0.266979 0.070316
O O10 0.847232 0.493979 0.970837
O O11 0.814093 0.138537 0.324311
O O12 0.000000 0.000000 0.000000
O O13 0.000000 0.000000 0.500000
#
# Coordination Sequence:
#
# PCOD9096770 Si02
#       6
#     2   2   2   2   2   2
#     4   9  18  35  59  81 104 142 184 220 262 320
#     4   9  18  35  57  80 109 142 179 219 267 325
#     4   9  18  34  55  83 109 137 182 225 265 315
#     4  11  23  37  54  80 113 145 178 223 275 320
#     4  10  20  36  58  80 110 146 180 218 269 326
#     4   8  17  35  58  81 105 143 184 217 263 323
#
# _framework density 25.516698000000002
#
# number of rings (size 3 to 8) (size 9 to 14) (size 15 to 20)
#    0.000    2.667    0.000    2.000    0.000    6.667 
#    0.000   15.833    0.000    0.000    0.000    0.000 
#    0.000    0.000    0.000    0.000    0.000    0.000 
#
# Total GULP energy -66817.341550 kJ/mol
# GULP energy per Si atom -5568.111796 kJ/mol
# Density = 2.545862 g / cm^3
# Si number density = 25.516698 Si / 1000 Ang^3
#
#
#
# Elastic Constant Matrix: (Units=GPa)
#
#
# Indices 1 2 3 4 5 6 
#
# 1 221.0446 62.1700 47.9853 -1.6928 -63.7851 -5.2034
# 2 62.1700 127.0219 15.5015 5.7739 -28.6542 -10.4027
# 3 47.9853 15.5015 48.0605 -6.0840 -19.0847 2.0408
# 4 -1.6928 5.7739 -6.0840 30.2593 -2.4630 -4.2205
# 5 -63.7851 -28.6542 -19.0847 -2.4630 50.2564 7.6593
# 6 -5.2034 -10.4027 2.0408 -4.2205 7.6593 47.9326
#
#
#
# Elastic Compliance Matrix: (Units=1/GPa)
#
#
# Indices 1 2 3 4 5 6 
#
# 1 0.008257 -0.001786 -0.004461 0.000474 0.007870 -0.000517
# 2 -0.001786 0.009608 -0.000488 -0.001622 0.002744 0.001331
# 3 -0.004461 -0.000488 0.028397 0.005694 0.005453 -0.002169
# 4 0.000474 -0.001622 0.005694 0.035076 0.003249 0.002026
# 5 0.007870 0.002744 0.005453 0.003249 0.034286 -0.003975
# 6 -0.000517 0.001331 -0.002169 0.002026 -0.003975 0.022001
#
#
# Mechanical properties :
#
#
# Convention : Reuss Voigt Hill
#
# Bulk Modulus (GPa) = 30.49552 71.93783 51.21668
# Shear Modulus (GPa) = 30.85923 43.72100 37.29011
#
# Velocity S-wave (km/s) = 3.48138 4.14385 3.82697
# Velocity P-wave (km/s) = 5.30444 7.15185 6.29627
#
# Compressibility (1/GPa) = 0.03279170
#
# Stress axis : x y z
#
# Youngs Moduli (GPa) = 121.11071 104.08064 35.21481
#
# Poissons Ratio (x) = 0.18584 0.15710
# Poissons Ratio (y) = 0.21624 0.01720
# Poissons Ratio (z) = 0.54029 0.05084
#
# Static dielectric constant tensor:
#      x y z
#    x 2.139190 0.031820 -0.008410 
#    y 0.031820 2.026590 0.106430 
#    z -0.008410 0.106430 2.268440 
# 
# From -- ./inp_files/173124.got.cif
#   From: 2010.05.17/outbox.cif.g08.bks.cpg/sg2_87_cif.got.tgz:173124.got - 2010.06.03 11:33:40.
