data_PCOD9096871
_publ_section_title
;
Structure prediction by ZEFSAII (Michael W. Deem and Ramdas Pophale) SiO2 
 PCOD9096871
Probable space group: P -1
;
_chemical_formula_sum "Si O2"
_cell_formula_units_Z 14
_cell_length_a 8.591021
_cell_length_b 24.997486
_cell_length_c 17.508136
_cell_angle_alpha 156.249798
_cell_angle_beta 148.813744
_cell_angle_gamma 27.787451
_cell_volume 684.705189
_symmetry_space_group_name_H-M "P -1"
_symmetry_group_IT_number 2
_symmetry_cell_setting 'triclinic'
loop_
_space_group_symop_operation_xyz
x,y,z
-x,-y,-z
loop_
_atom_site_type_symbol
_atom_site_label
_atom_site_fract_x
_atom_site_fract_y
_atom_site_fract_z
Si Si1 0.838907 0.803526 0.576522
Si Si2 0.216099 0.303863 0.282273
Si Si3 0.711781 0.050219 0.041794
Si Si4 0.356923 0.735955 0.958463
Si Si5 0.541222 0.161738 0.394339
Si Si6 0.332604 0.072371 0.605567
Si Si7 0.448023 0.517503 0.410050
O O1 0.668297 0.756532 0.510961
O O2 0.105121 0.857075 0.792647
O O3 0.070833 0.664655 0.436329
O O4 0.547478 0.943921 0.591112
O O5 0.455434 0.157352 0.139360
O O6 0.364897 0.257835 0.370105
O O7 0.282032 0.436000 0.451052
O O8 0.825163 0.336225 0.159690
O O9 0.501860 0.990289 0.825187
O O10 0.029365 0.897695 0.009428
O O11 0.510001 0.627583 0.807873
O O12 0.615685 0.782233 0.166674
O O13 0.936012 0.117374 0.501987
O O14 0.500000 0.000000 0.500000
O O15 0.500000 0.500000 0.500000
#
# Coordination Sequence:
#
# PCOD9096871 Si02
#       7
#     2   2   2   2   2   2   2
#     4  10  22  37  56  85 115 147 190 238 280 332
#     4  10  20  36  59  87 112 144 191 241 283 332
#     4   9  18  35  59  87 111 142 191 242 282 328
#     4  10  20  36  58  86 114 149 190 231 282 336
#     4  11  19  35  60  85 113 150 189 235 283 333
#     4  11  22  39  59  84 116 152 190 234 281 335
#     4  11  22  38  59  86 117 148 186 237 285 336
#
# _framework density 20.446755
#
# number of rings (size 3 to 8) (size 9 to 14) (size 15 to 20)
#    0.000    1.714    0.000    8.143    0.000    3.429 
#    0.000    5.000    0.000    3.429    0.000    0.000 
#    0.000    0.000    0.000    0.000    0.000    0.000 
#
# Total GULP energy -78193.128060 kJ/mol
# GULP energy per Si atom -5585.223433 kJ/mol
# Density = 2.040022 g / cm^3
# Si number density = 20.446755 Si / 1000 Ang^3
#
#
#
# Elastic Constant Matrix: (Units=GPa)
#
#
# Indices 1 2 3 4 5 6 
#
# 1 136.9918 27.2763 49.6176 -14.5154 8.3833 -16.0840
# 2 27.2763 48.9189 32.6307 -11.7823 12.0739 -16.1559
# 3 49.6176 32.6307 127.3179 -7.3253 -3.2699 -23.8477
# 4 -14.5154 -11.7823 -7.3253 34.4971 -14.3813 3.6688
# 5 8.3833 12.0739 -3.2699 -14.3813 29.9040 -0.6090
# 6 -16.0840 -16.1559 -23.8477 3.6688 -0.6090 40.9537
#
#
#
# Elastic Compliance Matrix: (Units=1/GPa)
#
#
# Indices 1 2 3 4 5 6 
#
# 1 0.009107 -0.002249 -0.002711 0.001987 -0.000967 0.000918
# 2 -0.002249 0.031698 -0.005903 0.003162 -0.011135 0.007735
# 3 -0.002711 -0.005903 0.011184 0.000918 0.004871 0.003109
# 4 0.001987 0.003162 0.000918 0.038067 0.016561 -0.000602
# 5 -0.000967 -0.011135 0.004871 0.016561 0.046649 -0.002726
# 6 0.000918 0.007735 0.003109 -0.000602 -0.002726 0.029654
#
#
# Mechanical properties :
#
#
# Convention : Reuss Voigt Hill
#
# Bulk Modulus (GPa) = 33.04326 59.14198 46.09262
# Shear Modulus (GPa) = 25.23058 34.65123 29.94091
#
# Velocity S-wave (km/s) = 3.51659 4.12115 3.83082
# Velocity P-wave (km/s) = 5.71702 7.18560 6.49296
#
# Compressibility (1/GPa) = 0.03026336
#
# Stress axis : x y z
#
# Youngs Moduli (GPa) = 109.80512 31.54816 89.41233
#
# Poissons Ratio (x) = 0.07094 0.24242
# Poissons Ratio (y) = 0.24692 0.52777
# Poissons Ratio (z) = 0.29771 0.18622
#
# Static dielectric constant tensor:
#      x y z
#    x 1.759440 0.011870 0.011570 
#    y 0.011870 1.741700 0.036280 
#    z 0.011570 0.036280 1.784340 
# 
# From -- ./inp_files/203729.got.cif
#   From: 2010.05.17/outbox.cif.g08.bks.cpg/sg2_102_cif.got.tgz:203729.got - 2010.06.03 11:33:40.
