data_PCOD9096607
_publ_section_title
;
Structure prediction by ZEFSAII (Michael W. Deem and Ramdas Pophale) SiO2 
 PCOD9096607
Probable space group: P -1
;
_chemical_formula_sum "Si O2"
_cell_formula_units_Z 14
_cell_length_a 13.758028
_cell_length_b 8.647948
_cell_length_c 9.214057
_cell_angle_alpha 132.492396
_cell_angle_beta 94.113776
_cell_angle_gamma 55.906574
_cell_volume 578.726018
_symmetry_space_group_name_H-M "P -1"
_symmetry_group_IT_number 2
_symmetry_cell_setting 'triclinic'
loop_
_space_group_symop_operation_xyz
x,y,z
-x,-y,-z
loop_
_atom_site_type_symbol
_atom_site_label
_atom_site_fract_x
_atom_site_fract_y
_atom_site_fract_z
Si Si1 0.924713 0.360311 0.399111
Si Si2 0.407520 0.571694 0.223569
Si Si3 0.783597 0.776372 0.127171
Si Si4 0.726497 0.326655 0.454508
Si Si5 0.504694 0.136627 0.416269
Si Si6 0.979465 0.557864 0.278060
Si Si7 0.352181 0.983935 0.252864
O O1 0.858820 0.235066 0.342717
O O2 0.985226 0.333433 0.232233
O O3 0.024709 0.267811 0.481993
O O4 0.791245 0.713561 0.623328
O O5 0.290904 0.646262 0.356990
O O6 0.469708 0.684415 0.382430
O O7 0.347124 0.769130 0.197989
O O8 0.532218 0.230316 0.989618
O O9 0.858555 0.706632 0.245007
O O10 0.727461 0.082765 0.258312
O O11 0.651469 0.839522 0.187805
O O12 0.895992 0.553385 0.879726
O O13 0.593149 0.640915 0.582825
O O14 0.414793 0.073665 0.421188
#
# Coordination Sequence:
#
# PCOD9096607 Si02
#       7
#     2   2   2   2   2   2   2
#     4  10  22  39  59  86 118 155 201 242 291 351
#     4  10  20  36  56  94 120 151 188 238 316 347
#     4  10  21  40  61  84 120 154 202 237 291 363
#     4  10  22  36  63  89 114 148 194 253 299 346
#     4  10  21  37  62  91 117 152 189 254 301 350
#     4  10  23  39  60  82 115 171 192 237 291 347
#     4  10  22  36  62  89 120 154 192 247 303 355
#
# _framework density 24.191067
#
# number of rings (size 3 to 8) (size 9 to 14) (size 15 to 20)
#    0.000    2.000    0.000    3.857    6.000    3.429 
#    0.000    0.000    6.286    0.000    0.000    0.000 
#    0.000    0.000    0.000    0.000    0.000    0.000 
#
# Total GULP energy -78079.726466 kJ/mol
# GULP energy per Si atom -5577.123319 kJ/mol
# Density = 2.413601 g / cm^3
# Si number density = 24.191067 Si / 1000 Ang^3
#
#
#
# Elastic Constant Matrix: (Units=GPa)
#
#
# Indices 1 2 3 4 5 6 
#
# 1 95.6598 15.3395 13.2985 -6.8978 -20.2263 -12.1215
# 2 15.3395 62.8013 9.5426 -12.9033 -3.0949 -5.7809
# 3 13.2985 9.5426 63.4121 -3.7437 -9.0698 -9.2975
# 4 -6.8978 -12.9033 -3.7437 22.2652 5.1353 -0.5070
# 5 -20.2263 -3.0949 -9.0698 5.1353 24.0140 4.1620
# 6 -12.1215 -5.7809 -9.2975 -0.5070 4.1620 30.1331
#
#
#
# Elastic Compliance Matrix: (Units=1/GPa)
#
#
# Indices 1 2 3 4 5 6 
#
# 1 0.013521 -0.002306 -0.000495 0.000495 0.010202 0.003443
# 2 -0.002306 0.019082 -0.001764 0.010788 -0.002937 0.002776
# 3 -0.000495 -0.001764 0.017522 0.000689 0.005102 0.004175
# 4 0.000495 0.010788 0.000689 0.053919 -0.010297 0.004810
# 5 0.010202 -0.002937 0.005102 -0.010297 0.054432 -0.002577
# 6 0.003443 0.002776 0.004175 0.004810 -0.002577 0.036829
#
#
# Mechanical properties :
#
#
# Convention : Reuss Voigt Hill
#
# Bulk Modulus (GPa) = 24.39384 33.13714 28.76549
# Shear Modulus (GPa) = 22.92520 27.52865 25.22692
#
# Velocity S-wave (km/s) = 3.08177 3.37704 3.23278
# Velocity P-wave (km/s) = 4.77166 5.37900 5.08441
#
# Compressibility (1/GPa) = 0.04099396
#
# Stress axis : x y z
#
# Youngs Moduli (GPa) = 73.95681 52.40563 57.07152
#
# Poissons Ratio (x) = 0.12085 0.02827
# Poissons Ratio (y) = 0.17055 0.10068
# Poissons Ratio (z) = 0.03664 0.09245
#
# Static dielectric constant tensor:
#      x y z
#    x 1.964400 0.046780 -0.010080 
#    y 0.046780 1.970920 -0.031010 
#    z -0.010080 -0.031010 1.985290 
# 
# From -- ./inp_files/172378.got.cif
#   From: 2010.05.17/outbox.cif.g08.bks.cpg/sg2_87_cif.got.tgz:172378.got - 2010.06.03 11:33:40.
