data_PCOD9096685
_publ_section_title
;
Structure prediction by ZEFSAII (Michael W. Deem and Ramdas Pophale) SiO2 
 PCOD9096685
Probable space group: P -1
;
_chemical_formula_sum "Si O2"
_cell_formula_units_Z 12
_cell_length_a 13.418208
_cell_length_b 21.812383
_cell_length_c 7.356042
_cell_angle_alpha 40.814932
_cell_angle_beta 46.255922
_cell_angle_gamma 25.934751
_cell_volume 615.007224
_symmetry_space_group_name_H-M "P -1"
_symmetry_group_IT_number 2
_symmetry_cell_setting 'triclinic'
loop_
_space_group_symop_operation_xyz
x,y,z
-x,-y,-z
loop_
_atom_site_type_symbol
_atom_site_label
_atom_site_fract_x
_atom_site_fract_y
_atom_site_fract_z
Si Si1 0.776670 0.515254 0.886436
Si Si2 0.202993 0.082531 0.673590
Si Si3 0.495001 0.045574 0.103030
Si Si4 0.546383 0.253014 0.916169
Si Si5 0.254851 0.664160 0.514937
Si Si6 0.232761 0.376573 0.714094
O O1 0.763251 0.550036 0.615498
O O2 0.986201 0.460823 0.830731
O O3 0.552220 0.668933 0.935684
O O4 0.814790 0.383657 0.159118
O O5 0.322162 0.084811 0.367990
O O6 0.682251 0.081964 0.125907
O O7 0.937109 0.225833 0.644597
O O8 0.271519 0.081076 0.790994
O O9 0.408651 0.198045 0.847498
O O10 0.500000 0.000000 0.000000
O O11 0.704805 0.252893 0.649154
O O12 0.325873 0.365727 0.810159
O O13 0.500000 0.500000 0.500000
#
# Coordination Sequence:
#
# PCOD9096685 Si02
#       6
#     2   2   2   2   2   2
#     4  10  20  37  56  83 119 147 193 234 281 337
#     4  10  20  38  59  85 115 149 193 236 281 342
#     4  10  20  36  60  88 114 146 192 242 288 329
#     4  10  21  36  60  81 115 153 189 232 287 335
#     4  10  21  39  58  85 119 155 189 229 288 345
#     4  10  20  36  57  85 113 151 193 236 279 338
#
# _framework density 19.511966999999999
#
# number of rings (size 3 to 8) (size 9 to 14) (size 15 to 20)
#    0.000    2.000    1.667    2.000    0.000    0.667 
#   12.000    3.333    0.000   12.000    0.000    0.000 
#    0.000    0.000    0.000    0.000    0.000    0.000 
#
# Total GULP energy -66933.439587 kJ/mol
# GULP energy per Si atom -5577.786632 kJ/mol
# Density = 1.946756 g / cm^3
# Si number density = 19.511967 Si / 1000 Ang^3
#
#
#
# Elastic Constant Matrix: (Units=GPa)
#
#
# Indices 1 2 3 4 5 6 
#
# 1 221.5118 97.0576 130.8581 -14.1086 7.1820 2.0810
# 2 97.0576 94.8454 66.5961 -17.2507 15.6767 -20.2573
# 3 130.8581 66.5961 173.1126 -22.7956 -6.1037 -0.7709
# 4 -14.1086 -17.2507 -22.7956 23.9591 1.2713 4.8213
# 5 7.1820 15.6767 -6.1037 1.2713 31.6203 1.1342
# 6 2.0810 -20.2573 -0.7709 4.8213 1.1342 31.6244
#
#
#
# Elastic Compliance Matrix: (Units=1/GPa)
#
#
# Indices 1 2 3 4 5 6 
#
# 1 0.012960 -0.012455 -0.005629 -0.005167 0.002649 -0.008275
# 2 -0.012455 0.034772 -0.002940 0.011364 -0.016219 0.021871
# 3 -0.005629 -0.002940 0.012162 0.006354 0.004913 -0.002361
# 4 -0.005167 0.011364 0.006354 0.053238 -0.005369 -0.000150
# 5 0.002649 -0.016219 0.004913 -0.005369 0.040627 -0.011083
# 6 -0.008275 0.021871 -0.002361 -0.000150 -0.011083 0.046538
#
#
# Mechanical properties :
#
#
# Convention : Reuss Voigt Hill
#
# Bulk Modulus (GPa) = 56.03385 119.83260 87.93322
# Shear Modulus (GPa) = 20.13756 30.43794 25.28775
#
# Velocity S-wave (km/s) = 3.21606 3.95392 3.60392
# Velocity P-wave (km/s) = 6.52462 9.07705 7.90454
#
# Compressibility (1/GPa) = 0.01784636
#
# Stress axis : x y z
#
# Youngs Moduli (GPa) = 77.16341 28.75882 82.22294
#
# Poissons Ratio (x) = 0.35818 0.46282
# Poissons Ratio (y) = 0.96103 0.24175
# Poissons Ratio (z) = 0.43434 0.08456
#
# Static dielectric constant tensor:
#      x y z
#    x 1.710950 -0.017100 -0.026330 
#    y -0.017100 1.677830 -0.002970 
#    z -0.026330 -0.002970 1.691020 
# 
# From -- ./inp_files/82384.got.cif
#   From: 2010.05.17/outbox.cif.g08.bks.cpg/sg2_42_cif.got.tgz:82384.got - 2010.06.03 11:33:40.
