data_PCOD9096999
_publ_section_title
;
Structure prediction by ZEFSAII (Michael W. Deem and Ramdas Pophale) SiO2 
 PCOD9096999
Probable space group: P -1
;
_chemical_formula_sum "Si O2"
_cell_formula_units_Z 16
_cell_length_a 8.304509
_cell_length_b 14.728373
_cell_length_c 12.863601
_cell_angle_alpha 39.734705
_cell_angle_beta 101.268498
_cell_angle_gamma 73.973736
_cell_volume 723.142111
_symmetry_space_group_name_H-M "P -1"
_symmetry_group_IT_number 2
_symmetry_cell_setting 'triclinic'
loop_
_space_group_symop_operation_xyz
x,y,z
-x,-y,-z
loop_
_atom_site_type_symbol
_atom_site_label
_atom_site_fract_x
_atom_site_fract_y
_atom_site_fract_z
Si Si1 0.334858 0.719173 0.242765
Si Si2 0.284960 0.848316 0.886329
Si Si3 0.737630 0.728316 0.002623
Si Si4 0.837227 0.927320 0.971702
Si Si5 0.564010 0.525881 0.858065
Si Si6 0.796320 0.129545 0.579304
Si Si7 0.846226 0.410713 0.171878
Si Si8 0.248663 0.108103 0.348680
O O1 0.500000 0.500000 0.500000
O O2 0.349995 0.750456 0.094983
O O3 0.336477 0.874970 0.158966
O O4 0.084993 0.803436 0.158046
O O5 0.293188 0.698780 0.950205
O O6 0.475423 0.841922 0.875209
O O7 0.038453 0.062708 0.662806
O O8 0.792254 0.790524 0.055511
O O9 0.807457 0.772520 0.868819
O O10 0.850683 0.510353 0.183801
O O11 0.836072 0.007384 0.790875
O O12 0.326432 0.613786 0.799886
O O13 0.450885 0.657802 0.625260
O O14 0.706327 0.545871 0.931816
O O15 0.770999 0.043824 0.551742
O O16 0.084819 0.236104 0.309860
O O17 0.500000 0.000000 0.500000
#
# Coordination Sequence:
#
# PCOD9096999 Si02
#       8
#     2   2   2   2   2   2   2   2
#     4  10  20  40  67  85 111 149 190 239 298 361
#     4  10  21  38  60  87 116 153 197 241 293 347
#     4  10  22  39  55  84 124 153 190 248 288 341
#     4   9  21  40  58  90 114 145 195 238 293 357
#     4  10  20  36  59  85 117 158 205 242 279 337
#     4  10  20  36  59  81 116 156 197 243 285 345
#     4  10  21  37  55  84 122 161 199 242 287 334
#     4  11  22  36  54  86 119 162 203 237 289 338
#
# _framework density 22.125664
#
# number of rings (size 3 to 8) (size 9 to 14) (size 15 to 20)
#    0.000    2.000    1.250    1.875    1.750    1.000 
#    4.500    0.625    0.000    0.000    0.000    0.000 
#    0.000    0.000    0.000    0.000    0.000    0.000 
#
# Total GULP energy -89133.273785 kJ/mol
# GULP energy per Si atom -5570.829612 kJ/mol
# Density = 2.207531 g / cm^3
# Si number density = 22.125664 Si / 1000 Ang^3
#
#
#
# Elastic Constant Matrix: (Units=GPa)
#
#
# Indices 1 2 3 4 5 6 
#
# 1 45.9497 23.8082 -3.6993 -10.8478 -0.6068 8.5150
# 2 23.8082 129.9420 14.2841 -21.5571 4.4043 22.1784
# 3 -3.6993 14.2841 86.2578 -8.1327 12.4945 12.7742
# 4 -10.8478 -21.5571 -8.1327 23.5799 -0.7396 -3.8822
# 5 -0.6068 4.4043 12.4945 -0.7396 23.3372 -1.6107
# 6 8.5150 22.1784 12.7742 -3.8822 -1.6107 34.0693
#
#
#
# Elastic Compliance Matrix: (Units=1/GPa)
#
#
# Indices 1 2 3 4 5 6 
#
# 1 0.026768 -0.002705 0.003398 0.010158 -0.000641 -0.005077
# 2 -0.002705 0.010390 -0.000048 0.007292 -0.002143 -0.005340
# 3 0.003398 -0.000048 0.014242 0.005211 -0.007772 -0.005932
# 4 0.010158 0.007292 0.005211 0.054963 -0.002373 -0.003089
# 5 -0.000641 -0.002143 -0.007772 -0.002373 0.047769 0.006458
# 6 -0.005077 -0.005340 -0.005932 -0.003089 0.006458 0.036275
#
#
# Mechanical properties :
#
#
# Convention : Reuss Voigt Hill
#
# Bulk Modulus (GPa) = 18.97789 36.77063 27.87426
# Shear Modulus (GPa) = 24.19187 31.38104 27.78646
#
# Velocity S-wave (km/s) = 3.31022 3.77013 3.54764
# Velocity P-wave (km/s) = 4.81727 5.96715 5.42278
#
# Compressibility (1/GPa) = 0.05269289
#
# Stress axis : x y z
#
# Youngs Moduli (GPa) = 37.35754 96.24278 70.21254
#
# Poissons Ratio (x) = 0.26031 -0.23861
# Poissons Ratio (y) = 0.10104 0.00336
# Poissons Ratio (z) = -0.12695 0.00460
#
# Static dielectric constant tensor:
#      x y z
#    x 1.864420 -0.019900 -0.091540 
#    y -0.019900 1.894780 0.049490 
#    z -0.091540 0.049490 2.061370 
# 
# From -- ./inp_files/135715.got.cif
#   From: 2010.05.17/outbox.cif.g08.bks.cpg/sg2_68_cif.got.tgz:135715.got - 2010.06.03 11:33:40.
