data_PCOD9096380
_publ_section_title
;
Structure prediction by ZEFSAII (Michael W. Deem and Ramdas Pophale) SiO2 
 PCOD9096380
Probable space group: P -1
;
_chemical_formula_sum "Si O2"
_cell_formula_units_Z 14
_cell_length_a 8.715047
_cell_length_b 12.517611
_cell_length_c 7.701157
_cell_angle_alpha 72.095174
_cell_angle_beta 47.004245
_cell_angle_gamma 61.402779
_cell_volume 539.277787
_symmetry_space_group_name_H-M "P -1"
_symmetry_group_IT_number 2
_symmetry_cell_setting 'triclinic'
loop_
_space_group_symop_operation_xyz
x,y,z
-x,-y,-z
loop_
_atom_site_type_symbol
_atom_site_label
_atom_site_fract_x
_atom_site_fract_y
_atom_site_fract_z
Si Si1 0.306506 0.610673 0.198283
Si Si2 0.413365 0.673875 0.625282
Si Si3 0.854984 0.680028 0.293943
Si Si4 0.757086 0.081232 0.211006
Si Si5 0.432977 0.251682 0.904611
Si Si6 0.543565 0.942099 0.248952
Si Si7 0.907497 0.426437 0.251599
O O1 0.415942 0.709997 0.097452
O O2 0.223839 0.579208 0.463949
O O3 0.072857 0.659461 0.249029
O O4 0.500000 0.500000 0.000000
O O5 0.640549 0.663563 0.561604
O O6 0.240689 0.791000 0.795991
O O7 0.489518 0.704157 0.361042
O O8 0.276245 0.588800 0.735640
O O9 0.745273 0.818192 0.235720
O O10 0.926108 0.558475 0.176806
O O11 0.675791 0.038215 0.473085
O O12 0.598550 0.058520 0.196277
O O13 0.000000 0.000000 0.000000
O O14 0.481701 0.112121 0.890497
O O15 0.162493 0.321766 0.115668
#
# Coordination Sequence:
#
# PCOD9096380 Si02
#       7
#     2   2   2   2   2   2   2
#     4  11  22  37  50  75 111 156 180 213 260 323
#     4   9  21  35  55  85 106 138 178 230 263 315
#     4  10  20  36  52  81 114 141 180 218 266 314
#     4   9  16  34  57  79 107 135 177 217 281 311
#     4   9  19  35  53  77 106 146 177 211 270 312
#     4   9  20  35  55  83 108 135 176 233 258 316
#     4  11  20  36  55  75 114 147 180 213 268 326
#
# _framework density 25.960646000000001
#
# number of rings (size 3 to 8) (size 9 to 14) (size 15 to 20)
#    0.000    2.571    1.429    1.714    0.000    2.286 
#   10.286    0.000    0.000   21.429    0.000   54.000 
#    0.000    0.000    0.000    0.000    0.000    0.000 
#
# Total GULP energy -78047.635905 kJ/mol
# GULP energy per Si atom -5574.831136 kJ/mol
# Density = 2.590156 g / cm^3
# Si number density = 25.960646 Si / 1000 Ang^3
#
#
#
# Elastic Constant Matrix: (Units=GPa)
#
#
# Indices 1 2 3 4 5 6 
#
# 1 172.5130 45.8250 58.4762 5.4337 -22.1667 38.2517
# 2 45.8250 119.5122 40.8801 8.9733 -3.4949 43.7154
# 3 58.4762 40.8801 159.1634 29.5902 -31.1809 9.3106
# 4 5.4337 8.9733 29.5902 54.1849 9.3224 3.3145
# 5 -22.1667 -3.4949 -31.1809 9.3224 48.7361 3.7204
# 6 38.2517 43.7154 9.3106 3.3145 3.7204 38.1570
#
#
#
# Elastic Compliance Matrix: (Units=1/GPa)
#
#
# Indices 1 2 3 4 5 6 
#
# 1 0.008952 0.001135 -0.002385 0.000256 0.003344 -0.010040
# 2 0.001135 0.015879 -0.003193 -0.000038 0.001043 -0.018649
# 3 -0.002385 -0.003193 0.010057 -0.005971 0.005993 0.003530
# 4 0.000256 -0.000038 -0.005971 0.023093 -0.008126 0.000031
# 5 0.003344 0.001043 0.005993 -0.008126 0.028118 -0.008045
# 6 -0.010040 -0.018649 0.003530 0.000031 -0.008045 0.057559
#
#
# Mechanical properties :
#
#
# Convention : Reuss Voigt Hill
#
# Bulk Modulus (GPa) = 38.46040 82.39458 60.42749
# Shear Modulus (GPa) = 31.01502 48.61610 39.81556
#
# Velocity S-wave (km/s) = 3.46018 4.33215 3.92048
# Velocity P-wave (km/s) = 5.55075 7.53860 6.61972
#
# Compressibility (1/GPa) = 0.02600077
#
# Stress axis : x y z
#
# Youngs Moduli (GPa) = 111.71079 62.97439 99.43276
#
# Poissons Ratio (x) = -0.07145 0.23718
# Poissons Ratio (y) = -0.12675 0.31749
# Poissons Ratio (z) = 0.26647 0.20108
#
# Static dielectric constant tensor:
#      x y z
#    x 2.142220 -0.047150 0.079780 
#    y -0.047150 2.174030 -0.036040 
#    z 0.079780 -0.036040 2.159790 
# 
# From -- ./inp_files/201768.got.cif
#   From: 2010.05.17/outbox.cif.g08.bks.cpg/sg2_101_cif.got.tgz:201768.got - 2010.06.03 11:33:40.
