data_PCOD9096528
_publ_section_title
;
Structure prediction by ZEFSAII (Michael W. Deem and Ramdas Pophale) SiO2 
 PCOD9096528
Probable space group: P -1
;
_chemical_formula_sum "Si O2"
_cell_formula_units_Z 16
_cell_length_a 12.266402
_cell_length_b 8.600284
_cell_length_c 10.789959
_cell_angle_alpha 40.184749
_cell_angle_beta 110.702966
_cell_angle_gamma 87.129372
_cell_volume 582.434008
_symmetry_space_group_name_H-M "P -1"
_symmetry_group_IT_number 2
_symmetry_cell_setting 'triclinic'
loop_
_space_group_symop_operation_xyz
x,y,z
-x,-y,-z
loop_
_atom_site_type_symbol
_atom_site_label
_atom_site_fract_x
_atom_site_fract_y
_atom_site_fract_z
Si Si1 0.805930 0.201691 0.903744
Si Si2 0.158744 0.583611 0.575128
Si Si3 0.460623 0.302854 0.437912
Si Si4 0.921787 0.837226 0.926380
Si Si5 0.343606 0.766113 0.813299
Si Si6 0.532790 0.746226 0.078945
Si Si7 0.293104 0.285612 0.156507
Si Si8 0.133900 0.219061 0.583263
O O1 0.652923 0.467085 0.654725
O O2 0.857978 0.979206 0.948279
O O3 0.810681 0.034072 0.133681
O O4 0.915948 0.294322 0.913387
O O5 0.129219 0.892326 0.347823
O O6 0.308938 0.402411 0.803129
O O7 0.160536 0.441066 0.530760
O O8 0.031105 0.625216 0.576266
O O9 0.512456 0.494583 0.275361
O O10 0.368112 0.232052 0.353569
O O11 0.598373 0.002359 0.699632
O O12 0.853478 0.676929 0.939418
O O13 0.196044 0.069439 0.567301
O O14 0.500000 0.500000 0.000000
O O15 0.411060 0.904998 0.836427
O O16 0.286334 0.567744 0.943308
O O17 0.500000 0.000000 0.000000
#
# Coordination Sequence:
#
# PCOD9096528 Si02
#       8
#     2   2   2   2   2   2   2   2
#     4  10  20  39  59  89 119 154 199 246 292 354
#     4  10  20  37  65  90 115 154 205 250 291 360
#     4  10  20  36  56  81 117 155 194 237 293 352
#     4  10  22  36  61  92 118 152 198 246 299 347
#     4  11  24  40  58  87 123 157 198 248 303 360
#     4  11  19  37  63  87 113 156 203 245 298 352
#     4  10  21  38  54  83 120 153 192 241 295 357
#     4  10  20  40  61  86 122 158 198 248 303 349
#
# _framework density 27.470924
#
# number of rings (size 3 to 8) (size 9 to 14) (size 15 to 20)
#    0.000    1.750    5.000    0.000    0.000    4.000 
#    0.000    0.625    0.000    0.000    0.000    0.000 
#    0.000    0.000    0.000    0.000    0.000    0.000 
#
# Total GULP energy -89272.490722 kJ/mol
# GULP energy per Si atom -5579.530670 kJ/mol
# Density = 2.740840 g / cm^3
# Si number density = 27.470924 Si / 1000 Ang^3
#
#
#
# Elastic Constant Matrix: (Units=GPa)
#
#
# Indices 1 2 3 4 5 6 
#
# 1 111.0589 39.3219 20.6413 -0.2249 22.7548 30.7187
# 2 39.3219 86.6055 10.8447 -4.0392 -6.1442 22.7512
# 3 20.6413 10.8447 109.0808 -10.7932 13.3342 1.5949
# 4 -0.2249 -4.0392 -10.7932 41.5089 0.8777 10.4486
# 5 22.7548 -6.1442 13.3342 0.8777 40.5540 -4.6828
# 6 30.7187 22.7512 1.5949 10.4486 -4.6828 55.4004
#
#
#
# Elastic Compliance Matrix: (Units=1/GPa)
#
#
# Indices 1 2 3 4 5 6 
#
# 1 0.015141 -0.005516 -0.000868 0.001340 -0.009906 -0.007195
# 2 -0.005516 0.015468 -0.000908 0.001927 0.005328 -0.003181
# 3 -0.000868 -0.000908 0.010057 0.002633 -0.003036 -0.000189
# 4 0.001340 0.001927 0.002633 0.026761 -0.002700 -0.006886
# 5 -0.009906 0.005328 -0.003036 -0.002700 0.032852 0.006678
# 6 -0.007195 -0.003181 -0.000189 -0.006886 0.006678 0.025215
#
#
# Mechanical properties :
#
#
# Convention : Reuss Voigt Hill
#
# Bulk Modulus (GPa) = 38.34132 49.81790 44.07961
# Shear Modulus (GPa) = 33.60854 43.22180 38.41517
#
# Velocity S-wave (km/s) = 3.50154 3.97087 3.74357
# Velocity P-wave (km/s) = 5.50773 6.26082 5.89631
#
# Compressibility (1/GPa) = 0.02608152
#
# Stress axis : x y z
#
# Youngs Moduli (GPa) = 66.04553 64.64858 99.43803
#
# Poissons Ratio (x) = 0.35660 0.08632
# Poissons Ratio (y) = 0.36430 0.09031
# Poissons Ratio (z) = 0.05733 0.05871
#
# Static dielectric constant tensor:
#      x y z
#    x 3.147320 -0.306200 0.327010 
#    y -0.306200 2.237380 0.019370 
#    z 0.327010 0.019370 2.009520 
# 
# From -- ./inp_files/513963.got.cif
#   From: 2010.05.17/outbox.cif.g08.bks.cpg/sg2_257_cif.got.tgz:513963.got - 2010.06.03 11:33:40.
