data_PCOD9096240
_publ_section_title
;
Structure prediction by ZEFSAII (Michael W. Deem and Ramdas Pophale) SiO2 
 PCOD9096240
Probable space group: P -1
;
_chemical_formula_sum "Si O2"
_cell_formula_units_Z 12
_cell_length_a 14.058147
_cell_length_b 9.296618
_cell_length_c 7.546128
_cell_angle_alpha 66.601850
_cell_angle_beta 137.646904
_cell_angle_gamma 83.573562
_cell_volume 460.413563
_symmetry_space_group_name_H-M "P -1"
_symmetry_group_IT_number 2
_symmetry_cell_setting 'triclinic'
loop_
_space_group_symop_operation_xyz
x,y,z
-x,-y,-z
loop_
_atom_site_type_symbol
_atom_site_label
_atom_site_fract_x
_atom_site_fract_y
_atom_site_fract_z
Si Si1 0.470749 0.172557 0.257729
Si Si2 0.208799 0.885625 0.914581
Si Si3 0.924054 0.555703 0.638506
Si Si4 0.255853 0.553085 0.983110
Si Si5 0.312665 0.047216 0.673890
Si Si6 0.000291 0.157233 0.810519
O O1 0.500000 0.000000 0.500000
O O2 0.634606 0.064459 0.389444
O O3 0.440559 0.333152 0.278897
O O4 0.266271 0.305405 0.813721
O O5 0.286301 0.652222 0.136216
O O6 0.169184 0.012799 0.974105
O O7 0.000000 0.000000 0.500000
O O8 0.292310 0.932117 0.853579
O O9 0.092813 0.544760 0.807381
O O10 0.845916 0.703789 0.632766
O O11 0.011480 0.672071 0.181179
O O12 0.181848 0.699926 0.636919
O O13 0.500000 0.000000 0.000000
O O14 0.000000 0.000000 0.000000
#
# Coordination Sequence:
#
# PCOD9096240 Si02
#       6
#     2   2   2   2   2   2
#     4  10  22  39  63  97 129 164 215 265 318 380
#     4  10  20  39  62  94 128 167 212 269 315 380
#     4  10  20  42  69  88 126 178 214 254 322 390
#     4  10  21  42  67  88 131 172 212 260 323 384
#     4  10  21  38  66  90 130 174 207 259 333 381
#     4  10  20  35  63  99 123 157 219 271 304 364
#
# _framework density 26.063521999999999
#
# number of rings (size 3 to 8) (size 9 to 14) (size 15 to 20)
#    0.000    2.000    3.333    2.000    2.333    2.000 
#   12.000    1.667    0.000   11.000    0.000    0.000 
#    0.000    0.000    0.000    0.000    0.000    0.000 
#
# Total GULP energy -67109.699234 kJ/mol
# GULP energy per Si atom -5592.474936 kJ/mol
# Density = 2.600420 g / cm^3
# Si number density = 26.063522 Si / 1000 Ang^3
#
#
#
# Elastic Constant Matrix: (Units=GPa)
#
#
# Indices 1 2 3 4 5 6 
#
# 1 195.3988 65.4578 55.8982 -33.2282 -9.8554 -14.3591
# 2 65.4578 232.5829 61.2539 -53.2182 -4.1355 -24.8210
# 3 55.8982 61.2539 132.1469 -56.2684 5.7536 -10.5066
# 4 -33.2282 -53.2182 -56.2684 65.4371 -0.2951 12.8775
# 5 -9.8554 -4.1355 5.7536 -0.2951 52.0114 -11.0844
# 6 -14.3591 -24.8210 -10.5066 12.8775 -11.0844 59.3231
#
#
#
# Elastic Compliance Matrix: (Units=1/GPa)
#
#
# Indices 1 2 3 4 5 6 
#
# 1 0.006242 -0.001002 -0.001957 0.000497 0.001519 0.000921
# 2 -0.001002 0.005674 -0.000776 0.003159 0.000670 0.001433
# 3 -0.001957 -0.000776 0.012859 0.009617 -0.002010 -0.000984
# 4 0.000497 0.003159 0.009617 0.026943 -0.001189 -0.002925
# 5 0.001519 0.000670 -0.002010 -0.001189 0.020726 0.004423
# 6 0.000921 0.001433 -0.000984 -0.002925 0.004423 0.018967
#
#
# Mechanical properties :
#
#
# Convention : Reuss Voigt Hill
#
# Bulk Modulus (GPa) = 57.78921 102.81649 80.30285
# Shear Modulus (GPa) = 47.77847 60.52222 54.15034
#
# Velocity S-wave (km/s) = 4.28618 4.82405 4.56305
# Velocity P-wave (km/s) = 6.83489 8.40016 7.65762
#
# Compressibility (1/GPa) = 0.01730427
#
# Stress axis : x y z
#
# Youngs Moduli (GPa) = 160.20017 176.25098 77.76589
#
# Poissons Ratio (x) = 0.17666 0.15218
# Poissons Ratio (y) = 0.16057 0.06036
# Poissons Ratio (z) = 0.31350 0.13679
#
# Static dielectric constant tensor:
#      x y z
#    x 1.963150 -0.055790 0.026730 
#    y -0.055790 2.198480 0.008400 
#    z 0.026730 0.008400 2.121870 
# 
# From -- ./inp_files/304664.got.cif
#   From: 2010.05.17/outbox.cif.g08.bks.cpg/sg2_153_cif.got.tgz:304664.got - 2010.06.03 11:33:40.
