data_PCOD9096231
_publ_section_title
;
Structure prediction by ZEFSAII (Michael W. Deem and Ramdas Pophale) SiO2 
 PCOD9096231
Probable space group: P -1
;
_chemical_formula_sum "Si O2"
_cell_formula_units_Z 14
_cell_length_a 22.823034
_cell_length_b 13.072895
_cell_length_c 12.156649
_cell_angle_alpha 148.505485
_cell_angle_beta 145.306816
_cell_angle_gamma 22.528383
_cell_volume 715.074129
_symmetry_space_group_name_H-M "P -1"
_symmetry_group_IT_number 2
_symmetry_cell_setting 'triclinic'
loop_
_space_group_symop_operation_xyz
x,y,z
-x,-y,-z
loop_
_atom_site_type_symbol
_atom_site_label
_atom_site_fract_x
_atom_site_fract_y
_atom_site_fract_z
Si Si1 0.808599 0.870499 0.766033
Si Si2 0.522141 0.849578 0.509044
Si Si3 0.192002 0.705448 0.908497
Si Si4 0.672519 0.338300 0.139662
Si Si5 0.040785 0.297429 0.477383
Si Si6 0.488443 0.089833 0.897902
Si Si7 0.603460 0.160416 0.336042
O O1 0.646179 0.010237 0.602745
O O2 0.945510 0.524793 0.641851
O O3 0.781868 0.997706 0.964322
O O4 0.836688 0.023312 0.874594
O O5 0.649492 0.497926 0.360110
O O6 0.500000 0.000000 0.500000
O O7 0.557551 0.938973 0.747377
O O8 0.221617 0.040461 0.544593
O O9 0.273495 0.589470 0.806911
O O10 0.036674 0.801663 0.755975
O O11 0.320021 0.431136 0.934372
O O12 0.500000 0.500000 0.000000
O O13 0.000000 0.500000 0.500000
O O14 0.462234 0.921231 0.764200
O O15 0.590283 0.089887 0.128510
O O16 0.500000 0.500000 0.500000
#
# Coordination Sequence:
#
# PCOD9096231 Si02
#       7
#     2   2   2   2   2   2   2
#     4   9  20  34  57  96 128 151 208 260 315 362
#     4  11  16  34  65 100 126 155 211 270 309 372
#     4  10  20  35  63  96 122 159 212 258 313 369
#     4   8  17  30  55  97 126 152 193 266 313 355
#     4  12  22  40  63  90 122 171 218 270 307 373
#     4  11  23  40  63  94 125 168 216 258 320 385
#     4  11  28  45  60  88 134 172 213 259 326 381
#
# _framework density 19.578389999999999
#
# number of rings (size 3 to 8) (size 9 to 14) (size 15 to 20)
#    0.857    0.857    4.286    0.000    4.000    2.857 
#    0.000    0.000    0.000    4.286    0.000    0.000 
#    0.000    0.000    0.000    0.000    0.000    0.000 
#
# Total GULP energy -78024.039365 kJ/mol
# GULP energy per Si atom -5573.145669 kJ/mol
# Density = 1.953383 g / cm^3
# Si number density = 19.578390 Si / 1000 Ang^3
#
#
#
# Elastic Constant Matrix: (Units=GPa)
#
#
# Indices 1 2 3 4 5 6 
#
# 1 64.4531 23.3624 43.8701 -15.5684 12.5396 -12.3379
# 2 23.3624 104.2152 44.8120 -7.4010 4.8287 -5.1643
# 3 43.8701 44.8120 114.9495 -7.3795 -2.6787 0.6314
# 4 -15.5684 -7.4010 -7.3795 37.0063 -7.7608 2.5336
# 5 12.5396 4.8287 -2.6787 -7.7608 45.0479 -0.3641
# 6 -12.3379 -5.1643 0.6314 2.5336 -0.3641 22.3155
#
#
#
# Elastic Compliance Matrix: (Units=1/GPa)
#
#
# Indices 1 2 3 4 5 6 
#
# 1 0.029121 -0.000258 -0.010789 0.007462 -0.007310 0.015380
# 2 -0.000258 0.011844 -0.004504 0.000914 -0.001287 0.002601
# 3 -0.010789 -0.004504 0.014633 -0.001168 0.004097 -0.007222
# 4 0.007462 0.000914 -0.001168 0.030687 0.003050 0.000936
# 5 -0.007310 -0.001287 0.004097 0.003050 0.025105 -0.004392
# 6 0.015380 0.002601 -0.007222 0.000936 -0.004392 0.053943
#
#
# Mechanical properties :
#
#
# Convention : Reuss Voigt Hill
#
# Bulk Modulus (GPa) = 40.82490 56.41185 48.61837
# Shear Modulus (GPa) = 24.43783 32.31216 28.37500
#
# Velocity S-wave (km/s) = 3.53683 4.06692 3.81110
# Velocity P-wave (km/s) = 6.12994 7.13645 6.65226
#
# Compressibility (1/GPa) = 0.02449485
#
# Stress axis : x y z
#
# Youngs Moduli (GPa) = 34.33947 84.43373 68.33799
#
# Poissons Ratio (x) = 0.02180 0.73730
# Poissons Ratio (y) = 0.00887 0.30781
# Poissons Ratio (z) = 0.37049 0.38031
#
# Static dielectric constant tensor:
#      x y z
#    x 1.729610 -0.013720 -0.028910 
#    y -0.013720 1.652630 0.052910 
#    z -0.028910 0.052910 1.762300 
# 
# From -- ./inp_files/471630.got.cif
#   From: 2010.05.17/outbox.cif.g08.bks.cpg/sg2_236_cif.got.tgz:471630.got - 2010.06.03 11:33:40.
