data_PCOD9096394
_publ_section_title
;
Structure prediction by ZEFSAII (Michael W. Deem and Ramdas Pophale) SiO2 
 PCOD9096394
Probable space group: P -1
;
_chemical_formula_sum "Si O2"
_cell_formula_units_Z 15
_cell_length_a 10.549220
_cell_length_b 14.190112
_cell_length_c 5.246311
_cell_angle_alpha 71.646505
_cell_angle_beta 69.398441
_cell_angle_gamma 89.163299
_cell_volume 693.625701
_symmetry_space_group_name_H-M "P -1"
_symmetry_group_IT_number 2
_symmetry_cell_setting 'triclinic'
loop_
_space_group_symop_operation_xyz
x,y,z
-x,-y,-z
loop_
_atom_site_type_symbol
_atom_site_label
_atom_site_fract_x
_atom_site_fract_y
_atom_site_fract_z
Si Si1 0.568469 0.625032 0.031808
Si Si2 0.313642 0.574208 0.931460
Si Si3 0.884942 0.370798 0.626932
Si Si4 0.760612 0.232809 0.450157
Si Si5 0.946761 0.709903 0.042107
Si Si6 0.656254 0.749035 0.350646
Si Si7 0.000000 0.500000 0.000000
Si Si8 0.518111 0.067942 0.679056
O O1 0.412371 0.592771 0.089953
O O2 0.634210 0.683376 0.683647
O O3 0.636355 0.524188 0.132425
O O4 0.580259 0.690951 0.217406
O O5 0.315524 0.678577 0.697966
O O6 0.157008 0.564456 0.151094
O O7 0.788026 0.273242 0.685033
O O8 0.017879 0.327668 0.669106
O O9 0.893417 0.447951 0.330508
O O10 0.665004 0.132532 0.553782
O O11 0.911353 0.233217 0.216507
O O12 0.812361 0.762882 0.129631
O O13 0.929706 0.609141 0.975189
O O14 0.591528 0.852062 0.336014
O O15 0.500000 0.000000 0.500000
O O16 0.500000 0.000000 0.000000
#
# Coordination Sequence:
#
# PCOD9096394 Si02
#       8
#     2   2   2   2   2   2   1   2
#     4  11  25  38  67 100 149 180 227 270 341 405
#     4  10  22  38  61  99 140 192 224 274 328 417
#     4  10  21  36  63  90 144 188 232 261 324 409
#     4  10  23  44  68 100 136 185 230 282 348 414
#     4  10  24  37  66  95 149 180 229 270 336 408
#     4  12  26  45  68 106 138 180 229 290 338 412
#     4  10  20  36  54 100 138 200 224 250 320 410
#     4  12  28  52  79  99 126 176 239 309 365 407
#
# _framework density 21.625499000000001
#
# number of rings (size 3 to 8) (size 9 to 14) (size 15 to 20)
#    0.000    1.333    1.333    2.800   14.933    1.067 
#    0.000    1.333    0.000    0.000    0.000    0.000 
#    0.000    0.000    0.000    0.000    0.000    0.000 
#
# Total GULP energy -83572.546867 kJ/mol
# GULP energy per Si atom -5571.503124 kJ/mol
# Density = 2.157628 g / cm^3
# Si number density = 21.625499 Si / 1000 Ang^3
#
#
#
# Elastic Constant Matrix: (Units=GPa)
#
#
# Indices 1 2 3 4 5 6 
#
# 1 74.9261 37.6070 5.0382 3.0617 -23.4117 -2.0765
# 2 37.6070 152.3439 49.3170 11.8051 -8.4996 9.5691
# 3 5.0382 49.3170 100.8915 1.8580 -2.6097 0.5615
# 4 3.0617 11.8051 1.8580 39.3649 4.9097 -5.9435
# 5 -23.4117 -8.4996 -2.6097 4.9097 46.8771 8.7586
# 6 -2.0765 9.5691 0.5615 -5.9435 8.7586 36.6942
#
#
#
# Elastic Compliance Matrix: (Units=1/GPa)
#
#
# Indices 1 2 3 4 5 6 
#
# 1 0.018151 -0.004385 0.001480 -0.001239 0.008497 -0.000081
# 2 -0.004385 0.009474 -0.004339 -0.002791 0.000166 -0.003144
# 3 0.001480 -0.004339 0.011948 0.000742 0.000340 0.001071
# 4 -0.001239 -0.002791 0.000742 0.027919 -0.005205 0.006411
# 5 0.008497 0.000166 0.000340 -0.005205 0.027472 -0.006968
# 6 -0.000081 -0.003144 0.001071 0.006411 -0.006968 0.030753
#
#
# Mechanical properties :
#
#
# Convention : Reuss Voigt Hill
#
# Bulk Modulus (GPa) = 39.86309 56.89843 48.38076
# Shear Modulus (GPa) = 33.65498 40.33385 36.99442
#
# Velocity S-wave (km/s) = 3.94923 4.32337 4.14053
# Velocity P-wave (km/s) = 6.26647 7.16170 6.72899
#
# Compressibility (1/GPa) = 0.02508587
#
# Stress axis : x y z
#
# Youngs Moduli (GPa) = 55.09263 105.55106 83.69728
#
# Poissons Ratio (x) = 0.46280 -0.12386
# Poissons Ratio (y) = 0.24156 0.36315
# Poissons Ratio (z) = -0.08153 0.45798
#
# Static dielectric constant tensor:
#      x y z
#    x 1.684250 -0.055060 -0.100530 
#    y -0.055060 1.678730 -0.016490 
#    z -0.100530 -0.016490 1.835270 
# 
# From -- ./inp_files/66091.got.cif
#   From: 2010.05.17/outbox.cif.g08.bks.cpg/sg2_34_cif.got.tgz:66091.got - 2010.06.03 11:33:40.
