data_PCOD9096838
_publ_section_title
;
Structure prediction by ZEFSAII (Michael W. Deem and Ramdas Pophale) SiO2 
 PCOD9096838
Probable space group: P -1
;
_chemical_formula_sum "Si O2"
_cell_formula_units_Z 16
_cell_length_a 9.513808
_cell_length_b 15.272663
_cell_length_c 13.141364
_cell_angle_alpha 91.083123
_cell_angle_beta 117.256049
_cell_angle_gamma 39.573166
_cell_volume 873.152318
_symmetry_space_group_name_H-M "P -1"
_symmetry_group_IT_number 2
_symmetry_cell_setting 'triclinic'
loop_
_space_group_symop_operation_xyz
x,y,z
-x,-y,-z
loop_
_atom_site_type_symbol
_atom_site_label
_atom_site_fract_x
_atom_site_fract_y
_atom_site_fract_z
Si Si1 0.195191 0.787833 0.799285
Si Si2 0.818816 0.397592 0.179076
Si Si3 0.759211 0.701646 0.546681
Si Si4 0.317106 0.351816 0.811810
Si Si5 0.267307 0.327958 0.018873
Si Si6 0.791022 0.025817 0.483823
Si Si7 0.348891 0.135374 0.187087
Si Si8 0.641690 0.069705 0.776023
O O1 0.438534 0.749345 0.870193
O O2 0.327824 0.627515 0.858030
O O3 0.001600 0.876525 0.632530
O O4 0.958299 0.921261 0.814882
O O5 0.078511 0.289445 0.350835
O O6 0.029012 0.302614 0.146173
O O7 0.609395 0.582620 0.129682
O O8 0.487111 0.803706 0.535902
O O9 0.615171 0.791917 0.393136
O O10 0.030339 0.501873 0.643113
O O11 0.584818 0.170918 0.843325
O O12 0.203949 0.360176 0.878198
O O13 0.330099 0.202064 0.081098
O O14 0.000000 0.500000 0.000000
O O15 0.622495 0.045318 0.345309
O O16 0.000000 0.000000 0.500000
O O17 0.389706 0.012132 0.188938
#
# Coordination Sequence:
#
# PCOD9096838 Si02
#       8
#     2   2   2   2   2   2   2   2
#     4  10  21  33  59  83 106 140 181 231 268 311
#     4   8  17  35  54  85 100 136 184 219 266 309
#     4   8  17  34  56  82 107 137 179 222 269 314
#     4  10  21  35  58  79 111 147 178 218 273 323
#     4  12  22  38  56  79 113 144 182 223 270 322
#     4  10  16  30  56  85 109 135 180 225 268 317
#     4  10  19  35  57  84 108 141 180 222 271 319
#     4  10  20  37  59  80 109 143 181 226 267 318
#
# _framework density 18.324408999999999
#
# number of rings (size 3 to 8) (size 9 to 14) (size 15 to 20)
#    0.750    1.500    2.500    1.125    0.000    4.500 
#    0.000    0.000    2.750    0.750    0.000    0.000 
#    0.000    0.000    0.000    0.000    0.000    0.000 
#
# Total GULP energy -89149.455367 kJ/mol
# GULP energy per Si atom -5571.840960 kJ/mol
# Density = 1.828270 g / cm^3
# Si number density = 18.324409 Si / 1000 Ang^3
#
#
#
# Elastic Constant Matrix: (Units=GPa)
#
#
# Indices 1 2 3 4 5 6 
#
# 1 121.3206 60.3651 29.5373 -7.1058 -9.6676 11.6586
# 2 60.3651 108.7557 28.0014 -0.1380 -14.0036 23.2075
# 3 29.5373 28.0014 66.1745 -12.0195 -14.3210 6.4707
# 4 -7.1058 -0.1380 -12.0195 21.2827 -0.5695 -0.3373
# 5 -9.6676 -14.0036 -14.3210 -0.5695 32.4303 -4.4589
# 6 11.6586 23.2075 6.4707 -0.3373 -4.4589 17.6064
#
#
#
# Elastic Compliance Matrix: (Units=1/GPa)
#
#
# Indices 1 2 3 4 5 6 
#
# 1 0.011989 -0.006333 -0.002302 0.002684 0.000051 0.001320
# 2 -0.006333 0.017442 -0.003216 -0.004044 0.001782 -0.017241
# 3 -0.002302 -0.003216 0.021177 0.011372 0.007489 0.000096
# 4 0.002684 -0.004044 0.011372 0.054448 0.005273 0.001752
# 5 0.000051 0.001782 0.007489 0.005273 0.035566 0.003974
# 6 0.001320 -0.017241 0.000096 0.001752 0.003974 0.079654
#
#
# Mechanical properties :
#
#
# Convention : Reuss Voigt Hill
#
# Bulk Modulus (GPa) = 37.16881 59.11761 48.14321
# Shear Modulus (GPa) = 19.76702 26.15369 22.96036
#
# Velocity S-wave (km/s) = 3.28796 3.78201 3.54360
# Velocity P-wave (km/s) = 5.89424 7.16960 6.56297
#
# Compressibility (1/GPa) = 0.02690428
#
# Stress axis : x y z
#
# Youngs Moduli (GPa) = 83.41145 57.33395 47.22090
#
# Poissons Ratio (x) = 0.36312 0.10869
# Poissons Ratio (y) = 0.52828 0.15189
# Poissons Ratio (z) = 0.19199 0.18441
#
# Static dielectric constant tensor:
#      x y z
#    x 1.602850 0.009270 -0.004100 
#    y 0.009270 1.619540 -0.021830 
#    z -0.004100 -0.021830 1.687630 
# 
# From -- ./inp_files/399136.got.cif
#   From: 2010.05.17/outbox.cif.g08.bks.cpg/sg2_200_cif.got.tgz:399136.got - 2010.06.03 11:33:40.
