data_PCOD9096447
_publ_section_title
;
Structure prediction by ZEFSAII (Michael W. Deem and Ramdas Pophale) SiO2 
 PCOD9096447
Probable space group: P -1
;
_chemical_formula_sum "Si O2"
_cell_formula_units_Z 16
_cell_length_a 8.613556
_cell_length_b 20.555128
_cell_length_c 17.232878
_cell_angle_alpha 160.939267
_cell_angle_beta 130.001046
_cell_angle_gamma 52.103985
_cell_volume 763.009357
_symmetry_space_group_name_H-M "P -1"
_symmetry_group_IT_number 2
_symmetry_cell_setting 'triclinic'
loop_
_space_group_symop_operation_xyz
x,y,z
-x,-y,-z
loop_
_atom_site_type_symbol
_atom_site_label
_atom_site_fract_x
_atom_site_fract_y
_atom_site_fract_z
Si Si1 0.531662 0.532038 0.454393
Si Si2 0.298899 0.877113 0.013161
Si Si3 0.699975 0.082993 0.200258
Si Si4 0.843659 0.846425 0.852852
Si Si5 0.136214 0.654889 0.111644
Si Si6 0.580878 0.004350 0.368333
Si Si7 0.882389 0.908799 0.213554
Si Si8 0.831591 0.755483 0.272713
O O1 0.500000 0.500000 0.500000
O O2 0.557941 0.315356 0.179347
O O3 0.350467 0.684326 0.538500
O O4 0.730624 0.659680 0.642629
O O5 0.071967 0.796056 0.845757
O O6 0.366287 0.971541 0.222739
O O7 0.290305 0.057642 0.151753
O O8 0.759703 0.947008 0.138979
O O9 0.500000 0.000000 0.000000
O O10 0.862757 0.028984 0.125851
O O11 0.004368 0.709454 0.054499
O O12 0.983766 0.703409 0.190405
O O13 0.331758 0.792601 0.339619
O O14 0.196675 0.427784 0.887028
O O15 0.732241 0.964069 0.298429
O O16 0.628025 0.838422 0.261078
O O17 0.057215 0.070703 0.451287
#
# Coordination Sequence:
#
# PCOD9096447 Si02
#       8
#     2   2   2   2   2   2   2   2
#     4  11  22  37  59  83 113 149 192 238 274 328
#     4  11  22  38  59  83 115 157 186 231 286 341
#     4  10  20  36  55  80 114 146 188 233 272 330
#     4  10  23  40  55  81 121 153 190 228 284 343
#     4   8  15  29  47  73 108 138 178 233 283 326
#     4   9  17  28  50  78 106 139 185 228 279 331
#     4   9  17  29  48  77 109 141 181 233 279 321
#     4   8  15  28  45  73 106 138 177 231 280 329
#
# _framework density 20.969598999999999
#
# number of rings (size 3 to 8) (size 9 to 14) (size 15 to 20)
#    0.000    2.500    1.250    3.375    1.750    5.000 
#    0.000    0.000    0.000    3.000    0.000    1.750 
#    0.000    0.000    0.000    0.000    0.000    0.000 
#
# Total GULP energy -89119.124797 kJ/mol
# GULP energy per Si atom -5569.945300 kJ/mol
# Density = 2.092187 g / cm^3
# Si number density = 20.969599 Si / 1000 Ang^3
#
#
#
# Elastic Constant Matrix: (Units=GPa)
#
#
# Indices 1 2 3 4 5 6 
#
# 1 21.4987 21.6143 18.6738 7.2706 9.1443 4.0834
# 2 21.6143 183.0344 58.1277 10.5129 18.4501 16.8199
# 3 18.6738 58.1277 67.3192 20.0650 16.3237 -0.7725
# 4 7.2706 10.5129 20.0650 32.0154 2.3288 5.5770
# 5 9.1443 18.4501 16.3237 2.3288 25.1976 6.0122
# 6 4.0834 16.8199 -0.7725 5.5770 6.0122 19.3406
#
#
#
# Elastic Compliance Matrix: (Units=1/GPa)
#
#
# Indices 1 2 3 4 5 6 
#
# 1 0.067989 -0.001494 -0.013400 -0.004161 -0.012484 -0.008511
# 2 -0.001494 0.009091 -0.009486 0.004897 0.001962 -0.009992
# 3 -0.013400 -0.009486 0.036706 -0.019732 -0.015659 0.023102
# 4 -0.004161 0.004897 -0.019732 0.045749 0.011472 -0.020926
# 5 -0.012484 0.001962 -0.015659 0.011472 0.056793 -0.020658
# 6 -0.008511 -0.009992 0.023102 -0.020926 -0.020658 0.075570
#
#
# Mechanical properties :
#
#
# Convention : Reuss Voigt Hill
#
# Bulk Modulus (GPa) = 15.37829 52.07599 33.72714
# Shear Modulus (GPa) = 13.79945 26.87317 20.33631
#
# Velocity S-wave (km/s) = 2.56807 3.58373 3.11754
# Velocity P-wave (km/s) = 4.01781 6.48168 5.39235
#
# Compressibility (1/GPa) = 0.06502672
#
# Stress axis : x y z
#
# Youngs Moduli (GPa) = 14.70823 109.99307 27.24385
#
# Poissons Ratio (x) = 0.16429 0.36508
# Poissons Ratio (y) = 0.02197 0.25843
# Poissons Ratio (z) = 0.19710 1.04336
#
# Static dielectric constant tensor:
#      x y z
#    x 1.813350 -0.018770 -0.030680 
#    y -0.018770 1.789630 -0.000630 
#    z -0.030680 -0.000630 1.792390 
# 
# From -- ./inp_files/540877.got.cif
#   From: 2010.05.17/outbox.cif.g08.bks.cpg/sg2_271_cif.got.tgz:540877.got - 2010.06.03 11:33:40.
