data_PCOD9096934
_publ_section_title
;
Structure prediction by ZEFSAII (Michael W. Deem and Ramdas Pophale) SiO2 
 PCOD9096934
Probable space group: P -1
;
_chemical_formula_sum "Si O2"
_cell_formula_units_Z 15
_cell_length_a 13.321594
_cell_length_b 8.943025
_cell_length_c 11.693226
_cell_angle_alpha 59.587028
_cell_angle_beta 64.838616
_cell_angle_gamma 115.931022
_cell_volume 596.756816
_symmetry_space_group_name_H-M "P -1"
_symmetry_group_IT_number 2
_symmetry_cell_setting 'triclinic'
loop_
_space_group_symop_operation_xyz
x,y,z
-x,-y,-z
loop_
_atom_site_type_symbol
_atom_site_label
_atom_site_fract_x
_atom_site_fract_y
_atom_site_fract_z
Si Si1 0.681204 0.599217 0.743118
Si Si2 0.814159 0.576335 0.488959
Si Si3 0.000000 0.500000 0.000000
Si Si4 0.775841 0.886529 0.811573
Si Si5 0.662324 0.499259 0.351412
Si Si6 0.588198 0.121031 0.070608
Si Si7 0.759829 0.010117 0.117355
Si Si8 0.705904 0.412263 0.121853
O O1 0.764164 0.688873 0.540498
O O2 0.780611 0.866493 0.678595
O O3 0.440855 0.315997 0.974827
O O4 0.708748 0.440589 0.839234
O O5 0.788554 0.590316 0.362580
O O6 0.630784 0.204931 0.747954
O O7 0.025275 0.780100 0.353954
O O8 0.116780 0.494240 0.008301
O O9 0.051363 0.695740 0.010173
O O10 0.764905 0.676906 0.945588
O O11 0.754681 0.807549 0.153540
O O12 0.435019 0.234649 0.608630
O O13 0.642573 0.356610 0.304212
O O14 0.544966 0.125332 0.221312
O O15 0.709531 0.099047 0.019502
#
# Coordination Sequence:
#
# PCOD9096934 Si02
#       8
#     2   2   1   2   2   2   2   2
#     4  10  22  43  65  90 129 170 208 268 314 378
#     4  11  22  39  65  96 125 164 214 263 314 381
#     4  10  20  36  58  88 126 160 202 258 320 358
#     4  10  23  40  67  95 122 169 219 256 320 375
#     4  10  22  39  63  93 127 167 211 251 319 384
#     4   9  21  40  63  90 126 169 207 259 328 357
#     4   9  20  36  60  90 123 165 206 250 317 372
#     4  10  22  42  62  90 133 166 207 263 314 390
#
# _framework density 25.135869
#
# number of rings (size 3 to 8) (size 9 to 14) (size 15 to 20)
#    0.000    2.133    0.000    1.600    5.600    7.467 
#    2.400    0.000   17.600    0.000    0.000    0.000 
#    0.000    0.000    0.000    0.000    0.000    0.000 
#
# Total GULP energy -83625.150833 kJ/mol
# GULP energy per Si atom -5575.010056 kJ/mol
# Density = 2.507866 g / cm^3
# Si number density = 25.135869 Si / 1000 Ang^3
#
#
#
# Elastic Constant Matrix: (Units=GPa)
#
#
# Indices 1 2 3 4 5 6 
#
# 1 60.8176 8.9418 5.9484 -12.5661 -4.4796 1.9951
# 2 8.9418 161.9994 18.8344 17.6045 -4.7790 27.0810
# 3 5.9484 18.8344 39.7158 3.5019 -14.7702 6.8837
# 4 -12.5661 17.6045 3.5019 36.9173 3.8371 -1.1970
# 5 -4.4796 -4.7790 -14.7702 3.8371 24.8885 -11.4921
# 6 1.9951 27.0810 6.8837 -1.1970 -11.4921 45.0512
#
#
#
# Elastic Compliance Matrix: (Units=1/GPa)
#
#
# Indices 1 2 3 4 5 6 
#
# 1 0.018457 -0.001656 -0.002461 0.007246 0.000874 0.000970
# 2 -0.001656 0.007788 -0.003111 -0.003903 -0.002271 -0.004816
# 3 -0.002461 -0.003111 0.035080 -0.004846 0.021429 0.001956
# 4 0.007246 -0.003903 -0.004846 0.032608 -0.006428 0.001992
# 5 0.000874 -0.002271 0.021429 -0.006428 0.059657 0.013099
# 6 0.000970 -0.004816 0.001956 0.001992 0.013099 0.028144
#
#
# Mechanical properties :
#
#
# Convention : Reuss Voigt Hill
#
# Bulk Modulus (GPa) = 21.33621 36.66467 29.00044
# Shear Modulus (GPa) = 23.60569 36.62527 30.11548
#
# Velocity S-wave (km/s) = 3.06784 3.82133 3.46512
# Velocity P-wave (km/s) = 4.58864 5.83852 5.25090
#
# Compressibility (1/GPa) = 0.04686869
#
# Stress axis : x y z
#
# Youngs Moduli (GPa) = 54.18109 128.40009 28.50604
#
# Poissons Ratio (x) = 0.21269 0.07015
# Poissons Ratio (y) = 0.08975 0.08868
# Poissons Ratio (z) = 0.13332 0.39946
#
# Static dielectric constant tensor:
#      x y z
#    x 1.969400 0.038610 0.008550 
#    y 0.038610 2.029010 0.027140 
#    z 0.008550 0.027140 2.102250 
# 
# From -- ./inp_files/168790.got.cif
#   From: 2010.05.17/outbox.cif.g08.bks.cpg/sg2_85_cif.got.tgz:168790.got - 2010.06.03 11:33:40.
