data_PCOD9096138
_publ_section_title
;
Structure prediction by ZEFSAII (Michael W. Deem and Ramdas Pophale) SiO2 
 PCOD9096138
Probable space group: P -1
;
_chemical_formula_sum "Si O2"
_cell_formula_units_Z 14
_cell_length_a 9.140327
_cell_length_b 21.899399
_cell_length_c 5.261878
_cell_angle_alpha 43.571962
_cell_angle_beta 127.251258
_cell_angle_gamma 124.522843
_cell_volume 561.874720
_symmetry_space_group_name_H-M "P -1"
_symmetry_group_IT_number 2
_symmetry_cell_setting 'triclinic'
loop_
_space_group_symop_operation_xyz
x,y,z
-x,-y,-z
loop_
_atom_site_type_symbol
_atom_site_label
_atom_site_fract_x
_atom_site_fract_y
_atom_site_fract_z
Si Si1 0.625999 0.031297 0.287785
Si Si2 0.237443 0.131439 0.108017
Si Si3 0.897136 0.526889 0.058170
Si Si4 0.335223 0.798030 0.488425
Si Si5 0.819974 0.762096 0.775749
Si Si6 0.405065 0.639593 0.723170
Si Si7 0.098769 0.707306 0.905384
O O1 0.793826 0.977971 0.613496
O O2 0.500000 0.000000 0.500000
O O3 0.500000 0.000000 0.000000
O O4 0.680125 0.138943 0.961903
O O5 0.464397 0.163374 0.283170
O O6 0.168745 0.175983 0.150227
O O7 0.187780 0.173766 0.668400
O O8 0.681724 0.467775 0.009785
O O9 0.000000 0.500000 0.500000
O O10 0.938489 0.635258 0.798859
O O11 0.000000 0.500000 0.000000
O O12 0.341516 0.697270 0.709652
O O13 0.176218 0.793177 0.547484
O O14 0.628089 0.681420 0.812661
O O15 0.996272 0.720431 0.019619
O O16 0.282841 0.668458 0.278060
#
# Coordination Sequence:
#
# PCOD9096138 Si02
#       7
#     2   2   2   2   2   2   2
#     4  10  20  35  62  93 118 158 207 245 299 364
#     4  10  21  41  57  91 124 157 202 253 298 358
#     4  10  21  37  62  88 121 157 200 252 297 357
#     4  10  20  36  67  85 121 162 204 247 304 361
#     4  11  24  38  64  88 126 160 202 250 298 362
#     4  10  21  41  62  87 125 161 203 246 307 357
#     4  11  23  39  62  93 121 160 207 248 305 359
#
# _framework density 24.916587
#
# number of rings (size 3 to 8) (size 9 to 14) (size 15 to 20)
#    0.000    1.714    2.857    2.571    4.000    0.571 
#    0.000    1.429    0.000    6.000    0.000    0.000 
#    0.000    0.000    0.000    0.000    0.000    0.000 
#
# Total GULP energy -78251.187818 kJ/mol
# GULP energy per Si atom -5589.370558 kJ/mol
# Density = 2.485988 g / cm^3
# Si number density = 24.916587 Si / 1000 Ang^3
#
#
#
# Elastic Constant Matrix: (Units=GPa)
#
#
# Indices 1 2 3 4 5 6 
#
# 1 158.8147 39.9126 34.0514 4.0237 -27.6026 -10.1892
# 2 39.9126 73.6449 9.3534 7.2841 -4.1747 -11.9164
# 3 34.0514 9.3534 58.6038 13.5946 -24.1082 2.6682
# 4 4.0237 7.2841 13.5946 29.9903 -7.2295 -3.4725
# 5 -27.6026 -4.1747 -24.1082 -7.2295 35.8562 16.4712
# 6 -10.1892 -11.9164 2.6682 -3.4725 16.4712 41.1500
#
#
#
# Elastic Compliance Matrix: (Units=1/GPa)
#
#
# Indices 1 2 3 4 5 6 
#
# 1 0.008819 -0.004504 -0.002724 0.002323 0.005301 -0.000870
# 2 -0.004504 0.017328 -0.002433 -0.003377 -0.006739 0.006473
# 3 -0.002724 -0.002433 0.031175 -0.009211 0.022843 -0.013321
# 4 0.002323 -0.003377 -0.009211 0.038770 0.001748 0.002767
# 5 0.005301 -0.006739 0.022843 0.001748 0.058572 -0.025418
# 6 -0.000870 0.006473 -0.013321 0.002767 -0.025418 0.037232
#
#
# Mechanical properties :
#
#
# Convention : Reuss Voigt Hill
#
# Bulk Modulus (GPa) = 26.31481 50.85535 38.58508
# Shear Modulus (GPa) = 22.33309 35.24903 28.79106
#
# Velocity S-wave (km/s) = 2.99710 3.76531 3.40295
# Velocity P-wave (km/s) = 4.74983 6.27359 5.56412
#
# Compressibility (1/GPa) = 0.03800141
#
# Stress axis : x y z
#
# Youngs Moduli (GPa) = 113.38838 57.71077 32.07710
#
# Poissons Ratio (x) = 0.25991 0.08738
# Poissons Ratio (y) = 0.51066 0.07803
# Poissons Ratio (z) = 0.30887 0.14039
#
# Static dielectric constant tensor:
#      x y z
#    x 1.884830 0.193490 0.258300 
#    y 0.193490 1.303120 -0.601570 
#    z 0.258300 -0.601570 1.342560 
# 
# From -- ./inp_files/44076.got.cif
#   From: 2010.05.17/outbox.cif.g08.bks.cpg/sg2_23_cif.got.tgz:44076.got - 2010.06.03 11:33:40.
