data_PCOD9096870
_publ_section_title
;
Structure prediction by ZEFSAII (Michael W. Deem and Ramdas Pophale) SiO2 
 PCOD9096870
Probable space group: P -1
;
_chemical_formula_sum "Si O2"
_cell_formula_units_Z 14
_cell_length_a 20.035648
_cell_length_b 9.215871
_cell_length_c 12.505931
_cell_angle_alpha 38.583467
_cell_angle_beta 147.599918
_cell_angle_gamma 137.964343
_cell_volume 747.644418
_symmetry_space_group_name_H-M "P -1"
_symmetry_group_IT_number 2
_symmetry_cell_setting 'triclinic'
loop_
_space_group_symop_operation_xyz
x,y,z
-x,-y,-z
loop_
_atom_site_type_symbol
_atom_site_label
_atom_site_fract_x
_atom_site_fract_y
_atom_site_fract_z
Si Si1 0.348805 0.958085 0.326368
Si Si2 0.095486 0.507189 0.954220
Si Si3 0.034017 0.048286 0.251729
Si Si4 0.800648 0.978757 0.127559
Si Si5 0.191768 0.508972 0.493327
Si Si6 0.850600 0.355074 0.402350
Si Si7 0.186636 0.259008 0.019244
O O1 0.280916 0.690555 0.427915
O O2 0.500000 0.000000 0.500000
O O3 0.301619 0.129648 0.249087
O O4 0.290029 0.019265 0.098788
O O5 0.954660 0.536260 0.717846
O O6 0.185512 0.770784 0.938352
O O7 0.081564 0.332222 0.138336
O O8 0.145090 0.357196 0.015902
O O9 0.146208 0.909599 0.478642
O O10 0.942170 0.985056 0.266169
O O11 0.935831 0.936519 0.085290
O O12 0.766481 0.738164 0.289283
O O13 0.188393 0.628598 0.537384
O O14 0.000000 0.500000 0.500000
O O15 0.777689 0.510405 0.143441
#
# Coordination Sequence:
#
# PCOD9096870 Si02
#       7
#     2   2   2   2   2   2   2
#     4  11  25  43  62  80 108 160 213 239 268 330
#     4  12  20  32  60  94 123 149 173 236 315 354
#     4  10  17  31  53  82 125 149 179 223 279 360
#     4  11  23  37  53  92 124 147 187 236 293 357
#     4  12  20  36  62  88 121 152 182 238 299 342
#     4  10  16  30  56  87 118 145 187 230 282 355
#     4  10  18  36  56  83 119 146 195 237 277 343
#
# _framework density 18.725479
#
# number of rings (size 3 to 8) (size 9 to 14) (size 15 to 20)
#    0.000    1.143   10.000    2.143    0.000    0.571 
#    0.000    0.714    0.000    0.857    0.000    0.000 
#    0.000    0.000    0.000    0.000    0.000    0.000 
#
# Total GULP energy -78138.277253 kJ/mol
# GULP energy per Si atom -5581.305518 kJ/mol
# Density = 1.868286 g / cm^3
# Si number density = 18.725479 Si / 1000 Ang^3
#
#
#
# Elastic Constant Matrix: (Units=GPa)
#
#
# Indices 1 2 3 4 5 6 
#
# 1 48.7607 34.7188 25.7368 -1.5597 12.5210 -0.9020
# 2 34.7188 73.3060 55.7725 -28.8708 14.8824 -6.2680
# 3 25.7368 55.7725 86.8147 -33.1517 3.8884 22.3777
# 4 -1.5597 -28.8708 -33.1517 32.8081 3.6769 -2.4587
# 5 12.5210 14.8824 3.8884 3.6769 21.4188 -6.5716
# 6 -0.9020 -6.2680 22.3777 -2.4587 -6.5716 24.5733
#
#
#
# Elastic Compliance Matrix: (Units=1/GPa)
#
#
# Indices 1 2 3 4 5 6 
#
# 1 0.040997 -0.028331 -0.001323 -0.024647 -0.002126 -0.007551
# 2 -0.028331 0.093907 -0.058615 0.029893 -0.020539 0.073789
# 3 -0.001323 -0.058615 0.082542 0.025677 -0.005194 -0.088987
# 4 -0.024647 0.029893 0.025677 0.083741 -0.030439 -0.016424
# 5 -0.002126 -0.020539 -0.005194 -0.030439 0.073268 0.015962
# 6 -0.007551 0.073789 -0.088987 -0.016424 0.015962 0.142901
#
#
# Mechanical properties :
#
#
# Convention : Reuss Voigt Hill
#
# Bulk Modulus (GPa) = 24.44470 49.03751 36.74111
# Shear Modulus (GPa) = 7.06684 21.93692 14.50188
#
# Velocity S-wave (km/s) = 1.94476 3.42643 2.78591
# Velocity P-wave (km/s) = 4.25739 6.47289 5.47831
#
# Compressibility (1/GPa) = 0.04090866
#
# Stress axis : x y z
#
# Youngs Moduli (GPa) = 24.39201 10.64885 12.11498
#
# Poissons Ratio (x) = 0.30169 0.01603
# Poissons Ratio (y) = 0.69105 0.71012
# Poissons Ratio (z) = 0.03228 0.62418
#
# Static dielectric constant tensor:
#      x y z
#    x 1.687390 -0.028680 -0.042250 
#    y -0.028680 1.683920 -0.036800 
#    z -0.042250 -0.036800 1.681960 
# 
# From -- ./inp_files/195609.got.cif
#   From: 2010.05.17/outbox.cif.g08.bks.cpg/sg2_98_cif.got.tgz:195609.got - 2010.06.03 11:33:40.
