data_PCOD9096092
_publ_section_title
;
Structure prediction by ZEFSAII (Michael W. Deem and Ramdas Pophale) SiO2 
 PCOD9096092
Probable space group: P -1
;
_chemical_formula_sum "Si O2"
_cell_formula_units_Z 16
_cell_length_a 9.177847
_cell_length_b 21.995850
_cell_length_c 9.371795
_cell_angle_alpha 58.575108
_cell_angle_beta 58.499217
_cell_angle_gamma 29.753313
_cell_volume 790.208357
_symmetry_space_group_name_H-M "P -1"
_symmetry_group_IT_number 2
_symmetry_cell_setting 'triclinic'
loop_
_space_group_symop_operation_xyz
x,y,z
-x,-y,-z
loop_
_atom_site_type_symbol
_atom_site_label
_atom_site_fract_x
_atom_site_fract_y
_atom_site_fract_z
Si Si1 0.204126 0.172295 0.721416
Si Si2 0.811418 0.265011 0.081942
Si Si3 0.102367 0.046652 0.393835
Si Si4 0.681872 0.394605 0.265225
Si Si5 0.738359 0.626785 0.289249
Si Si6 0.830194 0.496261 0.009616
Si Si7 0.919974 0.188900 0.593634
Si Si8 0.981665 0.403032 0.552381
O O1 0.119496 0.143031 0.680976
O O2 0.087269 0.290015 0.586746
O O3 0.556158 0.059502 0.696721
O O4 0.037598 0.208450 0.909135
O O5 0.789839 0.334022 0.128029
O O6 0.482385 0.370058 0.056360
O O7 0.907613 0.161961 0.245780
O O8 0.065804 0.088884 0.522113
O O9 0.000000 0.000000 0.500000
O O10 0.827919 0.291933 0.429729
O O11 0.327604 0.503878 0.319140
O O12 0.754397 0.451315 0.190685
O O13 0.396121 0.736577 0.288106
O O14 0.892668 0.495863 0.375365
O O15 0.938789 0.604022 0.109682
O O16 0.774058 0.646697 0.405042
O O17 0.000000 0.500000 0.000000
#
# Coordination Sequence:
#
# PCOD9096092 Si02
#       8
#     2   2   2   2   2   2   2   2
#     4  12  23  40  66  88 124 164 212 256 309 354
#     4  11  23  43  64  91 125 165 210 247 304 382
#     4  11  26  45  66  88 117 168 219 258 301 362
#     4  10  21  40  61  91 129 169 199 243 312 384
#     4  10  21  35  57  93 126 156 201 247 309 366
#     4  12  23  34  59  97 132 155 196 254 314 363
#     4  10  24  42  63  93 128 158 208 260 312 368
#     4  10  20  35  62  87 120 168 203 247 299 374
#
# _framework density 20.247823
#
# number of rings (size 3 to 8) (size 9 to 14) (size 15 to 20)
#    0.000    1.250    2.500    3.375    5.250    1.000 
#    0.000    0.625    0.000    0.000    0.000    0.000 
#    0.000    0.000    0.000    0.000    0.000    0.000 
#
# Total GULP energy -89432.552206 kJ/mol
# GULP energy per Si atom -5589.534513 kJ/mol
# Density = 2.020174 g / cm^3
# Si number density = 20.247823 Si / 1000 Ang^3
#
#
#
# Elastic Constant Matrix: (Units=GPa)
#
#
# Indices 1 2 3 4 5 6 
#
# 1 126.1208 40.1834 31.5397 -3.5362 -14.9998 -7.7669
# 2 40.1834 77.0353 25.3428 11.2496 -8.0669 -4.6797
# 3 31.5397 25.3428 49.2163 7.1298 -14.2008 -9.4038
# 4 -3.5362 11.2496 7.1298 19.1884 2.7444 -14.6954
# 5 -14.9998 -8.0669 -14.2008 2.7444 30.4597 2.6484
# 6 -7.7669 -4.6797 -9.4038 -14.6954 2.6484 33.4157
#
#
#
# Elastic Compliance Matrix: (Units=1/GPa)
#
#
# Indices 1 2 3 4 5 6 
#
# 1 0.011759 -0.005796 -0.005073 0.011696 0.000349 0.005610
# 2 -0.005796 0.019871 -0.004814 -0.017114 0.002370 -0.007633
# 3 -0.005073 -0.004814 0.031138 -0.010162 0.011527 0.001527
# 4 0.011696 -0.017114 -0.010162 0.104905 -0.016869 0.044934
# 5 0.000349 0.002370 0.011527 -0.016869 0.041134 -0.007022
# 6 0.005610 -0.007633 0.001527 0.044934 -0.007022 0.050908
#
#
# Mechanical properties :
#
#
# Convention : Reuss Voigt Hill
#
# Bulk Modulus (GPa) = 31.84320 49.61160 40.72740
# Shear Modulus (GPa) = 16.58110 26.96653 21.77381
#
# Velocity S-wave (km/s) = 2.86476 3.65337 3.28283
# Velocity P-wave (km/s) = 5.16753 6.50781 5.87601
#
# Compressibility (1/GPa) = 0.03140388
#
# Stress axis : x y z
#
# Youngs Moduli (GPa) = 85.04101 50.32337 32.11507
#
# Poissons Ratio (x) = 0.29165 0.16292
# Poissons Ratio (y) = 0.49286 0.15459
# Poissons Ratio (z) = 0.43143 0.24224
#
# Static dielectric constant tensor:
#      x y z
#    x 1.705230 0.015960 0.024830 
#    y 0.015960 1.703770 0.015580 
#    z 0.024830 0.015580 1.750680 
# 
# From -- ./inp_files/206827.got.cif
#   From: 2010.05.17/outbox.cif.g08.bks.cpg/sg2_104_cif.got.tgz:206827.got - 2010.06.03 11:33:40.
