data_PCOD9096696
_publ_section_title
;
Structure prediction by ZEFSAII (Michael W. Deem and Ramdas Pophale) SiO2 
 PCOD9096696
Probable space group: P -1
;
_chemical_formula_sum "Si O2"
_cell_formula_units_Z 16
_cell_length_a 19.131264
_cell_length_b 6.762147
_cell_length_c 16.414125
_cell_angle_alpha 82.897028
_cell_angle_beta 21.734242
_cell_angle_gamma 84.615993
_cell_volume 779.011101
_symmetry_space_group_name_H-M "P -1"
_symmetry_group_IT_number 2
_symmetry_cell_setting 'triclinic'
loop_
_space_group_symop_operation_xyz
x,y,z
-x,-y,-z
loop_
_atom_site_type_symbol
_atom_site_label
_atom_site_fract_x
_atom_site_fract_y
_atom_site_fract_z
Si Si1 0.715567 0.073066 0.193529
Si Si2 0.486194 0.569822 0.104889
Si Si3 0.883166 0.984800 0.275633
Si Si4 0.232776 0.076856 0.159003
Si Si5 0.185826 0.640785 0.774262
Si Si6 0.649449 0.749582 0.413658
Si Si7 0.802131 0.105614 0.618375
Si Si8 0.424822 0.138552 0.251139
O O1 0.762263 0.226921 0.209621
O O2 0.531537 0.163888 0.350455
O O3 0.663756 0.861843 0.305183
O O4 0.897944 0.047152 0.942770
O O5 0.299426 0.695883 0.306265
O O6 0.468833 0.373956 0.189171
O O7 0.500000 0.500000 0.000000
O O8 0.663336 0.716742 0.932493
O O9 0.826747 0.837233 0.269129
O O10 0.736995 0.930321 0.507182
O O11 0.854649 0.206009 0.261643
O O12 0.021129 0.104715 0.355734
O O13 0.208680 0.930416 0.271152
O O14 0.383021 0.976959 0.943105
O O15 0.344178 0.486169 0.589284
O O16 0.000000 0.500000 0.000000
O O17 0.670669 0.929987 0.728278
#
# Coordination Sequence:
#
# PCOD9096696 Si02
#       8
#     2   2   2   2   2   2   2   2
#     4  10  20  36  57  86 111 143 190 235 275 332
#     4  11  19  37  61  85 111 151 193 231 282 344
#     4  11  23  37  56  83 117 151 181 234 288 335
#     4  10  21  38  61  87 115 147 196 242 280 336
#     4  11  18  37  63  80 107 149 191 228 278 332
#     4  10  20  36  59  84 111 144 192 233 274 336
#     4  10  21  38  61  88 112 149 197 240 280 339
#     4  11  23  39  57  83 124 153 185 238 294 336
#
# _framework density 20.53886
#
# number of rings (size 3 to 8) (size 9 to 14) (size 15 to 20)
#    0.000    1.500    5.000    1.875    0.000    4.500 
#    0.000    1.250    0.000    0.000    0.000    0.000 
#    0.000    0.000    0.000    0.000    0.000    0.000 
#
# Total GULP energy -89346.224490 kJ/mol
# GULP energy per Si atom -5584.139031 kJ/mol
# Density = 2.049211 g / cm^3
# Si number density = 20.538860 Si / 1000 Ang^3
#
#
#
# Elastic Constant Matrix: (Units=GPa)
#
#
# Indices 1 2 3 4 5 6 
#
# 1 10.1516 5.8958 8.4025 3.0648 -10.5215 -1.2185
# 2 5.8958 130.7405 44.3584 3.6316 -2.9552 -3.8048
# 3 8.4025 44.3584 159.3752 16.4600 -13.9153 -10.7381
# 4 3.0648 3.6316 16.4600 35.0205 -6.3612 -1.0004
# 5 -10.5215 -2.9552 -13.9153 -6.3612 38.3986 -4.2498
# 6 -1.2185 -3.8048 -10.7381 -1.0004 -4.2498 12.7324
#
#
#
# Elastic Compliance Matrix: (Units=1/GPa)
#
#
# Indices 1 2 3 4 5 6 
#
# 1 0.150684 -0.004709 -0.000706 -0.003806 0.042968 0.026460
# 2 -0.004709 0.008600 -0.002327 0.000343 -0.001448 -0.000300
# 3 -0.000706 -0.002327 0.007932 -0.002729 0.002785 0.006642
# 4 -0.003806 0.000343 -0.002729 0.030740 0.003188 0.000916
# 5 0.042968 -0.001448 0.002785 0.003188 0.041469 0.020119
# 6 0.026460 -0.000300 0.006642 0.000916 0.020119 0.093371
#
#
# Mechanical properties :
#
#
# Convention : Reuss Voigt Hill
#
# Bulk Modulus (GPa) = 6.59059 46.39787 26.49423
# Shear Modulus (GPa) = 12.53581 33.33768 22.93674
#
# Velocity S-wave (km/s) = 2.47320 4.03321 3.34540
# Velocity P-wave (km/s) = 3.37215 6.65795 5.27730
#
# Compressibility (1/GPa) = 0.15173147
#
# Stress axis : x y z
#
# Youngs Moduli (GPa) = 6.63639 116.28276 126.07147
#
# Poissons Ratio (x) = 0.54753 0.08905
# Poissons Ratio (y) = 0.03125 0.29341
# Poissons Ratio (z) = 0.00469 0.27063
#
# Static dielectric constant tensor:
#      x y z
#    x 1.755120 0.008700 0.009240 
#    y 0.008700 1.727780 0.047540 
#    z 0.009240 0.047540 1.808010 
# 
# From -- ./inp_files/104573.got.cif
#   From: 2010.05.17/outbox.cif.g08.bks.cpg/sg2_53_cif.got.tgz:104573.got - 2010.06.03 11:33:40.
