data_PCOD9096922
_publ_section_title
;
Structure prediction by ZEFSAII (Michael W. Deem and Ramdas Pophale) SiO2 
 PCOD9096922
Probable space group: P -1
;
_chemical_formula_sum "Si O2"
_cell_formula_units_Z 16
_cell_length_a 10.230683
_cell_length_b 9.224154
_cell_length_c 15.597962
_cell_angle_alpha 132.503401
_cell_angle_beta 105.842671
_cell_angle_gamma 46.080759
_cell_volume 726.696252
_symmetry_space_group_name_H-M "P -1"
_symmetry_group_IT_number 2
_symmetry_cell_setting 'triclinic'
loop_
_space_group_symop_operation_xyz
x,y,z
-x,-y,-z
loop_
_atom_site_type_symbol
_atom_site_label
_atom_site_fract_x
_atom_site_fract_y
_atom_site_fract_z
Si Si1 0.774667 0.580211 0.933613
Si Si2 0.539670 0.795872 0.800134
Si Si3 0.126095 0.282036 0.767449
Si Si4 0.507240 0.122754 0.418749
Si Si5 0.715434 0.268201 0.358547
Si Si6 0.112062 0.960051 0.230267
Si Si7 0.879369 0.655484 0.710423
Si Si8 0.230205 0.106449 0.456913
O O1 0.664242 0.643635 0.849227
O O2 0.982930 0.455246 0.891524
O O3 0.811482 0.337809 0.892456
O O4 0.634395 0.873268 0.075174
O O5 0.434669 0.709437 0.713053
O O6 0.687893 0.733922 0.732712
O O7 0.007914 0.503424 0.758224
O O8 0.347099 0.117989 0.722245
O O9 0.165687 0.003241 0.665715
O O10 0.396406 0.437095 0.499947
O O11 0.352039 0.128655 0.428015
O O12 0.644799 0.038768 0.491464
O O13 0.878634 0.188007 0.292420
O O14 0.159204 0.081070 0.219143
O O15 0.197126 0.947159 0.331409
O O16 0.018857 0.411754 0.566770
#
# Coordination Sequence:
#
# PCOD9096922 Si02
#       8
#     2   2   2   2   2   2   2   2
#     4   9  21  43  61  83 113 153 192 243 286 338
#     4  10  22  40  65  82 114 150 197 239 289 333
#     4   9  21  36  57  84 121 148 188 236 287 332
#     4  10  20  36  58  88 119 152 193 229 284 347
#     4  11  22  36  59  91 114 153 192 237 281 350
#     4  11  22  37  62  85 121 152 191 233 293 339
#     4  10  21  39  58  85 118 158 186 234 287 342
#     4  10  21  36  58  86 124 152 181 241 289 337
#
# _framework density 22.017453
#
# number of rings (size 3 to 8) (size 9 to 14) (size 15 to 20)
#    0.000    2.000    1.250    1.500    1.750    4.500 
#    0.000    7.500    2.750    3.000    0.000    0.000 
#    0.000    0.000    0.000    0.000    0.000    0.000 
#
# Total GULP energy -89373.990045 kJ/mol
# GULP energy per Si atom -5585.874378 kJ/mol
# Density = 2.196734 g / cm^3
# Si number density = 22.017453 Si / 1000 Ang^3
#
#
#
# Elastic Constant Matrix: (Units=GPa)
#
#
# Indices 1 2 3 4 5 6 
#
# 1 143.9604 33.4022 52.2611 -4.1403 -20.6708 -8.9988
# 2 33.4022 94.7674 29.3204 1.4740 -9.4545 -1.3225
# 3 52.2611 29.3204 108.8745 11.6801 -22.6865 2.8999
# 4 -4.1403 1.4740 11.6801 32.9372 -8.9498 -0.2919
# 5 -20.6708 -9.4545 -22.6865 -8.9498 24.4896 4.5389
# 6 -8.9988 -1.3225 2.8999 -0.2919 4.5389 39.5380
#
#
#
# Elastic Compliance Matrix: (Units=1/GPa)
#
#
# Indices 1 2 3 4 5 6 
#
# 1 0.009630 -0.001818 -0.003504 0.003992 0.005304 0.001808
# 2 -0.001818 0.011970 -0.002129 0.000326 0.001233 0.000004
# 3 -0.003504 -0.002129 0.013543 -0.002940 0.008216 -0.002827
# 4 0.003992 0.000326 -0.002940 0.035648 0.013834 -0.000190
# 5 0.005304 0.001233 0.008216 0.013834 0.059582 -0.006092
# 6 0.001808 0.000004 -0.002827 -0.000190 -0.006092 0.026609
#
#
# Mechanical properties :
#
#
# Convention : Reuss Voigt Hill
#
# Bulk Modulus (GPa) = 49.40637 64.17440 56.79039
# Shear Modulus (GPa) = 27.99098 34.90088 31.44593
#
# Velocity S-wave (km/s) = 3.56941 3.98571 3.78329
# Velocity P-wave (km/s) = 6.28299 7.09870 6.70326
#
# Compressibility (1/GPa) = 0.02024030
#
# Stress axis : x y z
#
# Youngs Moduli (GPa) = 103.84722 83.54551 73.83955
#
# Poissons Ratio (x) = 0.15186 0.25873
# Poissons Ratio (y) = 0.18876 0.15721
# Poissons Ratio (z) = 0.36388 0.17788
#
# Static dielectric constant tensor:
#      x y z
#    x 1.812850 -0.012810 -0.027840 
#    y -0.012810 1.878490 -0.036460 
#    z -0.027840 -0.036460 1.778580 
# 
# From -- ./inp_files/226088.got.cif
#   From: 2010.05.17/outbox.cif.g08.bks.cpg/sg2_114_cif.got.tgz:226088.got - 2010.06.03 11:33:40.
