data_PCOD9096536
_publ_section_title
;
Structure prediction by ZEFSAII (Michael W. Deem and Ramdas Pophale) SiO2 
 PCOD9096536
Probable space group: P -1
;
_chemical_formula_sum "Si O2"
_cell_formula_units_Z 16
_cell_length_a 16.858768
_cell_length_b 19.820121
_cell_length_c 9.459461
_cell_angle_alpha 43.850875
_cell_angle_beta 56.208763
_cell_angle_gamma 21.152010
_cell_volume 699.293200
_symmetry_space_group_name_H-M "P -1"
_symmetry_group_IT_number 2
_symmetry_cell_setting 'triclinic'
loop_
_space_group_symop_operation_xyz
x,y,z
-x,-y,-z
loop_
_atom_site_type_symbol
_atom_site_label
_atom_site_fract_x
_atom_site_fract_y
_atom_site_fract_z
Si Si1 0.400863 0.195788 0.365442
Si Si2 0.744247 0.410116 0.723124
Si Si3 0.297207 0.964247 0.349026
Si Si4 0.126670 0.116542 0.572543
Si Si5 0.627307 0.371375 0.414102
Si Si6 0.505607 0.019554 0.801924
Si Si7 0.166975 0.438486 0.952953
Si Si8 0.938447 0.197161 0.165473
O O1 0.318422 0.245135 0.532381
O O2 0.204220 0.419706 0.110503
O O3 0.500000 0.000000 0.500000
O O4 0.629200 0.056321 0.355378
O O5 0.573322 0.667902 0.489991
O O6 0.994322 0.181294 0.728277
O O7 0.570782 0.490729 0.704791
O O8 0.809046 0.337252 0.933003
O O9 0.303894 0.067802 0.243466
O O10 0.203524 0.991366 0.539048
O O11 0.116429 0.114470 0.172131
O O12 0.920802 0.388870 0.312933
O O13 0.500000 0.500000 0.500000
O O14 0.737843 0.361095 0.238882
O O15 0.865921 0.075588 0.636763
O O16 0.574645 0.850113 0.923443
O O17 0.500000 0.000000 0.000000
O O18 0.000000 0.500000 0.000000
#
# Coordination Sequence:
#
# PCOD9096536 Si02
#       8
#     2   2   2   2   2   2   2   2
#     4   9  19  34  56  77 108 151 205 248 300 354
#     4  11  24  39  61  95 123 155 199 246 300 366
#     4  10  22  40  55  87 126 155 203 250 297 361
#     4  11  22  38  61  84 121 165 206 254 308 353
#     4  10  22  43  68  93 121 156 197 236 298 371
#     4  10  20  36  56  82 118 156 204 263 299 347
#     4  11  19  38  60  78 114 164 210 255 299 349
#     4  10  23  41  64  92 126 157 190 250 300 356
#
# _framework density 22.880246
#
# number of rings (size 3 to 8) (size 9 to 14) (size 15 to 20)
#    0.000    1.750    3.750    1.875    0.000    7.500 
#    0.000    0.625    0.000    0.000    0.000    0.000 
#    0.000    0.000    0.000    0.000    0.000    0.000 
#
# Total GULP energy -89172.915453 kJ/mol
# GULP energy per Si atom -5573.307216 kJ/mol
# Density = 2.282817 g / cm^3
# Si number density = 22.880246 Si / 1000 Ang^3
#
#
#
# Elastic Constant Matrix: (Units=GPa)
#
#
# Indices 1 2 3 4 5 6 
#
# 1 65.0765 3.8153 34.4439 -5.4273 32.2525 -1.3310
# 2 3.8153 94.5536 27.7662 23.9161 14.5336 4.9703
# 3 34.4439 27.7662 121.3460 16.3417 50.6318 -6.5189
# 4 -5.4273 23.9161 16.3417 36.7591 5.3456 5.5439
# 5 32.2525 14.5336 50.6318 5.3456 43.8534 -1.4999
# 6 -1.3310 4.9703 -6.5189 5.5439 -1.4999 32.8005
#
#
#
# Elastic Compliance Matrix: (Units=1/GPa)
#
#
# Indices 1 2 3 4 5 6 
#
# 1 0.025733 0.000415 -0.000078 0.006605 -0.019814 -0.001057
# 2 0.000415 0.013237 -0.001159 -0.007515 -0.002474 -0.001062
# 3 -0.000078 -0.001159 0.017127 -0.004691 -0.018640 0.003517
# 4 0.006605 -0.007515 -0.004691 0.036245 -0.001565 -0.005723
# 5 -0.019814 -0.002474 -0.018640 -0.001565 0.059869 -0.001132
# 6 -0.001057 -0.001062 0.003517 -0.005723 -0.001132 0.032220
#
#
# Mechanical properties :
#
#
# Convention : Reuss Voigt Hill
#
# Bulk Modulus (GPa) = 18.36488 45.89187 32.12838
# Shear Modulus (GPa) = 24.48281 37.01266 30.74774
#
# Velocity S-wave (km/s) = 3.27470 4.02639 3.66984
# Velocity P-wave (km/s) = 4.72675 6.45885 5.65945
#
# Compressibility (1/GPa) = 0.05445175
#
# Stress axis : x y z
#
# Youngs Moduli (GPa) = 38.86098 75.54750 58.38881
#
# Poissons Ratio (x) = -0.03136 0.00454
# Poissons Ratio (y) = -0.01613 0.06770
# Poissons Ratio (z) = 0.00302 0.08760
#
# Static dielectric constant tensor:
#      x y z
#    x 0.000000 0.000000 0.000000 
#    y 0.000000 0.000000 0.000000 
#    z 0.000000 0.000000 0.000000 
# 
# From -- ./inp_files/337586.got.cif
#   From: 2010.05.17/outbox.cif.g08.bks.cpg/sg2_169_cif.got.tgz:337586.got - 2010.06.03 11:33:40.
