data_PCOD9096888
_publ_section_title
;
Structure prediction by ZEFSAII (Michael W. Deem and Ramdas Pophale) SiO2 
 PCOD9096888
Probable space group: P -1
;
_chemical_formula_sum "Si O2"
_cell_formula_units_Z 14
_cell_length_a 14.764765
_cell_length_b 14.029324
_cell_length_c 14.807767
_cell_angle_alpha 39.159089
_cell_angle_beta 160.614936
_cell_angle_gamma 132.869737
_cell_volume 623.487933
_symmetry_space_group_name_H-M "P -1"
_symmetry_group_IT_number 2
_symmetry_cell_setting 'triclinic'
loop_
_space_group_symop_operation_xyz
x,y,z
-x,-y,-z
loop_
_atom_site_type_symbol
_atom_site_label
_atom_site_fract_x
_atom_site_fract_y
_atom_site_fract_z
Si Si1 0.270422 0.666131 0.172982
Si Si2 0.389992 0.038010 0.468844
Si Si3 0.746508 0.693412 0.312196
Si Si4 0.330798 0.327938 0.311068
Si Si5 0.942926 0.863994 0.207152
Si Si6 0.746649 0.445509 0.345737
Si Si7 0.216892 0.681151 0.908122
O O1 0.500000 0.500000 0.500000
O O2 0.440106 0.748814 0.341083
O O3 0.192804 0.736668 0.948691
O O4 0.981805 0.648170 0.959417
O O5 0.094336 0.003957 0.243002
O O6 0.500000 0.000000 0.500000
O O7 0.371461 0.215054 0.347257
O O8 0.626160 0.921055 0.834505
O O9 0.906507 0.783813 0.326958
O O10 0.719397 0.537002 0.347375
O O11 0.933187 0.680350 0.587837
O O12 0.424382 0.763324 0.987866
O O13 0.365140 0.497013 0.192296
O O14 0.141251 0.740113 0.416333
O O15 0.000000 0.500000 0.500000
O O16 0.500000 0.500000 0.000000
#
# Coordination Sequence:
#
# PCOD9096888 Si02
#       7
#     2   2   2   2   2   2   2
#     4  10  20  40  64  95 128 162 203 270 333 370
#     4  12  27  43  65  90 127 181 217 252 293 390
#     4  11  22  36  64  93 124 162 202 271 325 359
#     4  11  23  40  65  92 133 166 209 259 325 372
#     4  11  24  43  61  86 133 169 216 254 315 376
#     4  10  20  36  58  86 120 164 205 251 314 362
#     4  11  21  36  66  99 123 151 210 270 321 381
#
# _framework density 22.454322999999999
#
# number of rings (size 3 to 8) (size 9 to 14) (size 15 to 20)
#    0.000    1.143    0.000    9.857    4.000    0.000 
#    0.000    0.000    0.000   17.143    0.000    0.000 
#    0.000    0.000    0.000    0.000    0.000    0.000 
#
# Total GULP energy -78118.926654 kJ/mol
# GULP energy per Si atom -5579.923332 kJ/mol
# Density = 2.240322 g / cm^3
# Si number density = 22.454323 Si / 1000 Ang^3
#
#
#
# Elastic Constant Matrix: (Units=GPa)
#
#
# Indices 1 2 3 4 5 6 
#
# 1 104.9206 23.8033 32.9241 22.9682 17.6870 4.3017
# 2 23.8033 60.7198 -0.0252 22.8671 -0.7849 -2.4676
# 3 32.9241 -0.0252 61.0131 38.4051 1.1720 -8.3238
# 4 22.9682 22.8671 38.4051 42.1455 -0.1609 -0.2617
# 5 17.6870 -0.7849 1.1720 -0.1609 33.0666 8.7152
# 6 4.3017 -2.4676 -8.3238 -0.2617 8.7152 27.8006
#
#
#
# Elastic Compliance Matrix: (Units=1/GPa)
#
#
# Indices 1 2 3 4 5 6 
#
# 1 0.016661 -0.013115 -0.020247 0.016415 -0.006412 -0.007640
# 2 -0.013115 0.045921 0.049029 -0.062319 0.000807 0.019946
# 3 -0.020247 0.049029 0.098516 -0.105120 -0.001631 0.036504
# 4 0.016415 -0.062319 -0.105120 0.144157 0.004615 -0.039635
# 5 -0.006412 0.000807 -0.001631 0.004615 0.036635 -0.010866
# 6 -0.007640 0.019946 0.036504 -0.039635 -0.010866 0.052886
#
#
# Mechanical properties :
#
#
# Convention : Reuss Voigt Hill
#
# Bulk Modulus (GPa) = 5.19667 37.78421 21.49044
# Shear Modulus (GPa) = 11.69356 31.93262 21.81309
#
# Velocity S-wave (km/s) = 2.28452 3.77518 3.12018
# Velocity P-wave (km/s) = 3.04599 5.98885 4.75102
#
# Compressibility (1/GPa) = 0.19243110
#
# Stress axis : x y z
#
# Youngs Moduli (GPa) = 60.02122 21.77646 10.15064
#
# Poissons Ratio (x) = 0.28560 0.20552
# Poissons Ratio (y) = 0.78717 -0.49767
# Poissons Ratio (z) = 1.21527 -1.06768
#
# Static dielectric constant tensor:
#      x y z
#    x 1.910950 -0.002820 -0.117170 
#    y -0.002820 2.235990 -0.287230 
#    z -0.117170 -0.287230 2.048610 
# 
# From -- ./inp_files/533719.got.cif
#   From: 2010.05.17/outbox.cif.g08.bks.cpg/sg2_267_cif.got.tgz:533719.got - 2010.06.03 11:33:40.
