data_PCOD9096110
_publ_section_title
;
Structure prediction by ZEFSAII (Michael W. Deem and Ramdas Pophale) SiO2 
 PCOD9096110
Probable space group: P -1
;
_chemical_formula_sum "Si O2"
_cell_formula_units_Z 14
_cell_length_a 13.510672
_cell_length_b 11.687920
_cell_length_c 13.862293
_cell_angle_alpha 116.762703
_cell_angle_beta 31.656820
_cell_angle_gamma 134.947899
_cell_volume 742.840928
_symmetry_space_group_name_H-M "P -1"
_symmetry_group_IT_number 2
_symmetry_cell_setting 'triclinic'
loop_
_space_group_symop_operation_xyz
x,y,z
-x,-y,-z
loop_
_atom_site_type_symbol
_atom_site_label
_atom_site_fract_x
_atom_site_fract_y
_atom_site_fract_z
Si Si1 0.228179 0.462038 0.855069
Si Si2 0.308834 0.665760 0.696192
Si Si3 0.975828 0.077724 0.883143
Si Si4 0.900682 0.773349 0.744826
Si Si5 0.453219 0.940228 0.351253
Si Si6 0.472341 0.244053 0.648785
Si Si7 0.563355 0.542616 0.117165
O O1 0.390517 0.615196 0.698679
O O2 0.106420 0.278604 0.834326
O O3 0.361672 0.483737 0.852402
O O4 0.991898 0.441841 0.078557
O O5 0.369282 0.635745 0.530572
O O6 0.452225 0.869239 0.651240
O O7 0.169482 0.115376 0.820697
O O8 0.967622 0.955790 0.769469
O O9 0.679130 0.972085 0.117125
O O10 0.661379 0.638098 0.820332
O O11 0.154785 0.812472 0.517571
O O12 0.801014 0.676315 0.895908
O O13 0.456434 0.865188 0.420645
O O14 0.530512 0.360813 0.735799
#
# Coordination Sequence:
#
# PCOD9096110 Si02
#       7
#     2   2   2   2   2   2   2
#     4   9  21  39  59  85 118 149 192 235 282 344
#     4  10  20  35  62  90 113 148 191 240 287 329
#     4  10  21  36  61  85 116 145 193 238 283 334
#     4  11  22  40  56  87 117 155 186 235 289 332
#     4  11  21  35  61  88 116 147 191 239 282 340
#     4  11  20  35  61  90 111 147 193 240 287 331
#     4  10  23  38  57  84 119 151 191 232 286 343
#
# _framework density 18.846565999999999
#
# number of rings (size 3 to 8) (size 9 to 14) (size 15 to 20)
#    0.000    1.714    2.857    1.714    4.000    2.857 
#    2.571    0.714    0.000    2.571    0.000    0.000 
#    0.000    0.000    0.000    0.000    0.000    0.000 
#
# Total GULP energy -77974.436038 kJ/mol
# GULP energy per Si atom -5569.602574 kJ/mol
# Density = 1.880367 g / cm^3
# Si number density = 18.846566 Si / 1000 Ang^3
#
#
#
# Elastic Constant Matrix: (Units=GPa)
#
#
# Indices 1 2 3 4 5 6 
#
# 1 83.6799 42.1952 24.7360 -6.2513 15.0069 -18.5106
# 2 42.1952 78.8871 21.1577 8.8421 5.5715 7.0648
# 3 24.7360 21.1577 85.6269 2.5890 -5.2250 -2.3219
# 4 -6.2513 8.8421 2.5890 15.6456 -9.5276 4.1641
# 5 15.0069 5.5715 -5.2250 -9.5276 28.7481 -5.5891
# 6 -18.5106 7.0648 -2.3219 4.1641 -5.5891 23.6626
#
#
#
# Elastic Compliance Matrix: (Units=1/GPa)
#
#
# Indices 1 2 3 4 5 6 
#
# 1 0.029479 -0.018354 -0.003918 0.014379 -0.002930 0.024933
# 2 -0.018354 0.027831 -0.001933 -0.021718 -0.007402 -0.020784
# 3 -0.003918 -0.001933 0.013582 0.000327 0.004990 -0.000034
# 4 0.014379 -0.021718 0.000327 0.098687 0.030968 0.007713
# 5 -0.002930 -0.007402 0.004990 0.030968 0.050247 0.006826
# 6 0.024933 -0.020784 -0.000034 0.007713 0.006826 0.068222
#
#
# Mechanical properties :
#
#
# Convention : Reuss Voigt Hill
#
# Bulk Modulus (GPa) = 44.48410 47.15239 45.81825
# Shear Modulus (GPa) = 14.53695 24.28495 19.41095
#
# Velocity S-wave (km/s) = 2.78030 3.59355 3.21276
# Velocity P-wave (km/s) = 5.82763 6.50319 6.17466
#
# Compressibility (1/GPa) = 0.02247994
#
# Stress axis : x y z
#
# Youngs Moduli (GPa) = 33.92269 35.93162 73.62812
#
# Poissons Ratio (x) = 0.65951 0.28848
# Poissons Ratio (y) = 0.62263 0.14233
# Poissons Ratio (z) = 0.13291 0.06946
#
# Static dielectric constant tensor:
#      x y z
#    x 1.650520 -0.034640 0.008030 
#    y -0.034640 1.684850 0.012240 
#    z 0.008030 0.012240 1.702500 
# 
# From -- ./inp_files/354285.got.cif
#   From: 2010.05.17/outbox.cif.g08.bks.cpg/sg2_178_cif.got.tgz:354285.got - 2010.06.03 11:33:40.
