data_PCOD9096182
_publ_section_title
;
Structure prediction by ZEFSAII (Michael W. Deem and Ramdas Pophale) SiO2 
 PCOD9096182
Probable space group: P -1
;
_chemical_formula_sum "Si O2"
_cell_formula_units_Z 16
_cell_length_a 4.982175
_cell_length_b 20.282907
_cell_length_c 8.255249
_cell_angle_alpha 55.022726
_cell_angle_beta 74.843268
_cell_angle_gamma 70.235500
_cell_volume 640.796166
_symmetry_space_group_name_H-M "P -1"
_symmetry_group_IT_number 2
_symmetry_cell_setting 'triclinic'
loop_
_space_group_symop_operation_xyz
x,y,z
-x,-y,-z
loop_
_atom_site_type_symbol
_atom_site_label
_atom_site_fract_x
_atom_site_fract_y
_atom_site_fract_z
Si Si1 0.246199 0.948660 0.802767
Si Si2 0.312192 0.712846 0.106984
Si Si3 0.289718 0.617983 0.939638
Si Si4 0.128659 0.448340 0.237648
Si Si5 0.445756 0.577724 0.520998
Si Si6 0.515134 0.092342 0.495352
Si Si7 0.130709 0.223329 0.160105
Si Si8 0.669178 0.071480 0.837296
O O1 0.238813 0.913670 0.671628
O O2 0.491377 0.999381 0.669271
O O3 0.306579 0.892512 0.035699
O O4 0.974427 0.019849 0.796804
O O5 0.338422 0.670175 0.335797
O O6 0.328654 0.632939 0.102428
O O7 0.585356 0.746784 0.971119
O O8 0.030561 0.775769 0.989417
O O9 0.602979 0.602862 0.835504
O O10 0.083362 0.705785 0.802711
O O11 0.134463 0.542808 0.062963
O O12 0.254612 0.429384 0.425362
O O13 0.812925 0.433368 0.305388
O O14 0.500000 0.500000 0.500000
O O15 0.240963 0.145269 0.368421
O O16 0.544372 0.126842 0.623074
O O17 0.500000 0.000000 0.000000
#
# Coordination Sequence:
#
# PCOD9096182 Si02
#       8
#     2   2   2   2   2   2   2   2
#     4   9  19  36  60  92 115 146 205 249 289 356
#     4  10  22  39  60  78 122 151 200 235 302 351
#     4   9  23  38  58  87 116 154 197 250 290 359
#     4  11  23  34  64  85 115 147 208 246 301 340
#     4  12  21  37  59  89 111 154 192 255 300 349
#     4  10  20  35  63  85 114 163 197 238 308 358
#     4  10  22  39  61  83 118 162 191 240 296 367
#     4   9  18  34  57  88 121 143 188 253 292 346
#
# _framework density 24.968941000000001
#
# number of rings (size 3 to 8) (size 9 to 14) (size 15 to 20)
#    0.750    1.250    1.250    2.250    3.500    1.000 
#    0.000    1.250   16.500    0.000    0.000    0.000 
#    0.000    0.000    0.000    0.000    0.000    0.000 
#
# Total GULP energy -89200.631547 kJ/mol
# GULP energy per Si atom -5575.039472 kJ/mol
# Density = 2.491211 g / cm^3
# Si number density = 24.968941 Si / 1000 Ang^3
#
#
#
# Elastic Constant Matrix: (Units=GPa)
#
#
# Indices 1 2 3 4 5 6 
#
# 1 95.8081 3.9868 39.8541 -4.5507 10.7442 -17.5657
# 2 3.9868 60.0888 32.9351 -1.6827 3.9320 -31.2035
# 3 39.8541 32.9351 169.6567 1.6601 31.2482 -3.4154
# 4 -4.5507 -1.6827 1.6601 34.3981 -6.1762 2.4312
# 5 10.7442 3.9320 31.2482 -6.1762 56.7709 -1.0470
# 6 -17.5657 -31.2035 -3.4154 2.4312 -1.0470 28.5276
#
#
#
# Elastic Compliance Matrix: (Units=1/GPa)
#
#
# Indices 1 2 3 4 5 6 
#
# 1 0.018605 0.019289 -0.007499 0.001542 0.000020 0.031526
# 2 0.019289 0.068104 -0.016506 0.001147 0.002399 0.084384
# 3 -0.007499 -0.016506 0.011215 -0.001582 -0.004176 -0.021348
# 4 0.001542 0.001147 -0.001582 0.030114 0.003768 -0.000414
# 5 0.000020 0.002399 -0.004176 0.003768 0.020201 0.002557
# 6 0.031526 0.084384 -0.021348 -0.000414 0.002557 0.144338
#
#
# Mechanical properties :
#
#
# Convention : Reuss Voigt Hill
#
# Bulk Modulus (GPa) = 11.30056 53.23396 32.26726
# Shear Modulus (GPa) = 15.08263 40.52449 27.80356
#
# Velocity S-wave (km/s) = 2.46042 4.03301 3.34057
# Velocity P-wave (km/s) = 3.55067 6.56150 5.27544
#
# Compressibility (1/GPa) = 0.08849119
#
# Stress axis : x y z
#
# Youngs Moduli (GPa) = 53.74785 14.68339 89.16466
#
# Poissons Ratio (x) = -0.28323 0.66866
# Poissons Ratio (y) = -1.03673 1.47179
# Poissons Ratio (z) = 0.40306 0.24237
#
# Static dielectric constant tensor:
#      x y z
#    x 2.100210 0.067290 0.097800 
#    y 0.067290 2.035440 0.052070 
#    z 0.097800 0.052070 2.047600 
# 
# From -- ./inp_files/142842.got.cif
#   From: 2010.05.17/outbox.cif.g08.bks.cpg/sg2_72_cif.got.tgz:142842.got - 2010.06.03 11:33:40.
