data_PCOD9096775
_publ_section_title
;
Structure prediction by ZEFSAII (Michael W. Deem and Ramdas Pophale) SiO2 
 PCOD9096775
Probable space group: P -1
;
_chemical_formula_sum "Si O2"
_cell_formula_units_Z 16
_cell_length_a 5.625962
_cell_length_b 22.963462
_cell_length_c 8.067077
_cell_angle_alpha 131.568622
_cell_angle_beta 59.187799
_cell_angle_gamma 95.855846
_cell_volume 622.108057
_symmetry_space_group_name_H-M "P -1"
_symmetry_group_IT_number 2
_symmetry_cell_setting 'triclinic'
loop_
_space_group_symop_operation_xyz
x,y,z
-x,-y,-z
loop_
_atom_site_type_symbol
_atom_site_label
_atom_site_fract_x
_atom_site_fract_y
_atom_site_fract_z
Si Si1 0.300832 0.244991 0.410514
Si Si2 0.377864 0.370679 0.089449
Si Si3 0.293728 0.073948 0.471010
Si Si4 0.151787 0.585232 0.172851
Si Si5 0.237285 0.880176 0.789170
Si Si6 0.821985 0.201683 0.685936
Si Si7 0.897458 0.493155 0.298643
Si Si8 0.369243 0.097327 0.858817
O O1 0.619689 0.201035 0.298347
O O2 0.174073 0.340337 0.579047
O O3 0.070195 0.241780 0.631148
O O4 0.298980 0.182967 0.144552
O O5 0.344414 0.438144 0.374189
O O6 0.058226 0.408545 0.185789
O O7 0.608509 0.372007 0.864037
O O8 0.509202 0.279152 0.950113
O O9 0.515739 0.079580 0.255189
O O10 0.385949 0.104275 0.669487
O O11 0.963752 0.136903 0.660236
O O12 0.356371 0.976902 0.297087
O O13 0.146473 0.534112 0.242867
O O14 0.191795 0.527263 0.887726
O O15 0.180422 0.850425 0.573998
O O16 0.912754 0.932561 0.072669
#
# Coordination Sequence:
#
# PCOD9096775 Si02
#       8
#     2   2   2   2   2   2   2   2
#     4   9  20  37  58  83 113 147 184 227 274 327
#     4  10  20  37  55  81 113 142 179 226 272 321
#     4  10  22  38  56  82 112 145 188 229 270 326
#     4  10  20  37  55  81 113 142 179 226 272 321
#     4  10  20  36  58  81 110 150 182 225 278 318
#     4   9  20  37  58  83 113 147 184 227 274 327
#     4  10  21  34  58  83 106 144 184 219 272 334
#     4  10  22  38  56  82 112 145 188 229 270 326
#
# _framework density 25.719003000000001
#
# number of rings (size 3 to 8) (size 9 to 14) (size 15 to 20)
#    0.000    2.250    0.000    1.875    0.000    8.500 
#    0.000    8.750    0.000    0.000    0.000    0.000 
#    0.000    0.000    0.000    0.000    0.000    0.000 
#
# Total GULP energy -89443.879084 kJ/mol
# GULP energy per Si atom -5590.242443 kJ/mol
# Density = 2.566047 g / cm^3
# Si number density = 25.719003 Si / 1000 Ang^3
#
#
#
# Elastic Constant Matrix: (Units=GPa)
#
#
# Indices 1 2 3 4 5 6 
#
# 1 45.3059 32.3719 15.7985 3.7039 -5.1636 -24.0066
# 2 32.3719 109.5357 61.8525 15.7431 -20.5273 -20.9843
# 3 15.7985 61.8525 110.6741 1.0630 -4.9697 -13.3443
# 4 3.7039 15.7431 1.0630 43.1752 -10.1023 -14.1398
# 5 -5.1636 -20.5273 -4.9697 -10.1023 41.4551 4.8452
# 6 -24.0066 -20.9843 -13.3443 -14.1398 4.8452 42.0475
#
#
#
# Elastic Compliance Matrix: (Units=1/GPa)
#
#
# Indices 1 2 3 4 5 6 
#
# 1 0.038300 -0.009902 0.002388 0.006685 -0.000554 0.019995
# 2 -0.009902 0.018546 -0.008820 -0.004805 0.005896 -0.001492
# 3 0.002388 -0.008820 0.013820 0.003063 -0.001971 0.002605
# 4 0.006685 -0.004805 0.003063 0.029153 0.004561 0.011669
# 5 -0.000554 0.005896 -0.001971 0.004561 0.027810 0.000330
# 6 0.019995 -0.001492 0.002605 0.011669 0.000330 0.039167
#
#
# Mechanical properties :
#
#
# Convention : Reuss Voigt Hill
#
# Bulk Modulus (GPa) = 26.31691 53.95128 40.13409
# Shear Modulus (GPa) = 23.57054 35.70176 29.63615
#
# Velocity S-wave (km/s) = 3.03060 3.72983 3.39825
# Velocity P-wave (km/s) = 4.74349 6.29059 5.57101
#
# Compressibility (1/GPa) = 0.03799838
#
# Stress axis : x y z
#
# Youngs Moduli (GPa) = 26.10999 53.91944 72.35764
#
# Poissons Ratio (x) = 0.53389 -0.17282
# Poissons Ratio (y) = 0.25853 0.63823
# Poissons Ratio (z) = -0.06236 0.47560
#
# Static dielectric constant tensor:
#      x y z
#    x 2.098740 0.074680 -0.080310 
#    y 0.074680 2.098740 0.015640 
#    z -0.080310 0.015640 1.993270 
# 
# From -- ./inp_files/51397.got.cif
#   From: 2010.05.17/outbox.cif.g08.bks.cpg/sg2_26_cif.got.tgz:51397.got - 2010.06.03 11:33:40.
