data_PCOD9096849
_publ_section_title
;
Structure prediction by ZEFSAII (Michael W. Deem and Ramdas Pophale) SiO2 
 PCOD9096849
Probable space group: P -1
;
_chemical_formula_sum "Si O2"
_cell_formula_units_Z 14
_cell_length_a 9.967323
_cell_length_b 11.320825
_cell_length_c 11.990075
_cell_angle_alpha 75.627975
_cell_angle_beta 85.699921
_cell_angle_gamma 27.863936
_cell_volume 580.522130
_symmetry_space_group_name_H-M "P -1"
_symmetry_group_IT_number 2
_symmetry_cell_setting 'triclinic'
loop_
_space_group_symop_operation_xyz
x,y,z
-x,-y,-z
loop_
_atom_site_type_symbol
_atom_site_label
_atom_site_fract_x
_atom_site_fract_y
_atom_site_fract_z
Si Si1 0.131551 0.029545 0.460413
Si Si2 0.173171 0.588488 0.407772
Si Si3 0.964301 0.301445 0.943971
Si Si4 0.135134 0.366964 0.145269
Si Si5 0.177434 0.687159 0.819119
Si Si6 0.745921 0.786550 0.223101
Si Si7 0.843535 0.182201 0.820460
O O1 0.493914 0.734042 0.516633
O O2 0.000000 0.000000 0.500000
O O3 0.988209 0.237488 0.510445
O O4 0.024803 0.148964 0.315861
O O5 0.216480 0.674947 0.309879
O O6 0.958968 0.671568 0.330655
O O7 0.924587 0.318281 0.073460
O O8 0.742075 0.591653 0.847771
O O9 0.927694 0.200991 0.913626
O O10 0.260888 0.116195 0.908474
O O11 0.883504 0.555809 0.211648
O O12 0.406300 0.056407 0.217837
O O13 0.000000 0.500000 0.000000
O O14 0.523671 0.384137 0.830993
O O15 0.106418 0.877928 0.834505
#
# Coordination Sequence:
#
# PCOD9096849 Si02
#       7
#     2   2   2   2   2   2   2
#     4  12  21  32  49  72 104 145 188 217 241 286
#     4  11  20  36  50  73 103 142 182 217 246 294
#     4   9  24  33  54  77 110 136 173 206 269 318
#     4  10  20  36  58  85 105 125 165 219 279 321
#     4  12  23  33  49  75 111 147 177 210 249 298
#     4   9  21  35  57  77 107 128 170 217 264 317
#     4  11  21  33  52  71 109 144 179 211 250 302
#
# _framework density 24.116219999999998
#
# number of rings (size 3 to 8) (size 9 to 14) (size 15 to 20)
#    0.857    0.571    2.857    3.429    6.000    0.000 
#    0.000    0.000    0.000    0.000    0.000    6.000 
#    0.000    0.000    0.000    0.000    0.000    0.000 
#
# Total GULP energy -78193.856255 kJ/mol
# GULP energy per Si atom -5585.275447 kJ/mol
# Density = 2.406133 g / cm^3
# Si number density = 24.116220 Si / 1000 Ang^3
#
#
#
# Elastic Constant Matrix: (Units=GPa)
#
#
# Indices 1 2 3 4 5 6 
#
# 1 49.4650 -0.1187 2.8414 -0.0940 5.5850 -1.6424
# 2 -0.1187 169.9686 18.4948 11.0465 24.3334 -2.8277
# 3 2.8414 18.4948 73.4764 28.9854 0.7350 -0.8049
# 4 -0.0940 11.0465 28.9854 40.7999 -0.0625 10.9857
# 5 5.5850 24.3334 0.7350 -0.0625 36.3783 -1.6405
# 6 -1.6424 -2.8277 -0.8049 10.9857 -1.6405 13.3640
#
#
#
# Elastic Compliance Matrix: (Units=1/GPa)
#
#
# Indices 1 2 3 4 5 6 
#
# 1 0.020739 0.000657 -0.000839 -0.000172 -0.003501 0.002349
# 2 0.000657 0.006792 -0.000946 -0.001819 -0.004520 0.002401
# 3 -0.000839 -0.000946 0.022016 -0.020157 0.001081 0.017726
# 4 -0.000172 -0.001819 -0.020157 0.051070 -0.000229 -0.043630
# 5 -0.003501 -0.004520 0.001081 -0.000229 0.031149 0.002691
# 6 0.002349 0.002401 0.017726 -0.043630 0.002691 0.112888
#
#
# Mechanical properties :
#
#
# Convention : Reuss Voigt Hill
#
# Bulk Modulus (GPa) = 21.14543 37.26055 29.20299
# Shear Modulus (GPa) = 19.03513 36.22127 27.62820
#
# Velocity S-wave (km/s) = 2.81251 3.87970 3.38838
# Velocity P-wave (km/s) = 4.39706 5.96267 5.23868
#
# Compressibility (1/GPa) = 0.04729155
#
# Stress axis : x y z
#
# Youngs Moduli (GPa) = 48.21827 147.23030 45.42245
#
# Poissons Ratio (x) = -0.09677 0.03810
# Poissons Ratio (y) = -0.03169 0.04297
# Poissons Ratio (z) = 0.04044 0.13928
#
# Static dielectric constant tensor:
#      x y z
#    x 2.025970 0.075810 0.044870 
#    y 0.075810 2.034780 0.027890 
#    z 0.044870 0.027890 1.913090 
# 
# From -- ./inp_files/69326.got.cif
#   From: 2010.05.17/outbox.cif.g08.bks.cpg/sg2_35_cif.got.tgz:69326.got - 2010.06.03 11:33:40.
