data_PCOD9096210
_publ_section_title
;
Structure prediction by ZEFSAII (Michael W. Deem and Ramdas Pophale) SiO2 
 PCOD9096210
Probable space group: P -1
;
_chemical_formula_sum "Si O2"
_cell_formula_units_Z 16
_cell_length_a 28.109470
_cell_length_b 24.450948
_cell_length_c 5.217996
_cell_angle_alpha 62.935374
_cell_angle_beta 115.966099
_cell_angle_gamma 167.602840
_cell_volume 685.225985
_symmetry_space_group_name_H-M "P -1"
_symmetry_group_IT_number 2
_symmetry_cell_setting 'triclinic'
loop_
_space_group_symop_operation_xyz
x,y,z
-x,-y,-z
loop_
_atom_site_type_symbol
_atom_site_label
_atom_site_fract_x
_atom_site_fract_y
_atom_site_fract_z
Si Si1 0.028215 0.392017 0.178378
Si Si2 0.165518 0.315758 0.528240
Si Si3 0.183282 0.925065 0.284531
Si Si4 0.229983 0.519363 0.060653
Si Si5 0.872580 0.881811 0.700078
Si Si6 0.691600 0.057780 0.752606
Si Si7 0.590093 0.456995 0.888808
Si Si8 0.551417 0.097252 0.663701
O O1 0.196606 0.546475 0.061449
O O2 0.186494 0.591384 0.357039
O O3 0.853248 0.140049 0.373681
O O4 0.895061 0.294864 0.925132
O O5 0.173413 0.397250 0.358039
O O6 0.334223 0.479883 0.352376
O O7 0.241497 0.382655 0.848186
O O8 0.926472 0.014922 0.551110
O O9 0.243547 0.927380 0.296097
O O10 0.943583 0.678037 0.158770
O O11 0.358820 0.171316 0.063676
O O12 0.478411 0.796380 0.965028
O O13 0.634543 0.580417 0.761650
O O14 0.000000 0.000000 0.500000
O O15 0.000000 0.000000 0.000000
O O16 0.604193 0.017835 0.476282
O O17 0.500000 0.000000 0.500000
O O18 0.500000 0.000000 0.000000
#
# Coordination Sequence:
#
# PCOD9096210 Si02
#       8
#     2   2   2   2   2   2   2   2
#     4  11  27  45  73 104 138 182 229 283 342 412
#     4  10  20  35  63  92 129 184 223 279 345 391
#     4  11  24  40  68 103 132 178 231 284 339 404
#     4  11  23  42  66 102 139 176 235 284 338 402
#     4   8  16  32  54  87 128 172 228 272 330 409
#     4  11  25  47  73  98 143 181 220 289 342 402
#     4  10  20  36  61  95 130 176 228 280 340 398
#     4  12  29  51  75 106 140 179 226 277 338 422
#
# _framework density 23.349962999999999
#
# number of rings (size 3 to 8) (size 9 to 14) (size 15 to 20)
#    0.000    1.500    2.500    1.500   10.500    1.000 
#    0.000    0.625    0.000    0.750    0.000    0.000 
#    0.000    0.000    0.000    0.000    0.000    0.000 
#
# Total GULP energy -89325.481508 kJ/mol
# GULP energy per Si atom -5582.842594 kJ/mol
# Density = 2.329682 g / cm^3
# Si number density = 23.349963 Si / 1000 Ang^3
#
#
#
# Elastic Constant Matrix: (Units=GPa)
#
#
# Indices 1 2 3 4 5 6 
#
# 1 55.3612 35.3044 20.4535 3.0313 2.5482 -5.8330
# 2 35.3044 104.9102 14.6829 -4.1165 11.1257 -8.8434
# 3 20.4535 14.6829 86.7076 -6.6113 8.0736 -4.1020
# 4 3.0313 -4.1165 -6.6113 40.7373 -3.8177 7.4147
# 5 2.5482 11.1257 8.0736 -3.8177 38.3850 -3.8410
# 6 -5.8330 -8.8434 -4.1020 7.4147 -3.8410 31.0670
#
#
#
# Elastic Compliance Matrix: (Units=1/GPa)
#
#
# Indices 1 2 3 4 5 6 
#
# 1 0.025399 -0.007921 -0.004951 -0.003890 0.001563 0.002982
# 2 -0.007921 0.012658 0.000167 0.001359 -0.002897 0.001455
# 3 -0.004951 0.000167 0.013056 0.002291 -0.002236 0.000019
# 4 -0.003890 0.001359 0.002291 0.026610 0.001407 -0.006218
# 5 0.001563 -0.002897 -0.002236 0.001407 0.027624 0.002253
# 6 0.002982 0.001455 0.000019 -0.006218 0.002253 0.034928
#
#
# Mechanical properties :
#
#
# Convention : Reuss Voigt Hill
#
# Bulk Modulus (GPa) = 38.90601 43.09563 41.00082
# Shear Modulus (GPa) = 28.69406 33.80706 31.25056
#
# Velocity S-wave (km/s) = 3.50933 3.80918 3.66232
# Velocity P-wave (km/s) = 5.75489 6.15166 5.95658
#
# Compressibility (1/GPa) = 0.02570297
#
# Stress axis : x y z
#
# Youngs Moduli (GPa) = 39.37119 79.00446 76.59079
#
# Poissons Ratio (x) = 0.62583 0.37921
# Poissons Ratio (y) = 0.31188 -0.01283
# Poissons Ratio (z) = 0.19493 -0.01323
#
# Static dielectric constant tensor:
#      x y z
#    x 1.888510 -0.069580 0.002680 
#    y -0.069580 1.912400 -0.024750 
#    z 0.002680 -0.024750 1.953550 
# 
# From -- ./inp_files/13730.got.cif
#   From: 2010.05.17/outbox.cif.g08.bks.cpg/sg2_7_cif.got.tgz:13730.got - 2010.06.03 11:33:40.
