data_PCOD9096902
_publ_section_title
;
Structure prediction by ZEFSAII (Michael W. Deem and Ramdas Pophale) SiO2 
 PCOD9096902
Probable space group: P -1
;
_chemical_formula_sum "Si O2"
_cell_formula_units_Z 16
_cell_length_a 22.443260
_cell_length_b 8.296687
_cell_length_c 8.339550
_cell_angle_alpha 109.256316
_cell_angle_beta 61.831523
_cell_angle_gamma 145.333650
_cell_volume 773.340951
_symmetry_space_group_name_H-M "P -1"
_symmetry_group_IT_number 2
_symmetry_cell_setting 'triclinic'
loop_
_space_group_symop_operation_xyz
x,y,z
-x,-y,-z
loop_
_atom_site_type_symbol
_atom_site_label
_atom_site_fract_x
_atom_site_fract_y
_atom_site_fract_z
Si Si1 0.088297 0.823905 0.449149
Si Si2 0.661924 0.805114 0.803398
Si Si3 0.318049 0.613264 0.882012
Si Si4 0.470086 0.079937 0.425491
Si Si5 0.706955 0.252078 0.722265
Si Si6 0.574879 0.817176 0.197373
Si Si7 0.902198 0.848339 0.199850
Si Si8 0.060616 0.285533 0.595041
O O1 0.000000 0.500000 0.500000
O O2 0.038545 0.780446 0.325290
O O3 0.217565 0.030971 0.335506
O O4 0.079499 0.952109 0.640709
O O5 0.555466 0.474163 0.782177
O O6 0.655196 0.972739 0.770769
O O7 0.644940 0.813047 0.016187
O O8 0.417202 0.678485 0.744990
O O9 0.211495 0.357802 0.823640
O O10 0.371090 0.900580 0.849377
O O11 0.285501 0.588604 0.097595
O O12 0.429430 0.164638 0.601048
O O13 0.500000 0.000000 0.500000
O O14 0.369771 0.830694 0.350795
O O15 0.830039 0.454666 0.565666
O O16 0.897578 0.678255 0.270852
O O17 0.000000 0.000000 0.000000
O O18 0.000000 0.000000 0.500000
#
# Coordination Sequence:
#
# PCOD9096902 Si02
#       8
#     2   2   2   2   2   2   2   2
#     4  11  22  42  67  96 132 173 216 267 321 390
#     4  10  21  38  62  88 129 168 211 256 330 385
#     4  10  20  37  62  88 126 162 217 265 313 379
#     4  10  20  36  58  87 119 156 209 261 316 372
#     4  11  21  37  61  89 124 169 210 266 327 382
#     4   9  20  37  59  89 123 169 204 262 318 381
#     4  11  24  42  67  95 130 170 218 271 325 380
#     4  10  21  38  62  93 123 168 214 262 324 375
#
# _framework density 20.689450000000001
#
# number of rings (size 3 to 8) (size 9 to 14) (size 15 to 20)
#    0.000    1.750    1.250    4.125    1.750    3.500 
#    0.000    8.125    0.000    0.000    0.000    0.000 
#    0.000    0.000    0.000    0.000    0.000    0.000 
#
# Total GULP energy -89188.680737 kJ/mol
# GULP energy per Si atom -5574.292546 kJ/mol
# Density = 2.064236 g / cm^3
# Si number density = 20.689450 Si / 1000 Ang^3
#
#
#
# Elastic Constant Matrix: (Units=GPa)
#
#
# Indices 1 2 3 4 5 6 
#
# 1 64.7791 18.9927 24.1761 8.1345 -0.9686 23.4958
# 2 18.9927 101.1770 35.4614 0.7713 -5.3982 19.3809
# 3 24.1761 35.4614 141.1552 10.5130 -13.2796 18.3591
# 4 8.1345 0.7713 10.5130 35.3645 14.0966 0.4491
# 5 -0.9686 -5.3982 -13.2796 14.0966 24.7297 0.1840
# 6 23.4958 19.3809 18.3591 0.4491 0.1840 28.5094
#
#
#
# Elastic Compliance Matrix: (Units=1/GPa)
#
#
# Indices 1 2 3 4 5 6 
#
# 1 0.023427 -0.000333 -0.000572 -0.006786 0.004545 -0.018635
# 2 -0.000333 0.011984 -0.001904 -0.000238 0.001765 -0.006653
# 3 -0.000572 -0.001904 0.009377 -0.005701 0.007879 -0.004234
# 4 -0.006786 -0.000238 -0.005701 0.042442 -0.027639 0.008936
# 5 0.004545 0.001765 0.007879 -0.027639 0.061061 -0.009978
# 6 -0.018635 -0.006653 -0.004234 0.008936 -0.009978 0.057607
#
#
# Mechanical properties :
#
#
# Convention : Reuss Voigt Hill
#
# Bulk Modulus (GPa) = 25.53027 51.59684 38.56356
# Shear Modulus (GPa) = 22.26433 32.95279 27.60856
#
# Velocity S-wave (km/s) = 3.28399 3.99524 3.65694
# Velocity P-wave (km/s) = 5.17165 6.80260 6.04241
#
# Compressibility (1/GPa) = 0.03916919
#
# Stress axis : x y z
#
# Youngs Moduli (GPa) = 42.68490 83.44298 106.64029
#
# Poissons Ratio (x) = 0.02782 0.06100
# Poissons Ratio (y) = 0.01423 0.20309
# Poissons Ratio (z) = 0.02442 0.15891
#
# Static dielectric constant tensor:
#      x y z
#    x 1.816540 -0.065280 0.010170 
#    y -0.065280 1.723230 0.009620 
#    z 0.010170 0.009620 1.784140 
# 
# From -- ./inp_files/351828.got.cif
#   From: 2010.05.17/outbox.cif.g08.bks.cpg/sg2_176_cif.got.tgz:351828.got - 2010.06.03 11:33:40.
