data_PCOD9096349
_publ_section_title
;
Structure prediction by ZEFSAII (Michael W. Deem and Ramdas Pophale) SiO2 
 PCOD9096349
Probable space group: P -1
;
_chemical_formula_sum "Si O2"
_cell_formula_units_Z 16
_cell_length_a 12.162461
_cell_length_b 11.001874
_cell_length_c 7.850762
_cell_angle_alpha 40.422935
_cell_angle_beta 58.781444
_cell_angle_gamma 67.838229
_cell_volume 582.254254
_symmetry_space_group_name_H-M "P -1"
_symmetry_group_IT_number 2
_symmetry_cell_setting 'triclinic'
loop_
_space_group_symop_operation_xyz
x,y,z
-x,-y,-z
loop_
_atom_site_type_symbol
_atom_site_label
_atom_site_fract_x
_atom_site_fract_y
_atom_site_fract_z
Si Si1 0.411996 0.778613 0.006947
Si Si2 0.183798 0.186988 0.076014
Si Si3 0.899953 0.789326 0.241163
Si Si4 0.687255 0.162597 0.631636
Si Si5 0.153999 0.647439 0.190505
Si Si6 0.337074 0.232282 0.343623
Si Si7 0.170830 0.502134 0.970586
Si Si8 0.433827 0.352770 0.506818
O O1 0.354576 0.895166 0.082510
O O2 0.296611 0.730350 0.020140
O O3 0.447685 0.577097 0.272660
O O4 0.544600 0.864900 0.737165
O O5 0.109398 0.128218 0.027387
O O6 0.106186 0.330485 0.101536
O O7 0.315194 0.289661 0.790643
O O8 0.235853 0.008435 0.324475
O O9 0.860357 0.563386 0.496063
O O10 0.793929 0.864283 0.376320
O O11 0.043462 0.779308 0.208185
O O12 0.782462 0.342540 0.365735
O O13 0.559651 0.236664 0.568420
O O14 0.119130 0.610293 0.060003
O O15 0.400321 0.316775 0.374464
O O16 0.286914 0.393215 0.087357
#
# Coordination Sequence:
#
# PCOD9096349 Si02
#       8
#     2   2   2   2   2   2   2   2
#     4  12  19  37  64  97 125 162 213 264 315 377
#     4  11  23  40  58  92 134 168 208 260 316 388
#     4   9  20  40  61  93 125 162 219 262 311 384
#     4  12  24  36  62  94 132 171 206 255 329 381
#     4  10  20  38  69  91 121 170 213 263 324 370
#     4  10  20  35  68  90 126 165 210 273 310 367
#     4  11  20  39  63  91 127 166 212 261 320 377
#     4  11  19  38  59  89 130 164 207 261 317 374
#
# _framework density 27.479402
#
# number of rings (size 3 to 8) (size 9 to 14) (size 15 to 20)
#    0.000    1.250    6.250    2.625    0.000    0.500 
#    0.000   13.125    0.000    0.000    0.000    0.875 
#    0.000    0.000    0.000    0.000    0.000    0.000 
#
# Total GULP energy -89594.625370 kJ/mol
# GULP energy per Si atom -5599.664086 kJ/mol
# Density = 2.741686 g / cm^3
# Si number density = 27.479402 Si / 1000 Ang^3
#
#
#
# Elastic Constant Matrix: (Units=GPa)
#
#
# Indices 1 2 3 4 5 6 
#
# 1 114.8623 36.4059 27.6999 8.9122 0.8304 -18.0162
# 2 36.4059 119.0197 36.6906 5.7113 -6.6644 -3.0515
# 3 27.6999 36.6906 64.2625 -7.6951 3.9677 -7.5583
# 4 8.9122 5.7113 -7.6951 45.1373 -2.8348 6.1924
# 5 0.8304 -6.6644 3.9677 -2.8348 32.7006 6.1137
# 6 -18.0162 -3.0515 -7.5583 6.1924 6.1137 44.6850
#
#
#
# Elastic Compliance Matrix: (Units=1/GPa)
#
#
# Indices 1 2 3 4 5 6 
#
# 1 0.011157 -0.002201 -0.003325 -0.003188 -0.001432 0.004423
# 2 -0.002201 0.011129 -0.005951 -0.001605 0.003158 -0.001344
# 3 -0.003325 -0.005951 0.021370 0.004586 -0.003647 0.001731
# 4 -0.003188 -0.001605 0.004586 0.024493 0.002125 -0.004304
# 5 -0.001432 0.003158 -0.003647 0.002125 0.032969 -0.005784
# 6 0.004423 -0.001344 0.001731 -0.004304 -0.005784 0.025751
#
#
# Mechanical properties :
#
#
# Convention : Reuss Voigt Hill
#
# Bulk Modulus (GPa) = 48.30549 55.52639 51.91594
# Shear Modulus (GPa) = 31.90310 37.66111 34.78211
#
# Velocity S-wave (km/s) = 3.41102 3.70607 3.56160
# Velocity P-wave (km/s) = 5.75590 6.20997 5.98724
#
# Compressibility (1/GPa) = 0.02070158
#
# Stress axis : x y z
#
# Youngs Moduli (GPa) = 89.62728 89.85415 46.79460
#
# Poissons Ratio (x) = 0.19781 0.15561
# Poissons Ratio (y) = 0.19731 0.27845
# Poissons Ratio (z) = 0.29805 0.53468
#
# Static dielectric constant tensor:
#      x y z
#    x 2.119690 0.025090 -0.000490 
#    y 0.025090 2.145880 0.040120 
#    z -0.000490 0.040120 2.127670 
# 
# From -- ./inp_files/306144.got.cif
#   From: 2010.05.17/outbox.cif.g08.bks.cpg/sg2_154_cif.got.tgz:306144.got - 2010.06.03 11:33:40.
