data_PCOD9096301
_publ_section_title
;
Structure prediction by ZEFSAII (Michael W. Deem and Ramdas Pophale) SiO2 
 PCOD9096301
Probable space group: P -1
;
_chemical_formula_sum "Si O2"
_cell_formula_units_Z 16
_cell_length_a 11.929766
_cell_length_b 18.449539
_cell_length_c 10.317984
_cell_angle_alpha 27.575859
_cell_angle_beta 53.280077
_cell_angle_gamma 48.499100
_cell_volume 786.990888
_symmetry_space_group_name_H-M "P -1"
_symmetry_group_IT_number 2
_symmetry_cell_setting 'triclinic'
loop_
_space_group_symop_operation_xyz
x,y,z
-x,-y,-z
loop_
_atom_site_type_symbol
_atom_site_label
_atom_site_fract_x
_atom_site_fract_y
_atom_site_fract_z
Si Si1 0.141074 0.567165 0.642741
Si Si2 0.640182 0.099838 0.359388
Si Si3 0.117025 0.934831 0.136527
Si Si4 0.965283 0.910433 0.540741
Si Si5 0.865046 0.490871 0.966030
Si Si6 0.397651 0.972479 0.799172
Si Si7 0.471009 0.470760 0.918054
Si Si8 0.447119 0.387582 0.613472
O O1 0.173907 0.735299 0.385916
O O2 0.266609 0.461896 0.623117
O O3 0.970501 0.590930 0.685672
O O4 0.157942 0.476919 0.914186
O O5 0.641389 0.039003 0.307187
O O6 0.603194 0.297362 0.063039
O O7 0.789095 0.986178 0.509598
O O8 0.496711 0.086548 0.553276
O O9 0.040928 0.963732 0.281366
O O10 0.243147 0.015182 0.912703
O O11 0.000000 0.000000 0.000000
O O12 0.000000 0.000000 0.500000
O O13 0.038685 0.706884 0.814752
O O14 0.696634 0.533791 0.965427
O O15 0.498254 0.794352 0.071686
O O16 0.500000 0.500000 0.000000
O O17 0.484021 0.601216 0.592811
O O18 0.500000 0.500000 0.500000
#
# Coordination Sequence:
#
# PCOD9096301 Si02
#       8
#     2   2   2   2   2   2   2   2
#     4  10  20  35  65  90 113 151 205 253 291 356
#     4  11  23  39  64  97 124 155 209 262 304 352
#     4  11  21  36  59  89 117 154 198 246 301 353
#     4  11  23  41  61  87 126 165 196 244 314 373
#     4  10  21  39  62  91 121 156 202 252 307 356
#     4  11  22  38  66  96 121 154 208 266 302 353
#     4  12  25  42  63  91 127 166 204 249 309 373
#     4  12  19  40  64  91 120 160 208 245 306 364
#
# _framework density 20.330604000000001
#
# number of rings (size 3 to 8) (size 9 to 14) (size 15 to 20)
#    0.000    1.000    5.000    2.250    1.750    2.000 
#    0.000    4.375    0.000    0.000    0.000    0.000 
#    0.000    0.000    0.000    0.000    0.000    0.000 
#
# Total GULP energy -89309.542630 kJ/mol
# GULP energy per Si atom -5581.846414 kJ/mol
# Density = 2.028433 g / cm^3
# Si number density = 20.330604 Si / 1000 Ang^3
#
#
#
# Elastic Constant Matrix: (Units=GPa)
#
#
# Indices 1 2 3 4 5 6 
#
# 1 99.4431 49.7939 24.9439 20.5688 10.1360 -18.5244
# 2 49.7939 67.4826 13.2731 10.6076 5.1854 -13.1823
# 3 24.9439 13.2731 71.2169 9.6773 2.9230 -4.1911
# 4 20.5688 10.6076 9.6773 33.2786 -8.7255 -0.1569
# 5 10.1360 5.1854 2.9230 -8.7255 28.8320 7.9590
# 6 -18.5244 -13.1823 -4.1911 -0.1569 7.9590 38.2539
#
#
#
# Elastic Compliance Matrix: (Units=1/GPa)
#
#
# Indices 1 2 3 4 5 6 
#
# 1 0.021396 -0.010809 -0.002902 -0.011842 -0.011244 0.008609
# 2 -0.010809 0.023824 -0.000210 -0.001301 -0.001773 0.003316
# 3 -0.002902 -0.000210 0.015618 -0.003103 -0.001618 0.000558
# 4 -0.011842 -0.001301 -0.003103 0.044150 0.021032 -0.010718
# 5 -0.011244 -0.001773 -0.001618 0.021032 0.050056 -0.016561
# 6 0.008609 0.003316 0.000558 -0.010718 -0.016561 0.034915
#
#
# Mechanical properties :
#
#
# Convention : Reuss Voigt Hill
#
# Bulk Modulus (GPa) = 30.30664 46.01826 38.16245
# Shear Modulus (GPa) = 21.85314 30.08167 25.96740
#
# Velocity S-wave (km/s) = 3.28211 3.85076 3.57775
# Velocity P-wave (km/s) = 5.41315 6.51577 5.98989
#
# Compressibility (1/GPa) = 0.03299606
#
# Stress axis : x y z
#
# Youngs Moduli (GPa) = 46.73834 41.97378 64.02883
#
# Poissons Ratio (x) = 0.45371 0.18581
# Poissons Ratio (y) = 0.50522 0.01342
# Poissons Ratio (z) = 0.13563 0.00880
#
# Static dielectric constant tensor:
#      x y z
#    x 1.777080 -0.060370 0.058110 
#    y -0.060370 1.747700 -0.032880 
#    z 0.058110 -0.032880 1.931150 
# 
# From -- ./inp_files/278668.got.cif
#   From: 2010.05.17/outbox.cif.g08.bks.cpg/sg2_140_cif.got.tgz:278668.got - 2010.06.03 11:33:40.
