data_PCOD9096661
_publ_section_title
;
Structure prediction by ZEFSAII (Michael W. Deem and Ramdas Pophale) SiO2 
 PCOD9096661
Probable space group: P -1
;
_chemical_formula_sum "Si O2"
_cell_formula_units_Z 16
_cell_length_a 8.347434
_cell_length_b 14.961501
_cell_length_c 14.281152
_cell_angle_alpha 31.897315
_cell_angle_beta 79.287141
_cell_angle_gamma 102.489128
_cell_volume 642.155400
_symmetry_space_group_name_H-M "P -1"
_symmetry_group_IT_number 2
_symmetry_cell_setting 'triclinic'
loop_
_space_group_symop_operation_xyz
x,y,z
-x,-y,-z
loop_
_atom_site_type_symbol
_atom_site_label
_atom_site_fract_x
_atom_site_fract_y
_atom_site_fract_z
Si Si1 0.039638 0.260329 0.175854
Si Si2 0.662607 0.228113 0.208901
Si Si3 0.219713 0.038780 0.342188
Si Si4 0.247262 0.899426 0.912121
Si Si5 0.387254 0.364873 0.475548
Si Si6 0.181021 0.341506 0.708551
Si Si7 0.673714 0.172984 0.744950
Si Si8 0.082903 0.395250 0.385338
O O1 0.180666 0.205325 0.169816
O O2 0.867263 0.246441 0.142976
O O3 0.215081 0.526143 0.968279
O O4 0.875738 0.059725 0.453791
O O5 0.488400 0.175949 0.197095
O O6 0.500000 0.000000 0.500000
O O7 0.053329 0.797497 0.512245
O O8 0.126271 0.624671 0.154141
O O9 0.085567 0.843285 0.066145
O O10 0.300488 0.120719 0.658427
O O11 0.510070 0.049718 0.781266
O O12 0.259478 0.291502 0.656004
O O13 0.659958 0.577852 0.287900
O O14 0.311260 0.460741 0.331903
O O15 0.251811 0.582618 0.458691
O O16 0.906496 0.247975 0.624879
O O17 0.500000 0.000000 0.000000
#
# Coordination Sequence:
#
# PCOD9096661 Si02
#       8
#     2   2   2   2   2   2   2   2
#     4   9  19  39  66  92 120 165 207 244 307 372
#     4   9  18  37  64  95 123 158 207 251 297 375
#     4  10  21  39  60  92 128 161 204 255 307 375
#     4  10  21  38  55  80 116 154 197 251 307 362
#     4  10  20  36  57  83 115 152 202 253 310 363
#     4   9  19  36  59  82 109 153 209 258 299 370
#     4  10  20  36  59  83 113 160 205 255 310 363
#     4  11  24  39  55  91 125 156 205 254 313 368
#
# _framework density 24.916084999999999
#
# number of rings (size 3 to 8) (size 9 to 14) (size 15 to 20)
#    0.000    2.250    0.000    2.250    0.000    6.000 
#   13.500    0.000    0.000    0.000    0.000    0.000 
#    0.000    0.000    0.000    0.000    0.000    0.000 
#
# Total GULP energy -89337.667558 kJ/mol
# GULP energy per Si atom -5583.604222 kJ/mol
# Density = 2.485937 g / cm^3
# Si number density = 24.916085 Si / 1000 Ang^3
#
#
#
# Elastic Constant Matrix: (Units=GPa)
#
#
# Indices 1 2 3 4 5 6 
#
# 1 136.1262 40.9533 22.6716 -13.5382 4.8176 11.7275
# 2 40.9533 63.6263 11.4192 -24.6153 11.1614 -8.2973
# 3 22.6716 11.4192 80.0747 -12.0670 17.0128 -9.6809
# 4 -13.5382 -24.6153 -12.0670 51.2954 -5.6737 6.7086
# 5 4.8176 11.1614 17.0128 -5.6737 36.5996 -6.6937
# 6 11.7275 -8.2973 -9.6809 6.7086 -6.6937 22.4542
#
#
#
# Elastic Compliance Matrix: (Units=1/GPa)
#
#
# Indices 1 2 3 4 5 6 
#
# 1 0.011163 -0.008148 -0.003416 -0.000382 0.000718 -0.009986
# 2 -0.008148 0.026288 0.002208 0.009058 -0.004582 0.010849
# 3 -0.003416 0.002208 0.015557 0.002271 -0.005844 0.006887
# 4 -0.000382 0.009058 0.002271 0.024609 -0.000497 -0.002975
# 5 0.000718 -0.004582 -0.005844 -0.000497 0.032209 0.005162
# 6 -0.009986 0.010849 0.006887 -0.002975 0.005162 0.059157
#
#
# Mechanical properties :
#
#
# Convention : Reuss Voigt Hill
#
# Bulk Modulus (GPa) = 29.15722 47.76837 38.46279
# Shear Modulus (GPa) = 25.10954 35.72203 30.41579
#
# Velocity S-wave (km/s) = 3.17797 3.79052 3.49768
# Velocity P-wave (km/s) = 5.01932 6.19441 5.63757
#
# Compressibility (1/GPa) = 0.03429683
#
# Stress axis : x y z
#
# Youngs Moduli (GPa) = 89.57886 38.04001 64.27974
#
# Poissons Ratio (x) = 0.30996 0.21958
# Poissons Ratio (y) = 0.72991 -0.14196
# Poissons Ratio (z) = 0.30601 -0.08401
#
# Static dielectric constant tensor:
#      x y z
#    x 1.950190 0.015780 0.026780 
#    y 0.015780 2.021570 0.012350 
#    z 0.026780 0.012350 1.939570 
# 
# From -- ./inp_files/137530.got.cif
#   From: 2010.05.17/outbox.cif.g08.bks.cpg/sg2_69_cif.got.tgz:137530.got - 2010.06.03 11:33:40.
