data_PCOD9096803
_publ_section_title
;
Structure prediction by ZEFSAII (Michael W. Deem and Ramdas Pophale) SiO2 
 PCOD9096803
Probable space group: P -1
;
_chemical_formula_sum "Si O2"
_cell_formula_units_Z 15
_cell_length_a 5.467066
_cell_length_b 22.127715
_cell_length_c 5.067582
_cell_angle_alpha 92.108475
_cell_angle_beta 95.997396
_cell_angle_gamma 116.227028
_cell_volume 544.551075
_symmetry_space_group_name_H-M "P -1"
_symmetry_group_IT_number 2
_symmetry_cell_setting 'triclinic'
loop_
_space_group_symop_operation_xyz
x,y,z
-x,-y,-z
loop_
_atom_site_type_symbol
_atom_site_label
_atom_site_fract_x
_atom_site_fract_y
_atom_site_fract_z
Si Si1 0.343744 0.830228 0.110824
Si Si2 0.500000 0.500000 0.000000
Si Si3 0.847674 0.754238 0.448369
Si Si4 0.137567 0.106657 0.524720
Si Si5 0.208159 0.937206 0.992101
Si Si6 0.061644 0.440063 0.397084
Si Si7 0.690689 0.624287 0.180536
Si Si8 0.834725 0.299908 0.137399
O O1 0.092262 0.790818 0.271925
O O2 0.588102 0.887747 0.310815
O O3 0.253655 0.871780 0.903822
O O4 0.413105 0.772702 0.979307
O O5 0.223573 0.465946 0.149078
O O6 0.462985 0.571433 0.959452
O O7 0.766431 0.813390 0.512672
O O8 0.968142 0.726049 0.689768
O O9 0.624535 0.682991 0.290554
O O10 0.020147 0.064444 0.240052
O O11 0.911374 0.077014 0.727672
O O12 0.500000 0.000000 0.000000
O O13 0.277404 0.432260 0.636270
O O14 0.000000 0.500000 0.500000
O O15 0.837346 0.361159 0.318956
O O16 0.989388 0.664282 0.093524
#
# Coordination Sequence:
#
# PCOD9096803 Si02
#       8
#     2   1   2   2   2   2   2   2
#     4  10  22  40  67  95 135 177 229 281 339 420
#     4  10  20  36  58  82 122 170 218 282 346 418
#     4   9  19  40  60  88 132 168 221 289 339 402
#     4  11  24  41  70  99 130 185 232 267 351 418
#     4  11  25  44  67 101 142 177 221 288 342 406
#     4  10  21  38  60  88 126 173 228 282 355 421
#     4   9  19  37  58  84 122 172 212 285 349 405
#     4   9  18  38  64  81 130 173 214 295 349 395
#
# _framework density 27.545627
#
# number of rings (size 3 to 8) (size 9 to 14) (size 15 to 20)
#    0.000    2.133    1.333    0.800    1.867    3.200 
#    9.600    0.000    2.933    0.000    0.000    0.000 
#    0.000    0.000    0.000    0.000    0.000    0.000 
#
# Total GULP energy -83639.476713 kJ/mol
# GULP energy per Si atom -5575.965114 kJ/mol
# Density = 2.748293 g / cm^3
# Si number density = 27.545627 Si / 1000 Ang^3
#
#
#
# Elastic Constant Matrix: (Units=GPa)
#
#
# Indices 1 2 3 4 5 6 
#
# 1 45.4801 31.3758 17.6751 -13.3612 -3.7191 -5.5486
# 2 31.3758 124.1820 23.2107 -7.5355 -7.1814 1.5507
# 3 17.6751 23.2107 95.5246 -7.9788 -13.4078 5.6044
# 4 -13.3612 -7.5355 -7.9788 34.9255 13.5842 5.8987
# 5 -3.7191 -7.1814 -13.4078 13.5842 45.0080 -9.2311
# 6 -5.5486 1.5507 5.6044 5.8987 -9.2311 38.9724
#
#
#
# Elastic Compliance Matrix: (Units=1/GPa)
#
#
# Indices 1 2 3 4 5 6 
#
# 1 0.031242 -0.006742 -0.003785 0.009810 -0.001901 0.003326
# 2 -0.006742 0.009964 -0.001081 -0.000829 0.000778 -0.000891
# 3 -0.003785 -0.001081 0.011922 0.000288 0.002646 -0.001627
# 4 0.009810 -0.000829 0.000288 0.038290 -0.012293 -0.007319
# 5 -0.001901 0.000778 0.002646 -0.012293 0.028300 0.007882
# 6 0.003326 -0.000891 -0.001627 -0.007319 0.007882 0.029377
#
#
# Mechanical properties :
#
#
# Convention : Reuss Voigt Hill
#
# Bulk Modulus (GPa) = 33.43179 45.52332 39.47756
# Shear Modulus (GPa) = 27.42967 36.64287 32.03627
#
# Velocity S-wave (km/s) = 3.15904 3.65123 3.41402
# Velocity P-wave (km/s) = 5.04671 5.85984 5.46841
#
# Compressibility (1/GPa) = 0.02991165
#
# Stress axis : x y z
#
# Youngs Moduli (GPa) = 32.00778 100.35974 83.87514
#
# Poissons Ratio (x) = 0.67666 0.31747
# Poissons Ratio (y) = 0.21581 0.09069
# Poissons Ratio (z) = 0.12115 0.10852
#
# Static dielectric constant tensor:
#      x y z
#    x 2.084810 -0.239530 -0.206170 
#    y -0.239530 2.029780 -0.039600 
#    z -0.206170 -0.039600 2.008420 
# 
# From -- ./inp_files/12228.got.cif
#   From: 2010.05.17/outbox.cif.g08.bks.cpg/sg2_7_cif.got.tgz:12228.got - 2010.06.03 11:33:40.
