data_PCOD9096328
_publ_section_title
;
Structure prediction by ZEFSAII (Michael W. Deem and Ramdas Pophale) SiO2 
 PCOD9096328
Probable space group: P -1
;
_chemical_formula_sum "Si O2"
_cell_formula_units_Z 16
_cell_length_a 9.558100
_cell_length_b 12.131370
_cell_length_c 11.667198
_cell_angle_alpha 116.500288
_cell_angle_beta 127.297540
_cell_angle_gamma 95.877350
_cell_volume 820.524931
_symmetry_space_group_name_H-M "P -1"
_symmetry_group_IT_number 2
_symmetry_cell_setting 'triclinic'
loop_
_space_group_symop_operation_xyz
x,y,z
-x,-y,-z
loop_
_atom_site_type_symbol
_atom_site_label
_atom_site_fract_x
_atom_site_fract_y
_atom_site_fract_z
Si Si1 0.726232 0.350627 0.414550
Si Si2 0.396445 0.096328 0.989249
Si Si3 0.015096 0.797962 0.939561
Si Si4 0.342018 0.517344 0.348826
Si Si5 0.649433 0.277455 0.990183
Si Si6 0.577656 0.703018 0.331260
Si Si7 0.073329 0.055296 0.239642
Si Si8 0.840433 0.565252 0.365904
O O1 0.720102 0.389288 0.560141
O O2 0.785112 0.490217 0.429246
O O3 0.914114 0.326411 0.470587
O O4 0.511351 0.218074 0.201536
O O5 0.465716 0.180468 0.942375
O O6 0.153147 0.010045 0.848491
O O7 0.500000 0.000000 0.000000
O O8 0.852415 0.643042 0.839911
O O9 0.911188 0.833786 0.799284
O O10 0.205323 0.788055 0.982144
O O11 0.082175 0.926836 0.122285
O O12 0.500000 0.500000 0.500000
O O13 0.442142 0.597499 0.318150
O O14 0.561836 0.287015 0.829800
O O15 0.778863 0.434885 0.186642
O O16 0.743564 0.856577 0.539805
O O17 0.709569 0.638569 0.314787
#
# Coordination Sequence:
#
# PCOD9096328 Si02
#       8
#     2   2   2   2   2   2   2   2
#     4  10  20  35  66  96 116 163 220 263 304 364
#     4  11  22  39  67  94 127 167 214 260 316 377
#     4  11  23  43  64  94 130 162 218 266 309 374
#     4  12  21  39  67  95 122 165 217 259 310 374
#     4  11  25  43  63  95 132 168 207 264 322 375
#     4  12  26  41  65  95 133 170 206 261 325 376
#     4  11  24  41  66  96 126 170 215 261 309 377
#     4  10  20  40  63  92 129 160 211 268 314 367
#
# _framework density 19.499711000000001
#
# number of rings (size 3 to 8) (size 9 to 14) (size 15 to 20)
#    0.000    1.000    5.000    1.875    5.250    1.500 
#    0.000    0.000    0.000    0.000    0.000    0.000 
#    0.000    0.000    0.000    0.000    0.000    0.000 
#
# Total GULP energy -89477.375980 kJ/mol
# GULP energy per Si atom -5592.335999 kJ/mol
# Density = 1.945533 g / cm^3
# Si number density = 19.499711 Si / 1000 Ang^3
#
#
#
# Elastic Constant Matrix: (Units=GPa)
#
#
# Indices 1 2 3 4 5 6 
#
# 1 78.8730 20.0216 33.8238 11.1960 -9.5330 1.6762
# 2 20.0216 50.8563 33.9032 -0.3604 -13.3107 9.1391
# 3 33.8238 33.9032 91.0552 3.3860 -8.4001 15.8258
# 4 11.1960 -0.3604 3.3860 28.0330 5.8978 1.6376
# 5 -9.5330 -13.3107 -8.4001 5.8978 26.6447 10.9945
# 6 1.6762 9.1391 15.8258 1.6376 10.9945 34.9583
#
#
#
# Elastic Compliance Matrix: (Units=1/GPa)
#
#
# Indices 1 2 3 4 5 6 
#
# 1 0.016935 -0.002481 -0.004851 -0.007210 0.004491 0.000958
# 2 -0.002481 0.031995 -0.007643 -0.000661 0.017001 -0.010102
# 3 -0.004851 -0.007643 0.016940 -0.000354 0.002416 -0.006182
# 4 -0.007210 -0.000661 -0.000354 0.041225 -0.013365 0.002951
# 5 0.004491 0.017001 0.002416 -0.013365 0.061440 -0.024451
# 6 0.000958 -0.010102 -0.006182 0.002951 -0.024451 0.041551
#
#
# Mechanical properties :
#
#
# Convention : Reuss Voigt Hill
#
# Bulk Modulus (GPa) = 27.83880 44.03132 35.93506
# Shear Modulus (GPa) = 19.84050 26.79627 23.31839
#
# Velocity S-wave (km/s) = 3.19325 3.71103 3.46183
# Velocity P-wave (km/s) = 5.28236 6.40248 5.86920
#
# Compressibility (1/GPa) = 0.03592109
#
# Stress axis : x y z
#
# Youngs Moduli (GPa) = 59.05086 31.25449 59.03023
#
# Poissons Ratio (x) = 0.07754 0.28635
# Poissons Ratio (y) = 0.14650 0.45115
# Poissons Ratio (z) = 0.28645 0.23887
#
# Static dielectric constant tensor:
#      x y z
#    x 1.716440 -0.014590 0.004060 
#    y -0.014590 1.660990 0.025850 
#    z 0.004060 0.025850 1.669260 
# 
# From -- ./inp_files/187767.got.cif
#   From: 2010.05.17/outbox.cif.g08.bks.cpg/sg2_94_cif.got.tgz:187767.got - 2010.06.03 11:33:40.
