data_PCOD9096763
_publ_section_title
;
Structure prediction by ZEFSAII (Michael W. Deem and Ramdas Pophale) SiO2 
 PCOD9096763
Probable space group: P -1
;
_chemical_formula_sum "Si O2"
_cell_formula_units_Z 14
_cell_length_a 11.231264
_cell_length_b 15.242326
_cell_length_c 7.198841
_cell_angle_alpha 116.772115
_cell_angle_beta 93.969987
_cell_angle_gamma 38.606530
_cell_volume 591.520243
_symmetry_space_group_name_H-M "P -1"
_symmetry_group_IT_number 2
_symmetry_cell_setting 'triclinic'
loop_
_space_group_symop_operation_xyz
x,y,z
-x,-y,-z
loop_
_atom_site_type_symbol
_atom_site_label
_atom_site_fract_x
_atom_site_fract_y
_atom_site_fract_z
Si Si1 0.220374 0.662233 0.213741
Si Si2 0.370670 0.243938 0.633791
Si Si3 0.792377 0.828977 0.352751
Si Si4 0.197604 0.147151 0.179752
Si Si5 0.663310 0.739296 0.769846
Si Si6 0.460794 0.665286 0.323540
Si Si7 0.710796 0.494813 0.556959
O O1 0.229309 0.773585 0.351070
O O2 0.320596 0.551805 0.313835
O O3 0.998161 0.753584 0.250352
O O4 0.364213 0.532667 0.929725
O O5 0.215665 0.283466 0.783845
O O6 0.264754 0.329824 0.502110
O O7 0.475891 0.276876 0.717644
O O8 0.581703 0.026219 0.427306
O O9 0.770317 0.857672 0.600749
O O10 0.243010 0.217214 0.140923
O O11 0.937000 0.305011 0.295284
O O12 0.395958 0.935971 0.945882
O O13 0.740956 0.585292 0.726325
O O14 0.513562 0.636947 0.521111
#
# Coordination Sequence:
#
# PCOD9096763 Si02
#       7
#     2   2   2   2   2   2   2
#     4  10  22  38  57  81 111 148 186 227 280 332
#     4   9  19  35  55  82 112 141 183 231 278 332
#     4   9  19  35  55  82 112 141 183 231 278 332
#     4   9  18  32  53  82 113 145 182 229 282 332
#     4   9  18  32  53  82 113 145 182 229 282 332
#     4  10  22  38  57  81 111 148 186 227 280 332
#     4  10  20  36  58  78 111 148 187 232 277 328
#
# _framework density 23.667829999999999
#
# number of rings (size 3 to 8) (size 9 to 14) (size 15 to 20)
#    0.000    2.571    0.000    0.857    4.000    2.286 
#    0.000    0.000    0.000    4.286    0.000    0.000 
#    0.000    0.000    0.000    0.000    0.000    0.000 
#
# Total GULP energy -78013.042027 kJ/mol
# GULP energy per Si atom -5572.360145 kJ/mol
# Density = 2.361396 g / cm^3
# Si number density = 23.667830 Si / 1000 Ang^3
#
#
#
# Elastic Constant Matrix: (Units=GPa)
#
#
# Indices 1 2 3 4 5 6 
#
# 1 -120.2632 26.3638 -39.1909 -82.9673 118.4372 -649.5460
# 2 26.3638 44.2257 12.7223 6.7284 -8.6485 21.0589
# 3 -39.1909 12.7223 49.4828 -11.3642 11.1280 -106.1866
# 4 -82.9673 6.7284 -11.3642 2.2558 39.2962 -206.4931
# 5 118.4372 -8.6485 11.1280 39.2962 -23.8673 272.6169
# 6 -649.5460 21.0589 -106.1866 -206.4931 272.6169-1438.0005
#
#
#
# Elastic Compliance Matrix: (Units=1/GPa)
#
#
# Indices 1 2 3 4 5 6 
#
# 1 0.006107 -0.002024 -0.000332 -0.001700 0.000596 -0.002407
# 2 -0.002024 0.024623 -0.003977 -0.001733 0.002502 0.002292
# 3 -0.000332 -0.003977 0.019259 -0.001801 0.005521 -0.000025
# 4 -0.001700 -0.001733 -0.001801 0.032316 -0.001334 -0.004018
# 5 0.000596 0.002502 0.005521 -0.001334 0.038265 0.006806
# 6 -0.002407 0.002292 -0.000025 -0.004018 0.006806 0.002294
#
#
# Mechanical properties :
#
#
# Convention : Reuss Voigt Hill
#
# Bulk Modulus (GPa) = 26.79177 -2.97383 11.90897
# Shear Modulus (GPa) = 33.79027 -293.68573 -129.94773
#
# Velocity S-wave (km/s) = 3.78257 -11.15150 -7.41782
# Velocity P-wave (km/s) = 5.51558 12.92544 8.26575
#
# Compressibility (1/GPa) = 0.03732490
#
# Stress axis : x y z
#
# Youngs Moduli (GPa) = 163.74822 40.61171 51.92267
#
# Poissons Ratio (x) = 0.08220 0.01722
# Poissons Ratio (y) = 0.33142 0.20649
# Poissons Ratio (z) = 0.05431 0.16150
#
# Static dielectric constant tensor:
#      x y z
#    x 2.096220 -0.085670 -0.000310 
#    y -0.085670 1.915430 0.001480 
#    z -0.000310 0.001480 1.887430 
# 
# From -- ./inp_files/154230.got.cif
#   From: 2010.05.17/outbox.cif.g08.bks.cpg/sg2_78_cif.got.tgz:154230.got - 2010.06.03 11:33:40.
