data_PCOD9096752
_publ_section_title
;
Structure prediction by ZEFSAII (Michael W. Deem and Ramdas Pophale) SiO2 
 PCOD9096752
Probable space group: P -1
;
_chemical_formula_sum "Si O2"
_cell_formula_units_Z 15
_cell_length_a 7.851487
_cell_length_b 11.446963
_cell_length_c 9.312031
_cell_angle_alpha 65.758900
_cell_angle_beta 126.305364
_cell_angle_gamma 125.317951
_cell_volume 547.350898
_symmetry_space_group_name_H-M "P -1"
_symmetry_group_IT_number 2
_symmetry_cell_setting 'triclinic'
loop_
_space_group_symop_operation_xyz
x,y,z
-x,-y,-z
loop_
_atom_site_type_symbol
_atom_site_label
_atom_site_fract_x
_atom_site_fract_y
_atom_site_fract_z
Si Si1 0.441418 0.209185 0.529706
Si Si2 0.331439 0.998547 0.188418
Si Si3 0.908803 0.076421 0.204506
Si Si4 0.935159 0.629091 0.880866
Si Si5 0.771660 0.582654 0.131263
Si Si6 0.054381 0.178212 0.672490
Si Si7 0.500000 0.500000 0.500000
Si Si8 0.276891 0.710512 0.661646
O O1 0.503658 0.081967 0.675641
O O2 0.186062 0.145902 0.355573
O O3 0.490908 0.340625 0.593431
O O4 0.637201 0.287057 0.460500
O O5 0.140984 0.928479 0.256632
O O6 0.488513 0.168775 0.205919
O O7 0.201020 0.966393 0.988241
O O8 0.863481 0.213854 0.150068
O O9 0.833410 0.913322 0.303306
O O10 0.703312 0.568358 0.695990
O O11 0.892019 0.665110 0.005006
O O12 0.000000 0.500000 0.000000
O O13 0.838235 0.453650 0.261666
O O14 0.795991 0.682454 0.227767
O O15 0.500000 0.500000 0.000000
O O16 0.918146 0.232336 0.468694
#
# Coordination Sequence:
#
# PCOD9096752 Si02
#       8
#     2   2   2   2   2   2   1   2
#     4  10  20  36  57  94 125 164 222 260 313 380
#     4  11  19  34  63  92 129 164 215 267 324 376
#     4  11  19  34  63  90 120 162 222 264 306 376
#     4  11  25  44  66  96 129 177 222 263 321 394
#     4  12  25  41  64 102 139 166 212 275 342 383
#     4  11  21  37  62  98 127 173 211 272 324 389
#     4  10  22  36  64  88 124 172 224 264 298 384
#     4  11  22  38  61  98 135 164 203 282 338 377
#
# _framework density 27.404724999999999
#
# number of rings (size 3 to 8) (size 9 to 14) (size 15 to 20)
#    0.000    1.067    4.000    4.800    1.867    0.000 
#    2.400    0.000    0.000    9.600    0.000    0.000 
#    0.000    0.000    0.000    0.000    0.000    0.000 
#
# Total GULP energy -83730.271720 kJ/mol
# GULP energy per Si atom -5582.018115 kJ/mol
# Density = 2.734235 g / cm^3
# Si number density = 27.404725 Si / 1000 Ang^3
#
#
#
# Elastic Constant Matrix: (Units=GPa)
#
#
# Indices 1 2 3 4 5 6 
#
# 1 52.0393 17.8321 8.9201 -0.2657 -2.3271 4.7400
# 2 17.8321 277.3113 66.8686 16.6437 -0.4257 -27.4816
# 3 8.9201 66.8686 143.0955 3.4679 3.9489 -17.1165
# 4 -0.2657 16.6437 3.4679 51.0516 -13.8170 1.7495
# 5 -2.3271 -0.4257 3.9489 -13.8170 28.9122 -8.2102
# 6 4.7400 -27.4816 -17.1165 1.7495 -8.2102 22.8559
#
#
#
# Elastic Compliance Matrix: (Units=1/GPa)
#
#
# Indices 1 2 3 4 5 6 
#
# 1 0.020777 -0.001816 -0.001381 0.001114 0.000228 -0.007529
# 2 -0.001816 0.004685 -0.001424 -0.001353 0.001007 0.005408
# 3 -0.001381 -0.001424 0.008324 -0.000283 -0.000037 0.004816
# 4 0.001114 -0.001353 -0.000283 0.023076 0.011188 0.000183
# 5 0.000228 0.001007 -0.000037 0.011188 0.044601 0.016300
# 6 -0.007529 0.005408 0.004816 0.000183 0.016300 0.061265
#
#
# Mechanical properties :
#
#
# Convention : Reuss Voigt Hill
#
# Bulk Modulus (GPa) = 40.74207 73.29863 57.02035
# Shear Modulus (GPa) = 27.75464 45.81895 36.78680
#
# Velocity S-wave (km/s) = 3.18585 4.09337 3.66779
# Velocity P-wave (km/s) = 5.33216 7.01040 6.22807
#
# Compressibility (1/GPa) = 0.02454465
#
# Stress axis : x y z
#
# Youngs Moduli (GPa) = 48.13066 213.45030 120.13648
#
# Poissons Ratio (x) = 0.38757 0.16585
# Poissons Ratio (y) = 0.08739 0.17109
# Poissons Ratio (z) = 0.06645 0.30399
#
# Static dielectric constant tensor:
#      x y z
#    x 2.144110 -0.149040 0.096240 
#    y -0.149040 2.026320 -0.025980 
#    z 0.096240 -0.025980 1.984350 
# 
# From -- ./inp_files/261917.got.cif
#   From: 2010.05.17/outbox.cif.g08.bks.cpg/sg2_131_cif.got.tgz:261917.got - 2010.06.03 11:33:40.
