data_PCOD9096747
_publ_section_title
;
Structure prediction by ZEFSAII (Michael W. Deem and Ramdas Pophale) SiO2 
 PCOD9096747
Probable space group: P -1
;
_chemical_formula_sum "Si O2"
_cell_formula_units_Z 14
_cell_length_a 13.503137
_cell_length_b 14.872825
_cell_length_c 5.010293
_cell_angle_alpha 70.929074
_cell_angle_beta 91.447991
_cell_angle_gamma 41.918532
_cell_volume 575.075266
_symmetry_space_group_name_H-M "P -1"
_symmetry_group_IT_number 2
_symmetry_cell_setting 'triclinic'
loop_
_space_group_symop_operation_xyz
x,y,z
-x,-y,-z
loop_
_atom_site_type_symbol
_atom_site_label
_atom_site_fract_x
_atom_site_fract_y
_atom_site_fract_z
Si Si1 0.242474 0.102913 0.823056
Si Si2 0.116077 0.919062 0.327393
Si Si3 0.732400 0.334142 0.117595
Si Si4 0.519434 0.323866 0.017038
Si Si5 0.461118 0.244282 0.585297
Si Si6 0.877407 0.602884 0.639300
Si Si7 0.091292 0.136090 0.257171
O O1 0.220295 0.221980 0.567491
O O2 0.156667 0.100776 0.595385
O O3 0.136253 0.184480 0.009181
O O4 0.419940 0.928282 0.104886
O O5 0.232671 0.740247 0.518803
O O6 0.180216 0.976108 0.288141
O O7 0.000000 0.000000 0.500000
O O8 0.000000 0.000000 0.000000
O O9 0.670734 0.282578 0.025570
O O10 0.899108 0.258048 0.114451
O O11 0.601368 0.514329 0.986341
O O12 0.519895 0.233124 0.305776
O O13 0.468677 0.323430 0.726789
O O14 0.272667 0.356563 0.424735
O O15 0.000000 0.500000 0.500000
O O16 0.000000 0.500000 0.000000
#
# Coordination Sequence:
#
# PCOD9096747 Si02
#       7
#     2   2   2   2   2   2   2
#     4  12  26  47  76 110 142 192 238 299 372 431
#     4  10  20  36  57  91 132 182 228 284 333 391
#     4  10  24  43  65 106 149 195 246 294 346 421
#     4  11  27  43  72 101 150 200 240 291 365 421
#     4  12  27  51  74 105 150 189 243 299 368 436
#     4  12  29  51  79 112 140 183 240 310 374 441
#     4  11  24  40  74 105 148 189 249 293 351 428
#
# _framework density 24.344640999999999
#
# number of rings (size 3 to 8) (size 9 to 14) (size 15 to 20)
#    0.000    0.857    0.000    6.429    6.000    9.143 
#    0.000    4.286    0.000    0.000    0.000    0.000 
#    0.000    0.000    0.000    0.000    0.000    0.000 
#
# Total GULP energy -78137.003586 kJ/mol
# GULP energy per Si atom -5581.214542 kJ/mol
# Density = 2.428923 g / cm^3
# Si number density = 24.344641 Si / 1000 Ang^3
#
#
#
# Elastic Constant Matrix: (Units=GPa)
#
#
# Indices 1 2 3 4 5 6 
#
# 1 122.2606 41.2923 57.3077 1.6928 37.1314 -19.9070
# 2 41.2923 60.1147 37.7700 5.2747 14.1198 -14.4362
# 3 57.3077 37.7700 167.7922 20.3439 13.8259 -5.2100
# 4 1.6928 5.2747 20.3439 56.2914 3.8514 -2.0853
# 5 37.1314 14.1198 13.8259 3.8514 46.2863 -10.6451
# 6 -19.9070 -14.4362 -5.2100 -2.0853 -10.6451 40.6099
#
#
#
# Elastic Compliance Matrix: (Units=1/GPa)
#
#
# Indices 1 2 3 4 5 6 
#
# 1 0.014532 -0.005519 -0.003164 0.001908 -0.008590 0.002602
# 2 -0.005519 0.023890 -0.003195 -0.000681 -0.000660 0.005169
# 3 -0.003164 -0.003195 0.007945 -0.002602 0.001002 -0.001538
# 4 0.001908 -0.000681 -0.002602 0.018874 -0.001926 0.000823
# 5 -0.008590 -0.000660 0.001002 -0.001926 0.029309 0.003267
# 6 0.002602 0.005169 -0.001538 0.000823 0.003267 0.028439
#
#
# Mechanical properties :
#
#
# Convention : Reuss Voigt Hill
#
# Bulk Modulus (GPa) = 44.22728 69.21194 56.71961
# Shear Modulus (GPa) = 32.40837 42.89067 37.64952
#
# Velocity S-wave (km/s) = 3.65256 4.20195 3.93685
# Velocity P-wave (km/s) = 5.99957 7.21343 6.63432
#
# Compressibility (1/GPa) = 0.02261048
#
# Stress axis : x y z
#
# Youngs Moduli (GPa) = 68.81241 41.85924 125.87131
#
# Poissons Ratio (x) = 0.23104 0.39821
# Poissons Ratio (y) = 0.37980 0.40216
# Poissons Ratio (z) = 0.21770 0.13374
#
# Static dielectric constant tensor:
#      x y z
#    x 2.020250 0.022820 -0.024430 
#    y 0.022820 1.979990 -0.088560 
#    z -0.024430 -0.088560 2.017060 
# 
# From -- ./inp_files/77142.got.cif
#   From: 2010.05.17/outbox.cif.g08.bks.cpg/sg2_39_cif.got.tgz:77142.got - 2010.06.03 11:33:40.
