data_PCOD9096285
_publ_section_title
;
Structure prediction by ZEFSAII (Michael W. Deem and Ramdas Pophale) SiO2 
 PCOD9096285
Probable space group: P -1
;
_chemical_formula_sum "Si O2"
_cell_formula_units_Z 16
_cell_length_a 9.995108
_cell_length_b 8.423683
_cell_length_c 15.037574
_cell_angle_alpha 46.356690
_cell_angle_beta 109.398812
_cell_angle_gamma 78.493746
_cell_volume 672.474532
_symmetry_space_group_name_H-M "P -1"
_symmetry_group_IT_number 2
_symmetry_cell_setting 'triclinic'
loop_
_space_group_symop_operation_xyz
x,y,z
-x,-y,-z
loop_
_atom_site_type_symbol
_atom_site_label
_atom_site_fract_x
_atom_site_fract_y
_atom_site_fract_z
Si Si1 0.863793 0.422331 0.777831
Si Si2 0.937562 0.441542 0.118875
Si Si3 0.653689 0.177364 0.126011
Si Si4 0.609981 0.079236 0.422232
Si Si5 0.419259 0.999880 0.182669
Si Si6 0.333609 0.983473 0.345509
Si Si7 0.752985 0.101661 0.974048
Si Si8 0.844866 0.160672 0.329416
O O1 0.754254 0.731954 0.590301
O O2 0.969023 0.423292 0.884823
O O3 0.756994 0.319761 0.832658
O O4 0.035667 0.170365 0.857389
O O5 0.865246 0.388739 0.211461
O O6 0.113932 0.158577 0.223218
O O7 0.749364 0.686107 0.937325
O O8 0.585569 0.999647 0.202798
O O9 0.672565 0.189126 0.020679
O O10 0.834679 0.052853 0.271976
O O11 0.500000 0.500000 0.000000
O O12 0.618363 0.168852 0.489168
O O13 0.425569 0.134901 0.331653
O O14 0.676773 0.204670 0.323859
O O15 0.433331 0.822998 0.337985
O O16 0.354243 0.959889 0.091282
O O17 0.000000 0.000000 0.500000
#
# Coordination Sequence:
#
# PCOD9096285 Si02
#       8
#     2   2   2   2   2   2   2   2
#     4   9  20  42  65  88 130 178 223 270 331 393
#     4  10  21  36  66  97 134 170 228 271 331 385
#     4  12  26  41  72 100 133 172 230 281 332 392
#     4  10  21  37  64  93 137 170 223 271 330 393
#     4  11  22  42  65  98 136 174 224 276 335 394
#     4  10  20  35  64  97 130 171 215 284 319 382
#     4  10  24  43  66  94 135 175 220 280 334 393
#     4  12  22  41  62 100 136 172 214 280 335 394
#
# _framework density 23.792724
#
# number of rings (size 3 to 8) (size 9 to 14) (size 15 to 20)
#    0.000    1.500    5.000    0.750    3.500    3.000 
#    0.000    1.250    2.750    0.000    0.000    0.000 
#    0.000    0.000    0.000    0.000    0.000    0.000 
#
# Total GULP energy -89106.774252 kJ/mol
# GULP energy per Si atom -5569.173391 kJ/mol
# Density = 2.373857 g / cm^3
# Si number density = 23.792724 Si / 1000 Ang^3
#
#
#
# Elastic Constant Matrix: (Units=GPa)
#
#
# Indices 1 2 3 4 5 6 
#
# 1 121.5334 36.9547 33.2628 9.6036 -13.5881 1.9751
# 2 36.9547 96.8843 52.5524 34.1159 -7.6753 -13.4361
# 3 33.2628 52.5524 108.1454 15.1716 1.6452 -4.1952
# 4 9.6036 34.1159 15.1716 46.5868 -3.7020 -0.6333
# 5 -13.5881 -7.6753 1.6452 -3.7020 45.3773 14.0212
# 6 1.9751 -13.4361 -4.1952 -0.6333 14.0212 41.7304
#
#
#
# Elastic Compliance Matrix: (Units=1/GPa)
#
#
# Indices 1 2 3 4 5 6 
#
# 1 0.010108 -0.003476 -0.001767 0.001276 0.003515 -0.002937
# 2 -0.003476 0.020417 -0.006952 -0.011901 -0.000130 0.005903
# 3 -0.001767 -0.006952 0.013048 0.001041 -0.002050 -0.000138
# 4 0.001276 -0.011901 0.001041 0.029682 0.001991 -0.004006
# 5 0.003515 -0.000130 -0.002050 0.001991 0.026137 -0.009166
# 6 -0.002937 0.005903 -0.000138 -0.004006 -0.009166 0.029008
#
#
# Mechanical properties :
#
#
# Convention : Reuss Voigt Hill
#
# Bulk Modulus (GPa) = 52.12259 63.56699 57.84479
# Shear Modulus (GPa) = 31.41006 40.32511 35.86759
#
# Velocity S-wave (km/s) = 3.63733 4.12132 3.88687
# Velocity P-wave (km/s) = 6.29244 7.03008 6.67146
#
# Compressibility (1/GPa) = 0.01918554
#
# Stress axis : x y z
#
# Youngs Moduli (GPa) = 98.92813 48.97788 76.63880
#
# Poissons Ratio (x) = 0.17023 0.13539
# Poissons Ratio (y) = 0.34384 0.53280
# Poissons Ratio (z) = 0.17476 0.34050
#
# Static dielectric constant tensor:
#      x y z
#    x 1.926880 -0.054240 0.002420 
#    y -0.054240 1.984420 -0.019030 
#    z 0.002420 -0.019030 2.089290 
# 
# From -- ./inp_files/492077.got.cif
#   From: 2010.05.17/outbox.cif.g08.bks.cpg/sg2_247_cif.got.tgz:492077.got - 2010.06.03 11:33:40.
