data_PCOD9096791
_publ_section_title
;
Structure prediction by ZEFSAII (Michael W. Deem and Ramdas Pophale) SiO2 
 PCOD9096791
Probable space group: P -1
;
_chemical_formula_sum "Si O2"
_cell_formula_units_Z 16
_cell_length_a 14.812332
_cell_length_b 20.562622
_cell_length_c 8.832683
_cell_angle_alpha 71.418663
_cell_angle_beta 74.982551
_cell_angle_gamma 16.402822
_cell_volume 709.116388
_symmetry_space_group_name_H-M "P -1"
_symmetry_group_IT_number 2
_symmetry_cell_setting 'triclinic'
loop_
_space_group_symop_operation_xyz
x,y,z
-x,-y,-z
loop_
_atom_site_type_symbol
_atom_site_label
_atom_site_fract_x
_atom_site_fract_y
_atom_site_fract_z
Si Si1 0.234294 0.090432 0.814561
Si Si2 0.105061 0.043377 0.807289
Si Si3 0.543898 0.391081 0.006325
Si Si4 0.301896 0.179388 0.583849
Si Si5 0.424115 0.357337 0.877409
Si Si6 0.987392 0.003545 0.324640
Si Si7 0.030409 0.433465 0.238113
Si Si8 0.500632 0.920521 0.118366
O O1 0.610031 0.818536 0.801554
O O2 0.045766 0.165252 0.751312
O O3 0.122482 0.245064 0.705812
O O4 0.240870 0.069519 0.005721
O O5 0.847822 0.184533 0.915762
O O6 0.063202 0.040440 0.664842
O O7 0.429894 0.794699 0.941296
O O8 0.327484 0.493205 0.915896
O O9 0.500000 0.500000 0.000000
O O10 0.673347 0.259860 0.194159
O O11 0.525085 0.057954 0.704818
O O12 0.075418 0.387830 0.431291
O O13 0.500000 0.000000 0.500000
O O14 0.154669 0.501139 0.804431
O O15 0.695671 0.187240 0.758170
O O16 0.000000 0.000000 0.500000
O O17 0.826630 0.646600 0.151065
O O18 0.500000 0.000000 0.000000
#
# Coordination Sequence:
#
# PCOD9096791 Si02
#       8
#     2   2   2   2   2   2   2   2
#     4  10  20  38  58  85 115 156 197 234 284 344
#     4   9  18  38  61  79 116 153 187 239 281 344
#     4   9  19  40  60  84 112 148 195 236 286 341
#     4   9  21  39  51  78 124 157 188 235 287 340
#     4   9  19  37  61  81 113 157 186 232 291 345
#     4   9  19  40  59  82 112 148 194 234 288 343
#     4  11  20  38  59  84 123 151 192 236 296 347
#     4  10  20  36  58  82 112 154 199 235 275 348
#
# _framework density 22.563292000000001
#
# number of rings (size 3 to 8) (size 9 to 14) (size 15 to 20)
#    0.000    2.500    1.250    2.250    0.000    0.000 
#   20.250    1.250    0.000    0.000    0.000    0.000 
#    0.000    0.000    0.000    0.000    0.000    0.000 
#
# Total GULP energy -89122.972997 kJ/mol
# GULP energy per Si atom -5570.185812 kJ/mol
# Density = 2.251194 g / cm^3
# Si number density = 22.563292 Si / 1000 Ang^3
#
#
#
# Elastic Constant Matrix: (Units=GPa)
#
#
# Indices 1 2 3 4 5 6 
#
# 1 121.7084 22.3107 49.6860 4.0913 23.3402 15.1133
# 2 22.3107 65.7350 18.5368 10.4275 1.0025 9.6153
# 3 49.6860 18.5368 167.1100 21.4430 25.3958 13.4384
# 4 4.0913 10.4275 21.4430 17.9214 16.1415 -1.2860
# 5 23.3402 1.0025 25.3958 16.1415 43.8279 0.4663
# 6 15.1133 9.6153 13.4384 -1.2860 0.4663 31.3743
#
#
#
# Elastic Compliance Matrix: (Units=1/GPa)
#
#
# Indices 1 2 3 4 5 6 
#
# 1 0.011773 -0.004382 -0.002912 0.010742 -0.008411 -0.002515
# 2 -0.004382 0.020340 0.000702 -0.020095 0.008920 -0.005380
# 3 -0.002912 0.000702 0.008229 -0.010329 0.000600 -0.002769
# 4 0.010742 -0.020095 -0.010329 0.116154 -0.042169 0.010796
# 5 -0.008411 0.008920 0.000600 -0.042169 0.042289 -0.001296
# 6 -0.002515 -0.005380 -0.002769 0.010796 -0.001296 0.036382
#
#
# Mechanical properties :
#
#
# Convention : Reuss Voigt Hill
#
# Bulk Modulus (GPa) = 36.82156 59.51335 48.16745
# Shear Modulus (GPa) = 19.42477 36.22603 27.82540
#
# Velocity S-wave (km/s) = 2.93730 4.01125 3.51553
# Velocity P-wave (km/s) = 5.27809 6.92004 6.15407
#
# Compressibility (1/GPa) = 0.02715801
#
# Stress axis : x y z
#
# Youngs Moduli (GPa) = 84.94131 49.16302 121.52282
#
# Poissons Ratio (x) = 0.21545 0.35388
# Poissons Ratio (y) = 0.37224 -0.08535
# Poissons Ratio (z) = 0.24735 -0.03453
#
# Static dielectric constant tensor:
#      x y z
#    x 1.890140 0.025520 0.013760 
#    y 0.025520 1.912330 0.004930 
#    z 0.013760 0.004930 1.852300 
# 
# From -- ./inp_files/319346.got.cif
#   From: 2010.05.17/outbox.cif.g08.bks.cpg/sg2_160_cif.got.tgz:319346.got - 2010.06.03 11:33:40.
