data_PCOD9096805
_publ_section_title
;
Structure prediction by ZEFSAII (Michael W. Deem and Ramdas Pophale) SiO2 
 PCOD9096805
Probable space group: P -1
;
_chemical_formula_sum "Si O2"
_cell_formula_units_Z 16
_cell_length_a 13.581480
_cell_length_b 14.675124
_cell_length_c 14.226325
_cell_angle_alpha 148.336943
_cell_angle_beta 146.780802
_cell_angle_gamma 30.146463
_cell_volume 690.976256
_symmetry_space_group_name_H-M "P -1"
_symmetry_group_IT_number 2
_symmetry_cell_setting 'triclinic'
loop_
_space_group_symop_operation_xyz
x,y,z
-x,-y,-z
loop_
_atom_site_type_symbol
_atom_site_label
_atom_site_fract_x
_atom_site_fract_y
_atom_site_fract_z
Si Si1 0.059683 0.611359 0.278054
Si Si2 0.738986 0.801892 0.020508
Si Si3 0.043404 0.972936 0.693564
Si Si4 0.158043 0.566457 0.721742
Si Si5 0.361849 0.938408 0.457921
Si Si6 0.638349 0.292532 0.119525
Si Si7 0.745001 0.959374 0.755108
Si Si8 0.767566 0.616229 0.181377
O O1 0.086436 0.796598 0.496432
O O2 0.853014 0.727023 0.147026
O O3 0.998980 0.519917 0.237997
O O4 0.237532 0.404061 0.186010
O O5 0.879763 0.878306 0.148391
O O6 0.500000 0.000000 0.000000
O O7 0.195591 0.833299 0.777591
O O8 0.797911 0.105109 0.650522
O O9 0.319174 0.545465 0.752657
O O10 0.254851 0.470920 0.814910
O O11 0.000000 0.500000 0.500000
O O12 0.993289 0.803460 0.819329
O O13 0.310646 0.958928 0.324139
O O14 0.281323 0.161706 0.633523
O O15 0.613711 0.851096 0.582365
O O16 0.391464 0.387299 0.023868
O O17 0.677412 0.133768 0.929353
#
# Coordination Sequence:
#
# PCOD9096805 Si02
#       8
#     2   2   2   2   2   2   2   2
#     4  10  24  48  69  99 135 163 215 281 325 403
#     4  11  25  46  77 101 125 169 214 270 349 402
#     4  11  22  43  69  97 133 171 215 270 328 390
#     4  12  21  36  55  88 127 171 211 265 315 368
#     4   9  19  38  59  87 123 172 217 262 311 373
#     4  11  23  37  58  90 128 172 218 256 310 387
#     4  10  20  36  58  82 127 171 213 258 301 362
#     4  10  21  39  60  87 129 165 211 269 322 375
#
# _framework density 23.155643999999999
#
# number of rings (size 3 to 8) (size 9 to 14) (size 15 to 20)
#    0.000    1.500    2.500    2.625    1.750    0.500 
#    2.250    1.250    2.750    0.000    0.000    0.000 
#    0.000    0.000    0.000    0.000    0.000    0.000 
#
# Total GULP energy -89246.008249 kJ/mol
# GULP energy per Si atom -5577.875516 kJ/mol
# Density = 2.310294 g / cm^3
# Si number density = 23.155644 Si / 1000 Ang^3
#
#
#
# Elastic Constant Matrix: (Units=GPa)
#
#
# Indices 1 2 3 4 5 6 
#
# 1 74.0391 6.8486 25.1781 1.2052 16.2009 9.7833
# 2 6.8486 59.4503 14.4423 -0.2620 -1.3371 -5.8959
# 3 25.1781 14.4423 89.2322 12.3680 3.9990 -11.5804
# 4 1.2052 -0.2620 12.3680 35.8586 -0.1061 -2.4107
# 5 16.2009 -1.3371 3.9990 -0.1061 33.9577 11.5961
# 6 9.7833 -5.8959 -11.5804 -2.4107 11.5961 30.4995
#
#
#
# Elastic Compliance Matrix: (Units=1/GPa)
#
#
# Indices 1 2 3 4 5 6 
#
# 1 0.017430 -0.001409 -0.005266 0.000828 -0.005844 -0.005575
# 2 -0.001409 0.017849 -0.002312 0.001170 0.000674 0.002861
# 3 -0.005266 -0.002312 0.014686 -0.004431 -0.001759 0.007137
# 4 0.000828 0.001170 -0.004431 0.029435 0.000067 0.000579
# 5 -0.005844 0.000674 -0.001759 0.000067 0.036789 -0.012645
# 6 -0.005575 0.002861 0.007137 0.000579 -0.012645 0.042692
#
#
# Mechanical properties :
#
#
# Convention : Reuss Voigt Hill
#
# Bulk Modulus (GPa) = 31.26091 35.07328 33.16709
# Shear Modulus (GPa) = 26.66387 31.81335 29.23861
#
# Velocity S-wave (km/s) = 3.39707 3.71063 3.55730
# Velocity P-wave (km/s) = 5.37740 5.79120 5.58813
#
# Compressibility (1/GPa) = 0.03198883
#
# Stress axis : x y z
#
# Youngs Moduli (GPa) = 57.37334 56.02604 68.09136
#
# Poissons Ratio (x) = 0.07895 0.35860
# Poissons Ratio (y) = 0.08085 0.15745
# Poissons Ratio (z) = 0.30215 0.12955
#
# Static dielectric constant tensor:
#      x y z
#    x 1.921140 0.018180 0.071300 
#    y 0.018180 1.850190 0.015240 
#    z 0.071300 0.015240 1.898000 
# 
# From -- ./inp_files/534636.got.cif
#   From: 2010.05.17/outbox.cif.g08.bks.cpg/sg2_268_cif.got.tgz:534636.got - 2010.06.03 11:33:40.
