data_PCOD9096915
_publ_section_title
;
Structure prediction by ZEFSAII (Michael W. Deem and Ramdas Pophale) SiO2 
 PCOD9096915
Probable space group: P -1
;
_chemical_formula_sum "Si O2"
_cell_formula_units_Z 16
_cell_length_a 8.695684
_cell_length_b 20.096811
_cell_length_c 16.804382
_cell_angle_alpha 20.606450
_cell_angle_beta 121.684538
_cell_angle_gamma 109.791328
_cell_volume 755.998570
_symmetry_space_group_name_H-M "P -1"
_symmetry_group_IT_number 2
_symmetry_cell_setting 'triclinic'
loop_
_space_group_symop_operation_xyz
x,y,z
-x,-y,-z
loop_
_atom_site_type_symbol
_atom_site_label
_atom_site_fract_x
_atom_site_fract_y
_atom_site_fract_z
Si Si1 0.187143 0.783883 0.600835
Si Si2 0.056439 0.130718 0.047242
Si Si3 0.392483 0.740050 0.244679
Si Si4 0.351976 0.153552 0.678869
Si Si5 0.148285 0.885127 0.744539
Si Si6 0.611650 0.730114 0.776128
Si Si7 0.012854 0.606383 0.108315
Si Si8 0.508689 0.008666 0.275495
O O1 0.384223 0.799396 0.670907
O O2 0.150775 0.891595 0.382881
O O3 0.269224 0.529919 0.916996
O O4 0.975346 0.936703 0.419240
O O5 0.255993 0.130882 0.064187
O O6 0.847454 0.186992 0.880191
O O7 0.971589 0.309371 0.895580
O O8 0.500000 0.500000 0.500000
O O9 0.511657 0.766997 0.322468
O O10 0.388769 0.920352 0.980780
O O11 0.116154 0.346837 0.419061
O O12 0.403260 0.130565 0.625501
O O13 0.380880 0.845914 0.847560
O O14 0.134036 0.675813 0.001068
O O15 0.000000 0.000000 0.500000
O O16 0.582117 0.858690 0.542523
O O17 0.768613 0.740975 0.868486
#
# Coordination Sequence:
#
# PCOD9096915 Si02
#       8
#     2   2   2   2   2   2   2   2
#     4   9  21  36  56  85 126 173 207 254 303 387
#     4  10  22  41  65  90 129 166 215 264 315 376
#     4  11  23  48  74  93 119 165 216 270 329 394
#     4  11  25  42  73  97 122 164 218 267 325 382
#     4  11  22  34  55  89 132 174 208 253 304 366
#     4  10  20  36  58  87 131 167 214 248 309 376
#     4  11  21  38  64  91 125 178 209 252 308 392
#     4  11  24  39  59  98 134 165 210 267 315 373
#
# _framework density 21.164059999999999
#
# number of rings (size 3 to 8) (size 9 to 14) (size 15 to 20)
#    0.000    1.500    2.500    3.000    3.500    3.000 
#    0.000    1.875    0.000    0.000    0.000    0.000 
#    0.000    0.000    0.000    0.000    0.000    0.000 
#
# Total GULP energy -89315.853644 kJ/mol
# GULP energy per Si atom -5582.240853 kJ/mol
# Density = 2.111589 g / cm^3
# Si number density = 21.164060 Si / 1000 Ang^3
#
#
#
# Elastic Constant Matrix: (Units=GPa)
#
#
# Indices 1 2 3 4 5 6 
#
# 1 80.0126 21.7663 2.6052 9.4824 11.5995 33.9423
# 2 21.7663 90.2271 14.7757 9.8432 5.3693 23.3881
# 3 2.6052 14.7757 74.5213 -18.1566 7.0106 14.3459
# 4 9.4824 9.8432 -18.1566 40.1283 17.2065 8.7757
# 5 11.5995 5.3693 7.0106 17.2065 24.5257 9.9272
# 6 33.9423 23.3881 14.3459 8.7757 9.9272 45.6056
#
#
#
# Elastic Compliance Matrix: (Units=1/GPa)
#
#
# Indices 1 2 3 4 5 6 
#
# 1 0.019280 -0.001647 0.003798 0.003455 -0.006633 -0.013920
# 2 -0.001647 0.013562 -0.003502 -0.005445 0.004474 -0.004554
# 3 0.003798 -0.003502 0.021717 0.018935 -0.017397 -0.007719
# 4 0.003455 -0.005445 0.018935 0.052693 -0.039913 -0.007187
# 5 -0.006633 0.004474 -0.017397 -0.039913 0.076229 -0.000798
# 6 -0.013920 -0.004554 -0.007719 -0.007187 -0.000798 0.038607
#
#
# Mechanical properties :
#
#
# Convention : Reuss Voigt Hill
#
# Bulk Modulus (GPa) = 19.28410 35.89505 27.58957
# Shear Modulus (GPa) = 20.65474 35.75950 28.20712
#
# Velocity S-wave (km/s) = 3.12738 4.11497 3.65469
# Velocity P-wave (km/s) = 4.70874 6.29083 5.55638
#
# Compressibility (1/GPa) = 0.05185620
#
# Stress axis : x y z
#
# Youngs Moduli (GPa) = 51.86828 73.73458 46.04763
#
# Poissons Ratio (x) = 0.12143 -0.17489
# Poissons Ratio (y) = 0.08542 0.16127
# Poissons Ratio (z) = -0.19700 0.25824
#
# Static dielectric constant tensor:
#      x y z
#    x 1.778110 0.051790 -0.003000 
#    y 0.051790 1.811610 0.003750 
#    z -0.003000 0.003750 1.761380 
# 
# From -- ./inp_files/562568.got.cif
#   From: 2010.05.17/outbox.cif.g08.bks.cpg/sg2_282_cif.got.tgz:562568.got - 2010.06.03 11:33:40.
