data_PCOD9096797
_publ_section_title
;
Structure prediction by ZEFSAII (Michael W. Deem and Ramdas Pophale) SiO2 
 PCOD9096797
Probable space group: P -1
;
_chemical_formula_sum "Si O2"
_cell_formula_units_Z 13
_cell_length_a 16.987969
_cell_length_b 11.434726
_cell_length_c 9.630944
_cell_angle_alpha 143.133688
_cell_angle_beta 149.711779
_cell_angle_gamma 39.441867
_cell_volume 545.199003
_symmetry_space_group_name_H-M "P -1"
_symmetry_group_IT_number 2
_symmetry_cell_setting 'triclinic'
loop_
_space_group_symop_operation_xyz
x,y,z
-x,-y,-z
loop_
_atom_site_type_symbol
_atom_site_label
_atom_site_fract_x
_atom_site_fract_y
_atom_site_fract_z
Si Si1 0.000000 0.500000 0.500000
Si Si2 0.299899 0.482231 0.757605
Si Si3 0.431015 0.926037 0.612108
Si Si4 0.901988 0.933337 0.605710
Si Si5 0.229205 0.967860 0.088305
Si Si6 0.622659 0.501801 0.400857
Si Si7 0.266476 0.934573 0.790498
O O1 0.827119 0.572725 0.388247
O O2 0.952722 0.710635 0.534381
O O3 0.261680 0.725358 0.920618
O O4 0.296845 0.417320 0.531496
O O5 0.479052 0.420545 0.035833
O O6 0.535632 0.691761 0.541768
O O7 0.267148 0.946594 0.468023
O O8 0.365803 0.005895 0.434372
O O9 0.557649 0.044006 0.967808
O O10 0.046370 0.044338 0.943741
O O11 0.866336 0.929943 0.384339
O O12 0.239773 0.004042 0.975640
O O13 0.735804 0.300261 0.449012
#
# Coordination Sequence:
#
# PCOD9096797 Si02
#       7
#     1   2   2   2   2   2   2
#     4  10  20  36  58  82 116 158 204 240 288 362
#     4   8  16  33  58  83 113 158 196 240 296 348
#     4  11  22  38  63  95 121 158 205 244 300 366
#     4  11  23  39  61  90 125 162 199 252 312 354
#     4   9  20  39  62  86 120 163 204 244 298 364
#     4   9  19  37  58  86 122 153 195 247 296 355
#     4  11  22  39  64  91 122 160 202 251 303 356
#
# _framework density 23.844504000000001
#
# number of rings (size 3 to 8) (size 9 to 14) (size 15 to 20)
#    0.000    2.154    0.000    3.692    0.000    1.846 
#    0.000    4.615    0.000   10.154    0.000    0.000 
#    0.000    0.000    0.000    0.000    0.000    0.000 
#
# Total GULP energy -72419.849724 kJ/mol
# GULP energy per Si atom -5570.757671 kJ/mol
# Density = 2.379023 g / cm^3
# Si number density = 23.844504 Si / 1000 Ang^3
#
#
#
# Elastic Constant Matrix: (Units=GPa)
#
#
# Indices 1 2 3 4 5 6 
#
# 1 108.7604 4.6391 3.9599 -19.1766 17.0702 5.1818
# 2 4.6391 70.2201 6.2168 -6.6143 -17.1699 20.8589
# 3 3.9599 6.2168 58.8268 -17.6233 -0.8055 19.9655
# 4 -19.1766 -6.6143 -17.6233 22.4535 -4.8922 -4.2398
# 5 17.0702 -17.1699 -0.8055 -4.8922 29.2375 -9.2607
# 6 5.1818 20.8589 19.9655 -4.2398 -9.2607 35.9668
#
#
#
# Elastic Compliance Matrix: (Units=1/GPa)
#
#
# Indices 1 2 3 4 5 6 
#
# 1 0.012298 -0.000588 0.003820 0.011083 -0.006834 -0.004004
# 2 -0.000588 0.020474 0.004314 0.009316 0.010779 -0.010310
# 3 0.003820 0.004314 0.029114 0.024295 -0.000009 -0.016352
# 4 0.011083 0.009316 0.024295 0.076188 0.009553 -0.009045
# 5 -0.006834 0.010779 -0.000009 0.009553 0.048790 0.008427
# 6 -0.004004 -0.010310 -0.016352 -0.009045 0.008427 0.044540
#
#
# Mechanical properties :
#
#
# Convention : Reuss Voigt Hill
#
# Bulk Modulus (GPa) = 12.99101 29.71545 21.35323
# Shear Modulus (GPa) = 20.66352 32.39766 26.53059
#
# Velocity S-wave (km/s) = 2.94699 3.69006 3.33926
# Velocity P-wave (km/s) = 4.12792 5.53576 4.88285
#
# Compressibility (1/GPa) = 0.07697629
#
# Stress axis : x y z
#
# Youngs Moduli (GPa) = 81.31297 48.84349 34.34794
#
# Poissons Ratio (x) = 0.02873 -0.13121
# Poissons Ratio (y) = 0.04784 -0.14816
# Poissons Ratio (z) = -0.31063 -0.21069
#
# Static dielectric constant tensor:
#      x y z
#    x 1.953720 -0.014240 -0.040220 
#    y -0.014240 1.938200 0.001050 
#    z -0.040220 0.001050 1.924410 
# 
# From -- ./inp_files/295092.got.cif
#   From: 2010.05.17/outbox.cif.g08.bks.cpg/sg2_148_cif.got.tgz:295092.got - 2010.06.03 11:33:40.
