data_PCOD9096159
_publ_section_title
;
Structure prediction by ZEFSAII (Michael W. Deem and Ramdas Pophale) SiO2 
 PCOD9096159
Probable space group: P -1
;
_chemical_formula_sum "Si O2"
_cell_formula_units_Z 16
_cell_length_a 9.493204
_cell_length_b 12.311883
_cell_length_c 17.684123
_cell_angle_alpha 30.141495
_cell_angle_beta 47.835360
_cell_angle_gamma 61.313075
_cell_volume 740.727017
_symmetry_space_group_name_H-M "P -1"
_symmetry_group_IT_number 2
_symmetry_cell_setting 'triclinic'
loop_
_space_group_symop_operation_xyz
x,y,z
-x,-y,-z
loop_
_atom_site_type_symbol
_atom_site_label
_atom_site_fract_x
_atom_site_fract_y
_atom_site_fract_z
Si Si1 0.960776 0.735184 0.898952
Si Si2 0.457076 0.866423 0.340004
Si Si3 0.739051 0.864759 0.364925
Si Si4 0.114662 0.409611 0.399343
Si Si5 0.712523 0.455416 0.534036
Si Si6 0.946018 0.036113 0.581388
Si Si7 0.828838 0.075886 0.973745
Si Si8 0.621919 0.810422 0.077725
O O1 0.985035 0.874542 0.728883
O O2 0.740644 0.725930 0.018306
O O3 0.125372 0.892540 0.802425
O O4 0.000000 0.500000 0.000000
O O5 0.532289 0.872737 0.395764
O O6 0.359026 0.627600 0.474938
O O7 0.284390 0.983496 0.323681
O O8 0.637607 0.992509 0.146613
O O9 0.750836 0.700773 0.530415
O O10 0.798881 0.719012 0.361904
O O11 0.169028 0.671585 0.203943
O O12 0.893464 0.350243 0.552029
O O13 0.073838 0.281956 0.412109
O O14 0.531310 0.373900 0.705731
O O15 0.000000 0.000000 0.500000
O O16 0.795641 0.930114 0.998355
O O17 0.000000 0.000000 0.000000
O O18 0.500000 0.000000 0.000000
#
# Coordination Sequence:
#
# PCOD9096159 Si02
#       8
#     2   2   2   2   2   2   2   2
#     4  11  25  45  66  93 130 175 222 272 330 392
#     4  10  22  39  63  98 130 162 215 272 326 389
#     4  11  21  39  64  91 126 167 212 266 324 391
#     4  10  21  39  63  93 128 169 219 270 324 388
#     4  10  20  35  62  96 129 164 206 263 324 384
#     4  10  24  46  65  85 124 176 223 271 326 388
#     4  11  22  37  62  98 132 165 206 267 335 389
#     4  11  21  38  64  94 128 166 212 267 323 385
#
# _framework density 21.600398999999999
#
# number of rings (size 3 to 8) (size 9 to 14) (size 15 to 20)
#    0.000    1.500    0.000    6.750    0.000    6.000 
#    0.000    9.375    0.000    0.000    0.000    0.000 
#    0.000    0.000    0.000    0.000    0.000    0.000 
#
# Total GULP energy -89088.821678 kJ/mol
# GULP energy per Si atom -5568.051355 kJ/mol
# Density = 2.155124 g / cm^3
# Si number density = 21.600399 Si / 1000 Ang^3
#
#
#
# Elastic Constant Matrix: (Units=GPa)
#
#
# Indices 1 2 3 4 5 6 
#
# 1 153.1541 39.7454 44.8551 -14.7406 -8.8895 17.1156
# 2 39.7454 127.7950 49.3406 -6.8327 -8.8569 20.4330
# 3 44.8551 49.3406 66.6852 -11.8424 2.9528 20.7213
# 4 -14.7406 -6.8327 -11.8424 30.9976 5.9320 2.3052
# 5 -8.8895 -8.8569 2.9528 5.9320 26.6048 -7.7656
# 6 17.1156 20.4330 20.7213 2.3052 -7.7656 29.8360
#
#
#
# Elastic Compliance Matrix: (Units=1/GPa)
#
#
# Indices 1 2 3 4 5 6 
#
# 1 0.008491 -0.000268 -0.005265 0.001442 0.002897 -0.000388
# 2 -0.000268 0.011650 -0.009007 -0.001994 0.005216 -0.000058
# 3 -0.005265 -0.009007 0.034866 0.013766 -0.017741 -0.020708
# 4 0.001442 -0.001994 0.013766 0.042022 -0.015866 -0.016398
# 5 0.002897 0.005216 -0.017741 -0.015866 0.052190 0.021896
# 6 -0.000388 -0.000058 -0.020708 -0.016398 0.021896 0.055126
#
#
# Mechanical properties :
#
#
# Convention : Reuss Voigt Hill
#
# Bulk Modulus (GPa) = 38.56835 68.39072 53.47953
# Shear Modulus (GPa) = 20.65547 31.73388 26.19468
#
# Velocity S-wave (km/s) = 3.09569 3.83709 3.48615
# Velocity P-wave (km/s) = 5.53822 7.16669 6.40443
#
# Compressibility (1/GPa) = 0.02592800
#
# Stress axis : x y z
#
# Youngs Moduli (GPa) = 117.76896 85.83735 28.68129
#
# Poissons Ratio (x) = 0.02302 0.15100
# Poissons Ratio (y) = 0.03159 0.25832
# Poissons Ratio (z) = 0.62001 0.77311
#
# Static dielectric constant tensor:
#      x y z
#    x 1.864070 -0.038770 -0.044440 
#    y -0.038770 1.828180 -0.042490 
#    z -0.044440 -0.042490 1.821550 
# 
# From -- ./inp_files/403595.got.cif
#   From: 2010.05.17/outbox.cif.g08.bks.cpg/sg2_202_cif.got.tgz:403595.got - 2010.06.03 11:33:40.
