data_PCOD9096737
_publ_section_title
;
Structure prediction by ZEFSAII (Michael W. Deem and Ramdas Pophale) SiO2 
 PCOD9096737
Probable space group: P -1
;
_chemical_formula_sum "Si O2"
_cell_formula_units_Z 16
_cell_length_a 17.213941
_cell_length_b 27.355188
_cell_length_c 25.928107
_cell_angle_alpha 10.711081
_cell_angle_beta 19.457786
_cell_angle_gamma 19.477811
_cell_volume 729.184695
_symmetry_space_group_name_H-M "P -1"
_symmetry_group_IT_number 2
_symmetry_cell_setting 'triclinic'
loop_
_space_group_symop_operation_xyz
x,y,z
-x,-y,-z
loop_
_atom_site_type_symbol
_atom_site_label
_atom_site_fract_x
_atom_site_fract_y
_atom_site_fract_z
Si Si1 0.037485 0.564069 0.970163
Si Si2 0.792145 0.237090 0.169168
Si Si3 0.446961 0.202589 0.902271
Si Si4 0.790512 0.947447 0.372526
Si Si5 0.843805 0.782391 0.326895
Si Si6 0.296577 0.941755 0.475203
Si Si7 0.288106 0.364605 0.715565
Si Si8 0.243892 0.476892 0.241844
O O1 0.783527 0.695568 0.021906
O O2 0.168504 0.263299 0.221364
O O3 0.199491 0.773074 0.666354
O O4 0.000000 0.500000 0.000000
O O5 0.851163 0.977639 0.363028
O O6 0.768218 0.168344 0.314881
O O7 0.536526 0.420366 0.118316
O O8 0.012172 0.365839 0.891220
O O9 0.374642 0.289694 0.798154
O O10 0.644022 0.363851 0.625614
O O11 0.564763 0.880456 0.159171
O O12 0.500000 0.000000 0.500000
O O13 0.869692 0.672101 0.576537
O O14 0.851876 0.198998 0.042131
O O15 0.586399 0.888242 0.349659
O O16 0.794107 0.691403 0.509702
O O17 0.000000 0.500000 0.500000
O O18 0.000000 0.000000 0.000000
#
# Coordination Sequence:
#
# PCOD9096737 Si02
#       8
#     2   2   2   2   2   2   2   2
#     4  12  25  46  68  92 131 175 228 284 326 387
#     4  10  21  37  63  92 123 160 215 256 309 404
#     4  10  22  39  58  88 123 158 196 258 330 368
#     4  10  20  36  57  89 129 163 194 257 325 380
#     4  11  23  44  68  96 131 175 222 281 332 388
#     4  11  25  42  69  98 120 172 232 268 331 405
#     4  10  21  36  60  89 123 155 197 260 316 379
#     4  10  22  38  59  90 129 168 210 255 322 391
#
# _framework density 21.942314
#
# number of rings (size 3 to 8) (size 9 to 14) (size 15 to 20)
#    0.000    1.500    1.250    4.125    3.500    9.000 
#    0.000    7.500    0.000    0.000    0.000    0.000 
#    0.000    0.000    0.000    0.000    0.000    0.000 
#
# Total GULP energy -89381.371473 kJ/mol
# GULP energy per Si atom -5586.335717 kJ/mol
# Density = 2.189237 g / cm^3
# Si number density = 21.942314 Si / 1000 Ang^3
#
#
#
# Elastic Constant Matrix: (Units=GPa)
#
#
# Indices 1 2 3 4 5 6 
#
# 1 71.1843 32.0034 38.5720 4.5506 -15.9643 -0.1420
# 2 32.0034 133.9085 65.3864 8.1397 -12.7025 -2.5830
# 3 38.5720 65.3864 162.7676 0.4580 -29.6575 -1.6814
# 4 4.5506 8.1397 0.4580 38.7773 -10.1484 -4.9860
# 5 -15.9643 -12.7025 -29.6575 -10.1484 36.7517 0.1067
# 6 -0.1420 -2.5830 -1.6814 -4.9860 0.1067 18.5486
#
#
#
# Elastic Compliance Matrix: (Units=1/GPa)
#
#
# Indices 1 2 3 4 5 6 
#
# 1 0.017540 -0.002643 -0.002218 -0.000280 0.004840 -0.000538
# 2 -0.002643 0.009840 -0.003521 -0.001942 -0.001126 0.000515
# 3 -0.002218 -0.003521 0.009166 0.002567 0.005922 0.000980
# 4 -0.000280 -0.001942 0.002567 0.029686 0.009453 0.007886
# 5 0.004840 -0.001126 0.005922 0.009453 0.036304 0.002749
# 6 -0.000538 0.000515 0.000980 0.007886 0.002749 0.056173
#
#
# Mechanical properties :
#
#
# Convention : Reuss Voigt Hill
#
# Bulk Modulus (GPa) = 50.55045 71.08708 60.81877
# Shear Modulus (GPa) = 27.46239 34.27542 30.86891
#
# Velocity S-wave (km/s) = 3.54159 3.95659 3.75483
# Velocity P-wave (km/s) = 6.30966 7.30345 6.82467
#
# Compressibility (1/GPa) = 0.01978222
#
# Stress axis : x y z
#
# Youngs Moduli (GPa) = 57.01098 101.62688 109.10408
#
# Poissons Ratio (x) = 0.26865 0.24194
# Poissons Ratio (y) = 0.15071 0.38414
# Poissons Ratio (z) = 0.12642 0.35781
#
# Static dielectric constant tensor:
#      x y z
#    x 1.336950 -0.368010 -0.259210 
#    y -0.368010 1.605220 -0.209480 
#    z -0.259210 -0.209480 1.683230 
# 
# From -- ./inp_files/620533.got.cif
#   From: 2010.05.17/outbox.cif.g08.bks.cpg/sg2_311_cif.got.tgz:620533.got - 2010.06.03 11:33:40.
