data_PCOD9096444
_publ_section_title
;
Structure prediction by ZEFSAII (Michael W. Deem and Ramdas Pophale) SiO2 
 PCOD9096444
Probable space group: P -1
;
_chemical_formula_sum "Si O2"
_cell_formula_units_Z 16
_cell_length_a 12.833734
_cell_length_b 15.280827
_cell_length_c 13.864134
_cell_angle_alpha 48.673050
_cell_angle_beta 64.375958
_cell_angle_gamma 24.133784
_cell_volume 694.868815
_symmetry_space_group_name_H-M "P -1"
_symmetry_group_IT_number 2
_symmetry_cell_setting 'triclinic'
loop_
_space_group_symop_operation_xyz
x,y,z
-x,-y,-z
loop_
_atom_site_type_symbol
_atom_site_label
_atom_site_fract_x
_atom_site_fract_y
_atom_site_fract_z
Si Si1 0.190124 0.303419 0.464934
Si Si2 0.044812 0.837748 0.903865
Si Si3 0.176708 0.131419 0.869946
Si Si4 0.489293 0.721459 0.332386
Si Si5 0.876994 0.886960 0.435613
Si Si6 0.721531 0.154495 0.118770
Si Si7 0.304324 0.291983 0.903814
Si Si8 0.358761 0.009645 0.353748
O O1 0.002786 0.582782 0.288464
O O2 0.058498 0.297624 0.507699
O O3 0.500000 0.000000 0.500000
O O4 0.334550 0.205766 0.581548
O O5 0.062070 0.935483 0.893463
O O6 0.383150 0.507293 0.965246
O O7 0.795749 0.078257 0.744704
O O8 0.959984 0.806134 0.027204
O O9 0.156344 0.061776 0.839999
O O10 0.531380 0.827697 0.974850
O O11 0.787012 0.371195 0.499615
O O12 0.626402 0.671738 0.227234
O O13 0.385657 0.905035 0.325057
O O14 0.713552 0.008606 0.513037
O O15 0.685615 0.140338 0.252770
O O16 0.936118 0.630329 0.805166
O O17 0.500000 0.000000 0.000000
#
# Coordination Sequence:
#
# PCOD9096444 Si02
#       8
#     2   2   2   2   2   2   2   2
#     4  10  20  36  59  85 117 149 183 231 280 333
#     4  10  23  41  58  84 114 146 194 242 281 330
#     4  11  21  38  62  84 114 153 188 230 286 339
#     4  10  21  37  57  79 112 150 186 231 283 335
#     4  10  22  38  56  86 117 145 188 233 277 337
#     4  11  23  39  61  84 112 150 193 239 283 332
#     4  10  21  35  53  84 117 146 186 230 274 337
#     4  10  20  36  55  79 114 151 183 225 282 336
#
# _framework density 23.025931
#
# number of rings (size 3 to 8) (size 9 to 14) (size 15 to 20)
#    0.000    1.750    0.000    5.625    0.000    5.000 
#    0.000    0.625    0.000    0.000    0.000    0.000 
#    0.000    0.000    0.000    0.000    0.000    0.000 
#
# Total GULP energy -89440.125392 kJ/mol
# GULP energy per Si atom -5590.007837 kJ/mol
# Density = 2.297352 g / cm^3
# Si number density = 23.025931 Si / 1000 Ang^3
#
#
#
# Elastic Constant Matrix: (Units=GPa)
#
#
# Indices 1 2 3 4 5 6 
#
# 1 102.3454 12.9891 46.9776 -1.5737 20.6231 -12.0737
# 2 12.9891 34.0834 15.8692 7.1420 10.7058 0.9723
# 3 46.9776 15.8692 93.3483 -11.2752 17.1594 -14.8462
# 4 -1.5737 7.1420 -11.2752 22.9619 -8.3792 9.3556
# 5 20.6231 10.7058 17.1594 -8.3792 45.2517 -7.9515
# 6 -12.0737 0.9723 -14.8462 9.3556 -7.9515 31.2489
#
#
#
# Elastic Compliance Matrix: (Units=1/GPa)
#
#
# Indices 1 2 3 4 5 6 
#
# 1 0.013769 -0.000045 -0.006284 -0.004787 -0.004298 0.002675
# 2 -0.000045 0.040265 -0.007495 -0.019356 -0.010550 -0.001720
# 3 -0.006284 -0.007495 0.016636 0.008982 0.000547 0.003159
# 4 -0.004787 -0.019356 0.008982 0.063540 0.012884 -0.012724
# 5 -0.004298 -0.010550 0.000547 0.012884 0.029170 0.002493
# 6 0.002675 -0.001720 0.003159 -0.012724 0.002493 0.039033
#
#
# Mechanical properties :
#
#
# Convention : Reuss Voigt Hill
#
# Bulk Modulus (GPa) = 23.24355 42.38320 32.81337
# Shear Modulus (GPa) = 20.45816 30.15526 25.30671
#
# Velocity S-wave (km/s) = 2.98398 3.62280 3.31879
# Velocity P-wave (km/s) = 4.68920 5.99552 5.38214
#
# Compressibility (1/GPa) = 0.04302269
#
# Stress axis : x y z
#
# Youngs Moduli (GPa) = 72.62629 24.83519 60.11050
#
# Poissons Ratio (x) = 0.00111 0.37776
# Poissons Ratio (y) = 0.00325 0.45052
# Poissons Ratio (z) = 0.45641 0.18614
#
# Static dielectric constant tensor:
#      x y z
#    x 1.889620 -0.024320 0.060550 
#    y -0.024320 1.941560 -0.019410 
#    z 0.060550 -0.019410 1.872960 
# 
# From -- ./inp_files/522342.got.cif
#   From: 2010.05.17/outbox.cif.g08.bks.cpg/sg2_262_cif.got.tgz:522342.got - 2010.06.03 11:33:40.
