data_PCOD9096941
_publ_section_title
;
Structure prediction by ZEFSAII (Michael W. Deem and Ramdas Pophale) SiO2 
 PCOD9096941
Probable space group: P -1
;
_chemical_formula_sum "Si O2"
_cell_formula_units_Z 16
_cell_length_a 15.474958
_cell_length_b 11.801360
_cell_length_c 15.133440
_cell_angle_alpha 58.917638
_cell_angle_beta 35.402182
_cell_angle_gamma 32.125751
_cell_volume 702.550824
_symmetry_space_group_name_H-M "P -1"
_symmetry_group_IT_number 2
_symmetry_cell_setting 'triclinic'
loop_
_space_group_symop_operation_xyz
x,y,z
-x,-y,-z
loop_
_atom_site_type_symbol
_atom_site_label
_atom_site_fract_x
_atom_site_fract_y
_atom_site_fract_z
Si Si1 0.198518 0.245981 0.746863
Si Si2 0.752557 0.278053 0.304906
Si Si3 0.271600 0.991403 0.645812
Si Si4 0.878474 0.098329 0.696664
Si Si5 0.547173 0.297192 0.729116
Si Si6 0.450483 0.132081 0.227967
Si Si7 0.644347 0.831595 0.034445
Si Si8 0.925537 0.353722 0.616438
O O1 0.405948 0.191222 0.544074
O O2 0.117375 0.180836 0.780888
O O3 0.386637 0.048759 0.750337
O O4 0.937703 0.533981 0.883405
O O5 0.500000 0.500000 0.500000
O O6 0.704859 0.182736 0.323004
O O7 0.725250 0.420120 0.201717
O O8 0.035508 0.031803 0.228690
O O9 0.105918 0.171656 0.625241
O O10 0.607491 0.257301 0.799811
O O11 0.847356 0.279432 0.661514
O O12 0.169286 0.856370 0.492150
O O13 0.530545 0.155278 0.778921
O O14 0.358856 0.351218 0.234348
O O15 0.138300 0.293576 0.412016
O O16 0.649569 0.944771 0.054598
O O17 0.500000 0.000000 0.000000
#
# Coordination Sequence:
#
# PCOD9096941 Si02
#       8
#     2   2   2   2   2   2   2   2
#     4  10  22  37  61  87 119 157 200 248 301 366
#     4   9  19  35  62  88 122 149 196 257 296 352
#     4   9  19  38  61  93 113 152 204 249 302 356
#     4   9  18  36  61  90 117 154 199 252 294 358
#     4  10  21  37  58  88 118 158 203 245 303 359
#     4  10  20  36  58  89 116 159 196 246 300 358
#     4  12  25  41  56  83 128 161 199 250 308 363
#     4   9  17  34  63  86 122 143 199 251 298 347
#
# _framework density 22.774156000000001
#
# number of rings (size 3 to 8) (size 9 to 14) (size 15 to 20)
#    0.000    2.250    1.250    1.125    3.500    4.000 
#    2.250    0.625    0.000    2.250    0.000    0.000 
#    0.000    0.000    0.000    0.000    0.000    0.000 
#
# Total GULP energy -89265.550387 kJ/mol
# GULP energy per Si atom -5579.096899 kJ/mol
# Density = 2.272232 g / cm^3
# Si number density = 22.774156 Si / 1000 Ang^3
#
#
#
# Elastic Constant Matrix: (Units=GPa)
#
#
# Indices 1 2 3 4 5 6 
#
# 1 104.3806 30.5409 9.0966 6.5749 10.7867 28.6795
# 2 30.5409 128.0007 6.3091 2.7823 -2.3335 21.6928
# 3 9.0966 6.3091 40.5572 12.3078 3.6464 13.2199
# 4 6.5749 2.7823 12.3078 28.8638 8.8116 13.3541
# 5 10.7867 -2.3335 3.6464 8.8116 23.1604 9.3381
# 6 28.6795 21.6928 13.2199 13.3541 9.3381 34.1710
#
#
#
# Elastic Compliance Matrix: (Units=1/GPa)
#
#
# Indices 1 2 3 4 5 6 
#
# 1 0.012962 -0.001485 0.000072 0.002851 -0.003165 -0.010214
# 2 -0.001485 0.009236 0.000241 0.001064 0.003648 -0.006123
# 3 0.000072 0.000241 0.030158 -0.009568 0.002434 -0.008807
# 4 0.002851 0.001064 -0.009568 0.048650 -0.012152 -0.015059
# 5 -0.003165 0.003648 0.002434 -0.012152 0.053479 -0.010467
# 6 -0.010214 -0.006123 -0.008807 -0.015059 -0.010467 0.053877
#
#
# Mechanical properties :
#
#
# Convention : Reuss Voigt Hill
#
# Bulk Modulus (GPa) = 19.99471 40.53688 30.26580
# Shear Modulus (GPa) = 21.98992 32.37184 27.18088
#
# Velocity S-wave (km/s) = 3.11072 3.77427 3.45845
# Velocity P-wave (km/s) = 4.65841 6.06891 5.40983
#
# Compressibility (1/GPa) = 0.05001323
#
# Stress axis : x y z
#
# Youngs Moduli (GPa) = 77.14656 108.27226 33.15848
#
# Poissons Ratio (x) = 0.16079 -0.00239
# Poissons Ratio (y) = 0.11457 -0.00800
# Poissons Ratio (z) = -0.00557 -0.02612
#
# Static dielectric constant tensor:
#      x y z
#    x 1.847360 0.004750 0.019760 
#    y 0.004750 1.815560 -0.011660 
#    z 0.019760 -0.011660 1.940420 
# 
# From -- ./inp_files/447636.got.cif
#   From: 2010.05.17/outbox.cif.g08.bks.cpg/sg2_224_cif.got.tgz:447636.got - 2010.06.03 11:33:40.
