data_PCOD9096071
_publ_section_title
;
Structure prediction by ZEFSAII (Michael W. Deem and Ramdas Pophale) SiO2 
 PCOD9096071
Probable space group: P -1
;
_chemical_formula_sum "Si O2"
_cell_formula_units_Z 16
_cell_length_a 19.935536
_cell_length_b 11.308878
_cell_length_c 13.483873
_cell_angle_alpha 130.622573
_cell_angle_beta 159.592685
_cell_angle_gamma 48.182194
_cell_volume 785.969066
_symmetry_space_group_name_H-M "P -1"
_symmetry_group_IT_number 2
_symmetry_cell_setting 'triclinic'
loop_
_space_group_symop_operation_xyz
x,y,z
-x,-y,-z
loop_
_atom_site_type_symbol
_atom_site_label
_atom_site_fract_x
_atom_site_fract_y
_atom_site_fract_z
Si Si1 0.179345 0.481999 0.105743
Si Si2 0.476518 0.511657 0.127486
Si Si3 0.411181 0.246323 0.455259
Si Si4 0.864312 0.145085 0.035199
Si Si5 0.121784 0.706923 0.650086
Si Si6 0.137574 0.742292 0.476330
Si Si7 0.182021 0.519324 0.907244
Si Si8 0.002641 0.165516 0.872414
O O1 0.338530 0.378898 0.342701
O O2 0.095441 0.658421 0.127971
O O3 0.258177 0.488201 0.107277
O O4 0.000118 0.387797 0.800747
O O5 0.582232 0.656218 0.380584
O O6 0.637448 0.351129 0.258636
O O7 0.325365 0.572350 0.862833
O O8 0.341774 0.500781 0.031673
O O9 0.634644 0.153580 0.694265
O O10 0.235911 0.153178 0.169106
O O11 0.870322 0.189544 0.184914
O O12 0.925294 0.293449 0.145588
O O13 0.002576 0.970950 0.128542
O O14 0.093637 0.802990 0.560738
O O15 0.955690 0.603779 0.372172
O O16 0.095734 0.850113 0.379589
#
# Coordination Sequence:
#
# PCOD9096071 Si02
#       8
#     2   2   2   2   2   2   2   2
#     4  10  18  33  55  75 103 134 165 210 246 297
#     4  10  16  30  53  79  97 124 171 213 247 283
#     4   9  17  33  51  77 101 131 171 200 248 299
#     4  10  21  32  52  77 103 138 163 205 259 297
#     4   9  19  34  53  73  98 131 178 213 239 295
#     4  10  18  32  53  79  97 132 171 210 250 291
#     4   9  20  34  53  74  98 136 175 206 245 296
#     4  11  19  32  51  76 114 129 157 210 258 304
#
# _framework density 20.357035
#
# number of rings (size 3 to 8) (size 9 to 14) (size 15 to 20)
#    0.000    2.500    2.500    3.000    0.000    3.000 
#    0.000    0.000    0.000    3.000    0.000    0.000 
#    0.000    0.000    0.000    0.000    0.000    0.000 
#
# Total GULP energy -89175.436098 kJ/mol
# GULP energy per Si atom -5573.464756 kJ/mol
# Density = 2.031070 g / cm^3
# Si number density = 20.357035 Si / 1000 Ang^3
#
#
#
# Elastic Constant Matrix: (Units=GPa)
#
#
# Indices 1 2 3 4 5 6 
#
# 1 43.8435 10.1678 15.2295 -6.0640 -10.1367 10.8215
# 2 10.1678 79.8795 10.4534 -22.1964 -6.5476 15.0504
# 3 15.2295 10.4534 80.3454 -15.0291 -15.1213 4.1574
# 4 -6.0640 -22.1964 -15.0291 19.1201 3.6296 -4.0940
# 5 -10.1367 -6.5476 -15.1213 3.6296 19.9857 -2.4031
# 6 10.8215 15.0504 4.1574 -4.0940 -2.4031 20.0873
#
#
#
# Elastic Compliance Matrix: (Units=1/GPa)
#
#
# Indices 1 2 3 4 5 6 
#
# 1 0.030075 0.001231 -0.002203 0.003945 0.011532 -0.014485
# 2 0.001231 0.021187 0.002843 0.023950 0.003951 -0.011772
# 3 -0.002203 0.002843 0.017034 0.013984 0.010113 -0.000409
# 4 0.003945 0.023950 0.013984 0.090828 0.003446 -0.004040
# 5 0.011532 0.003951 0.010113 0.003446 0.063854 -0.002925
# 6 -0.014485 -0.011772 -0.000409 -0.004040 -0.002925 0.065317
#
#
# Mechanical properties :
#
#
# Convention : Reuss Voigt Hill
#
# Bulk Modulus (GPa) = 13.88164 30.64109 22.26137
# Shear Modulus (GPa) = 16.20390 23.05313 19.62852
#
# Velocity S-wave (km/s) = 2.82438 3.36883 3.10855
# Velocity P-wave (km/s) = 4.17972 5.49695 4.88296
#
# Compressibility (1/GPa) = 0.07203758
#
# Stress axis : x y z
#
# Youngs Moduli (GPa) = 33.24992 47.19840 58.70518
#
# Poissons Ratio (x) = -0.05808 0.12933
# Poissons Ratio (y) = -0.04092 -0.16690
# Poissons Ratio (z) = 0.07325 -0.13419
#
# Static dielectric constant tensor:
#      x y z
#    x 1.768180 -0.005550 -0.007690 
#    y -0.005550 1.768930 -0.000070 
#    z -0.007690 -0.000070 1.731770 
# 
# From -- ./inp_files/542815.got.cif
#   From: 2010.05.17/outbox.cif.g08.bks.cpg/sg2_272_cif.got.tgz:542815.got - 2010.06.03 11:33:40.
