data_PCOD9096804
_publ_section_title
;
Structure prediction by ZEFSAII (Michael W. Deem and Ramdas Pophale) SiO2 
 PCOD9096804
Probable space group: P -1
;
_chemical_formula_sum "Si O2"
_cell_formula_units_Z 12
_cell_length_a 18.134892
_cell_length_b 9.419173
_cell_length_c 12.845218
_cell_angle_alpha 45.345681
_cell_angle_beta 17.643028
_cell_angle_gamma 41.361382
_cell_volume 438.602669
_symmetry_space_group_name_H-M "P -1"
_symmetry_group_IT_number 2
_symmetry_cell_setting 'triclinic'
loop_
_space_group_symop_operation_xyz
x,y,z
-x,-y,-z
loop_
_atom_site_type_symbol
_atom_site_label
_atom_site_fract_x
_atom_site_fract_y
_atom_site_fract_z
Si Si1 0.489214 0.052726 0.651229
Si Si2 0.864282 0.939877 0.616078
Si Si3 0.017461 0.549840 0.830366
Si Si4 0.583838 0.302334 0.193792
Si Si5 0.654350 0.094798 0.613137
Si Si6 0.172522 0.497424 0.090425
O O1 0.543988 0.163464 0.417189
O O2 0.426619 0.844141 0.814301
O O3 0.710802 0.029197 0.451491
O O4 0.226349 0.226658 0.966056
O O5 0.870738 0.031622 0.444191
O O6 0.952254 0.680787 0.624777
O O7 0.000000 0.000000 0.500000
O O8 0.551837 0.019271 0.021377
O O9 0.318871 0.514327 0.425131
O O10 0.955655 0.404164 0.898745
O O11 0.000000 0.500000 0.000000
O O12 0.813219 0.370395 0.895621
O O13 0.478669 0.349407 0.728562
#
# Coordination Sequence:
#
# PCOD9096804 Si02
#       6
#     2   2   2   2   2   2
#     4   9  19  38  56  86 118 149 183 223 286 336
#     4   9  18  34  56  81 109 146 190 238 278 325
#     4   9  19  34  54  83 110 152 187 217 277 335
#     4  10  20  36  58  82 125 145 175 241 272 328
#     4   8  18  33  55  82 105 148 189 225 280 334
#     4   9  19  33  54  85 110 145 193 226 276 337
#
# _framework density 27.359613
#
# number of rings (size 3 to 8) (size 9 to 14) (size 15 to 20)
#    1.000    2.000    0.000    0.000    2.333    6.000 
#    0.000   13.333    0.000    2.000    0.000    0.000 
#    0.000    0.000    0.000    0.000    0.000    0.000 
#
# Total GULP energy -66968.046413 kJ/mol
# GULP energy per Si atom -5580.670534 kJ/mol
# Density = 2.729734 g / cm^3
# Si number density = 27.359613 Si / 1000 Ang^3
#
#
#
# Elastic Constant Matrix: (Units=GPa)
#
#
# Indices 1 2 3 4 5 6 
#
# 1 203.7312 49.1828 34.4111 -3.5156 -56.5401 23.9833
# 2 49.1828 83.7525 25.5454 -13.6947 -22.2916 35.3428
# 3 34.4111 25.5454 68.7099 -14.6585 -43.0351 8.9748
# 4 -3.5156 -13.6947 -14.6585 37.4570 5.8069 -10.1535
# 5 -56.5401 -22.2916 -43.0351 5.8069 58.4366 -8.6312
# 6 23.9833 35.3428 8.9748 -10.1535 -8.6312 52.4581
#
#
#
# Elastic Compliance Matrix: (Units=1/GPa)
#
#
# Indices 1 2 3 4 5 6 
#
# 1 0.007411 -0.002751 0.001918 -0.000943 0.007508 -0.000810
# 2 -0.002751 0.019801 -0.003960 0.002456 0.000120 -0.010910
# 3 0.001918 -0.003960 0.030388 0.007648 0.022220 0.001728
# 4 -0.000943 0.002456 0.007648 0.031096 0.003158 0.004007
# 5 0.007508 0.000120 0.022220 0.003158 0.040466 -0.000045
# 6 -0.000810 -0.010910 0.001728 0.004007 -0.000045 0.027256
#
#
# Mechanical properties :
#
#
# Convention : Reuss Voigt Hill
#
# Bulk Modulus (GPa) = 20.82697 63.83027 42.32862
# Shear Modulus (GPa) = 27.47109 46.14063 36.80586
#
# Velocity S-wave (km/s) = 3.17215 4.11110 3.67176
# Velocity P-wave (km/s) = 4.58754 6.77610 5.78624
#
# Compressibility (1/GPa) = 0.04801466
#
# Stress axis : x y z
#
# Youngs Moduli (GPa) = 134.92742 50.50303 32.90724
#
# Poissons Ratio (x) = 0.13895 -0.06313
# Poissons Ratio (y) = 0.37124 0.13031
# Poissons Ratio (z) = -0.25883 0.19999
#
# Static dielectric constant tensor:
#      x y z
#    x 2.196410 -0.017000 0.033760 
#    y -0.017000 2.209810 -0.017250 
#    z 0.033760 -0.017250 2.227040 
# 
# From -- ./inp_files/87988.got.cif
#   From: 2010.05.17/outbox.cif.g08.bks.cpg/sg2_44_cif.got.tgz:87988.got - 2010.06.03 11:33:40.
