data_PCOD9096556
_publ_section_title
;
Structure prediction by ZEFSAII (Michael W. Deem and Ramdas Pophale) SiO2 
 PCOD9096556
Probable space group: P -1
;
_chemical_formula_sum "Si O2"
_cell_formula_units_Z 14
_cell_length_a 23.545791
_cell_length_b 14.929757
_cell_length_c 8.893877
_cell_angle_alpha 148.297786
_cell_angle_beta 30.427123
_cell_angle_gamma 149.031133
_cell_volume 736.517777
_symmetry_space_group_name_H-M "P -1"
_symmetry_group_IT_number 2
_symmetry_cell_setting 'triclinic'
loop_
_space_group_symop_operation_xyz
x,y,z
-x,-y,-z
loop_
_atom_site_type_symbol
_atom_site_label
_atom_site_fract_x
_atom_site_fract_y
_atom_site_fract_z
Si Si1 0.915583 0.445837 0.265998
Si Si2 0.037002 0.206807 0.786525
Si Si3 0.632192 0.228702 0.655071
Si Si4 0.362377 0.464771 0.713510
Si Si5 0.676850 0.555866 0.579166
Si Si6 0.083641 0.212315 0.047224
Si Si7 0.527683 0.784715 0.274206
O O1 0.765666 0.332813 0.412466
O O2 0.939913 0.631898 0.578608
O O3 0.000000 0.500000 0.000000
O O4 0.944927 0.295095 0.077377
O O5 0.173931 0.351702 0.612026
O O6 0.051023 0.207666 0.937143
O O7 0.000000 0.000000 0.500000
O O8 0.523921 0.237142 0.810285
O O9 0.592341 0.010623 0.475414
O O10 0.649924 0.351677 0.938197
O O11 0.500000 0.500000 0.500000
O O12 0.351675 0.453529 0.544766
O O13 0.235966 0.284095 0.809521
O O14 0.596304 0.346817 0.534581
O O15 0.623222 0.697711 0.965144
O O16 0.000000 0.000000 0.000000
#
# Coordination Sequence:
#
# PCOD9096556 Si02
#       7
#     2   2   2   2   2   2   2
#     4  11  22  39  61  87 122 157 201 241 301 353
#     4  11  22  39  61  87 122 157 201 241 301 353
#     4  10  21  37  59  83 116 152 192 240 290 347
#     4  10  20  40  59  84 117 152 192 241 296 346
#     4  10  21  37  59  83 116 152 192 240 290 347
#     4  10  23  41  61  90 120 160 202 249 300 358
#     4  10  20  36  56  84 116 146 196 236 288 340
#
# _framework density 19.008367
#
# number of rings (size 3 to 8) (size 9 to 14) (size 15 to 20)
#    0.000    1.714    1.429    3.000    0.000    2.857 
#    5.143    0.000    0.000    0.000    0.000    0.000 
#    0.000    0.000    0.000    0.000    0.000    0.000 
#
# Total GULP energy -78088.115613 kJ/mol
# GULP energy per Si atom -5577.722544 kJ/mol
# Density = 1.896510 g / cm^3
# Si number density = 19.008367 Si / 1000 Ang^3
#
#
#
# Elastic Constant Matrix: (Units=GPa)
#
#
# Indices 1 2 3 4 5 6 
#
# 1 41.1889 23.5359 23.8315 -0.2387 -5.1126 7.0494
# 2 23.5359 132.6194 54.0679 16.1575 17.3522 -6.4417
# 3 23.8315 54.0679 86.4344 2.8417 8.8874 1.8716
# 4 -0.2387 16.1575 2.8417 25.5704 -0.5782 2.1162
# 5 -5.1126 17.3522 8.8874 -0.5782 26.3744 -3.1099
# 6 7.0494 -6.4417 1.8716 2.1162 -3.1099 27.4593
#
#
#
# Elastic Compliance Matrix: (Units=1/GPa)
#
#
# Indices 1 2 3 4 5 6 
#
# 1 0.034945 -0.006074 -0.007095 0.005973 0.012232 -0.008987
# 2 -0.006074 0.013131 -0.005595 -0.008301 -0.007547 0.004806
# 3 -0.007095 -0.005595 0.017377 0.001555 -0.003658 -0.001210
# 4 0.005973 -0.008301 0.001555 0.044903 0.006333 -0.006330
# 5 0.012232 -0.007547 -0.003658 0.006333 0.046639 0.000133
# 6 -0.008987 0.004806 -0.001210 -0.006330 0.000133 0.040438
#
#
# Mechanical properties :
#
#
# Convention : Reuss Voigt Hill
#
# Bulk Modulus (GPa) = 35.80890 51.45702 43.63296
# Shear Modulus (GPa) = 20.46922 26.46799 23.46860
#
# Velocity S-wave (km/s) = 3.28510 3.73559 3.51756
# Velocity P-wave (km/s) = 5.76789 6.76281 6.28507
#
# Compressibility (1/GPa) = 0.02792602
#
# Stress axis : x y z
#
# Youngs Moduli (GPa) = 28.61610 76.15314 57.54849
#
# Poissons Ratio (x) = 0.46254 0.40832
# Poissons Ratio (y) = 0.17381 0.32197
# Poissons Ratio (z) = 0.20304 0.42605
#
# Static dielectric constant tensor:
#      x y z
#    x 1.657630 0.016620 -0.011260 
#    y 0.016620 1.648300 -0.027530 
#    z -0.011260 -0.027530 1.666360 
# 
# From -- ./inp_files/171753.got.cif
#   From: 2010.05.17/outbox.cif.g08.bks.cpg/sg2_86_cif.got.tgz:171753.got - 2010.06.03 11:33:40.
