data_PCOD9096671
_publ_section_title
;
Structure prediction by ZEFSAII (Michael W. Deem and Ramdas Pophale) SiO2 
 PCOD9096671
Probable space group: P -1
;
_chemical_formula_sum "Si O2"
_cell_formula_units_Z 16
_cell_length_a 15.197344
_cell_length_b 8.692144
_cell_length_c 14.095172
_cell_angle_alpha 98.779029
_cell_angle_beta 123.261913
_cell_angle_gamma 35.783696
_cell_volume 729.751675
_symmetry_space_group_name_H-M "P -1"
_symmetry_group_IT_number 2
_symmetry_cell_setting 'triclinic'
loop_
_space_group_symop_operation_xyz
x,y,z
-x,-y,-z
loop_
_atom_site_type_symbol
_atom_site_label
_atom_site_fract_x
_atom_site_fract_y
_atom_site_fract_z
Si Si1 0.407448 0.426853 0.826186
Si Si2 0.047562 0.127257 0.356504
Si Si3 0.572266 0.508614 0.361148
Si Si4 0.401411 0.392370 0.219016
Si Si5 0.172619 0.290644 0.496201
Si Si6 0.978445 0.108094 0.828481
Si Si7 0.502662 0.641866 0.925824
Si Si8 0.697968 0.629346 0.556646
O O1 0.203923 0.577387 0.735293
O O2 0.475518 0.332345 0.748264
O O3 0.351895 0.686174 0.823081
O O4 0.545632 0.225743 0.986645
O O5 0.108107 0.227396 0.386227
O O6 0.187862 0.880198 0.506728
O O7 0.082227 0.976081 0.269135
O O8 0.428283 0.541119 0.272236
O O9 0.570338 0.636899 0.454877
O O10 0.150215 0.689578 0.130618
O O11 0.483185 0.265154 0.147290
O O12 0.577162 0.068876 0.354758
O O13 0.171162 0.458463 0.460285
O O14 0.000000 0.500000 0.500000
O O15 0.874536 0.366745 0.718399
O O16 0.242992 0.756896 0.961435
O O17 0.500000 0.000000 0.500000
#
# Coordination Sequence:
#
# PCOD9096671 Si02
#       8
#     2   2   2   2   2   2   2   2
#     4   9  16  32  51  81 110 137 180 237 276 322
#     4   9  19  32  56  83 111 144 188 230 284 336
#     4   9  19  31  56  81 111 145 185 233 282 330
#     4  10  20  36  57  84 114 149 191 233 273 335
#     4  11  23  36  56  87 120 149 181 233 293 340
#     4  10  20  36  59  83 112 149 190 235 275 337
#     4   9  19  32  58  84 107 146 196 234 271 321
#     4  11  22  36  57  85 117 149 180 231 293 343
#
# _framework density 21.925267000000002
#
# number of rings (size 3 to 8) (size 9 to 14) (size 15 to 20)
#    0.000    2.250    1.250    1.500    1.750   10.500 
#    0.000    0.000    0.000   19.500    0.000    0.000 
#    0.000    0.000    0.000    0.000    0.000    0.000 
#
# Total GULP energy -89076.220948 kJ/mol
# GULP energy per Si atom -5567.263809 kJ/mol
# Density = 2.187536 g / cm^3
# Si number density = 21.925267 Si / 1000 Ang^3
#
#
#
# Elastic Constant Matrix: (Units=GPa)
#
#
# Indices 1 2 3 4 5 6 
#
# 1 39.3879 -9.6098 5.0746 2.3148 -11.0859 -6.9912
# 2 -9.6098 22.2270 -9.0156 -5.1940 5.3761 9.7903
# 3 5.0746 -9.0156 55.1950 1.8537 -2.1263 12.1078
# 4 2.3148 -5.1940 1.8537 17.8742 -5.4917 -0.3752
# 5 -11.0859 5.3761 -2.1263 -5.4917 26.2521 1.1317
# 6 -6.9912 9.7903 12.1078 -0.3752 1.1317 21.9504
#
#
#
# Elastic Compliance Matrix: (Units=1/GPa)
#
#
# Indices 1 2 3 4 5 6 
#
# 1 0.032192 0.006102 -0.003508 0.001862 0.012067 0.008876
# 2 0.006102 0.083278 0.022468 0.017982 -0.006873 -0.046932
# 3 -0.003508 0.022468 0.027691 0.002916 -0.002098 -0.026255
# 4 0.001862 0.017982 0.002916 0.063849 0.011063 -0.008515
# 5 0.012067 -0.006873 -0.002098 0.011063 0.046487 0.005858
# 6 0.008876 -0.046932 -0.026255 -0.008515 0.005858 0.083351
#
#
# Mechanical properties :
#
#
# Convention : Reuss Voigt Hill
#
# Bulk Modulus (GPa) = 5.17369 9.96759 7.57064
# Shear Modulus (GPa) = 14.23888 21.90606 18.07247
#
# Velocity S-wave (km/s) = 2.55115 3.16432 2.87414
# Velocity P-wave (km/s) = 3.32305 4.23162 3.80455
#
# Compressibility (1/GPa) = 0.19328547
#
# Stress axis : x y z
#
# Youngs Moduli (GPa) = 31.06398 12.00794 36.11331
#
# Poissons Ratio (x) = -0.07327 0.12667
# Poissons Ratio (y) = -0.18955 -0.81140
# Poissons Ratio (z) = 0.10896 -0.26980
#
# Static dielectric constant tensor:
#      x y z
#    x 1.874060 -0.050870 -0.023100 
#    y -0.050870 1.838540 0.031970 
#    z -0.023100 0.031970 1.841040 
# 
# From -- ./inp_files/225305.got.cif
#   From: 2010.05.17/outbox.cif.g08.bks.cpg/sg2_113_cif.got.tgz:225305.got - 2010.06.03 11:33:40.
