data_PCOD9096466
_publ_section_title
;
Structure prediction by ZEFSAII (Michael W. Deem and Ramdas Pophale) SiO2 
 PCOD9096466
Probable space group: P -1
;
_chemical_formula_sum "Si O2"
_cell_formula_units_Z 16
_cell_length_a 21.163825
_cell_length_b 8.277848
_cell_length_c 9.876677
_cell_angle_alpha 47.361256
_cell_angle_beta 125.451785
_cell_angle_gamma 145.335724
_cell_volume 722.888537
_symmetry_space_group_name_H-M "P -1"
_symmetry_group_IT_number 2
_symmetry_cell_setting 'triclinic'
loop_
_space_group_symop_operation_xyz
x,y,z
-x,-y,-z
loop_
_atom_site_type_symbol
_atom_site_label
_atom_site_fract_x
_atom_site_fract_y
_atom_site_fract_z
Si Si1 0.339654 0.471121 0.037968
Si Si2 0.175835 0.729398 0.202552
Si Si3 0.094013 0.375280 0.028209
Si Si4 0.079169 0.570658 0.439417
Si Si5 0.254547 0.275328 0.322730
Si Si6 0.329117 0.631723 0.469646
Si Si7 0.128956 0.321681 0.822349
Si Si8 0.518026 0.274019 0.169681
O O1 0.347005 0.489019 0.199607
O O2 0.271784 0.110439 0.116378
O O3 0.251680 0.479686 0.885279
O O4 0.449799 0.725482 0.943630
O O5 0.133398 0.611268 0.063576
O O6 0.074716 0.574924 0.269179
O O7 0.232036 0.611928 0.384492
O O8 0.164509 0.289974 0.184178
O O9 0.120559 0.480192 0.845338
O O10 0.964186 0.050396 0.053987
O O11 0.091651 0.344726 0.622301
O O12 0.000000 0.500000 0.500000
O O13 0.193846 0.927706 0.410862
O O14 0.293041 0.369693 0.469571
O O15 0.381505 0.617278 0.672727
O O16 0.415394 0.951017 0.302896
O O17 0.500000 0.500000 0.000000
#
# Coordination Sequence:
#
# PCOD9096466 Si02
#       8
#     2   2   2   2   2   2   2   2
#     4  10  21  38  61  86 119 160 196 251 299 357
#     4  10  21  38  60  87 119 160 200 240 302 354
#     4   9  19  36  57  82 118 159 199 244 285 358
#     4  11  21  37  56  84 122 164 195 246 293 349
#     4   9  20  40  59  85 123 155 199 240 301 355
#     4  10  22  42  66  89 119 157 195 255 303 360
#     4  10  20  36  55  83 121 160 201 245 297 343
#     4  11  22  41  66  91 119 149 201 253 308 358
#
# _framework density 22.133429
#
# number of rings (size 3 to 8) (size 9 to 14) (size 15 to 20)
#    0.000    2.000    2.500    0.750    1.750    2.500 
#    4.500    0.625    0.000    0.000    0.000    0.000 
#    0.000    0.000    0.000    0.000    0.000    0.000 
#
# Total GULP energy -89138.333647 kJ/mol
# GULP energy per Si atom -5571.145853 kJ/mol
# Density = 2.208305 g / cm^3
# Si number density = 22.133429 Si / 1000 Ang^3
#
#
#
# Elastic Constant Matrix: (Units=GPa)
#
#
# Indices 1 2 3 4 5 6 
#
# 1 103.2206 11.3119 37.4353 -3.8717 -27.9151 5.3988
# 2 11.3119 30.8390 2.8340 4.0258 -11.3727 -12.6337
# 3 37.4353 2.8340 91.4647 -3.0226 -7.2112 -0.5460
# 4 -3.8717 4.0258 -3.0226 23.5048 2.2765 -6.9788
# 5 -27.9151 -11.3727 -7.2112 2.2765 34.4609 -2.3859
# 6 5.3988 -12.6337 -0.5460 -6.9788 -2.3859 29.7126
#
#
#
# Elastic Compliance Matrix: (Units=1/GPa)
#
#
# Indices 1 2 3 4 5 6 
#
# 1 0.014629 -0.002595 -0.005149 0.000365 0.009685 -0.002993
# 2 -0.002595 0.048399 0.000809 -0.003773 0.015774 0.021446
# 3 -0.005149 0.000809 0.012978 0.001308 -0.001155 0.001733
# 4 0.000365 -0.003773 0.001308 0.046393 -0.003117 0.009000
# 5 0.009685 0.015774 -0.001155 -0.003117 0.042561 0.007612
# 6 -0.002993 0.021446 0.001733 0.009000 0.007612 0.046075
#
#
# Mechanical properties :
#
#
# Convention : Reuss Voigt Hill
#
# Bulk Modulus (GPa) = 16.09341 36.52077 26.30709
# Shear Modulus (GPa) = 20.35674 29.13186 24.74430
#
# Velocity S-wave (km/s) = 3.03599 3.63187 3.34722
# Velocity P-wave (km/s) = 4.42454 5.84153 5.18170
#
# Compressibility (1/GPa) = 0.06213722
#
# Stress axis : x y z
#
# Youngs Moduli (GPa) = 68.35513 20.66142 77.05207
#
# Poissons Ratio (x) = 0.05361 0.39677
# Poissons Ratio (y) = 0.17737 -0.06236
# Poissons Ratio (z) = 0.35199 -0.01672
#
# Static dielectric constant tensor:
#      x y z
#    x 1.884840 0.005530 0.003380 
#    y 0.005530 1.798630 0.001920 
#    z 0.003380 0.001920 1.834820 
# 
# From -- ./inp_files/217744.got.cif
#   From: 2010.05.17/outbox.cif.g08.bks.cpg/sg2_109_cif.got.tgz:217744.got - 2010.06.03 11:33:40.
