data_PCOD9096942
_publ_section_title
;
Structure prediction by ZEFSAII (Michael W. Deem and Ramdas Pophale) SiO2 
 PCOD9096942
Probable space group: P -1
;
_chemical_formula_sum "Si O2"
_cell_formula_units_Z 16
_cell_length_a 12.045793
_cell_length_b 12.670077
_cell_length_c 10.755370
_cell_angle_alpha 95.366994
_cell_angle_beta 72.191167
_cell_angle_gamma 152.043594
_cell_volume 672.857711
_symmetry_space_group_name_H-M "P -1"
_symmetry_group_IT_number 2
_symmetry_cell_setting 'triclinic'
loop_
_space_group_symop_operation_xyz
x,y,z
-x,-y,-z
loop_
_atom_site_type_symbol
_atom_site_label
_atom_site_fract_x
_atom_site_fract_y
_atom_site_fract_z
Si Si1 0.655241 0.979863 0.976388
Si Si2 0.820075 0.573070 0.325666
Si Si3 0.910683 0.887610 0.381574
Si Si4 0.944200 0.831576 0.986022
Si Si5 0.168315 0.962956 0.679970
Si Si6 0.974228 0.329597 0.481792
Si Si7 0.592431 0.169412 0.711125
Si Si8 0.504217 0.319188 0.174889
O O1 0.514787 0.939320 0.123648
O O2 0.448400 0.742089 0.938184
O O3 0.800832 0.015840 0.021759
O O4 0.901758 0.216113 0.827001
O O5 0.854019 0.536777 0.435936
O O6 0.578436 0.345195 0.291778
O O7 0.785399 0.668420 0.386092
O O8 0.198608 0.103798 0.241036
O O9 0.000000 0.000000 0.500000
O O10 0.750206 0.851060 0.365811
O O11 0.688787 0.571477 0.111552
O O12 0.933632 0.788410 0.841978
O O13 0.000000 0.000000 0.000000
O O14 0.380078 0.060951 0.688473
O O15 0.064327 0.816293 0.579844
O O16 0.690311 0.146385 0.601023
O O17 0.136719 0.535721 0.351379
#
# Coordination Sequence:
#
# PCOD9096942 Si02
#       8
#     2   2   2   2   2   2   2   2
#     4   9  20  39  58  84 117 154 205 242 296 353
#     4  10  22  39  61  91 121 157 198 246 295 364
#     4  11  23  38  57  92 122 154 198 233 300 369
#     4  10  20  36  58  89 119 155 202 240 293 360
#     4  11  22  39  63  85 122 156 192 247 301 354
#     4  11  23  40  61  89 118 156 205 244 304 352
#     4  10  24  41  61  87 118 156 203 254 292 354
#     4  10  21  37  59  83 125 158 189 248 296 348
#
# _framework density 23.779173
#
# number of rings (size 3 to 8) (size 9 to 14) (size 15 to 20)
#    0.000    1.750    1.250    3.375    1.750    6.000 
#    0.000    0.625    0.000    0.000    0.000    0.000 
#    0.000    0.000    0.000    0.000    0.000    0.000 
#
# Total GULP energy -89400.872067 kJ/mol
# GULP energy per Si atom -5587.554504 kJ/mol
# Density = 2.372505 g / cm^3
# Si number density = 23.779173 Si / 1000 Ang^3
#
#
#
# Elastic Constant Matrix: (Units=GPa)
#
#
# Indices 1 2 3 4 5 6 
#
# 1 64.6210 -3.0129 6.0000 9.5128 -3.7520 11.4115
# 2 -3.0129 47.7511 11.3409 10.7744 5.4556 2.1016
# 3 6.0000 11.3409 121.9119 13.5304 8.9573 -0.8027
# 4 9.5128 10.7744 13.5304 27.2300 -0.3633 5.2711
# 5 -3.7520 5.4556 8.9573 -0.3633 28.4270 2.3514
# 6 11.4115 2.1016 -0.8027 5.2711 2.3514 24.1607
#
#
#
# Elastic Compliance Matrix: (Units=1/GPa)
#
#
# Indices 1 2 3 4 5 6 
#
# 1 0.017999 0.002566 -0.000780 -0.005361 0.002709 -0.007844
# 2 0.002566 0.024049 -0.000983 -0.009822 -0.004026 -0.000802
# 3 -0.000780 -0.000983 0.009036 -0.004250 -0.002979 0.001971
# 4 -0.005361 -0.009822 -0.004250 0.046030 0.003697 -0.007157
# 5 0.002709 -0.004026 -0.002979 0.003697 0.037750 -0.005509
# 6 -0.007844 -0.000802 0.001971 -0.007157 -0.005509 0.047327
#
#
# Mechanical properties :
#
#
# Convention : Reuss Voigt Hill
#
# Bulk Modulus (GPa) = 18.97896 29.21556 24.09726
# Shear Modulus (GPa) = 25.23376 30.62726 27.93051
#
# Velocity S-wave (km/s) = 3.26110 3.59275 3.43093
# Velocity P-wave (km/s) = 4.70939 5.43354 5.08437
#
# Compressibility (1/GPa) = 0.05268992
#
# Stress axis : x y z
#
# Youngs Moduli (GPa) = 55.55970 41.58209 110.66847
#
# Poissons Ratio (x) = -0.10671 0.08635
# Poissons Ratio (y) = -0.14258 0.10876
# Poissons Ratio (z) = 0.04335 0.04087
#
# Static dielectric constant tensor:
#      x y z
#    x 1.914150 0.009520 -0.018090 
#    y 0.009520 1.875060 -0.012540 
#    z -0.018090 -0.012540 1.994260 
# 
# From -- ./inp_files/98585.got.cif
#   From: 2010.05.17/outbox.cif.g08.bks.cpg/sg2_50_cif.got.tgz:98585.got - 2010.06.03 11:33:40.
