data_PCOD9096947
_publ_section_title
;
Structure prediction by ZEFSAII (Michael W. Deem and Ramdas Pophale) SiO2 
 PCOD9096947
Probable space group: P -1
;
_chemical_formula_sum "Si O2"
_cell_formula_units_Z 14
_cell_length_a 11.765128
_cell_length_b 9.626104
_cell_length_c 9.374061
_cell_angle_alpha 146.677671
_cell_angle_beta 96.094289
_cell_angle_gamma 96.661961
_cell_volume 537.643404
_symmetry_space_group_name_H-M "P -1"
_symmetry_group_IT_number 2
_symmetry_cell_setting 'triclinic'
loop_
_space_group_symop_operation_xyz
x,y,z
-x,-y,-z
loop_
_atom_site_type_symbol
_atom_site_label
_atom_site_fract_x
_atom_site_fract_y
_atom_site_fract_z
Si Si1 0.717174 0.503828 0.752392
Si Si2 0.561472 0.472217 0.133119
Si Si3 0.300052 0.954423 0.841469
Si Si4 0.805369 0.247820 0.783274
Si Si5 0.387944 0.037907 0.246857
Si Si6 0.948365 0.004244 0.152255
Si Si7 0.857199 0.760613 0.373822
O O1 0.674515 0.301915 0.438381
O O2 0.710072 0.304640 0.712126
O O3 0.863173 0.692368 0.914688
O O4 0.670512 0.753124 0.983942
O O5 0.711509 0.598492 0.243849
O O6 0.543210 0.669875 0.421422
O O7 0.500000 0.500000 0.000000
O O8 0.538021 0.161447 0.900034
O O9 0.353837 0.037915 0.077898
O O10 0.151149 0.852268 0.742404
O O11 0.734307 0.095486 0.785601
O O12 0.859129 0.039162 0.540513
O O13 0.891874 0.545635 0.101855
O O14 0.058266 0.147779 0.398430
O O15 0.000000 0.000000 0.000000
#
# Coordination Sequence:
#
# PCOD9096947 Si02
#       7
#     2   2   2   2   2   2   2
#     4  10  23  37  55  82 119 159 185 227 269 336
#     4  10  20  36  58  90 113 139 188 243 289 326
#     4  10  22  38  56  84 116 153 189 223 277 330
#     4  10  21  37  55  82 114 156 190 225 278 334
#     4  10  20  37  63  86 115 148 184 238 284 329
#     4  10  23  36  55  82 122 149 191 226 278 327
#     4  10  22  35  58  81 114 152 184 238 280 330
#
# _framework density 26.039567999999999
#
# number of rings (size 3 to 8) (size 9 to 14) (size 15 to 20)
#    0.857    1.143    0.000    3.857    6.000    1.714 
#    0.000    0.000    0.000    0.000    0.000   80.000 
#    0.000    0.000    0.000    0.000    0.000    0.000 
#
# Total GULP energy -78310.414580 kJ/mol
# GULP energy per Si atom -5593.601041 kJ/mol
# Density = 2.598030 g / cm^3
# Si number density = 26.039568 Si / 1000 Ang^3
#
#
#
# Elastic Constant Matrix: (Units=GPa)
#
#
# Indices 1 2 3 4 5 6 
#
# 1 103.4557 3.1318 55.6917 5.3660 -5.9589 -15.6540
# 2 3.1318 82.6537 36.8152 -23.3660 2.4636 -21.1854
# 3 55.6917 36.8152 215.1138 -10.3662 -11.4077 -11.9205
# 4 5.3660 -23.3660 -10.3662 51.5915 -8.7219 6.8330
# 5 -5.9589 2.4636 -11.4077 -8.7219 55.6918 0.3689
# 6 -15.6540 -21.1854 -11.9205 6.8330 0.3689 37.4959
#
#
#
# Elastic Compliance Matrix: (Units=1/GPa)
#
#
# Indices 1 2 3 4 5 6 
#
# 1 0.012310 0.001894 -0.003279 -0.001766 0.000249 0.005486
# 2 0.001894 0.017052 -0.002669 0.005820 -0.000243 0.008518
# 3 -0.003279 -0.002669 0.005984 0.000668 0.001105 -0.001107
# 4 -0.001766 0.005820 0.000668 0.023093 0.003317 -0.001478
# 5 0.000249 -0.000243 0.001105 0.003317 0.018742 -0.000471
# 6 0.005486 0.008518 -0.001107 -0.001478 -0.000471 0.033695
#
#
# Mechanical properties :
#
#
# Convention : Reuss Voigt Hill
#
# Bulk Modulus (GPa) = 36.71528 65.83339 51.27433
# Shear Modulus (GPa) = 39.04335 49.32814 44.18575
#
# Velocity S-wave (km/s) = 3.87639 4.35714 4.12378
# Velocity P-wave (km/s) = 5.84514 7.11687 6.51212
#
# Compressibility (1/GPa) = 0.02723662
#
# Stress axis : x y z
#
# Youngs Moduli (GPa) = 81.23639 58.64544 167.11835
#
# Poissons Ratio (x) = -0.11105 0.54796
# Poissons Ratio (y) = -0.15382 0.44602
# Poissons Ratio (z) = 0.26637 0.15652
#
# Static dielectric constant tensor:
#      x y z
#    x 2.299950 0.078800 -0.002390 
#    y 0.078800 2.037980 0.053370 
#    z -0.002390 0.053370 2.020460 
# 
# From -- ./inp_files/424681.got.cif
#   From: 2010.05.17/outbox.cif.g08.bks.cpg/sg2_213_cif.got.tgz:424681.got - 2010.06.03 11:33:40.
