data_PCOD9096022
_publ_section_title
;
Structure prediction by ZEFSAII (Michael W. Deem and Ramdas Pophale) SiO2 
 PCOD9096022
Probable space group: P -1
;
_chemical_formula_sum "Si O2"
_cell_formula_units_Z 16
_cell_length_a 23.207505
_cell_length_b 5.891276
_cell_length_c 11.973994
_cell_angle_alpha 58.861462
_cell_angle_beta 38.538095
_cell_angle_gamma 53.004790
_cell_volume 811.085782
_symmetry_space_group_name_H-M "P -1"
_symmetry_group_IT_number 2
_symmetry_cell_setting 'triclinic'
loop_
_space_group_symop_operation_xyz
x,y,z
-x,-y,-z
loop_
_atom_site_type_symbol
_atom_site_label
_atom_site_fract_x
_atom_site_fract_y
_atom_site_fract_z
Si Si1 0.941406 0.816743 0.688731
Si Si2 0.621661 0.732171 0.000680
Si Si3 0.791106 0.802210 0.337737
Si Si4 0.929057 0.804306 0.334502
Si Si5 0.390958 0.916784 0.298714
Si Si6 0.744958 0.283672 0.570205
Si Si7 0.945663 0.815174 0.950250
Si Si8 0.287044 0.860941 0.106832
O O1 0.948392 0.810625 0.813945
O O2 0.999480 0.491035 0.647408
O O3 0.826089 0.950938 0.799338
O O4 0.000000 0.000000 0.500000
O O5 0.669481 0.387213 0.991857
O O6 0.625304 0.875442 0.837497
O O7 0.663549 0.910623 0.980963
O O8 0.505519 0.809133 0.183941
O O9 0.870550 0.766289 0.324452
O O10 0.792488 0.490537 0.390737
O O11 0.683202 0.959527 0.516533
O O12 0.832880 0.925078 0.140412
O O13 0.835987 0.978859 0.508997
O O14 0.996250 0.982638 0.155012
O O15 0.350541 0.687436 0.365450
O O16 0.712820 0.326036 0.735557
O O17 0.000000 0.500000 0.000000
#
# Coordination Sequence:
#
# PCOD9096022 Si02
#       8
#     2   2   2   2   2   2   2   2
#     4  12  28  41  63  93 135 181 219 262 331 395
#     4  10  22  40  63  94 132 168 221 276 331 392
#     4  11  20  37  60  95 125 158 216 273 328 386
#     4  11  22  39  62  89 133 173 212 269 324 395
#     4   9  21  34  64  93 125 167 210 281 337 379
#     4  10  20  35  61  93 129 163 214 266 331 387
#     4  12  24  40  63  92 129 174 221 272 322 392
#     4  11  24  40  61  93 135 175 217 268 328 401
#
# _framework density 19.726644
#
# number of rings (size 3 to 8) (size 9 to 14) (size 15 to 20)
#    0.000    1.250    3.750    1.875    7.000    2.500 
#    0.000    0.000    0.000    1.500    0.000    0.000 
#    0.000    0.000    0.000    0.000    0.000    0.000 
#
# Total GULP energy -89149.141754 kJ/mol
# GULP energy per Si atom -5571.821360 kJ/mol
# Density = 1.968175 g / cm^3
# Si number density = 19.726644 Si / 1000 Ang^3
#
#
#
# Elastic Constant Matrix: (Units=GPa)
#
#
# Indices 1 2 3 4 5 6 
#
# 1 94.4232 54.3675 57.9906 2.2921 -31.5663 2.9361
# 2 54.3675 80.2229 45.5082 -3.5642 -31.8214 9.7322
# 3 57.9906 45.5082 143.6684 5.5143 -24.6085 4.2719
# 4 2.2921 -3.5642 5.5143 30.3839 0.8093 -1.5292
# 5 -31.5663 -31.8214 -24.6085 0.8093 43.9644 -4.4667
# 6 2.9361 9.7322 4.2719 -1.5292 -4.4667 16.8982
#
#
#
# Elastic Compliance Matrix: (Units=1/GPa)
#
#
# Indices 1 2 3 4 5 6 
#
# 1 0.020857 -0.010028 -0.004312 -0.001890 0.005806 0.004605
# 2 -0.010028 0.025419 -0.002333 0.003440 0.008847 -0.009657
# 3 -0.004312 -0.002333 0.009619 -0.001727 0.000597 -0.000337
# 4 -0.001890 0.003440 -0.001727 0.033868 -0.000277 0.001775
# 5 0.005806 0.008847 0.000597 -0.000277 0.033930 0.002689
# 6 0.004605 -0.009657 -0.000337 0.001775 0.002689 0.064896
#
#
# Mechanical properties :
#
#
# Convention : Reuss Voigt Hill
#
# Bulk Modulus (GPa) = 44.35206 70.44967 57.40086
# Shear Modulus (GPa) = 21.79113 28.94585 25.36849
#
# Velocity S-wave (km/s) = 3.32724 3.83475 3.58998
# Velocity P-wave (km/s) = 6.10679 7.44296 6.80773
#
# Compressibility (1/GPa) = 0.02254687
#
# Stress axis : x y z
#
# Youngs Moduli (GPa) = 47.94667 39.34080 103.96587
#
# Poissons Ratio (x) = 0.39452 0.44830
# Poissons Ratio (y) = 0.48082 0.24258
# Poissons Ratio (z) = 0.20675 0.09179
#
# Static dielectric constant tensor:
#      x y z
#    x 1.727680 0.071510 0.024050 
#    y 0.071510 1.769660 0.031930 
#    z 0.024050 0.031930 1.712170 
# 
# From -- ./inp_files/77300.got.cif
#   From: 2010.05.17/outbox.cif.g08.bks.cpg/sg2_39_cif.got.tgz:77300.got - 2010.06.03 11:33:40.
