data_PCOD9096615
_publ_section_title
;
Structure prediction by ZEFSAII (Michael W. Deem and Ramdas Pophale) SiO2 
 PCOD9096615
Probable space group: P -1
;
_chemical_formula_sum "Si O2"
_cell_formula_units_Z 16
_cell_length_a 5.311903
_cell_length_b 15.865364
_cell_length_c 17.986309
_cell_angle_alpha 40.548517
_cell_angle_beta 53.451134
_cell_angle_gamma 55.738681
_cell_volume 773.716081
_symmetry_space_group_name_H-M "P -1"
_symmetry_group_IT_number 2
_symmetry_cell_setting 'triclinic'
loop_
_space_group_symop_operation_xyz
x,y,z
-x,-y,-z
loop_
_atom_site_type_symbol
_atom_site_label
_atom_site_fract_x
_atom_site_fract_y
_atom_site_fract_z
Si Si1 0.670672 0.955781 0.605057
Si Si2 0.839383 0.042384 0.918330
Si Si3 0.402236 0.216256 0.408057
Si Si4 0.834518 0.492162 0.739746
Si Si5 0.017063 0.824605 0.917104
Si Si6 0.030580 0.225807 0.209488
Si Si7 0.528268 0.679476 0.181290
Si Si8 0.561866 0.574119 0.014079
O O1 0.662103 0.845534 0.618253
O O2 0.692540 0.884952 0.727421
O O3 0.415228 0.092864 0.544521
O O4 0.000000 0.000000 0.500000
O O5 0.741046 0.200501 0.818251
O O6 0.017426 0.955606 0.877298
O O7 0.500000 0.000000 0.000000
O O8 0.000000 0.000000 0.000000
O O9 0.168222 0.353643 0.378649
O O10 0.755641 0.242388 0.309679
O O11 0.668243 0.420400 0.753780
O O12 0.179083 0.402817 0.764648
O O13 0.575535 0.501115 0.845918
O O14 0.041561 0.831248 0.819405
O O15 0.308241 0.713287 0.968373
O O16 0.708786 0.758327 0.036328
O O17 0.114530 0.368804 0.083342
O O18 0.500000 0.500000 0.000000
#
# Coordination Sequence:
#
# PCOD9096615 Si02
#       8
#     2   2   2   2   2   2   2   2
#     4   9  20  37  56  73 107 142 196 238 278 323
#     4  10  20  36  57  76 110 153 193 236 272 330
#     4  10  22  36  53  80 108 151 189 238 276 333
#     4  11  22  35  55  80 116 149 190 220 283 335
#     4  10  21  32  51  78 112 150 190 224 278 331
#     4  11  20  34  53  80 112 148 192 231 277 334
#     4  10  21  36  51  82 109 148 189 232 275 334
#     4  11  22  32  48  79 119 155 180 221 271 347
#
# _framework density 20.679418999999999
#
# number of rings (size 3 to 8) (size 9 to 14) (size 15 to 20)
#    0.000    1.750    1.250    4.500    8.750    1.000 
#    0.000    0.000    0.000    0.000    0.000    1.750 
#    0.000    0.000    0.000    0.000    0.000    0.000 
#
# Total GULP energy -89131.305717 kJ/mol
# GULP energy per Si atom -5570.706607 kJ/mol
# Density = 2.063235 g / cm^3
# Si number density = 20.679419 Si / 1000 Ang^3
#
#
#
# Elastic Constant Matrix: (Units=GPa)
#
#
# Indices 1 2 3 4 5 6 
#
# 1 99.3455 20.8721 22.6868 -21.8442 12.9983 5.9822
# 2 20.8721 105.9943 27.9346 -43.2186 6.1165 -2.0811
# 3 22.6868 27.9346 65.7511 -28.0004 17.6770 4.5244
# 4 -21.8442 -43.2186 -28.0004 35.5029 -3.3697 -3.4412
# 5 12.9983 6.1165 17.6770 -3.3697 31.8969 -4.0130
# 6 5.9822 -2.0811 4.5244 -3.4412 -4.0130 27.0192
#
#
#
# Elastic Compliance Matrix: (Units=1/GPa)
#
#
# Indices 1 2 3 4 5 6 
#
# 1 0.012428 0.001291 0.000408 0.008850 -0.004895 -0.002320
# 2 0.001291 0.019818 0.003448 0.027736 -0.002832 0.003775
# 3 0.000408 0.003448 0.028420 0.025159 -0.014362 -0.003512
# 4 0.008850 0.027736 0.025159 0.086463 -0.013101 0.005030
# 5 -0.004895 -0.002832 -0.014362 -0.013101 0.041440 0.007757
# 6 -0.002320 0.003775 -0.003512 0.005030 0.007757 0.040196
#
#
# Mechanical properties :
#
#
# Convention : Reuss Voigt Hill
#
# Bulk Modulus (GPa) = 14.09252 46.00865 30.05059
# Shear Modulus (GPa) = 20.65053 32.19028 26.42041
#
# Velocity S-wave (km/s) = 3.16350 3.94970 3.57826
# Velocity P-wave (km/s) = 4.49145 6.56483 5.62451
#
# Compressibility (1/GPa) = 0.07095963
#
# Stress axis : x y z
#
# Youngs Moduli (GPa) = 80.46564 50.45811 35.18628
#
# Poissons Ratio (x) = -0.06513 -0.01436
# Poissons Ratio (y) = -0.10386 -0.12132
# Poissons Ratio (z) = -0.03284 -0.17397
#
# Static dielectric constant tensor:
#      x y z
#    x 2.101180 -0.151580 -0.132690 
#    y -0.151580 1.865570 0.076620 
#    z -0.132690 0.076620 1.883200 
# 
# From -- ./inp_files/79971.got.cif
#   From: 2010.05.17/outbox.cif.g08.bks.cpg/sg2_40_cif.got.tgz:79971.got - 2010.06.03 11:33:40.
