data_PCOD9096363
_publ_section_title
;
Structure prediction by ZEFSAII (Michael W. Deem and Ramdas Pophale) SiO2 
 PCOD9096363
Probable space group: P -1
;
_chemical_formula_sum "Si O2"
_cell_formula_units_Z 14
_cell_length_a 23.114785
_cell_length_b 14.236818
_cell_length_c 6.024132
_cell_angle_alpha 59.357006
_cell_angle_beta 58.279568
_cell_angle_gamma 22.511057
_cell_volume 643.867974
_symmetry_space_group_name_H-M "P -1"
_symmetry_group_IT_number 2
_symmetry_cell_setting 'triclinic'
loop_
_space_group_symop_operation_xyz
x,y,z
-x,-y,-z
loop_
_atom_site_type_symbol
_atom_site_label
_atom_site_fract_x
_atom_site_fract_y
_atom_site_fract_z
Si Si1 0.757967 0.130906 0.905467
Si Si2 0.921926 0.095507 0.793504
Si Si3 0.494379 0.421774 0.411928
Si Si4 0.620958 0.023143 0.567807
Si Si5 0.638755 0.886762 0.101365
Si Si6 0.161734 0.220163 0.941694
Si Si7 0.352049 0.340538 0.394438
O O1 0.863463 0.054409 0.938538
O O2 0.672438 0.332133 0.659244
O O3 0.620693 0.276377 0.151732
O O4 0.833234 0.918376 0.889281
O O5 0.778831 0.385580 0.728004
O O6 0.000000 0.000000 0.500000
O O7 0.000000 0.000000 0.000000
O O8 0.500000 0.500000 0.500000
O O9 0.547570 0.226593 0.614191
O O10 0.483142 0.200753 0.460387
O O11 0.775805 0.839254 0.357763
O O12 0.656297 0.866795 0.828395
O O13 0.721108 0.878220 0.028740
O O14 0.706238 0.685064 0.334249
O O15 0.458947 0.151283 0.202785
O O16 0.000000 0.500000 0.000000
#
# Coordination Sequence:
#
# PCOD9096363 Si02
#       7
#     2   2   2   2   2   2   2
#     4  10  23  42  64 102 136 183 242 291 368 429
#     4  12  30  50  73 106 150 199 240 300 371 440
#     4  10  20  35  70  99 135 176 229 305 355 428
#     4  10  20  39  67 102 130 183 238 290 367 420
#     4  10  22  41  69  98 134 186 236 296 357 421
#     4  10  23  42  62  97 141 182 237 295 361 431
#     4  10  23  43  67  98 138 183 242 295 350 432
#
# _framework density 21.743590999999999
#
# number of rings (size 3 to 8) (size 9 to 14) (size 15 to 20)
#    0.000    1.714    1.429    1.286   10.000    0.571 
#    0.000    0.000    0.000    0.000    0.000    0.000 
#    0.000    0.000    0.000    0.000    0.000    0.000 
#
# Total GULP energy -78018.891746 kJ/mol
# GULP energy per Si atom -5572.777982 kJ/mol
# Density = 2.169410 g / cm^3
# Si number density = 21.743591 Si / 1000 Ang^3
#
#
#
# Elastic Constant Matrix: (Units=GPa)
#
#
# Indices 1 2 3 4 5 6 
#
# 1 148.5256 58.4929 18.9518 -13.7619 -4.4241 6.8441
# 2 58.4929 112.5319 53.6201 -8.4507 1.0682 16.4413
# 3 18.9518 53.6201 77.7566 -18.6612 -8.5820 -3.9960
# 4 -13.7619 -8.4507 -18.6612 16.7277 6.7066 1.9795
# 5 -4.4241 1.0682 -8.5820 6.7066 26.7583 -3.9263
# 6 6.8441 16.4413 -3.9960 1.9795 -3.9263 31.9099
#
#
#
# Elastic Compliance Matrix: (Units=1/GPa)
#
#
# Indices 1 2 3 4 5 6 
#
# 1 0.009630 -0.006876 0.004808 0.009057 0.001386 0.001688
# 2 -0.006876 0.021602 -0.016841 -0.009377 -0.006814 -0.012021
# 3 0.004808 -0.016841 0.030789 0.025965 0.006401 0.010678
# 4 0.009057 -0.009377 0.025965 0.097466 -0.014476 -0.001687
# 5 0.001386 -0.006814 0.006401 -0.014476 0.045089 0.010461
# 6 0.001688 -0.012021 0.010678 -0.001687 0.010461 0.039899
#
#
# Mechanical properties :
#
#
# Convention : Reuss Voigt Hill
#
# Bulk Modulus (GPa) = 41.31734 66.77153 54.04443
# Shear Modulus (GPa) = 17.22007 28.92914 23.07460
#
# Velocity S-wave (km/s) = 2.81723 3.65151 3.26116
# Velocity P-wave (km/s) = 5.44295 6.96802 6.25216
#
# Compressibility (1/GPa) = 0.02420292
#
# Stress axis : x y z
#
# Youngs Moduli (GPa) = 103.84126 46.29257 32.47953
#
# Poissons Ratio (x) = 0.31832 -0.15616
# Poissons Ratio (y) = 0.71404 0.54697
# Poissons Ratio (z) = -0.49928 0.77959
#
# Static dielectric constant tensor:
#      x y z
#    x 1.897330 0.003370 0.028820 
#    y 0.003370 1.771520 0.006920 
#    z 0.028820 0.006920 1.895980 
# 
# From -- ./inp_files/124121.got.cif
#   From: 2010.05.17/outbox.cif.g08.bks.cpg/sg2_63_cif.got.tgz:124121.got - 2010.06.03 11:33:40.
