data_PCOD9096700
_publ_section_title
;
Structure prediction by ZEFSAII (Michael W. Deem and Ramdas Pophale) SiO2 
 PCOD9096700
Probable space group: P -1
;
_chemical_formula_sum "Si O2"
_cell_formula_units_Z 16
_cell_length_a 8.193347
_cell_length_b 11.394902
_cell_length_c 12.143602
_cell_angle_alpha 85.303736
_cell_angle_beta 34.191821
_cell_angle_gamma 86.993523
_cell_volume 634.756160
_symmetry_space_group_name_H-M "P -1"
_symmetry_group_IT_number 2
_symmetry_cell_setting 'triclinic'
loop_
_space_group_symop_operation_xyz
x,y,z
-x,-y,-z
loop_
_atom_site_type_symbol
_atom_site_label
_atom_site_fract_x
_atom_site_fract_y
_atom_site_fract_z
Si Si1 0.423592 0.738544 0.606168
Si Si2 0.063442 0.910770 0.688037
Si Si3 0.685391 0.076272 0.980034
Si Si4 0.828479 0.532354 0.412041
Si Si5 0.566651 0.705755 0.958671
Si Si6 0.775323 0.887644 0.578206
Si Si7 0.011720 0.342221 0.459104
Si Si8 0.900820 0.572794 0.942685
O O1 0.351841 0.838200 0.550543
O O2 0.580146 0.616865 0.502967
O O3 0.610824 0.805732 0.586995
O O4 0.113768 0.687758 0.825222
O O5 0.815237 0.809151 0.824283
O O6 0.086595 0.999786 0.566708
O O7 0.975642 0.000976 0.828316
O O8 0.711454 0.213680 0.915010
O O9 0.485274 0.079542 0.198069
O O10 0.500000 0.000000 0.000000
O O11 0.959246 0.596810 0.443003
O O12 0.021953 0.507884 0.199933
O O13 0.777191 0.403147 0.506630
O O14 0.685746 0.643256 0.784942
O O15 0.601756 0.627645 0.055352
O O16 0.012900 0.796964 0.497805
O O17 0.000000 0.500000 0.000000
#
# Coordination Sequence:
#
# PCOD9096700 Si02
#       8
#     2   2   2   2   2   2   2   2
#     4  10  21  38  55  81 116 147 188 235 272 341
#     4  10  20  36  57  86 118 151 189 227 281 345
#     4   9  19  36  56  81 116 148 187 237 278 327
#     4   9  17  35  59  79 109 145 185 233 282 327
#     4   8  17  35  58  82 119 144 185 241 276 332
#     4  10  20  37  58  83 115 151 190 232 283 334
#     4   8  16  32  59  82 107 142 186 235 276 327
#     4  10  20  37  57  82 114 148 185 230 290 343
#
# _framework density 25.206530000000001
#
# number of rings (size 3 to 8) (size 9 to 14) (size 15 to 20)
#    0.000    2.750    0.000    0.750    0.000    5.000 
#   13.500    0.000    0.000    4.500    0.000    0.000 
#    0.000    0.000    0.000    0.000    0.000    0.000 
#
# Total GULP energy -89137.691619 kJ/mol
# GULP energy per Si atom -5571.105726 kJ/mol
# Density = 2.514916 g / cm^3
# Si number density = 25.206530 Si / 1000 Ang^3
#
#
#
# Elastic Constant Matrix: (Units=GPa)
#
#
# Indices 1 2 3 4 5 6 
#
# 1 80.2912 66.7398 28.5250 7.4846 17.8748 -29.8351
# 2 66.7398 184.8008 49.6240 4.3175 14.5060 -41.2851
# 3 28.5250 49.6240 73.6338 -3.3611 22.6585 -13.8654
# 4 7.4846 4.3175 -3.3611 40.0045 -3.4973 9.5927
# 5 17.8748 14.5060 22.6585 -3.4973 39.0011 -4.6065
# 6 -29.8351 -41.2851 -13.8654 9.5927 -4.6065 59.3672
#
#
#
# Elastic Compliance Matrix: (Units=1/GPa)
#
#
# Indices 1 2 3 4 5 6 
#
# 1 0.022407 -0.005175 -0.001911 -0.006240 -0.006886 0.007690
# 2 -0.005175 0.008895 -0.003986 -0.000884 0.001645 0.002925
# 3 -0.001911 -0.003986 0.019850 0.001682 -0.009031 -0.000069
# 4 -0.006240 -0.000884 0.001682 0.028580 0.003868 -0.007676
# 5 -0.006886 0.001645 -0.009031 0.003868 0.033489 -0.002452
# 6 0.007690 0.002925 -0.000069 -0.007676 -0.002452 0.023777
#
#
# Mechanical properties :
#
#
# Convention : Reuss Voigt Hill
#
# Bulk Modulus (GPa) = 34.47142 69.83369 52.15256
# Shear Modulus (GPa) = 29.61888 40.59701 35.10794
#
# Velocity S-wave (km/s) = 3.43162 4.01755 3.73609
# Velocity P-wave (km/s) = 5.42278 7.02038 6.27265
#
# Compressibility (1/GPa) = 0.02900954
#
# Stress axis : x y z
#
# Youngs Moduli (GPa) = 44.62892 112.41701 50.37740
#
# Poissons Ratio (x) = 0.58175 0.09625
# Poissons Ratio (y) = 0.23095 0.20081
# Poissons Ratio (z) = 0.08527 0.44810
#
# Static dielectric constant tensor:
#      x y z
#    x 2.141190 -0.083850 -0.048370 
#    y -0.083850 2.092330 0.047140 
#    z -0.048370 0.047140 2.081030 
# 
# From -- ./inp_files/389910.got.cif
#   From: 2010.05.17/outbox.cif.g08.bks.cpg/sg2_195_cif.got.tgz:389910.got - 2010.06.03 11:33:40.
