data_PCOD9096202
_publ_section_title
;
Structure prediction by ZEFSAII (Michael W. Deem and Ramdas Pophale) SiO2 
 PCOD9096202
Probable space group: P -1
;
_chemical_formula_sum "Si O2"
_cell_formula_units_Z 12
_cell_length_a 12.555598
_cell_length_b 7.948140
_cell_length_c 8.382773
_cell_angle_alpha 53.006901
_cell_angle_beta 134.861056
_cell_angle_gamma 107.748245
_cell_volume 462.911998
_symmetry_space_group_name_H-M "P -1"
_symmetry_group_IT_number 2
_symmetry_cell_setting 'triclinic'
loop_
_space_group_symop_operation_xyz
x,y,z
-x,-y,-z
loop_
_atom_site_type_symbol
_atom_site_label
_atom_site_fract_x
_atom_site_fract_y
_atom_site_fract_z
Si Si1 0.669227 0.035859 0.636313
Si Si2 0.062603 0.613892 0.648850
Si Si3 0.257536 0.495183 0.190372
Si Si4 0.208155 0.997009 0.871771
Si Si5 0.427550 0.476513 0.682558
Si Si6 0.665221 0.132664 0.245877
O O1 0.658822 0.293454 0.475853
O O2 0.705772 0.969727 0.529034
O O3 0.500000 0.000000 0.500000
O O4 0.753972 0.946577 0.939124
O O5 0.205227 0.723322 0.693316
O O6 0.000000 0.500000 0.500000
O O7 0.129032 0.451906 0.955886
O O8 0.929589 0.817043 0.437973
O O9 0.314795 0.405293 0.474729
O O10 0.419926 0.479987 0.274548
O O11 0.187437 0.751001 0.005516
O O12 0.329069 0.962152 0.873075
O O13 0.498638 0.295158 0.988596
#
# Coordination Sequence:
#
# PCOD9096202 Si02
#       6
#     2   2   2   2   2   2
#     4  11  23  35  62  93 122 154 201 252 293 350
#     4  10  20  35  63  90 121 155 201 251 296 351
#     4   8  15  32  60  83 115 159 190 236 298 352
#     4   9  20  38  59  87 122 157 197 246 298 356
#     4   8  16  34  58  86 114 154 195 238 297 353
#     4  10  21  40  64  87 120 165 195 238 307 357
#
# _framework density 25.922854000000001
#
# number of rings (size 3 to 8) (size 9 to 14) (size 15 to 20)
#    0.000    3.000    0.000    3.500    4.667    1.333 
#    0.000    0.000    7.333   10.000    0.000    0.000 
#    0.000    0.000    0.000    0.000    0.000    0.000 
#
# Total GULP energy -66956.721992 kJ/mol
# GULP energy per Si atom -5579.726833 kJ/mol
# Density = 2.586385 g / cm^3
# Si number density = 25.922854 Si / 1000 Ang^3
#
#
#
# Elastic Constant Matrix: (Units=GPa)
#
#
# Indices 1 2 3 4 5 6 
#
# 1 46.9363 6.9281 35.6576 0.9078 -24.8212 -7.3158
# 2 6.9281 85.4385 21.1548 21.4728 -2.6791 -18.2140
# 3 35.6576 21.1548 217.0307 19.9025 -30.2733 -17.4140
# 4 0.9078 21.4728 19.9025 52.0865 -12.9184 -3.7598
# 5 -24.8212 -2.6791 -30.2733 -12.9184 40.7560 3.0490
# 6 -7.3158 -18.2140 -17.4140 -3.7598 3.0490 32.5698
#
#
#
# Elastic Compliance Matrix: (Units=1/GPa)
#
#
# Indices 1 2 3 4 5 6 
#
# 1 0.035667 -0.002440 -0.002991 0.007089 0.021297 0.003873
# 2 -0.002440 0.015017 -0.000366 -0.006307 -0.003311 0.007236
# 3 -0.002991 -0.000366 0.005656 -0.001385 0.001781 0.001821
# 4 0.007089 -0.006307 -0.001385 0.024825 0.010804 -0.000821
# 5 0.021297 -0.003311 0.001781 0.010804 0.041946 0.001205
# 6 0.003873 0.007236 0.001821 -0.000821 0.001205 0.036386
#
#
# Mechanical properties :
#
#
# Convention : Reuss Voigt Hill
#
# Bulk Modulus (GPa) = 22.34795 52.98741 37.66768
# Shear Modulus (GPa) = 26.88108 44.12680 35.50394
#
# Velocity S-wave (km/s) = 3.22369 4.13029 3.70483
# Velocity P-wave (km/s) = 4.74298 6.57499 5.73264
#
# Compressibility (1/GPa) = 0.04474682
#
# Stress axis : x y z
#
# Youngs Moduli (GPa) = 28.03748 66.59267 176.79702
#
# Poissons Ratio (x) = 0.16247 0.52876
# Poissons Ratio (y) = 0.06841 0.06466
# Poissons Ratio (z) = 0.08385 0.02435
#
# Static dielectric constant tensor:
#      x y z
#    x 2.148690 -0.045160 -0.100290 
#    y -0.045160 2.130680 0.009230 
#    z -0.100290 0.009230 2.080060 
# 
# From -- ./inp_files/189714.got.cif
#   From: 2010.05.17/outbox.cif.g08.bks.cpg/sg2_95_cif.got.tgz:189714.got - 2010.06.03 11:33:40.
