data_PCOD9096831
_publ_section_title
;
Structure prediction by ZEFSAII (Michael W. Deem and Ramdas Pophale) SiO2 
 PCOD9096831
Probable space group: P -1
;
_chemical_formula_sum "Si O2"
_cell_formula_units_Z 16
_cell_length_a 12.414602
_cell_length_b 15.769524
_cell_length_c 15.266659
_cell_angle_alpha 36.963081
_cell_angle_beta 28.897527
_cell_angle_gamma 46.474087
_cell_volume 867.862279
_symmetry_space_group_name_H-M "P -1"
_symmetry_group_IT_number 2
_symmetry_cell_setting 'triclinic'
loop_
_space_group_symop_operation_xyz
x,y,z
-x,-y,-z
loop_
_atom_site_type_symbol
_atom_site_label
_atom_site_fract_x
_atom_site_fract_y
_atom_site_fract_z
Si Si1 0.018651 0.454350 0.125909
Si Si2 0.242856 0.297135 0.606011
Si Si3 0.159260 0.019047 0.660868
Si Si4 0.875611 0.223299 0.793502
Si Si5 0.425813 0.654678 0.395455
Si Si6 0.369832 0.990071 0.725338
Si Si7 0.477711 0.600391 0.199512
Si Si8 0.121658 0.255940 0.925489
O O1 0.821714 0.344167 0.388631
O O2 0.983135 0.601064 0.081763
O O3 0.261653 0.392758 0.014930
O O4 0.000000 0.500000 0.000000
O O5 0.398822 0.436175 0.387126
O O6 0.133948 0.271155 0.799646
O O7 0.054192 0.308613 0.656455
O O8 0.371610 0.156452 0.607082
O O9 0.378350 0.059021 0.416553
O O10 0.005661 0.149534 0.682803
O O11 0.256748 0.973408 0.724245
O O12 0.021165 0.884542 0.833208
O O13 0.678464 0.315325 0.823334
O O14 0.776269 0.096227 0.029277
O O15 0.500000 0.500000 0.500000
O O16 0.435661 0.655384 0.282873
O O17 0.624352 0.753513 0.212066
#
# Coordination Sequence:
#
# PCOD9096831 Si02
#       8
#     2   2   2   2   2   2   2   2
#     4  11  20  37  60  85 115 152 204 249 287 343
#     4  11  19  39  63  88 119 159 199 238 290 354
#     4  10  20  37  64  86 115 161 206 236 283 351
#     4  11  23  39  57  89 133 155 183 246 305 355
#     4  10  20  36  58  84 112 151 198 248 285 339
#     4  10  20  38  63  87 117 162 204 236 279 359
#     4  12  23  38  59  91 123 157 189 249 307 341
#     4  11  18  36  66  87 111 150 208 251 276 340
#
# _framework density 18.436105000000001
#
# number of rings (size 3 to 8) (size 9 to 14) (size 15 to 20)
#    0.000    1.250    7.500    1.875    0.000    1.000 
#    0.000    1.250    0.000    1.500    0.000    0.000 
#    0.000    0.000    0.000    0.000    0.000    0.000 
#
# Total GULP energy -89291.577653 kJ/mol
# GULP energy per Si atom -5580.723603 kJ/mol
# Density = 1.839414 g / cm^3
# Si number density = 18.436105 Si / 1000 Ang^3
#
#
#
# Elastic Constant Matrix: (Units=GPa)
#
#
# Indices 1 2 3 4 5 6 
#
# 1 52.5867 23.1824 4.8888 12.2098 -7.2948 4.3724
# 2 23.1824 55.2954 25.6563 24.7617 -12.1309 4.4330
# 3 4.8888 25.6563 74.6900 25.9446 -21.7912 -1.7153
# 4 12.2098 24.7617 25.9446 35.6826 -1.8290 -6.4785
# 5 -7.2948 -12.1309 -21.7912 -1.8290 23.0371 1.6283
# 6 4.3724 4.4330 -1.7153 -6.4785 1.6283 24.8052
#
#
#
# Elastic Compliance Matrix: (Units=1/GPa)
#
#
# Indices 1 2 3 4 5 6 
#
# 1 0.025631 -0.006784 0.007082 -0.009757 0.010898 -0.006079
# 2 -0.006784 0.036603 0.001636 -0.025749 0.017556 -0.013110
# 3 0.007082 0.001636 0.029450 -0.024900 0.029546 -0.007947
# 4 -0.009757 -0.025749 -0.024900 0.070060 -0.036427 0.025289
# 5 0.010898 0.017556 0.029546 -0.036427 0.082428 -0.017940
# 6 -0.006079 -0.013110 -0.007947 0.025289 -0.017940 0.050962
#
#
# Mechanical properties :
#
#
# Convention : Reuss Voigt Hill
#
# Bulk Modulus (GPa) = 10.46563 32.22522 21.34543
# Shear Modulus (GPa) = 15.47421 25.29459 20.38440
#
# Velocity S-wave (km/s) = 2.90028 3.70809 3.32878
# Velocity P-wave (km/s) = 4.11151 5.98754 5.13591
#
# Compressibility (1/GPa) = 0.09555087
#
# Stress axis : x y z
#
# Youngs Moduli (GPa) = 39.01492 27.32019 33.95551
#
# Poissons Ratio (x) = 0.18535 -0.24046
# Poissons Ratio (y) = 0.26469 -0.05555
# Poissons Ratio (z) = -0.27629 -0.04469
#
# Static dielectric constant tensor:
#      x y z
#    x 1.637160 0.011030 -0.028070 
#    y 0.011030 1.635370 0.021070 
#    z -0.028070 0.021070 1.648500 
# 
# From -- ./inp_files/246006.got.cif
#   From: 2010.05.17/outbox.cif.g08.bks.cpg/sg2_124_cif.got.tgz:246006.got - 2010.06.03 11:33:40.
