data_PCOD9096901
_publ_section_title
;
Structure prediction by ZEFSAII (Michael W. Deem and Ramdas Pophale) SiO2 
 PCOD9096901
Probable space group: P -1
;
_chemical_formula_sum "Si O2"
_cell_formula_units_Z 16
_cell_length_a 15.226930
_cell_length_b 31.644196
_cell_length_c 11.260465
_cell_angle_alpha 27.410681
_cell_angle_beta 151.108002
_cell_angle_gamma 160.903995
_cell_volume 792.606688
_symmetry_space_group_name_H-M "P -1"
_symmetry_group_IT_number 2
_symmetry_cell_setting 'triclinic'
loop_
_space_group_symop_operation_xyz
x,y,z
-x,-y,-z
loop_
_atom_site_type_symbol
_atom_site_label
_atom_site_fract_x
_atom_site_fract_y
_atom_site_fract_z
Si Si1 0.703237 0.927823 0.363998
Si Si2 0.290225 0.270013 0.613094
Si Si3 0.889229 0.071745 0.458240
Si Si4 0.556937 0.092209 0.132751
Si Si5 0.001852 0.098003 0.925909
Si Si6 0.078874 0.371522 0.190072
Si Si7 0.449370 0.691511 0.832592
Si Si8 0.774947 0.336428 0.121071
O O1 0.519068 0.781339 0.578958
O O2 0.782315 0.034359 0.290538
O O3 0.555744 0.905450 0.127147
O O4 0.000000 0.000000 0.500000
O O5 0.545917 0.299090 0.859917
O O6 0.172694 0.229340 0.442234
O O7 0.060341 0.138121 0.757791
O O8 0.304992 0.378068 0.415162
O O9 0.659731 0.031192 0.369185
O O10 0.957071 0.992492 0.765327
O O11 0.819513 0.248028 0.106082
O O12 0.303304 0.991017 0.175530
O O13 0.258805 0.240989 0.945300
O O14 0.933888 0.318240 0.281894
O O15 0.226451 0.526112 0.961668
O O16 0.355087 0.720962 0.758289
O O17 0.000000 0.500000 0.000000
#
# Coordination Sequence:
#
# PCOD9096901 Si02
#       8
#     2   2   2   2   2   2   2   2
#     4  11  21  39  62  82 111 156 198 242 285 332
#     4  10  21  35  59  87 121 151 183 242 292 339
#     4  10  21  36  56  84 116 145 193 239 287 337
#     4  11  22  37  61  86 113 156 194 241 287 335
#     4  10  20  36  58  87 117 151 191 232 289 342
#     4  10  22  38  59  89 121 148 191 234 292 351
#     4   9  20  38  59  84 116 154 189 235 290 336
#     4   9  19  35  57  83 117 151 185 225 285 347
#
# _framework density 20.186558000000002
#
# number of rings (size 3 to 8) (size 9 to 14) (size 15 to 20)
#    0.000    2.000    2.500    1.500    0.000   12.000 
#    0.000    2.500    0.000    1.500    0.000    0.000 
#    0.000    0.000    0.000    0.000    0.000    0.000 
#
# Total GULP energy -89167.495287 kJ/mol
# GULP energy per Si atom -5572.968455 kJ/mol
# Density = 2.014061 g / cm^3
# Si number density = 20.186558 Si / 1000 Ang^3
#
#
#
# Elastic Constant Matrix: (Units=GPa)
#
#
# Indices 1 2 3 4 5 6 
#
# 1 56.3809 32.8443 8.4840 -9.2832 11.6395 -1.2285
# 2 32.8443 92.1061 7.7817 -2.4965 4.4628 -2.4649
# 3 8.4840 7.7817 41.3055 0.9884 4.5012 -2.7614
# 4 -9.2832 -2.4965 0.9884 23.4976 -2.3739 3.1775
# 5 11.6395 4.4628 4.5012 -2.3739 35.0684 2.4221
# 6 -1.2285 -2.4649 -2.7614 3.1775 2.4221 36.1261
#
#
#
# Elastic Compliance Matrix: (Units=1/GPa)
#
#
# Indices 1 2 3 4 5 6 
#
# 1 0.025929 -0.008423 -0.003262 0.008869 -0.006495 -0.000287
# 2 -0.008423 0.013858 -0.000898 -0.001811 0.000977 0.000684
# 3 -0.003262 -0.000898 0.025534 -0.003003 -0.002436 0.002207
# 4 0.008869 -0.001811 -0.003003 0.046681 0.001125 -0.004233
# 5 -0.006495 0.000977 -0.002436 0.001125 0.031110 -0.002525
# 6 -0.000287 0.000684 0.002207 -0.004233 -0.002525 0.028428
#
#
# Mechanical properties :
#
#
# Convention : Reuss Voigt Hill
#
# Bulk Modulus (GPa) = 24.90408 32.00139 28.45274
# Shear Modulus (GPa) = 23.79892 28.31725 26.05808
#
# Velocity S-wave (km/s) = 3.43731 3.74943 3.59676
# Velocity P-wave (km/s) = 5.30256 5.88486 5.60128
#
# Compressibility (1/GPa) = 0.04015406
#
# Stress axis : x y z
#
# Youngs Moduli (GPa) = 38.56662 72.15841 39.16337
#
# Poissons Ratio (x) = 0.60780 0.12777
# Poissons Ratio (y) = 0.32485 0.03518
# Poissons Ratio (z) = 0.12582 0.06481
#
# Static dielectric constant tensor:
#      x y z
#    x 1.659110 -0.224100 -0.310130 
#    y -0.224100 1.418640 -0.582710 
#    z -0.310130 -0.582710 0.704130 
# 
# From -- ./inp_files/458382.got.cif
#   From: 2010.05.17/outbox.cif.g08.bks.cpg/sg2_230_cif.got.tgz:458382.got - 2010.06.03 11:33:40.
