data_PCOD9096457
_publ_section_title
;
Structure prediction by ZEFSAII (Michael W. Deem and Ramdas Pophale) SiO2 
 PCOD9096457
Probable space group: P -1
;
_chemical_formula_sum "Si O2"
_cell_formula_units_Z 16
_cell_length_a 10.899721
_cell_length_b 11.091323
_cell_length_c 11.091326
_cell_angle_alpha 96.375038
_cell_angle_beta 66.884992
_cell_angle_gamma 137.560332
_cell_volume 796.952607
_symmetry_space_group_name_H-M "P -1"
_symmetry_group_IT_number 2
_symmetry_cell_setting 'triclinic'
loop_
_space_group_symop_operation_xyz
x,y,z
-x,-y,-z
loop_
_atom_site_type_symbol
_atom_site_label
_atom_site_fract_x
_atom_site_fract_y
_atom_site_fract_z
Si Si1 0.054625 0.552332 0.344748
Si Si2 0.674515 0.265760 0.091244
Si Si3 0.452291 0.925084 0.310901
Si Si4 0.188660 0.850789 0.621107
Si Si5 0.945375 0.100627 0.002293
Si Si6 0.811340 0.690233 0.837872
Si Si7 0.547709 0.736808 0.027207
Si Si8 0.961874 0.631666 0.169793
O O1 0.299964 0.729872 0.276994
O O2 0.979598 0.615454 0.302927
O O3 0.000000 0.500000 0.500000
O O4 0.935007 0.356052 0.311481
O O5 0.546183 0.244970 0.037331
O O6 0.767745 0.431095 0.163350
O O7 0.546184 0.083514 0.198787
O O8 0.849944 0.310064 0.960120
O O9 0.303488 0.897387 0.458037
O O10 0.630851 0.996202 0.336633
O O11 0.000000 0.815156 0.684844
O O12 0.064993 0.253512 0.078955
O O13 0.020402 0.217475 0.864144
O O14 0.700035 0.923042 0.070093
O O15 0.000000 0.000000 0.000000
O O16 0.696512 0.738475 0.906101
O O17 0.630852 0.467485 0.865351
#
# Coordination Sequence:
#
# PCOD9096457 Si02
#       8
#     2   2   2   2   2   2   2   2
#     4  10  21  36  56  87 120 153 192 239 292 349
#     4  11  21  35  58  87 116 147 192 243 299 347
#     4  10  21  35  55  82 113 152 187 238 293 343
#     4  10  20  36  55  81 115 150 195 236 283 348
#     4  10  21  36  56  87 120 153 192 239 292 349
#     4  10  20  36  55  81 115 150 195 236 283 348
#     4  10  21  35  55  82 113 152 187 238 293 343
#     4  11  21  35  59  87 119 150 189 248 296 339
#
# _framework density 20.076476
#
# number of rings (size 3 to 8) (size 9 to 14) (size 15 to 20)
#    0.000    1.750    2.500    2.250    0.000    5.000 
#    0.000    0.625    0.000    0.000    0.000    3.500 
#    0.000    0.000    0.000    0.000    0.000    0.000 
#
# Total GULP energy -89207.078782 kJ/mol
# GULP energy per Si atom -5575.442424 kJ/mol
# Density = 2.003078 g / cm^3
# Si number density = 20.076476 Si / 1000 Ang^3
#
#
#
# Elastic Constant Matrix: (Units=GPa)
#
#
# Indices 1 2 3 4 5 6 
#
# 1 88.5073 21.5376 32.3507 -4.0541 4.3088 8.2022
# 2 21.5376 110.8521 19.3295 -10.3124 12.3471 16.3403
# 3 32.3507 19.3295 80.7492 -8.8536 6.0348 -2.6284
# 4 -4.0541 -10.3124 -8.8536 30.5222 4.4547 -2.9477
# 5 4.3088 12.3471 6.0348 4.4547 39.3690 -5.2372
# 6 8.2022 16.3403 -2.6284 -2.9477 -5.2372 36.1394
#
#
#
# Elastic Compliance Matrix: (Units=1/GPa)
#
#
# Indices 1 2 3 4 5 6 
#
# 1 0.013860 -0.001263 -0.005337 -0.000333 -0.000676 -0.003088
# 2 -0.001263 0.011076 -0.001655 0.003198 -0.004133 -0.005180
# 3 -0.005337 -0.001655 0.015527 0.003732 -0.001272 0.003209
# 4 -0.000333 0.003198 0.003732 0.035776 -0.005450 0.001030
# 5 -0.000676 -0.004133 -0.001272 -0.005450 0.028326 0.005590
# 6 -0.003088 -0.005180 0.003209 0.001030 0.005590 0.031841
#
#
# Mechanical properties :
#
#
# Convention : Reuss Voigt Hill
#
# Bulk Modulus (GPa) = 41.74599 47.39382 44.56990
# Shear Modulus (GPa) = 31.07494 34.99883 33.03688
#
# Velocity S-wave (km/s) = 3.93851 4.17978 4.06094
# Velocity P-wave (km/s) = 6.44369 6.85215 6.65106
#
# Compressibility (1/GPa) = 0.02395440
#
# Stress axis : x y z
#
# Youngs Moduli (GPa) = 72.14775 90.28322 64.40376
#
# Poissons Ratio (x) = 0.11401 0.34374
# Poissons Ratio (y) = 0.09111 0.10656
# Poissons Ratio (z) = 0.38507 0.14938
#
# Static dielectric constant tensor:
#      x y z
#    x 1.751340 -0.009570 -0.058400 
#    y -0.009570 1.776780 0.030600 
#    z -0.058400 0.030600 1.757060 
# 
# From -- ./inp_files/402386.got.cif
#   From: 2010.05.17/outbox.cif.g08.bks.cpg/sg2_202_cif.got.tgz:402386.got - 2010.06.03 11:33:40.
