data_PCOD9096046
_publ_section_title
;
Structure prediction by ZEFSAII (Michael W. Deem and Ramdas Pophale) SiO2 
 PCOD9096046
Probable space group: P -1
;
_chemical_formula_sum "Si O2"
_cell_formula_units_Z 16
_cell_length_a 8.497641
_cell_length_b 17.226016
_cell_length_c 10.993862
_cell_angle_alpha 30.162772
_cell_angle_beta 117.204244
_cell_angle_gamma 116.105523
_cell_volume 715.537626
_symmetry_space_group_name_H-M "P -1"
_symmetry_group_IT_number 2
_symmetry_cell_setting 'triclinic'
loop_
_space_group_symop_operation_xyz
x,y,z
-x,-y,-z
loop_
_atom_site_type_symbol
_atom_site_label
_atom_site_fract_x
_atom_site_fract_y
_atom_site_fract_z
Si Si1 0.034312 0.480022 0.183071
Si Si2 0.491777 0.328427 0.174287
Si Si3 0.490041 0.829815 0.340602
Si Si4 0.112448 0.226135 0.143628
Si Si5 0.212090 0.043062 0.037848
Si Si6 0.389577 0.368045 0.559744
Si Si7 0.181497 0.810864 0.541175
Si Si8 0.126915 0.042581 0.637705
O O1 0.233382 0.445901 0.328699
O O2 0.906594 0.328138 0.387500
O O3 0.000000 0.500000 0.000000
O O4 0.975305 0.630927 0.022787
O O5 0.505131 0.240198 0.427197
O O6 0.309559 0.291289 0.086526
O O7 0.653840 0.268247 0.237336
O O8 0.500000 0.500000 0.000000
O O9 0.489520 0.705940 0.399701
O O10 0.685351 0.923854 0.277655
O O11 0.329777 0.935954 0.143784
O O12 0.153449 0.095166 0.435687
O O13 0.964915 0.130264 0.140475
O O14 0.241063 0.973581 0.276709
O O15 0.290247 0.220653 0.799860
O O16 0.000000 0.000000 0.000000
O O17 0.500000 0.500000 0.500000
O O18 0.016244 0.846196 0.516611
#
# Coordination Sequence:
#
# PCOD9096046 Si02
#       8
#     2   2   2   2   2   2   2   2
#     4  12  21  41  71  97 132 177 224 279 337 402
#     4  10  20  35  61  98 134 170 219 278 349 393
#     4  10  22  42  69  89 129 184 222 274 338 408
#     4  10  21  35  61  95 134 170 224 276 330 411
#     4  11  23  45  67  94 132 184 228 271 342 413
#     4  12  27  46  70 104 135 179 235 281 333 413
#     4  11  21  38  66  93 133 182 221 277 342 406
#     4  10  20  39  61  97 130 177 223 272 339 403
#
# _framework density 22.360809
#
# number of rings (size 3 to 8) (size 9 to 14) (size 15 to 20)
#    0.000    1.250    5.000    1.125    1.750    0.500 
#    2.250    0.625    0.000    0.000    0.000    0.000 
#    0.000    0.000    0.000    0.000    0.000    0.000 
#
# Total GULP energy -89225.692474 kJ/mol
# GULP energy per Si atom -5576.605780 kJ/mol
# Density = 2.230991 g / cm^3
# Si number density = 22.360809 Si / 1000 Ang^3
#
#
#
# Elastic Constant Matrix: (Units=GPa)
#
#
# Indices 1 2 3 4 5 6 
#
# 1 140.6084 49.0808 33.7106 -13.3849 42.4542 25.1728
# 2 49.0808 110.8549 34.8218 -32.9941 18.7468 18.8976
# 3 33.7106 34.8218 104.1869 -10.2392 7.2066 19.9690
# 4 -13.3849 -32.9941 -10.2392 36.9565 -5.3136 -4.8937
# 5 42.4542 18.7468 7.2066 -5.3136 42.0962 3.2200
# 6 25.1728 18.8976 19.9690 -4.8937 3.2200 18.1197
#
#
#
# Elastic Compliance Matrix: (Units=1/GPa)
#
#
# Indices 1 2 3 4 5 6 
#
# 1 0.014290 -0.001457 -0.000238 -0.000093 -0.012520 -0.015871
# 2 -0.001457 0.015584 -0.001744 0.011306 -0.003079 -0.008705
# 3 -0.000238 -0.001744 0.012508 0.000266 -0.000209 -0.011526
# 4 -0.000093 0.011306 0.000266 0.036908 -0.000179 -0.001956
# 5 -0.012520 -0.003079 -0.000209 -0.000179 0.036674 0.014269
# 6 -0.015871 -0.008705 -0.011526 -0.001956 0.014269 0.095955
#
#
# Mechanical properties :
#
#
# Convention : Reuss Voigt Hill
#
# Bulk Modulus (GPa) = 28.16661 65.65297 46.90979
# Shear Modulus (GPa) = 21.67953 35.30359 28.49156
#
# Velocity S-wave (km/s) = 3.11711 3.97774 3.57343
# Velocity P-wave (km/s) = 5.05756 7.10782 6.16847
#
# Compressibility (1/GPa) = 0.03550302
#
# Stress axis : x y z
#
# Youngs Moduli (GPa) = 69.97757 64.16955 79.95023
#
# Poissons Ratio (x) = 0.09350 0.01902
# Poissons Ratio (y) = 0.10196 0.13946
# Poissons Ratio (z) = 0.01665 0.11194
#
# Static dielectric constant tensor:
#      x y z
#    x 1.955640 0.033460 -0.055540 
#    y 0.033460 1.869940 0.008710 
#    z -0.055540 0.008710 1.886900 
# 
# From -- ./inp_files/401724.got.cif
#   From: 2010.05.17/outbox.cif.g08.bks.cpg/sg2_201_cif.got.tgz:401724.got - 2010.06.03 11:33:40.
