data_PCOD9096875
_publ_section_title
;
Structure prediction by ZEFSAII (Michael W. Deem and Ramdas Pophale) SiO2 
 PCOD9096875
Probable space group: P -1
;
_chemical_formula_sum "Si O2"
_cell_formula_units_Z 16
_cell_length_a 10.972021
_cell_length_b 10.872747
_cell_length_c 21.719939
_cell_angle_alpha 32.561648
_cell_angle_beta 31.552330
_cell_angle_gamma 39.123131
_cell_volume 714.321879
_symmetry_space_group_name_H-M "P -1"
_symmetry_group_IT_number 2
_symmetry_cell_setting 'triclinic'
loop_
_space_group_symop_operation_xyz
x,y,z
-x,-y,-z
loop_
_atom_site_type_symbol
_atom_site_label
_atom_site_fract_x
_atom_site_fract_y
_atom_site_fract_z
Si Si1 0.584365 0.777365 0.635582
Si Si2 0.531614 0.999131 0.071966
Si Si3 0.102737 0.721589 0.072171
Si Si4 0.517596 0.509164 0.891076
Si Si5 0.137246 0.905658 0.203645
Si Si6 0.131047 0.637272 0.839785
Si Si7 0.694311 0.705392 0.479288
Si Si8 0.638237 0.619145 0.272381
O O1 0.645577 0.660768 0.724859
O O2 0.342055 0.691873 0.766280
O O3 0.716358 0.688379 0.552133
O O4 0.504523 0.058120 0.548698
O O5 0.441279 0.277926 0.992796
O O6 0.791189 0.978390 0.938477
O O7 0.389864 0.843791 0.156045
O O8 0.540688 0.888128 0.181891
O O9 0.279827 0.611081 0.097077
O O10 0.862234 0.613059 0.223228
O O11 0.280286 0.655239 0.964551
O O12 0.000000 0.000000 0.000000
O O13 0.956670 0.742199 0.333523
O O14 0.008878 0.101469 0.223774
O O15 0.227911 0.503208 0.794096
O O16 0.000000 0.500000 0.000000
O O17 0.588122 0.506027 0.574296
#
# Coordination Sequence:
#
# PCOD9096875 Si02
#       8
#     2   2   2   2   2   2   2   2
#     4   9  19  36  60  91 129 169 208 247 325 393
#     4  11  22  35  60  98 130 168 217 264 318 385
#     4  11  24  44  68  96 123 164 229 286 323 364
#     4  11  24  41  68  97 125 168 221 282 320 369
#     4  10  21  34  56  96 133 169 211 250 318 395
#     4  10  16  30  56  87 118 162 203 255 309 372
#     4   9  21  37  60  95 138 176 202 253 325 399
#     4  11  21  37  61  90 131 169 211 268 326 378
#
# _framework density 22.398865000000001
#
# number of rings (size 3 to 8) (size 9 to 14) (size 15 to 20)
#    0.000    1.750    2.500    3.000    7.000    0.500 
#    0.000    0.625    0.000    3.000    0.000    0.000 
#    0.000    0.000    0.000    0.000    0.000    0.000 
#
# Total GULP energy -89081.444081 kJ/mol
# GULP energy per Si atom -5567.590255 kJ/mol
# Density = 2.234788 g / cm^3
# Si number density = 22.398865 Si / 1000 Ang^3
#
#
#
# Elastic Constant Matrix: (Units=GPa)
#
#
# Indices 1 2 3 4 5 6 
#
# 1 83.2785 13.2224 36.7370 -4.7970 -15.8781 -14.9413
# 2 13.2224 105.7267 18.8972 -12.3473 9.0779 -3.6991
# 3 36.7370 18.8972 135.2923 0.2173 -29.8107 -13.5533
# 4 -4.7970 -12.3473 0.2173 29.7657 -7.2126 -0.5323
# 5 -15.8781 9.0779 -29.8107 -7.2126 39.8844 0.0051
# 6 -14.9413 -3.6991 -13.5533 -0.5323 0.0051 19.5612
#
#
#
# Elastic Compliance Matrix: (Units=1/GPa)
#
#
# Indices 1 2 3 4 5 6 
#
# 1 0.016422 -0.001440 -0.001779 0.003768 0.006216 0.011140
# 2 -0.001440 0.010703 -0.002011 0.003265 -0.003922 -0.000380
# 3 -0.001779 -0.002011 0.010388 0.000755 0.007650 0.005478
# 4 0.003768 0.003265 0.000755 0.037610 0.008122 0.005040
# 5 0.006216 -0.003922 0.007650 0.008122 0.035625 0.009519
# 6 0.011140 -0.000380 0.005478 0.005040 0.009519 0.063489
#
#
# Mechanical properties :
#
#
# Convention : Reuss Voigt Hill
#
# Bulk Modulus (GPa) = 36.96374 51.33453 44.14913
# Shear Modulus (GPa) = 25.81122 34.87164 30.34143
#
# Velocity S-wave (km/s) = 3.39830 3.94997 3.68448
# Velocity P-wave (km/s) = 5.65122 6.61598 6.15254
#
# Compressibility (1/GPa) = 0.02705354
#
# Stress axis : x y z
#
# Youngs Moduli (GPa) = 60.89435 93.43404 96.26055
#
# Poissons Ratio (x) = 0.13453 0.17120
# Poissons Ratio (y) = 0.08768 0.19362
# Poissons Ratio (z) = 0.10830 0.18794
#
# Static dielectric constant tensor:
#      x y z
#    x 2.175560 -0.170200 0.071540 
#    y -0.170200 2.038700 -0.017500 
#    z 0.071540 -0.017500 1.877450 
# 
# From -- ./inp_files/610331.got.cif
#   From: 2010.05.17/outbox.cif.g08.bks.cpg/sg2_306_cif.got.tgz:610331.got - 2010.06.03 11:33:40.
