data_PCOD9096372
_publ_section_title
;
Structure prediction by ZEFSAII (Michael W. Deem and Ramdas Pophale) SiO2 
 PCOD9096372
Probable space group: P -1
;
_chemical_formula_sum "Si O2"
_cell_formula_units_Z 16
_cell_length_a 14.030830
_cell_length_b 14.116878
_cell_length_c 14.610368
_cell_angle_alpha 138.295046
_cell_angle_beta 151.669392
_cell_angle_gamma 58.549126
_cell_volume 825.391602
_symmetry_space_group_name_H-M "P -1"
_symmetry_group_IT_number 2
_symmetry_cell_setting 'triclinic'
loop_
_space_group_symop_operation_xyz
x,y,z
-x,-y,-z
loop_
_atom_site_type_symbol
_atom_site_label
_atom_site_fract_x
_atom_site_fract_y
_atom_site_fract_z
Si Si1 0.506998 0.672282 0.637910
Si Si2 0.681659 0.563307 0.282128
Si Si3 0.719121 0.448864 0.980246
Si Si4 0.993486 0.878183 0.269439
Si Si5 0.410719 0.820309 0.828474
Si Si6 0.819065 0.351452 0.799614
Si Si7 0.923140 0.380251 0.455846
Si Si8 0.820206 0.798593 0.261525
O O1 0.500000 0.500000 0.500000
O O2 0.359552 0.698885 0.612829
O O3 0.415403 0.696642 0.482426
O O4 0.749852 0.797076 0.961824
O O5 0.748354 0.434860 0.297996
O O6 0.923493 0.666330 0.516307
O O7 0.500000 0.500000 0.000000
O O8 0.546102 0.634021 0.281986
O O9 0.754631 0.627188 0.119670
O O10 0.890987 0.469960 0.223541
O O11 0.797667 0.393305 0.915713
O O12 0.983655 0.832487 0.336554
O O13 0.125211 0.796575 0.270354
O O14 0.087467 0.064751 0.487148
O O15 0.205841 0.755148 0.677523
O O16 0.609413 0.809670 0.045408
O O17 0.500000 0.000000 0.000000
O O18 0.000000 0.500000 0.000000
#
# Coordination Sequence:
#
# PCOD9096372 Si02
#       8
#     2   2   2   2   2   2   2   2
#     4  11  22  34  50  76 120 160 194 226 275 354
#     4   9  20  40  57  86 114 148 200 250 294 330
#     4  11  21  34  60  85 115 150 193 246 285 339
#     4  10  22  34  47  73 117 160 191 223 277 347
#     4  11  22  35  57  90 123 156 190 234 293 358
#     4  12  20  33  51  79 116 156 190 233 285 341
#     4  10  21  35  61  86 117 151 194 246 294 341
#     4  10  20  36  51  77 121 155 191 231 281 343
#
# _framework density 19.384737999999999
#
# number of rings (size 3 to 8) (size 9 to 14) (size 15 to 20)
#    0.000    1.500    3.750    2.250    5.250    0.000 
#    0.000    0.000    0.000    0.000    0.000   13.125 
#    0.000    0.625    0.000    0.000    0.000    0.000 
#
# Total GULP energy -89189.125266 kJ/mol
# GULP energy per Si atom -5574.320329 kJ/mol
# Density = 1.934062 g / cm^3
# Si number density = 19.384738 Si / 1000 Ang^3
#
#
#
# Elastic Constant Matrix: (Units=GPa)
#
#
# Indices 1 2 3 4 5 6 
#
# 1 125.5664 34.2552 26.7123 10.9034 1.4091 -20.1223
# 2 34.2552 86.9336 29.3510 -13.6942 -5.5519 -13.2980
# 3 26.7123 29.3510 72.8312 -8.3666 -18.7977 -13.3090
# 4 10.9034 -13.6942 -8.3666 37.6314 -1.8807 -1.7055
# 5 1.4091 -5.5519 -18.7977 -1.8807 30.2723 0.7436
# 6 -20.1223 -13.2980 -13.3090 -1.7055 0.7436 29.6257
#
#
#
# Elastic Compliance Matrix: (Units=1/GPa)
#
#
# Indices 1 2 3 4 5 6 
#
# 1 0.010771 -0.003553 -0.003310 -0.005148 -0.003627 0.004029
# 2 -0.003553 0.015604 -0.003323 0.006187 0.001264 0.003423
# 3 -0.003310 -0.003323 0.021316 0.005401 0.012974 0.005822
# 4 -0.005148 0.006187 0.005401 0.032003 0.006634 0.003383
# 5 -0.003627 0.001264 0.012974 0.006634 0.041822 0.003264
# 6 0.004029 0.003423 0.005822 0.003383 0.003264 0.040755
#
#
# Mechanical properties :
#
#
# Convention : Reuss Voigt Hill
#
# Bulk Modulus (GPa) = 36.60382 51.77425 44.18904
# Shear Modulus (GPa) = 26.07586 32.50671 29.29128
#
# Velocity S-wave (km/s) = 3.67164 4.09947 3.89144
# Velocity P-wave (km/s) = 6.07440 7.01244 6.56021
#
# Compressibility (1/GPa) = 0.02731955
#
# Stress axis : x y z
#
# Youngs Moduli (GPa) = 92.84514 64.08694 46.91256
#
# Poissons Ratio (x) = 0.22770 0.15528
# Poissons Ratio (y) = 0.32987 0.15588
# Poissons Ratio (z) = 0.30731 0.21294
#
# Static dielectric constant tensor:
#      x y z
#    x 1.795870 -0.007830 0.043630 
#    y -0.007830 1.671190 -0.046230 
#    z 0.043630 -0.046230 1.705290 
# 
# From -- ./inp_files/533445.got.cif
#   From: 2010.05.17/outbox.cif.g08.bks.cpg/sg2_267_cif.got.tgz:533445.got - 2010.06.03 11:33:40.
