data_PCOD9096300
_publ_section_title
;
Structure prediction by ZEFSAII (Michael W. Deem and Ramdas Pophale) SiO2 
 PCOD9096300
Probable space group: P -1
;
_chemical_formula_sum "Si O2"
_cell_formula_units_Z 15
_cell_length_a 15.512525
_cell_length_b 9.102691
_cell_length_c 10.874002
_cell_angle_alpha 76.681107
_cell_angle_beta 149.969160
_cell_angle_gamma 120.307355
_cell_volume 582.732527
_symmetry_space_group_name_H-M "P -1"
_symmetry_group_IT_number 2
_symmetry_cell_setting 'triclinic'
loop_
_space_group_symop_operation_xyz
x,y,z
-x,-y,-z
loop_
_atom_site_type_symbol
_atom_site_label
_atom_site_fract_x
_atom_site_fract_y
_atom_site_fract_z
Si Si1 0.490083 0.733931 0.362257
Si Si2 0.500000 0.500000 0.000000
Si Si3 0.793332 0.270459 0.777001
Si Si4 0.774362 0.719083 0.903135
Si Si5 0.457986 0.688848 0.711866
Si Si6 0.987088 0.174935 0.460119
Si Si7 0.056612 0.234847 0.272337
Si Si8 0.220902 0.986015 0.521775
O O1 0.378126 0.769833 0.323379
O O2 0.700928 0.764865 0.679995
O O3 0.335622 0.506345 0.185944
O O4 0.550415 0.868314 0.294182
O O5 0.503176 0.328087 0.095855
O O6 0.760773 0.627434 0.251572
O O7 0.660692 0.225262 0.496467
O O8 0.902162 0.176357 0.976019
O O9 0.000000 0.500000 0.000000
O O10 0.669219 0.760651 0.876657
O O11 0.029902 0.833251 0.220504
O O12 0.273424 0.459951 0.492823
O O13 0.923980 0.197802 0.241327
O O14 0.000000 0.000000 0.500000
O O15 0.828576 0.122825 0.389560
O O16 0.159797 0.128912 0.438536
#
# Coordination Sequence:
#
# PCOD9096300 Si02
#       8
#     2   1   2   2   2   2   2   2
#     4  10  21  35  54  78 110 144 183 225 274 322
#     4  10  16  30  54  78 108 138 178 230 264 312
#     4   9  19  36  58  76 111 151 177 216 285 334
#     4  10  19  33  54  79 108 139 180 228 271 314
#     4   9  16  31  53  82 104 140 182 222 268 316
#     4   9  19  30  53  82 111 137 184 226 271 311
#     4   9  18  34  55  81 112 147 177 223 274 323
#     4  11  19  33  57  85 107 137 189 233 267 315
#
# _framework density 25.740798000000002
#
# number of rings (size 3 to 8) (size 9 to 14) (size 15 to 20)
#    0.000    2.400    2.667    0.400    1.867    0.000 
#    0.000    3.333    2.933    0.800    0.000    0.000 
#    0.000    0.000    0.000    0.000    0.000    0.000 
#
# Total GULP energy -83542.075065 kJ/mol
# GULP energy per Si atom -5569.471671 kJ/mol
# Density = 2.568221 g / cm^3
# Si number density = 25.740798 Si / 1000 Ang^3
#
#
#
# Elastic Constant Matrix: (Units=GPa)
#
#
# Indices 1 2 3 4 5 6 
#
# 1 74.4226 31.3953 10.3309 4.0021 19.8986 32.1528
# 2 31.3953 81.6319 20.5005 14.7263 4.1539 30.2439
# 3 10.3309 20.5005 47.7149 -3.9287 6.5231 5.7810
# 4 4.0021 14.7263 -3.9287 42.5854 0.6794 -4.4555
# 5 19.8986 4.1539 6.5231 0.6794 31.0072 -0.1333
# 6 32.1528 30.2439 5.7810 -4.4555 -0.1333 50.2159
#
#
#
# Elastic Compliance Matrix: (Units=1/GPa)
#
#
# Indices 1 2 3 4 5 6 
#
# 1 0.025535 -0.002880 -0.000548 -0.002753 -0.015889 -0.014838
# 2 -0.002880 0.020770 -0.007863 -0.008753 0.000867 -0.010534
# 3 -0.000548 -0.007863 0.025124 0.005431 -0.003988 0.002666
# 4 -0.002753 -0.008753 0.005431 0.028182 0.001218 0.008913
# 5 -0.015889 0.000867 -0.003988 0.001218 0.043188 0.010334
# 6 -0.014838 -0.010534 0.002666 0.008913 0.010334 0.036271
#
#
# Mechanical properties :
#
#
# Convention : Reuss Voigt Hill
#
# Bulk Modulus (GPa) = 20.47212 36.46919 28.47066
# Shear Modulus (GPa) = 22.94255 34.19787 28.57021
#
# Velocity S-wave (km/s) = 2.98869 3.64888 3.33516
# Velocity P-wave (km/s) = 4.45871 5.65252 5.09073
#
# Compressibility (1/GPa) = 0.04884692
#
# Stress axis : x y z
#
# Youngs Moduli (GPa) = 39.16207 48.14524 39.80218
#
# Poissons Ratio (x) = 0.13867 0.02181
# Poissons Ratio (y) = 0.11280 0.31297
# Poissons Ratio (z) = 0.02146 0.37858
#
# Static dielectric constant tensor:
#      x y z
#    x 2.149040 0.009980 -0.073220 
#    y 0.009980 2.116860 -0.010770 
#    z -0.073220 -0.010770 2.084640 
# 
# From -- ./inp_files/464565.got.cif
#   From: 2010.05.17/outbox.cif.g08.bks.cpg/sg2_233_cif.got.tgz:464565.got - 2010.06.03 11:33:40.
