data_PCOD9096727
_publ_section_title
;
Structure prediction by ZEFSAII (Michael W. Deem and Ramdas Pophale) SiO2 
 PCOD9096727
Probable space group: P -1
;
_chemical_formula_sum "Si O2"
_cell_formula_units_Z 16
_cell_length_a 10.906889
_cell_length_b 9.942590
_cell_length_c 17.444617
_cell_angle_alpha 56.289474
_cell_angle_beta 30.576868
_cell_angle_gamma 67.080131
_cell_volume 782.851434
_symmetry_space_group_name_H-M "P -1"
_symmetry_group_IT_number 2
_symmetry_cell_setting 'triclinic'
loop_
_space_group_symop_operation_xyz
x,y,z
-x,-y,-z
loop_
_atom_site_type_symbol
_atom_site_label
_atom_site_fract_x
_atom_site_fract_y
_atom_site_fract_z
Si Si1 0.670777 0.698695 0.654071
Si Si2 0.858057 0.120932 0.991145
Si Si3 0.566700 0.012929 0.626548
Si Si4 0.889643 0.552036 0.442094
Si Si5 0.331441 0.326884 0.618534
Si Si6 0.541099 0.429711 0.916447
Si Si7 0.481004 0.060352 0.077601
Si Si8 0.137311 0.815049 0.452673
O O1 0.837992 0.614638 0.533932
O O2 0.476874 0.548269 0.845564
O O3 0.848362 0.771369 0.606348
O O4 0.616957 0.865787 0.592105
O O5 0.732271 0.074098 0.989886
O O6 0.068267 0.285354 0.817907
O O7 0.620079 0.105748 0.177061
O O8 0.000000 0.000000 0.000000
O O9 0.447447 0.163622 0.614452
O O10 0.791279 0.108674 0.527148
O O11 0.742745 0.650821 0.435107
O O12 0.777969 0.358465 0.548711
O O13 0.173788 0.578924 0.253999
O O14 0.500000 0.500000 0.500000
O O15 0.411767 0.238716 0.050224
O O16 0.500000 0.500000 0.000000
O O17 0.500000 0.000000 0.000000
O O18 0.275156 0.936115 0.275260
#
# Coordination Sequence:
#
# PCOD9096727 Si02
#       8
#     2   2   2   2   2   2   2   2
#     4  11  23  38  59  91 131 160 195 256 322 360
#     4   9  20  37  59  87 119 163 207 252 303 369
#     4  10  21  38  60  89 118 163 204 253 298 368
#     4  11  22  39  61  88 126 160 200 257 311 357
#     4  11  21  39  65  88 116 162 219 252 293 377
#     4  11  22  39  63  90 123 166 208 251 303 380
#     4  11  20  35  61  94 124 157 203 257 315 362
#     4  10  20  36  57  88 124 158 200 247 310 363
#
# _framework density 20.438105
#
# number of rings (size 3 to 8) (size 9 to 14) (size 15 to 20)
#    0.000    1.500    2.500    4.875    0.000    1.500 
#    0.000    0.000    0.000    0.750    0.000    0.000 
#    0.000    0.000    0.000    0.000    0.000    0.000 
#
# Total GULP energy -89072.805384 kJ/mol
# GULP energy per Si atom -5567.050337 kJ/mol
# Density = 2.039159 g / cm^3
# Si number density = 20.438105 Si / 1000 Ang^3
#
#
#
# Elastic Constant Matrix: (Units=GPa)
#
#
# Indices 1 2 3 4 5 6 
#
# 1 65.4646 18.1681 8.0410 -2.4753 6.5665 -13.7811
# 2 18.1681 149.8077 22.5981 -10.1715 19.9647 -10.6573
# 3 8.0410 22.5981 86.7590 -19.3245 4.7068 1.1181
# 4 -2.4753 -10.1715 -19.3245 38.2932 -1.9056 10.0338
# 5 6.5665 19.9647 4.7068 -1.9056 25.3920 -5.0751
# 6 -13.7811 -10.6573 1.1181 10.0338 -5.0751 28.5103
#
#
#
# Elastic Compliance Matrix: (Units=1/GPa)
#
#
# Indices 1 2 3 4 5 6 
#
# 1 0.017771 -0.001178 -0.001922 -0.002528 -0.001743 0.008805
# 2 -0.001178 0.007891 -0.001529 0.000653 -0.005315 0.001264
# 3 -0.001922 -0.001529 0.013968 0.007768 -0.001310 -0.005015
# 4 -0.002528 0.000653 0.007768 0.033461 -0.001450 -0.013317
# 5 -0.001743 -0.005315 -0.001310 -0.001450 0.045305 0.005797
# 6 0.008805 0.001264 -0.005015 -0.013317 0.005797 0.045719
#
#
# Mechanical properties :
#
#
# Convention : Reuss Voigt Hill
#
# Bulk Modulus (GPa) = 32.92470 44.40508 38.66489
# Shear Modulus (GPa) = 27.24816 35.32070 31.28443
#
# Velocity S-wave (km/s) = 3.65527 4.16165 3.91665
# Velocity P-wave (km/s) = 5.82744 6.69822 6.27795
#
# Compressibility (1/GPa) = 0.03037234
#
# Stress axis : x y z
#
# Youngs Moduli (GPa) = 56.27065 126.72170 71.59022
#
# Poissons Ratio (x) = 0.14931 0.13761
# Poissons Ratio (y) = 0.06630 0.10945
# Poissons Ratio (z) = 0.10816 0.19374
#
# Static dielectric constant tensor:
#      x y z
#    x 1.762730 -0.051960 0.009630 
#    y -0.051960 1.839140 0.007090 
#    z 0.009630 0.007090 1.770090 
# 
# From -- ./inp_files/216681.got.cif
#   From: 2010.05.17/outbox.cif.g08.bks.cpg/sg2_109_cif.got.tgz:216681.got - 2010.06.03 11:33:40.
