data_PCOD9096010
_publ_section_title
;
Structure prediction by ZEFSAII (Michael W. Deem and Ramdas Pophale) SiO2 
 PCOD9096010
Probable space group: P -1
;
_chemical_formula_sum "Si O2"
_cell_formula_units_Z 16
_cell_length_a 12.140760
_cell_length_b 7.812303
_cell_length_c 18.324295
_cell_angle_alpha 95.589794
_cell_angle_beta 144.661143
_cell_angle_gamma 109.173406
_cell_volume 706.012107
_symmetry_space_group_name_H-M "P -1"
_symmetry_group_IT_number 2
_symmetry_cell_setting 'triclinic'
loop_
_space_group_symop_operation_xyz
x,y,z
-x,-y,-z
loop_
_atom_site_type_symbol
_atom_site_label
_atom_site_fract_x
_atom_site_fract_y
_atom_site_fract_z
Si Si1 0.312706 0.162806 0.615648
Si Si2 0.290042 0.679559 0.040871
Si Si3 0.898317 0.709748 0.289484
Si Si4 0.561071 0.647756 0.717949
Si Si5 0.708438 0.265325 0.713588
Si Si6 0.148136 0.958525 0.991255
Si Si7 0.663939 0.285021 0.525897
Si Si8 0.284577 0.308120 0.957840
O O1 0.456213 0.174615 0.763434
O O2 0.376827 0.405431 0.657132
O O3 0.486506 0.207984 0.641852
O O4 0.019147 0.900353 0.428729
O O5 0.299665 0.525138 0.984978
O O6 0.255347 0.854673 0.006360
O O7 0.003233 0.456748 0.915852
O O8 0.596258 0.451829 0.129374
O O9 0.097750 0.680686 0.376821
O O10 0.872310 0.813862 0.207850
O O11 0.656792 0.869641 0.828373
O O12 0.397971 0.599123 0.556399
O O13 0.845973 0.746290 0.850927
O O14 0.723533 0.361513 0.645672
O O15 0.604646 0.005942 0.632081
O O16 0.152538 0.121612 0.945111
#
# Coordination Sequence:
#
# PCOD9096010 Si02
#       8
#     2   2   2   2   2   2   2   2
#     4  11  23  39  64  96 134 168 210 270 323 382
#     4  12  22  42  67  95 131 171 211 265 327 378
#     4  10  24  46  65  92 128 176 218 267 315 377
#     4  11  23  38  61 101 136 162 212 270 322 394
#     4  10  20  35  61  92 125 170 203 260 332 381
#     4  11  24  40  65 100 129 171 215 262 326 387
#     4  10  21  37  61  91 131 170 209 263 327 376
#     4  11  24  47  69  90 130 175 222 262 315 383
#
# _framework density 22.662500000000001
#
# number of rings (size 3 to 8) (size 9 to 14) (size 15 to 20)
#    0.000    1.250    3.750    2.625    5.250    2.000 
#    2.250    2.500    0.000    0.000    0.000    0.000 
#    0.000    0.000    0.000    0.000    0.000    0.000 
#
# Total GULP energy -89415.084446 kJ/mol
# GULP energy per Si atom -5588.442778 kJ/mol
# Density = 2.261092 g / cm^3
# Si number density = 22.662500 Si / 1000 Ang^3
#
#
#
# Elastic Constant Matrix: (Units=GPa)
#
#
# Indices 1 2 3 4 5 6 
#
# 1 40.4533 13.5268 9.5985 1.5378 7.3323 -7.0513
# 2 13.5268 52.2760 11.0681 -9.8577 -3.0944 -2.8981
# 3 9.5985 11.0681 112.1921 -9.1421 -4.9240 -2.0268
# 4 1.5378 -9.8577 -9.1421 22.0669 -2.4424 -0.0986
# 5 7.3323 -3.0944 -4.9240 -2.4424 35.0356 -0.0703
# 6 -7.0513 -2.8981 -2.0268 -0.0986 -0.0703 26.8409
#
#
#
# Elastic Compliance Matrix: (Units=1/GPa)
#
#
# Indices 1 2 3 4 5 6 
#
# 1 0.031515 -0.009262 -0.002703 -0.008348 -0.008361 0.007023
# 2 -0.009262 0.024134 -0.000412 0.011792 0.004834 0.000197
# 3 -0.002703 -0.000412 0.009626 0.004233 0.002177 -0.000006
# 4 -0.008348 0.011792 0.004233 0.053707 0.007127 -0.000384
# 5 -0.008361 0.004834 0.002177 0.007127 0.031519 -0.001401
# 6 0.007023 0.000197 -0.000006 -0.000384 -0.001401 0.039117
#
#
# Mechanical properties :
#
#
# Convention : Reuss Voigt Hill
#
# Bulk Modulus (GPa) = 24.67875 30.36756 27.52315
# Shear Modulus (GPa) = 21.94148 28.17056 25.05602
#
# Velocity S-wave (km/s) = 3.11494 3.52951 3.32869
# Velocity P-wave (km/s) = 4.88369 5.48078 5.19083
#
# Compressibility (1/GPa) = 0.04052070
#
# Stress axis : x y z
#
# Youngs Moduli (GPa) = 31.73061 41.43556 103.89037
#
# Poissons Ratio (x) = 0.38379 0.28080
# Poissons Ratio (y) = 0.29390 0.04278
# Poissons Ratio (z) = 0.08576 0.01706
#
# Static dielectric constant tensor:
#      x y z
#    x 1.879810 -0.028230 -0.008900 
#    y -0.028230 1.839120 0.020070 
#    z -0.008900 0.020070 1.854280 
# 
# From -- ./inp_files/521316.got.cif
#   From: 2010.05.17/outbox.cif.g08.bks.cpg/sg2_261_cif.got.tgz:521316.got - 2010.06.03 11:33:40.
