data_PCOD9096813
_publ_section_title
;
Structure prediction by ZEFSAII (Michael W. Deem and Ramdas Pophale) SiO2 
 PCOD9096813
Probable space group: P -1
;
_chemical_formula_sum "Si O2"
_cell_formula_units_Z 16
_cell_length_a 20.310181
_cell_length_b 14.952713
_cell_length_c 17.456665
_cell_angle_alpha 27.695719
_cell_angle_beta 161.272084
_cell_angle_gamma 144.299093
_cell_volume 778.574499
_symmetry_space_group_name_H-M "P -1"
_symmetry_group_IT_number 2
_symmetry_cell_setting 'triclinic'
loop_
_space_group_symop_operation_xyz
x,y,z
-x,-y,-z
loop_
_atom_site_type_symbol
_atom_site_label
_atom_site_fract_x
_atom_site_fract_y
_atom_site_fract_z
Si Si1 0.496274 0.760919 0.764588
Si Si2 0.266733 0.033030 0.683754
Si Si3 0.631550 0.870269 0.574743
Si Si4 0.859244 0.482832 0.430783
Si Si5 0.493820 0.894388 0.892112
Si Si6 0.971696 0.376679 0.801458
Si Si7 0.061135 0.244096 0.429559
Si Si8 0.517211 0.559247 0.782281
O O1 0.280657 0.686572 0.602900
O O2 0.574995 0.658046 0.849722
O O3 0.446282 0.991326 0.544088
O O4 0.678206 0.673450 0.090626
O O5 0.321586 0.013076 0.669986
O O6 0.129433 0.869530 0.679254
O O7 0.137117 0.220953 0.442352
O O8 0.500000 0.000000 0.000000
O O9 0.598208 0.653820 0.724542
O O10 0.522323 0.978199 0.299065
O O11 0.880073 0.830553 0.868301
O O12 0.000000 0.500000 0.500000
O O13 0.986742 0.452461 0.673005
O O14 0.729401 0.854119 0.217445
O O15 0.440340 0.675698 0.989242
O O16 0.005215 0.537862 0.778041
O O17 0.730317 0.367942 0.549255
#
# Coordination Sequence:
#
# PCOD9096813 Si02
#       8
#     2   2   2   2   2   2   2   2
#     4  10  21  36  54  82 116 155 200 237 281 338
#     4   9  18  34  62  90 111 144 188 232 284 347
#     4  12  23  36  58  86 117 154 195 238 283 333
#     4  10  20  36  58  83 114 155 197 241 287 330
#     4  10  21  37  59  86 114 150 192 232 285 345
#     4  10  22  36  55  84 115 152 195 236 283 339
#     4   9  18  37  61  84 115 151 185 231 289 341
#     4  10  22  40  56  79 120 156 191 241 285 331
#
# _framework density 20.550377999999998
#
# number of rings (size 3 to 8) (size 9 to 14) (size 15 to 20)
#    0.000    2.000    0.000    4.875    0.000    5.000 
#    0.000    0.625    0.000   30.750    0.000    0.000 
#    0.000    0.000    0.000    0.000    0.000    0.000 
#
# Total GULP energy -89174.299010 kJ/mol
# GULP energy per Si atom -5573.393688 kJ/mol
# Density = 2.050360 g / cm^3
# Si number density = 20.550378 Si / 1000 Ang^3
#
#
#
# Elastic Constant Matrix: (Units=GPa)
#
#
# Indices 1 2 3 4 5 6 
#
# 1 115.6146 32.2291 23.1821 -3.9082 12.0397 -2.2860
# 2 32.2291 53.2014 35.8767 -2.9119 0.7872 -5.9910
# 3 23.1821 35.8767 74.0404 -8.3484 -1.5808 -10.8053
# 4 -3.9082 -2.9119 -8.3484 14.9360 3.7139 4.6739
# 5 12.0397 0.7872 -1.5808 3.7139 28.9235 -6.1227
# 6 -2.2860 -5.9910 -10.8053 4.6739 -6.1227 31.6320
#
#
#
# Elastic Compliance Matrix: (Units=1/GPa)
#
#
# Indices 1 2 3 4 5 6 
#
# 1 0.011166 -0.006465 -0.000398 0.003435 -0.005380 -0.002102
# 2 -0.006465 0.031794 -0.013524 -0.004166 0.002033 0.001944
# 3 -0.000398 -0.013524 0.021670 0.007740 0.001565 0.003971
# 4 0.003435 -0.004166 0.007740 0.078525 -0.013542 -0.012121
# 5 -0.005380 0.002033 0.001565 -0.013542 0.040790 0.010427
# 6 -0.002102 0.001944 0.003971 -0.012121 0.010427 0.036996
#
#
# Mechanical properties :
#
#
# Convention : Reuss Voigt Hill
#
# Bulk Modulus (GPa) = 41.91991 47.27026 44.59508
# Shear Modulus (GPa) = 18.54133 25.20285 21.87209
#
# Velocity S-wave (km/s) = 3.00699 3.50579 3.26592
# Velocity P-wave (km/s) = 5.70078 6.28009 5.99743
#
# Compressibility (1/GPa) = 0.02385501
#
# Stress axis : x y z
#
# Youngs Moduli (GPa) = 89.55541 31.45223 46.14748
#
# Poissons Ratio (x) = 0.20335 0.01835
# Poissons Ratio (y) = 0.57901 0.62412
# Poissons Ratio (z) = 0.03562 0.42537
#
# Static dielectric constant tensor:
#      x y z
#    x 1.832810 -0.000780 0.023440 
#    y -0.000780 1.776010 0.018630 
#    z 0.023440 0.018630 1.721650 
# 
# From -- ./inp_files/578175.got.cif
#   From: 2010.05.17/outbox.cif.g08.bks.cpg/sg2_290_cif.got.tgz:578175.got - 2010.06.03 11:33:40.
