data_PCOD9096809
_publ_section_title
;
Structure prediction by ZEFSAII (Michael W. Deem and Ramdas Pophale) SiO2 
 PCOD9096809
Probable space group: P -1
;
_chemical_formula_sum "Si O2"
_cell_formula_units_Z 14
_cell_length_a 15.971431
_cell_length_b 9.059783
_cell_length_c 12.375208
_cell_angle_alpha 50.699045
_cell_angle_beta 114.618467
_cell_angle_gamma 74.061630
_cell_volume 810.679826
_symmetry_space_group_name_H-M "P -1"
_symmetry_group_IT_number 2
_symmetry_cell_setting 'triclinic'
loop_
_space_group_symop_operation_xyz
x,y,z
-x,-y,-z
loop_
_atom_site_type_symbol
_atom_site_label
_atom_site_fract_x
_atom_site_fract_y
_atom_site_fract_z
Si Si1 0.188214 0.225072 0.006496
Si Si2 0.854460 0.111197 0.384274
Si Si3 0.923950 0.666758 0.495045
Si Si4 0.897256 0.058735 0.830506
Si Si5 0.632297 0.782710 0.020184
Si Si6 0.693901 0.708550 0.343292
Si Si7 0.008675 0.690697 0.858260
O O1 0.323197 0.094271 0.075765
O O2 0.152923 0.432379 0.986832
O O3 0.053834 0.454528 0.747282
O O4 0.173720 0.029872 0.128803
O O5 0.723930 0.461339 0.171025
O O6 0.848833 0.987726 0.332128
O O7 0.000000 0.000000 0.500000
O O8 0.884538 0.937184 0.589648
O O9 0.804046 0.700052 0.436075
O O10 0.000000 0.500000 0.500000
O O11 0.768760 0.398959 0.568722
O O12 0.993375 0.864956 0.865471
O O13 0.000000 0.000000 0.000000
O O14 0.677641 0.730663 0.194317
O O15 0.463208 0.016772 0.819242
O O16 0.000000 0.500000 0.000000
#
# Coordination Sequence:
#
# PCOD9096809 Si02
#       7
#     2   2   2   2   2   2   2
#     4  10  20  36  58  83 111 147 191 234 277 338
#     4  11  19  34  61  83 108 150 190 228 282 339
#     4  11  20  34  59  89 111 139 194 244 271 331
#     4  11  21  34  59  87 110 146 190 240 280 324
#     4  11  22  39  57  84 116 154 185 230 294 336
#     4  11  23  37  57  85 120 145 188 241 280 338
#     4   9  19  33  53  85 106 141 189 233 269 331
#
# _framework density 17.269456000000002
#
# number of rings (size 3 to 8) (size 9 to 14) (size 15 to 20)
#    0.000    1.429    7.143    0.000    0.000    1.143 
#    0.000    0.000    0.000    0.857    0.000    0.000 
#    0.000    0.000    0.000    0.000    0.000    0.000 
#
# Total GULP energy -77952.130592 kJ/mol
# GULP energy per Si atom -5568.009328 kJ/mol
# Density = 1.723015 g / cm^3
# Si number density = 17.269456 Si / 1000 Ang^3
#
#
#
# Elastic Constant Matrix: (Units=GPa)
#
#
# Indices 1 2 3 4 5 6 
#
# 1 108.8139 43.1209 34.7710 -18.6826 4.3172 -11.1125
# 2 43.1209 132.7276 32.4865 -18.0905 4.3580 -5.4305
# 3 34.7710 32.4865 49.4541 -16.4633 -2.5431 -9.3660
# 4 -18.6826 -18.0905 -16.4633 27.9005 -1.4899 -3.8234
# 5 4.3172 4.3580 -2.5431 -1.4899 29.1059 -2.9919
# 6 -11.1125 -5.4305 -9.3660 -3.8234 -2.9919 23.8860
#
#
#
# Elastic Compliance Matrix: (Units=1/GPa)
#
#
# Indices 1 2 3 4 5 6 
#
# 1 0.013040 -0.002023 -0.005662 0.004538 -0.001490 0.003926
# 2 -0.002023 0.009570 -0.004238 0.002241 -0.001414 -0.000245
# 3 -0.005662 -0.004238 0.035517 0.016683 0.006856 0.013858
# 4 0.004538 0.002241 0.016683 0.052950 0.005037 0.018269
# 5 -0.001490 -0.001414 0.006856 0.005037 0.036370 0.007036
# 6 0.003926 -0.000245 0.013858 0.018269 0.007036 0.052876
#
#
# Mechanical properties :
#
#
# Convention : Reuss Voigt Hill
#
# Bulk Modulus (GPa) = 29.16972 56.86137 43.01554
# Shear Modulus (GPa) = 21.22280 28.21963 24.72121
#
# Velocity S-wave (km/s) = 3.50940 4.04676 3.78762
# Velocity P-wave (km/s) = 5.77484 7.40489 6.64008
#
# Compressibility (1/GPa) = 0.03428212
#
# Stress axis : x y z
#
# Youngs Moduli (GPa) = 76.68704 104.48838 28.15587
#
# Poissons Ratio (x) = 0.21133 0.15942
# Poissons Ratio (y) = 0.15510 0.11932
# Poissons Ratio (z) = 0.43422 0.44279
#
# Static dielectric constant tensor:
#      x y z
#    x 1.641710 -0.002120 -0.052500 
#    y -0.002120 1.647450 -0.010100 
#    z -0.052500 -0.010100 1.571810 
# 
# From -- ./inp_files/171245.got.cif
#   From: 2010.05.17/outbox.cif.g08.bks.cpg/sg2_86_cif.got.tgz:171245.got - 2010.06.03 11:33:40.
