data_PCOD9096322
_publ_section_title
;
Structure prediction by ZEFSAII (Michael W. Deem and Ramdas Pophale) SiO2 
 PCOD9096322
Probable space group: P -1
;
_chemical_formula_sum "Si O2"
_cell_formula_units_Z 15
_cell_length_a 10.901432
_cell_length_b 10.290665
_cell_length_c 18.386249
_cell_angle_alpha 39.374531
_cell_angle_beta 32.740483
_cell_angle_gamma 38.377261
_cell_volume 651.710206
_symmetry_space_group_name_H-M "P -1"
_symmetry_group_IT_number 2
_symmetry_cell_setting 'triclinic'
loop_
_space_group_symop_operation_xyz
x,y,z
-x,-y,-z
loop_
_atom_site_type_symbol
_atom_site_label
_atom_site_fract_x
_atom_site_fract_y
_atom_site_fract_z
Si Si1 0.263348 0.812163 0.156339
Si Si2 0.277036 0.130508 0.766476
Si Si3 0.000000 0.500000 0.500000
Si Si4 0.052159 0.126766 0.579536
Si Si5 0.750572 0.289751 0.960558
Si Si6 0.748157 0.708897 0.036160
Si Si7 0.444726 0.271627 0.485421
Si Si8 0.579213 0.254132 0.675601
O O1 0.219687 0.792631 0.102495
O O2 0.549885 0.687208 0.087773
O O3 0.092968 0.743794 0.328023
O O4 0.207854 0.066361 0.096635
O O5 0.321418 0.147399 0.652574
O O6 0.496412 0.166781 0.683290
O O7 0.006056 0.312544 0.842910
O O8 0.271692 0.899442 0.894897
O O9 0.903164 0.656004 0.559655
O O10 0.713860 0.647253 0.542278
O O11 0.849420 0.104783 0.636863
O O12 0.274860 0.904975 0.584928
O O13 0.500000 0.500000 0.000000
O O14 0.611396 0.741531 0.167644
O O15 0.000000 0.500000 0.000000
O O16 0.440766 0.494652 0.429669
#
# Coordination Sequence:
#
# PCOD9096322 Si02
#       8
#     2   2   1   2   2   2   2   2
#     4  10  21  39  59  95 126 157 224 269 314 395
#     4  11  25  44  62  95 135 175 224 272 320 411
#     4  10  22  40  60  92 128 162 220 268 312 394
#     4  10  22  39  65  97 127 170 211 279 336 386
#     4  11  26  43  66  92 132 186 221 271 331 392
#     4  10  20  35  66  91 124 168 206 275 330 372
#     4  11  23  41  69  96 131 174 214 272 344 389
#     4  10  22  40  61  98 135 163 222 269 326 405
#
# _framework density 23.016366000000001
#
# number of rings (size 3 to 8) (size 9 to 14) (size 15 to 20)
#    0.000    1.600    1.333    2.400    1.867    4.800 
#    0.000    2.667    0.000    0.000    0.000    0.000 
#    0.000    0.000    0.000    0.000    0.000    0.000 
#
# Total GULP energy -83696.018690 kJ/mol
# GULP energy per Si atom -5579.734579 kJ/mol
# Density = 2.296398 g / cm^3
# Si number density = 23.016366 Si / 1000 Ang^3
#
#
#
# Elastic Constant Matrix: (Units=GPa)
#
#
# Indices 1 2 3 4 5 6 
#
# 1 88.6428 33.2067 30.0993 6.2056 -17.6666 -28.4400
# 2 33.2067 142.3962 45.9804 22.2574 -22.1061 -53.6897
# 3 30.0993 45.9804 99.8102 -2.1636 -0.5286 -21.5193
# 4 6.2056 22.2574 -2.1636 32.1447 -15.4425 -12.5995
# 5 -17.6666 -22.1061 -0.5286 -15.4425 44.0554 1.8201
# 6 -28.4400 -53.6897 -21.5193 -12.5995 1.8201 34.4174
#
#
#
# Elastic Compliance Matrix: (Units=1/GPa)
#
#
# Indices 1 2 3 4 5 6 
#
# 1 0.022199 0.009706 -0.003556 0.009598 0.015692 0.033945
# 2 0.009706 0.025050 -0.004341 0.006553 0.016811 0.045894
# 3 -0.003556 -0.004341 0.013129 0.003459 -0.002229 -0.000118
# 4 0.009598 0.006553 0.003459 0.051048 0.023512 0.037761
# 5 0.015692 0.016811 -0.002229 0.023512 0.043820 0.044087
# 6 0.033945 0.045894 -0.000118 0.037761 0.044087 0.140116
#
#
# Mechanical properties :
#
#
# Convention : Reuss Voigt Hill
#
# Bulk Modulus (GPa) = 15.62594 61.04688 38.33641
# Shear Modulus (GPa) = 15.97053 36.89434 26.43243
#
# Velocity S-wave (km/s) = 2.63701 4.00804 3.39251
# Velocity P-wave (km/s) = 4.00944 6.92821 5.66019
#
# Compressibility (1/GPa) = 0.06399616
#
# Stress axis : x y z
#
# Youngs Moduli (GPa) = 45.04707 39.91937 76.16633
#
# Poissons Ratio (x) = -0.38746 0.27085
# Poissons Ratio (y) = -0.43723 0.33066
# Poissons Ratio (z) = 0.16019 0.17330
#
# Static dielectric constant tensor:
#      x y z
#    x 1.888090 0.035180 -0.046120 
#    y 0.035180 1.914080 -0.073850 
#    z -0.046120 -0.073850 2.026870 
# 
# From -- ./inp_files/370811.got.cif
#   From: 2010.05.17/outbox.cif.g08.bks.cpg/sg2_186_cif.got.tgz:370811.got - 2010.06.03 11:33:40.
