data_PCOD9096319
_publ_section_title
;
Structure prediction by ZEFSAII (Michael W. Deem and Ramdas Pophale) SiO2 
 PCOD9096319
Probable space group: P -1
;
_chemical_formula_sum "Si O2"
_cell_formula_units_Z 12
_cell_length_a 9.244341
_cell_length_b 9.559678
_cell_length_c 9.281191
_cell_angle_alpha 103.138968
_cell_angle_beta 46.562277
_cell_angle_gamma 71.962107
_cell_volume 436.261870
_symmetry_space_group_name_H-M "P -1"
_symmetry_group_IT_number 2
_symmetry_cell_setting 'triclinic'
loop_
_space_group_symop_operation_xyz
x,y,z
-x,-y,-z
loop_
_atom_site_type_symbol
_atom_site_label
_atom_site_fract_x
_atom_site_fract_y
_atom_site_fract_z
Si Si1 0.130126 0.452565 0.211638
Si Si2 0.404745 0.811481 0.966091
Si Si3 0.223215 0.707004 0.291385
Si Si4 0.725187 0.709691 0.212148
Si Si5 0.260306 0.975407 0.813860
Si Si6 0.354495 0.532825 0.458576
O O1 0.302212 0.317568 0.198057
O O2 0.041299 0.660708 0.345322
O O3 0.886200 0.463575 0.353474
O O4 0.336687 0.329251 0.910061
O O5 0.416071 0.663281 0.826174
O O6 0.340133 0.958485 0.923714
O O7 0.213548 0.857296 0.238548
O O8 0.232441 0.697569 0.457535
O O9 0.500000 0.500000 0.000000
O O10 0.786341 0.847831 0.182125
O O11 0.498665 0.802003 0.509354
O O12 0.000000 0.500000 0.000000
O O13 0.000000 0.000000 0.000000
O O14 0.500000 0.500000 0.500000
#
# Coordination Sequence:
#
# PCOD9096319 Si02
#       6
#     2   2   2   2   2   2
#     4  10  21  40  68 105 143 204 259 318 395 473
#     4  10  22  42  65 100 159 198 254 329 396 468
#     4   8  18  36  59 100 147 192 258 317 385 466
#     4  11  27  50  80 115 155 210 273 322 409 487
#     4  11  28  51  75 119 164 202 266 347 398 468
#     4  10  20  35  66 112 150 203 269 323 390 474
#
# _framework density 27.506413999999999
#
# number of rings (size 3 to 8) (size 9 to 14) (size 15 to 20)
#    0.000    2.333    0.000    3.000    4.667    8.000 
#    3.000    0.833    0.000    0.000    0.000    0.000 
#    0.000    0.000    0.000    0.000    0.000    0.000 
#
# Total GULP energy -67030.012145 kJ/mol
# GULP energy per Si atom -5585.834345 kJ/mol
# Density = 2.744381 g / cm^3
# Si number density = 27.506414 Si / 1000 Ang^3
#
#
#
# Elastic Constant Matrix: (Units=GPa)
#
#
# Indices 1 2 3 4 5 6 
#
# 1 197.1481 51.4776 68.8472 -26.8286 2.0569 -19.7606
# 2 51.4776 157.0364 73.9366 -36.9362 -16.2851 -17.3160
# 3 68.8472 73.9366 173.5415 -28.4266 12.2848 -17.2538
# 4 -26.8286 -36.9362 -28.4266 57.1132 7.5597 -2.0119
# 5 2.0569 -16.2851 12.2848 7.5597 46.5493 -13.7969
# 6 -19.7606 -17.3160 -17.2538 -2.0119 -13.7969 40.7556
#
#
#
# Elastic Compliance Matrix: (Units=1/GPa)
#
#
# Indices 1 2 3 4 5 6 
#
# 1 0.006298 -0.000508 -0.001793 0.001764 0.000414 0.002306
# 2 -0.000508 0.010113 -0.003340 0.004121 0.005129 0.004576
# 3 -0.001793 -0.003340 0.008438 0.001671 -0.003537 0.000169
# 4 0.001764 0.004121 0.001671 0.022174 -0.001525 0.003892
# 5 0.000414 0.005129 -0.003537 -0.001525 0.027431 0.010093
# 6 0.002306 0.004576 0.000169 0.003892 0.010093 0.031279
#
#
# Mechanical properties :
#
#
# Convention : Reuss Voigt Hill
#
# Bulk Modulus (GPa) = 73.71436 101.80542 87.75989
# Shear Modulus (GPa) = 41.13953 51.11461 46.12707
#
# Velocity S-wave (km/s) = 3.87154 4.31545 4.09951
# Velocity P-wave (km/s) = 6.84414 7.86910 7.37445
#
# Compressibility (1/GPa) = 0.01356588
#
# Stress axis : x y z
#
# Youngs Moduli (GPa) = 158.77925 98.88322 118.51666
#
# Poissons Ratio (x) = 0.05025 0.21252
# Poissons Ratio (y) = 0.08069 0.39584
# Poissons Ratio (z) = 0.28472 0.33026
#
# Static dielectric constant tensor:
#      x y z
#    x 2.565170 -0.140690 0.128920 
#    y -0.140690 2.456790 -0.128260 
#    z 0.128920 -0.128260 2.266960 
# 
# From -- ./inp_files/376538.got.cif
#   From: 2010.05.17/outbox.cif.g08.bks.cpg/sg2_189_cif.got.tgz:376538.got - 2010.06.03 11:33:40.
