data_PCOD9096567
_publ_section_title
;
Structure prediction by ZEFSAII (Michael W. Deem and Ramdas Pophale) SiO2 
 PCOD9096567
Probable space group: P -1
;
_chemical_formula_sum "Si O2"
_cell_formula_units_Z 14
_cell_length_a 21.327296
_cell_length_b 7.837483
_cell_length_c 9.870265
_cell_angle_alpha 65.674012
_cell_angle_beta 31.798350
_cell_angle_gamma 47.326318
_cell_volume 578.952651
_symmetry_space_group_name_H-M "P -1"
_symmetry_group_IT_number 2
_symmetry_cell_setting 'triclinic'
loop_
_space_group_symop_operation_xyz
x,y,z
-x,-y,-z
loop_
_atom_site_type_symbol
_atom_site_label
_atom_site_fract_x
_atom_site_fract_y
_atom_site_fract_z
Si Si1 0.273065 0.653615 0.355635
Si Si2 0.959155 0.580931 0.204432
Si Si3 0.741325 0.952722 0.097537
Si Si4 0.680002 0.976230 0.891370
Si Si5 0.635218 0.849460 0.591733
Si Si6 0.177315 0.735788 0.207861
Si Si7 0.004611 0.780488 0.273424
O O1 0.322254 0.416550 0.423257
O O2 0.268522 0.593419 0.226354
O O3 0.090168 0.920158 0.643560
O O4 0.361129 0.763194 0.163825
O O5 0.763624 0.789428 0.485744
O O6 0.034675 0.686789 0.096114
O O7 0.000000 0.500000 0.000000
O O8 0.065830 0.307839 0.171436
O O9 0.675002 0.972960 0.064927
O O10 0.660292 0.936029 0.378335
O O11 0.731040 0.185831 0.051267
O O12 0.551474 0.963372 0.081521
O O13 0.868249 0.773029 0.569065
O O14 0.143228 0.633873 0.179538
O O15 0.000000 0.000000 0.500000
#
# Coordination Sequence:
#
# PCOD9096567 Si02
#       7
#     2   2   2   2   2   2   2
#     4   8  18  34  56  86 110 150 186 229 280 334
#     4  10  22  36  54  87 114 148 186 243 287 321
#     4  10  20  36  56  85 114 150 186 233 285 328
#     4   9  20  35  60  81 111 157 187 222 283 345
#     4  11  20  35  56  84 121 146 184 232 287 335
#     4   9  15  35  56  80 113 144 189 230 273 336
#     4   9  19  35  60  82 113 147 196 228 277 341
#
# _framework density 24.181597
#
# number of rings (size 3 to 8) (size 9 to 14) (size 15 to 20)
#    0.857    1.714    1.429    2.571    0.000    1.143 
#    0.000   11.429    0.000    0.000    0.000   14.000 
#    0.000    0.000    0.000    0.000    0.000    0.000 
#
# Total GULP energy -78021.346971 kJ/mol
# GULP energy per Si atom -5572.953355 kJ/mol
# Density = 2.412656 g / cm^3
# Si number density = 24.181597 Si / 1000 Ang^3
#
#
#
# Elastic Constant Matrix: (Units=GPa)
#
#
# Indices 1 2 3 4 5 6 
#
# 1 136.8561 9.1650 35.3934 -6.5494 -7.8582 8.3393
# 2 9.1650 71.2140 15.3126 -24.2927 16.0363 -6.0552
# 3 35.3934 15.3126 95.6546 -20.7431 -3.7395 -12.1982
# 4 -6.5494 -24.2927 -20.7431 34.8175 -9.3424 2.8200
# 5 -7.8582 16.0363 -3.7395 -9.3424 32.1217 2.5416
# 6 8.3393 -6.0552 -12.1982 2.8200 2.5416 26.3203
#
#
#
# Elastic Compliance Matrix: (Units=1/GPa)
#
#
# Indices 1 2 3 4 5 6 
#
# 1 0.008798 -0.001556 -0.003638 -0.000444 0.002776 -0.005052
# 2 -0.001556 0.020225 0.000142 0.011514 -0.007484 0.004701
# 3 -0.003638 0.000142 0.014525 0.008211 0.002581 0.006788
# 4 -0.000444 0.011514 0.008211 0.043522 0.007663 0.001192
# 5 0.002776 -0.007484 0.002581 0.007663 0.038547 -0.005949
# 6 -0.005052 0.004701 0.006788 0.001192 -0.005949 0.044268
#
#
# Mechanical properties :
#
#
# Convention : Reuss Voigt Hill
#
# Bulk Modulus (GPa) = 29.90227 47.05186 38.47707
# Shear Modulus (GPa) = 26.15904 34.90880 30.53392
#
# Velocity S-wave (km/s) = 3.29260 3.80361 3.55729
# Velocity P-wave (km/s) = 5.18146 6.22815 5.72876
#
# Compressibility (1/GPa) = 0.03344227
#
# Stress axis : x y z
#
# Youngs Moduli (GPa) = 113.66044 49.44448 68.84728
#
# Poissons Ratio (x) = 0.07695 0.25049
# Poissons Ratio (y) = 0.17689 -0.00977
# Poissons Ratio (z) = 0.41354 -0.00702
#
# Static dielectric constant tensor:
#      x y z
#    x 1.981320 0.022270 0.013510 
#    y 0.022270 2.036000 0.081140 
#    z 0.013510 0.081140 2.065360 
# 
# From -- ./inp_files/474105.got.cif
#   From: 2010.05.17/outbox.cif.g08.bks.cpg/sg2_238_cif.got.tgz:474105.got - 2010.06.03 11:33:40.
