data_PCOD9096527
_publ_section_title
;
Structure prediction by ZEFSAII (Michael W. Deem and Ramdas Pophale) SiO2 
 PCOD9096527
Probable space group: P -1
;
_chemical_formula_sum "Si O2"
_cell_formula_units_Z 16
_cell_length_a 10.293502
_cell_length_b 10.898342
_cell_length_c 11.876580
_cell_angle_alpha 36.012828
_cell_angle_beta 62.302720
_cell_angle_gamma 68.641798
_cell_volume 693.431576
_symmetry_space_group_name_H-M "P -1"
_symmetry_group_IT_number 2
_symmetry_cell_setting 'triclinic'
loop_
_space_group_symop_operation_xyz
x,y,z
-x,-y,-z
loop_
_atom_site_type_symbol
_atom_site_label
_atom_site_fract_x
_atom_site_fract_y
_atom_site_fract_z
Si Si1 0.485031 0.737744 0.285946
Si Si2 0.979051 0.479826 0.388588
Si Si3 0.474210 0.182693 0.212369
Si Si4 0.682408 0.699928 0.026956
Si Si5 0.787972 0.183250 0.975292
Si Si6 0.483391 0.701798 0.640521
Si Si7 0.174170 0.915675 0.233377
Si Si8 0.272186 0.244964 0.660862
O O1 0.500000 0.500000 0.500000
O O2 0.548726 0.763256 0.116803
O O3 0.324539 0.825196 0.292465
O O4 0.603124 0.844472 0.241421
O O5 0.955230 0.235909 0.554216
O O6 0.826267 0.598451 0.347161
O O7 0.000000 0.500000 0.500000
O O8 0.106145 0.623024 0.178426
O O9 0.485717 0.303301 0.236037
O O10 0.458848 0.939635 0.436111
O O11 0.347296 0.236422 0.136497
O O12 0.626187 0.228853 0.050790
O O13 0.653509 0.449549 0.225459
O O14 0.817283 0.839288 0.919658
O O15 0.813529 0.134684 0.867917
O O16 0.822030 0.958796 0.186466
O O17 0.635799 0.645568 0.556997
#
# Coordination Sequence:
#
# PCOD9096527 Si02
#       8
#     2   2   2   2   2   2   2   2
#     4  12  20  31  56  86 121 147 173 249 300 345
#     4  10  22  35  52  79 118 155 189 236 281 338
#     4  10  22  39  58  87 119 152 193 228 292 346
#     4  12  21  33  57  86 118 147 185 237 298 341
#     4  10  20  36  56  81 117 154 191 230 279 349
#     4  10  22  37  57  88 120 151 186 240 286 348
#     4  11  20  33  52  86 117 149 187 233 298 339
#     4  11  20  35  56  87 115 145 192 231 299 342
#
# _framework density 23.073653
#
# number of rings (size 3 to 8) (size 9 to 14) (size 15 to 20)
#    0.000    1.250    5.000    2.625    1.750    0.000 
#    0.000    0.000    0.000    0.750    0.000    7.875 
#    0.000    0.000    0.000    0.000    0.000    0.000 
#
# Total GULP energy -89282.464318 kJ/mol
# GULP energy per Si atom -5580.154020 kJ/mol
# Density = 2.302114 g / cm^3
# Si number density = 23.073653 Si / 1000 Ang^3
#
#
#
# Elastic Constant Matrix: (Units=GPa)
#
#
# Indices 1 2 3 4 5 6 
#
# 1 45.0714 9.7919 22.7807 -0.5606 -0.7826 11.7515
# 2 9.7919 82.1981 48.8582 -12.0877 -12.0005 25.7586
# 3 22.7807 48.8582 170.6794 -39.6876 -29.3787 22.4166
# 4 -0.5606 -12.0877 -39.6876 50.8001 21.8882 0.6597
# 5 -0.7826 -12.0005 -29.3787 21.8882 35.4120 -7.7573
# 6 11.7515 25.7586 22.4166 0.6597 -7.7573 22.1969
#
#
#
# Elastic Compliance Matrix: (Units=1/GPa)
#
#
# Indices 1 2 3 4 5 6 
#
# 1 0.027380 0.003315 -0.002948 0.001294 -0.005297 -0.017254
# 2 0.003315 0.021553 -0.002756 0.004822 -0.003438 -0.025328
# 3 -0.002948 -0.002756 0.009263 0.005574 0.002379 -0.003930
# 4 0.001294 0.004822 0.005574 0.033501 -0.018677 -0.019433
# 5 -0.005297 -0.003438 0.002379 -0.018677 0.045004 0.020674
# 6 -0.017254 -0.025328 -0.003930 -0.019433 0.020674 0.095350
#
#
# Mechanical properties :
#
#
# Convention : Reuss Voigt Hill
#
# Bulk Modulus (GPa) = 18.72046 51.20115 34.96080
# Shear Modulus (GPa) = 19.63586 36.11635 27.87611
#
# Velocity S-wave (km/s) = 2.92037 3.96063 3.47960
# Velocity P-wave (km/s) = 4.41615 6.56917 5.59716
#
# Compressibility (1/GPa) = 0.05341750
#
# Stress axis : x y z
#
# Youngs Moduli (GPa) = 36.52332 46.39634 107.95273
#
# Poissons Ratio (x) = -0.15379 0.31823
# Poissons Ratio (y) = -0.12106 0.29754
# Poissons Ratio (z) = 0.10767 0.12788
#
# Static dielectric constant tensor:
#      x y z
#    x 2.002650 0.000350 0.014130 
#    y 0.000350 1.956900 -0.100850 
#    z 0.014130 -0.100850 1.989000 
# 
# From -- ./inp_files/422780.got.cif
#   From: 2010.05.17/outbox.cif.g08.bks.cpg/sg2_212_cif.got.tgz:422780.got - 2010.06.03 11:33:40.
