data_PCOD9096437
_publ_section_title
;
Structure prediction by ZEFSAII (Michael W. Deem and Ramdas Pophale) SiO2 
 PCOD9096437
Probable space group: P -1
;
_chemical_formula_sum "Si O2"
_cell_formula_units_Z 14
_cell_length_a 20.518174
_cell_length_b 9.849583
_cell_length_c 5.485559
_cell_angle_alpha 126.149615
_cell_angle_beta 58.927652
_cell_angle_gamma 142.607067
_cell_volume 541.069626
_symmetry_space_group_name_H-M "P -1"
_symmetry_group_IT_number 2
_symmetry_cell_setting 'triclinic'
loop_
_space_group_symop_operation_xyz
x,y,z
-x,-y,-z
loop_
_atom_site_type_symbol
_atom_site_label
_atom_site_fract_x
_atom_site_fract_y
_atom_site_fract_z
Si Si1 0.111642 0.635841 0.642020
Si Si2 0.377521 0.799965 0.934626
Si Si3 0.558956 0.423111 0.644578
Si Si4 0.118964 0.221359 0.607396
Si Si5 0.138444 0.652369 0.113438
Si Si6 0.579326 0.780885 0.808763
Si Si7 0.817943 0.632325 0.853702
O O1 0.176034 0.788855 0.439840
O O2 0.112035 0.430603 0.397119
O O3 0.991344 0.518306 0.778734
O O4 0.168695 0.775745 0.928368
O O5 0.380829 0.657204 0.584391
O O6 0.298411 0.620699 0.111016
O O7 0.500000 0.000000 0.000000
O O8 0.353840 0.942953 0.016101
O O9 0.633449 0.692405 0.692764
O O10 0.469820 0.295974 0.455132
O O11 0.508856 0.350084 0.935318
O O12 0.185172 0.274538 0.295366
O O13 0.145461 0.461215 0.863480
O O14 0.137159 0.188949 0.815227
O O15 0.000000 0.000000 0.500000
#
# Coordination Sequence:
#
# PCOD9096437 Si02
#       7
#     2   2   2   2   2   2   2
#     4   8  14  27  45  70  96 126 166 215 265 317
#     4  10  21  37  59  86 120 160 196 237 290 342
#     4   9  18  33  54  79 109 147 194 238 282 336
#     4  10  20  36  55  78 109 144 182 235 291 341
#     4   8  14  26  48  69  93 127 164 210 272 325
#     4   9  18  33  54  79 107 148 195 239 285 333
#     4  10  21  34  54  81 110 144 191 234 277 345
#
# _framework density 25.874673999999999
#
# number of rings (size 3 to 8) (size 9 to 14) (size 15 to 20)
#    0.000    2.857    0.000    0.857    0.000    4.571 
#    0.000    1.429    0.000   10.286    0.000    0.000 
#    0.000    0.000    0.000    0.000    0.000    0.000 
#
# Total GULP energy -77995.348012 kJ/mol
# GULP energy per Si atom -5571.096287 kJ/mol
# Density = 2.581578 g / cm^3
# Si number density = 25.874674 Si / 1000 Ang^3
#
#
#
# Elastic Constant Matrix: (Units=GPa)
#
#
# Indices 1 2 3 4 5 6 
#
# 1 49.2488 6.2227 41.0801 -1.5878 25.8768 10.9901
# 2 6.2227 99.1196 34.6744 4.9524 22.0765 6.2461
# 3 41.0801 34.6744 176.2450 -33.8711 57.2095 -20.3142
# 4 -1.5878 4.9524 -33.8711 42.3155 -17.0682 -0.7880
# 5 25.8768 22.0765 57.2095 -17.0682 57.4941 -4.3093
# 6 10.9901 6.2461 -20.3142 -0.7880 -4.3093 23.9260
#
#
#
# Elastic Compliance Matrix: (Units=1/GPa)
#
#
# Indices 1 2 3 4 5 6 
#
# 1 0.056651 0.012416 -0.018781 -0.024398 -0.022574 -0.050079
# 2 0.012416 0.015518 -0.007217 -0.011089 -0.008996 -0.017867
# 3 -0.018781 -0.007217 0.017037 0.014443 0.000473 0.025537
# 4 -0.024398 -0.011089 0.014443 0.042511 0.015781 0.030607
# 5 -0.022574 -0.008996 0.000473 0.015781 0.036739 0.020256
# 6 -0.050079 -0.017867 0.025537 0.030607 0.020256 0.095801
#
#
# Mechanical properties :
#
#
# Convention : Reuss Voigt Hill
#
# Bulk Modulus (GPa) = 16.11814 54.28530 35.20172
# Shear Modulus (GPa) = 16.02038 40.92286 28.47162
#
# Velocity S-wave (km/s) = 2.49098 3.98122 3.32078
# Velocity P-wave (km/s) = 3.81000 6.49301 5.32331
#
# Compressibility (1/GPa) = 0.06204189
#
# Stress axis : x y z
#
# Youngs Moduli (GPa) = 17.65179 64.44243 58.69621
#
# Poissons Ratio (x) = -0.80011 1.10236
# Poissons Ratio (y) = -0.21916 0.42362
# Poissons Ratio (z) = 0.33152 0.46509
#
# Static dielectric constant tensor:
#      x y z
#    x 2.317590 0.048260 0.020470 
#    y 0.048260 2.116440 -0.005630 
#    z 0.020470 -0.005630 2.108190 
# 
# From -- ./inp_files/56714.got.cif
#   From: 2010.05.17/outbox.cif.g08.bks.cpg/sg2_29_cif.got.tgz:56714.got - 2010.06.03 11:33:40.
