data_PCOD9096539
_publ_section_title
;
Structure prediction by ZEFSAII (Michael W. Deem and Ramdas Pophale) SiO2 
 PCOD9096539
Probable space group: P -1
;
_chemical_formula_sum "Si O2"
_cell_formula_units_Z 13
_cell_length_a 9.131410
_cell_length_b 7.475879
_cell_length_c 12.091427
_cell_angle_alpha 52.626592
_cell_angle_beta 75.913650
_cell_angle_gamma 106.352515
_cell_volume 528.432874
_symmetry_space_group_name_H-M "P -1"
_symmetry_group_IT_number 2
_symmetry_cell_setting 'triclinic'
loop_
_space_group_symop_operation_xyz
x,y,z
-x,-y,-z
loop_
_atom_site_type_symbol
_atom_site_label
_atom_site_fract_x
_atom_site_fract_y
_atom_site_fract_z
Si Si1 0.500000 0.000000 0.500000
Si Si2 0.554267 0.749420 0.188791
Si Si3 0.734850 0.449207 0.110078
Si Si4 0.881534 0.075577 0.160877
Si Si5 0.831423 0.675985 0.499248
Si Si6 0.555186 0.816776 0.910672
Si Si7 0.179020 0.787772 0.465267
O O1 0.603385 0.279141 0.298758
O O2 0.687766 0.117468 0.492412
O O3 0.372553 0.470455 0.364281
O O4 0.728947 0.843479 0.196053
O O5 0.502320 0.967957 0.138611
O O6 0.589048 0.754668 0.050609
O O7 0.810826 0.265916 0.129261
O O8 0.616622 0.425683 0.033569
O O9 0.915783 0.740014 0.992201
O O10 0.883829 0.940900 0.324601
O O11 0.836468 0.475244 0.485030
O O12 0.979119 0.723293 0.545070
O O13 0.725718 0.984456 0.734196
#
# Coordination Sequence:
#
# PCOD9096539 Si02
#       7
#     1   2   2   2   2   2   2
#     4  10  20  40  60  80 108 148 182 222 278 330
#     4   9  17  31  56  80 107 142 180 221 266 320
#     4   9  20  37  58  78 110 145 180 226 274 322
#     4  10  20  36  56  83 111 143 183 226 269 321
#     4  10  20  36  56  83 111 143 183 226 269 321
#     4   8  16  34  53  76 104 141 181 222 271 315
#     4   9  20  37  58  78 110 145 180 226 274 322
#
# _framework density 24.601044000000002
#
# number of rings (size 3 to 8) (size 9 to 14) (size 15 to 20)
#    0.000    2.769    0.000    1.385    0.000    7.385 
#    0.000   12.308    0.000    0.000    0.000    0.000 
#    0.000    0.000    0.000    0.000    0.000    0.000 
#
# Total GULP energy -72521.388956 kJ/mol
# GULP energy per Si atom -5578.568381 kJ/mol
# Density = 2.454505 g / cm^3
# Si number density = 24.601044 Si / 1000 Ang^3
#
#
#
# Elastic Constant Matrix: (Units=GPa)
#
#
# Indices 1 2 3 4 5 6 
#
# 1 145.2468 62.5354 41.4990 3.0654 -12.8336 52.3386
# 2 62.5354 82.8897 17.9764 2.9767 -17.9674 34.1212
# 3 41.4990 17.9764 102.1182 -3.6544 -3.2536 35.0329
# 4 3.0654 2.9767 -3.6544 26.6890 13.9204 -4.0189
# 5 -12.8336 -17.9674 -3.2536 13.9204 35.8466 6.1468
# 6 52.3386 34.1212 35.0329 -4.0189 6.1468 57.4034
#
#
#
# Elastic Compliance Matrix: (Units=1/GPa)
#
#
# Indices 1 2 3 4 5 6 
#
# 1 0.013385 -0.003725 -0.001191 -0.006613 0.007185 -0.010496
# 2 -0.003725 0.026898 0.003039 -0.016222 0.021796 -0.017917
# 3 -0.001191 0.003039 0.013014 -0.002319 0.004780 -0.009337
# 4 -0.006613 -0.016222 -0.002319 0.064615 -0.040246 0.025921
# 5 0.007185 0.021796 0.004780 -0.040246 0.062941 -0.031981
# 6 -0.010496 -0.017917 -0.009337 0.025921 -0.031981 0.048578
#
#
# Mechanical properties :
#
#
# Convention : Reuss Voigt Hill
#
# Bulk Modulus (GPa) = 20.18395 63.80851 41.99623
# Shear Modulus (GPa) = 20.02423 37.87073 28.94748
#
# Velocity S-wave (km/s) = 2.85609 3.92777 3.43399
# Velocity P-wave (km/s) = 4.37020 6.82374 5.72984
#
# Compressibility (1/GPa) = 0.04954431
#
# Stress axis : x y z
#
# Youngs Moduli (GPa) = 74.70950 37.17796 76.83965
#
# Poissons Ratio (x) = 0.13847 0.09150
# Poissons Ratio (y) = 0.27826 -0.23353
# Poissons Ratio (z) = 0.08897 -0.11299
#
# Static dielectric constant tensor:
#      x y z
#    x 1.989280 -0.090900 0.002630 
#    y -0.090900 1.988930 -0.036160 
#    z 0.002630 -0.036160 1.873920 
# 
# From -- ./inp_files/156103.got.cif
#   From: 2010.05.17/outbox.cif.g08.bks.cpg/sg2_79_cif.got.tgz:156103.got - 2010.06.03 11:33:40.
