data_PCOD9096694
_publ_section_title
;
Structure prediction by ZEFSAII (Michael W. Deem and Ramdas Pophale) SiO2 
 PCOD9096694
Probable space group: P -1
;
_chemical_formula_sum "Si O2"
_cell_formula_units_Z 14
_cell_length_a 14.980006
_cell_length_b 8.588111
_cell_length_c 8.699564
_cell_angle_alpha 128.625566
_cell_angle_beta 69.873022
_cell_angle_gamma 129.827573
_cell_volume 668.590389
_symmetry_space_group_name_H-M "P -1"
_symmetry_group_IT_number 2
_symmetry_cell_setting 'triclinic'
loop_
_space_group_symop_operation_xyz
x,y,z
-x,-y,-z
loop_
_atom_site_type_symbol
_atom_site_label
_atom_site_fract_x
_atom_site_fract_y
_atom_site_fract_z
Si Si1 0.068304 0.260676 0.209470
Si Si2 0.716923 0.084715 0.276632
Si Si3 0.701914 0.800576 0.561098
Si Si4 0.552298 0.585685 0.214253
Si Si5 0.686855 0.478865 0.636702
Si Si6 0.585984 0.936467 0.969244
Si Si7 0.903176 0.250584 0.522209
O O1 0.202461 0.358220 0.216726
O O2 0.071921 0.491443 0.277702
O O3 0.009708 0.239051 0.398128
O O4 0.000000 0.000000 0.000000
O O5 0.666873 0.219536 0.472262
O O6 0.838720 0.203296 0.364872
O O7 0.648231 0.801850 0.185180
O O8 0.694245 0.104429 0.124026
O O9 0.610782 0.645634 0.384242
O O10 0.721730 0.629661 0.548432
O O11 0.641277 0.885660 0.762731
O O12 0.816104 0.033577 0.556391
O O13 0.435652 0.574678 0.280222
O O14 0.505551 0.311998 0.035991
O O15 0.500000 0.000000 0.000000
#
# Coordination Sequence:
#
# PCOD9096694 Si02
#       7
#     2   2   2   2   2   2   2
#     4  10  22  41  65  86 114 157 208 245 289 351
#     4  10  20  36  58  86 117 156 192 241 289 355
#     4  10  21  39  58  86 125 151 187 245 303 353
#     4  10  20  36  57  85 121 156 191 235 293 360
#     4  10  20  36  62  84 118 156 189 244 302 341
#     4  11  21  33  54  88 125 154 193 235 290 356
#     4   9  22  43  61  86 121 153 199 251 293 349
#
# _framework density 20.939575000000001
#
# number of rings (size 3 to 8) (size 9 to 14) (size 15 to 20)
#    0.000    2.000    0.000    4.286    4.000    2.857 
#    7.714    0.714    0.000    0.000    0.000    0.000 
#    0.000    0.000    0.000    0.000    0.000    0.000 
#
# Total GULP energy -77997.230926 kJ/mol
# GULP energy per Si atom -5571.230780 kJ/mol
# Density = 2.089192 g / cm^3
# Si number density = 20.939575 Si / 1000 Ang^3
#
#
#
# Elastic Constant Matrix: (Units=GPa)
#
#
# Indices 1 2 3 4 5 6 
#
# 1 57.4372 -3.3558 -4.7002 2.2485 -4.9006 -3.1891
# 2 -3.3558 79.9030 2.1876 8.1633 -12.5533 8.1109
# 3 -4.7002 2.1876 61.6350 14.9043 15.9252 -6.8174
# 4 2.2485 8.1633 14.9043 26.4268 -3.5440 2.4290
# 5 -4.9006 -12.5533 15.9252 -3.5440 28.4599 -2.4734
# 6 -3.1891 8.1109 -6.8174 2.4290 -2.4734 19.8233
#
#
#
# Elastic Compliance Matrix: (Units=1/GPa)
#
#
# Indices 1 2 3 4 5 6 
#
# 1 0.018159 0.001021 0.001814 -0.002893 0.002532 0.003798
# 2 0.001021 0.014505 -0.002539 -0.001647 0.007309 -0.005530
# 3 0.001814 -0.002539 0.026069 -0.017255 -0.016646 0.010333
# 4 -0.002893 -0.001647 -0.017255 0.051135 0.013907 -0.010256
# 5 0.002532 0.007309 -0.016646 0.013907 0.049510 -0.003834
# 6 0.003798 -0.005530 0.010333 -0.010256 -0.003834 0.057652
#
#
# Mechanical properties :
#
#
# Convention : Reuss Voigt Hill
#
# Bulk Modulus (GPa) = 16.85620 20.80425 18.83023
# Shear Modulus (GPa) = 21.16741 28.59823 24.88282
#
# Velocity S-wave (km/s) = 3.18288 3.69962 3.45093
# Velocity P-wave (km/s) = 4.64490 5.31098 4.98907
#
# Compressibility (1/GPa) = 0.05932535
#
# Stress axis : x y z
#
# Youngs Moduli (GPa) = 55.07047 68.93955 38.35930
#
# Poissons Ratio (x) = -0.07037 -0.06958
# Poissons Ratio (y) = -0.05621 0.09738
# Poissons Ratio (z) = -0.09990 0.17502
#
# Static dielectric constant tensor:
#      x y z
#    x 1.779090 -0.006560 0.028500 
#    y -0.006560 1.788620 0.008670 
#    z 0.028500 0.008670 1.804530 
# 
# From -- ./inp_files/177253.got.cif
#   From: 2010.05.17/outbox.cif.g08.bks.cpg/sg2_89_cif.got.tgz:177253.got - 2010.06.03 11:33:40.
