data_PCOD9096318
_publ_section_title
;
Structure prediction by ZEFSAII (Michael W. Deem and Ramdas Pophale) SiO2 
 PCOD9096318
Probable space group: P -1
;
_chemical_formula_sum "Si O2"
_cell_formula_units_Z 14
_cell_length_a 8.443794
_cell_length_b 8.296355
_cell_length_c 12.172961
_cell_angle_alpha 82.648892
_cell_angle_beta 90.592140
_cell_angle_gamma 131.304960
_cell_volume 632.173872
_symmetry_space_group_name_H-M "P -1"
_symmetry_group_IT_number 2
_symmetry_cell_setting 'triclinic'
loop_
_space_group_symop_operation_xyz
x,y,z
-x,-y,-z
loop_
_atom_site_type_symbol
_atom_site_label
_atom_site_fract_x
_atom_site_fract_y
_atom_site_fract_z
Si Si1 0.205273 0.668907 0.558030
Si Si2 0.231132 0.093341 0.236543
Si Si3 0.219864 0.129833 0.720184
Si Si4 0.380610 0.550993 0.148623
Si Si5 0.654822 0.861600 0.514154
Si Si6 0.919109 0.342320 0.204920
Si Si7 0.451490 0.820689 0.932914
O O1 0.400463 0.689382 0.523272
O O2 0.150337 0.611970 0.689960
O O3 0.000000 0.500000 0.500000
O O4 0.274625 0.903095 0.521311
O O5 0.298578 0.312128 0.168677
O O6 0.274465 0.136215 0.363406
O O7 0.381294 0.069620 0.176156
O O8 0.979527 0.900118 0.238209
O O9 0.434098 0.307193 0.772631
O O10 0.253628 0.172863 0.585815
O O11 0.154382 0.896419 0.760145
O O12 0.171408 0.514200 0.178718
O O13 0.463678 0.671059 0.022539
O O14 0.782187 0.319558 0.106658
O O15 0.500000 0.000000 0.000000
#
# Coordination Sequence:
#
# PCOD9096318 Si02
#       7
#     2   2   2   2   2   2   2
#     4  10  20  35  65  99 131 165 211 266 324 378
#     4  11  25  43  64  96 135 167 215 269 323 388
#     4  10  22  42  66  95 129 172 209 264 330 386
#     4  11  24  43  65  93 131 174 217 266 321 382
#     4  10  21  39  63  96 135 164 212 266 319 394
#     4  10  21  42  64  95 129 166 220 270 313 383
#     4  12  24  45  69  92 128 176 222 270 321 369
#
# _framework density 22.145807000000001
#
# number of rings (size 3 to 8) (size 9 to 14) (size 15 to 20)
#    0.000    1.429    2.857    2.143    0.000    3.429 
#    5.143    0.000    0.000    0.000    0.000    0.000 
#    0.000    0.000    0.000    0.000    0.000    0.000 
#
# Total GULP energy -78314.664001 kJ/mol
# GULP energy per Si atom -5593.904571 kJ/mol
# Density = 2.209540 g / cm^3
# Si number density = 22.145807 Si / 1000 Ang^3
#
#
#
# Elastic Constant Matrix: (Units=GPa)
#
#
# Indices 1 2 3 4 5 6 
#
# 1 95.4617 47.8778 40.5003 5.0728 -13.3226 40.2075
# 2 47.8778 82.8739 34.2013 18.8095 -6.9424 38.3090
# 3 40.5003 34.2013 133.3278 0.9990 1.8574 19.3079
# 4 5.0728 18.8095 0.9990 24.5472 10.0154 14.3865
# 5 -13.3226 -6.9424 1.8574 10.0154 33.0216 -8.0563
# 6 40.2075 38.3090 19.3079 14.3865 -8.0563 42.4532
#
#
#
# Elastic Compliance Matrix: (Units=1/GPa)
#
#
# Indices 1 2 3 4 5 6 
#
# 1 0.020998 -0.005308 -0.002614 0.009723 0.000374 -0.017133
# 2 -0.005308 0.024710 -0.003209 -0.013701 0.004891 -0.010240
# 3 -0.002614 -0.003209 0.009341 0.005140 -0.004157 -0.001408
# 4 0.009723 -0.013701 0.005140 0.081218 -0.031871 -0.032754
# 5 0.000374 0.004891 -0.004157 -0.031871 0.045398 0.016538
# 6 -0.017133 -0.010240 -0.001408 -0.032754 0.016538 0.063901
#
#
# Mechanical properties :
#
#
# Convention : Reuss Voigt Hill
#
# Bulk Modulus (GPa) = 30.49918 61.86913 46.18416
# Shear Modulus (GPa) = 17.93679 32.60999 25.27339
#
# Velocity S-wave (km/s) = 2.84903 3.84150 3.38187
# Velocity P-wave (km/s) = 4.96231 6.90463 6.01242
#
# Compressibility (1/GPa) = 0.03278776
#
# Stress axis : x y z
#
# Youngs Moduli (GPa) = 47.62311 40.46881 107.05842
#
# Poissons Ratio (x) = 0.21481 0.27984
# Poissons Ratio (y) = 0.25278 0.34353
# Poissons Ratio (z) = 0.12448 0.12986
#
# Static dielectric constant tensor:
#      x y z
#    x 1.839250 -0.008310 0.001010 
#    y -0.008310 1.791320 -0.035020 
#    z 0.001010 -0.035020 1.819240 
# 
# From -- ./inp_files/26885.got.cif
#   From: 2010.05.17/outbox.cif.g08.bks.cpg/sg2_14_cif.got.tgz:26885.got - 2010.06.03 11:33:40.
