data_PCOD9096296
_publ_section_title
;
Structure prediction by ZEFSAII (Michael W. Deem and Ramdas Pophale) SiO2 
 PCOD9096296
Probable space group: P -1
;
_chemical_formula_sum "Si O2"
_cell_formula_units_Z 16
_cell_length_a 9.332110
_cell_length_b 25.340763
_cell_length_c 9.428198
_cell_angle_alpha 49.967502
_cell_angle_beta 120.446761
_cell_angle_gamma 152.214460
_cell_volume 783.593468
_symmetry_space_group_name_H-M "P -1"
_symmetry_group_IT_number 2
_symmetry_cell_setting 'triclinic'
loop_
_space_group_symop_operation_xyz
x,y,z
-x,-y,-z
loop_
_atom_site_type_symbol
_atom_site_label
_atom_site_fract_x
_atom_site_fract_y
_atom_site_fract_z
Si Si1 0.086236 0.418674 0.637472
Si Si2 0.274348 0.402767 0.230950
Si Si3 0.840845 0.017089 0.360617
Si Si4 0.555434 0.313975 0.693095
Si Si5 0.890325 0.243895 0.599803
Si Si6 0.753649 0.752123 0.634167
Si Si7 0.821402 0.786908 0.057099
Si Si8 0.713395 0.437456 0.039463
O O1 0.357496 0.476098 0.762046
O O2 0.247673 0.545510 0.441011
O O3 0.798709 0.340695 0.725807
O O4 0.973535 0.331715 0.603440
O O5 0.191094 0.310340 0.246105
O O6 0.200343 0.454562 0.061371
O O7 0.099525 0.328334 0.420134
O O8 0.965212 0.112357 0.379496
O O9 0.471081 0.880501 0.406631
O O10 0.000000 0.000000 0.500000
O O11 0.968212 0.091813 0.146895
O O12 0.321721 0.244264 0.564377
O O13 0.368027 0.238350 0.874148
O O14 0.979045 0.201792 0.785443
O O15 0.440823 0.652586 0.744950
O O16 0.565776 0.660715 0.045795
O O17 0.000000 0.500000 0.000000
#
# Coordination Sequence:
#
# PCOD9096296 Si02
#       8
#     2   2   2   2   2   2   2   2
#     4  10  20  35  65 101 130 162 205 275 325 390
#     4  11  22  39  66  99 135 166 217 266 338 397
#     4  11  27  46  67  92 133 179 229 276 329 387
#     4  10  21  39  69  98 135 164 214 273 334 391
#     4  12  22  42  71  92 128 180 227 270 321 392
#     4  10  23  44  62  95 139 169 216 276 326 392
#     4  11  23  45  66  99 125 177 229 265 324 403
#     4  11  25  37  67 102 141 172 209 270 346 402
#
# _framework density 20.418752000000001
#
# number of rings (size 3 to 8) (size 9 to 14) (size 15 to 20)
#    0.000    1.250    3.750    2.625   10.500    0.500 
#    0.000    2.500    0.000    0.000    0.000    0.000 
#    0.000    0.000    0.000    0.000    0.000    0.000 
#
# Total GULP energy -89530.648532 kJ/mol
# GULP energy per Si atom -5595.665533 kJ/mol
# Density = 2.037228 g / cm^3
# Si number density = 20.418752 Si / 1000 Ang^3
#
#
#
# Elastic Constant Matrix: (Units=GPa)
#
#
# Indices 1 2 3 4 5 6 
#
# 1 124.6188 48.2249 16.3236 -4.7291 -14.5142 -3.3363
# 2 48.2249 102.6735 13.1458 11.2432 -3.1232 -10.1037
# 3 16.3236 13.1458 71.4651 5.8602 -14.5092 -2.7720
# 4 -4.7291 11.2432 5.8602 8.4681 -3.8222 -0.2644
# 5 -14.5142 -3.1232 -14.5092 -3.8222 30.2633 8.8239
# 6 -3.3363 -10.1037 -2.7720 -0.2644 8.8239 35.2239
#
#
#
# Elastic Compliance Matrix: (Units=1/GPa)
#
#
# Indices 1 2 3 4 5 6 
#
# 1 0.013571 -0.008896 -0.001817 0.024521 0.008817 -0.003434
# 2 -0.008896 0.017787 -0.000054 -0.032097 -0.008286 0.006090
# 3 -0.001817 -0.000054 0.016387 -0.009638 0.005892 -0.000446
# 4 0.024521 -0.032097 -0.009638 0.195377 0.032691 -0.014366
# 5 0.008817 -0.008286 0.005892 0.032691 0.047050 -0.012619
# 6 -0.003434 0.006090 -0.000446 -0.014366 -0.012619 0.032830
#
#
# Mechanical properties :
#
#
# Convention : Reuss Voigt Hill
#
# Bulk Modulus (GPa) = 38.15294 50.46066 44.30680
# Shear Modulus (GPa) = 14.15335 29.52858 21.84097
#
# Velocity S-wave (km/s) = 2.63564 3.80695 3.27410
# Velocity P-wave (km/s) = 5.29036 6.64006 6.00326
#
# Compressibility (1/GPa) = 0.02621030
#
# Stress axis : x y z
#
# Youngs Moduli (GPa) = 73.68828 56.22070 61.02359
#
# Poissons Ratio (x) = 0.50015 0.11088
# Poissons Ratio (y) = 0.65555 0.00329
# Poissons Ratio (z) = 0.13389 0.00304
#
# Static dielectric constant tensor:
#      x y z
#    x 1.720810 -0.002690 0.007920 
#    y -0.002690 1.705490 0.017220 
#    z 0.007920 0.017220 1.731320 
# 
# From -- ./inp_files/199442.got.cif
#   From: 2010.05.17/outbox.cif.g08.bks.cpg/sg2_100_cif.got.tgz:199442.got - 2010.06.03 11:33:40.
