data_PCOD9096905
_publ_section_title
;
Structure prediction by ZEFSAII (Michael W. Deem and Ramdas Pophale) SiO2 
 PCOD9096905
Probable space group: P -1
;
_chemical_formula_sum "Si O2"
_cell_formula_units_Z 16
_cell_length_a 5.502609
_cell_length_b 24.605183
_cell_length_c 16.823632
_cell_angle_alpha 158.530478
_cell_angle_beta 57.950549
_cell_angle_gamma 120.606470
_cell_volume 705.765053
_symmetry_space_group_name_H-M "P -1"
_symmetry_group_IT_number 2
_symmetry_cell_setting 'triclinic'
loop_
_space_group_symop_operation_xyz
x,y,z
-x,-y,-z
loop_
_atom_site_type_symbol
_atom_site_label
_atom_site_fract_x
_atom_site_fract_y
_atom_site_fract_z
Si Si1 0.335686 0.862292 0.747349
Si Si2 0.284564 0.698236 0.207822
Si Si3 0.846046 0.652128 0.753254
Si Si4 0.769398 0.605856 0.283523
Si Si5 0.076905 0.170831 0.700120
Si Si6 0.188966 0.324546 0.391185
Si Si7 0.785119 0.406126 0.161558
Si Si8 0.324288 0.852350 0.919351
O O1 0.553386 0.733808 0.515365
O O2 0.266547 0.899837 0.903330
O O3 0.028831 0.786787 0.675512
O O4 0.478815 0.014870 0.896685
O O5 0.580685 0.784863 0.301315
O O6 0.055800 0.675850 0.288065
O O7 0.107550 0.775762 0.272146
O O8 0.350338 0.530420 0.937978
O O9 0.776258 0.704788 0.747455
O O10 0.552976 0.632490 0.824991
O O11 0.000000 0.500000 0.500000
O O12 0.060894 0.787649 0.928612
O O13 0.838813 0.520263 0.235355
O O14 0.000000 0.000000 0.500000
O O15 0.959754 0.264839 0.921900
O O16 0.115525 0.494729 0.645800
O O17 0.499045 0.293424 0.327615
#
# Coordination Sequence:
#
# PCOD9096905 Si02
#       8
#     2   2   2   2   2   2   2   2
#     4  10  20  36  58  87 120 162 203 254 316 376
#     4  10  24  44  72  97 130 167 216 278 327 383
#     4  11  22  38  57  88 126 163 215 263 307 376
#     4  10  21  42  66  94 122 164 219 267 324 384
#     4  11  25  47  69  99 135 169 214 272 333 393
#     4  11  20  37  59  85 123 160 213 256 311 377
#     4  11  22  39  67  91 119 173 213 261 323 388
#     4  10  21  36  55  84 127 160 200 260 311 368
#
# _framework density 22.670435000000001
#
# number of rings (size 3 to 8) (size 9 to 14) (size 15 to 20)
#    0.000    1.500    2.500    2.625    0.000    7.500 
#    2.250    0.000    0.000    0.000    0.000    0.000 
#    0.000    0.000    0.000    0.000    0.000    0.000 
#
# Total GULP energy -89236.147057 kJ/mol
# GULP energy per Si atom -5577.259191 kJ/mol
# Density = 2.261884 g / cm^3
# Si number density = 22.670435 Si / 1000 Ang^3
#
#
#
# Elastic Constant Matrix: (Units=GPa)
#
#
# Indices 1 2 3 4 5 6 
#
# 1 69.6940 57.1604 29.7811 14.6606 1.6146 28.6491
# 2 57.1604 134.1883 50.8792 25.2937 4.1793 30.9071
# 3 29.7811 50.8792 99.9487 22.6917 -10.3882 11.2753
# 4 14.6606 25.2937 22.6917 38.2282 4.8354 10.9038
# 5 1.6146 4.1793 -10.3882 4.8354 25.0766 9.8952
# 6 28.6491 30.9071 11.2753 10.9038 9.8952 36.5770
#
#
#
# Elastic Compliance Matrix: (Units=1/GPa)
#
#
# Indices 1 2 3 4 5 6 
#
# 1 0.028023 -0.007472 -0.002049 -0.000611 0.005103 -0.016202
# 2 -0.007472 0.013306 -0.003777 -0.002636 -0.001606 -0.003007
# 3 -0.002049 -0.003777 0.014893 -0.006579 0.008222 -0.000058
# 4 -0.000611 -0.002636 -0.006579 0.033947 -0.007464 -0.003366
# 5 0.005103 -0.001606 0.008222 -0.007464 0.051303 -0.016828
# 6 -0.016202 -0.003007 -0.000058 -0.003366 -0.016828 0.048144
#
#
# Mechanical properties :
#
#
# Convention : Reuss Voigt Hill
#
# Bulk Modulus (GPa) = 33.75355 64.38582 49.06969
# Shear Modulus (GPa) = 22.11535 31.04372 26.57953
#
# Velocity S-wave (km/s) = 3.12671 3.70449 3.42779
# Velocity P-wave (km/s) = 5.28736 6.83813 6.11213
#
# Compressibility (1/GPa) = 0.02962651
#
# Stress axis : x y z
#
# Youngs Moduli (GPa) = 35.68534 75.15148 67.14552
#
# Poissons Ratio (x) = 0.56153 0.13760
# Poissons Ratio (y) = 0.26664 0.25358
# Poissons Ratio (z) = 0.07313 0.28382
#
# Static dielectric constant tensor:
#      x y z
#    x 1.964380 -0.010750 0.059100 
#    y -0.010750 1.839330 0.008570 
#    z 0.059100 0.008570 1.881780 
# 
# From -- ./inp_files/94383.got.cif
#   From: 2010.05.17/outbox.cif.g08.bks.cpg/sg2_48_cif.got.tgz:94383.got - 2010.06.03 11:33:40.
