data_PCOD9096824
_publ_section_title
;
Structure prediction by ZEFSAII (Michael W. Deem and Ramdas Pophale) SiO2 
 PCOD9096824
Probable space group: P -1
;
_chemical_formula_sum "Si O2"
_cell_formula_units_Z 14
_cell_length_a 18.545323
_cell_length_b 8.087050
_cell_length_c 17.425474
_cell_angle_alpha 51.048627
_cell_angle_beta 158.484169
_cell_angle_gamma 140.805163
_cell_volume 555.586063
_symmetry_space_group_name_H-M "P -1"
_symmetry_group_IT_number 2
_symmetry_cell_setting 'triclinic'
loop_
_space_group_symop_operation_xyz
x,y,z
-x,-y,-z
loop_
_atom_site_type_symbol
_atom_site_label
_atom_site_fract_x
_atom_site_fract_y
_atom_site_fract_z
Si Si1 0.065420 0.679925 0.777433
Si Si2 0.249745 0.556959 0.182389
Si Si3 0.980488 0.342219 0.430825
Si Si4 0.877886 0.140428 0.816459
Si Si5 0.629089 0.489411 0.520111
Si Si6 0.595645 0.907453 0.874329
Si Si7 0.218622 0.354003 0.803442
O O1 0.099332 0.792347 0.692837
O O2 0.998420 0.377581 0.799569
O O3 0.819467 0.603242 0.603011
O O4 0.315460 0.918472 0.007962
O O5 0.463318 0.587446 0.332142
O O6 0.239920 0.429662 0.289947
O O7 0.340852 0.864053 0.189512
O O8 0.976855 0.348459 0.926571
O O9 0.998180 0.195469 0.563688
O O10 0.813082 0.432329 0.257949
O O11 0.288116 0.634410 0.643610
O O12 0.580458 0.855688 0.590368
O O13 0.000000 0.000000 0.000000
O O14 0.776323 0.825364 0.074858
O O15 0.500000 0.500000 0.000000
#
# Coordination Sequence:
#
# PCOD9096824 Si02
#       7
#     2   2   2   2   2   2   2
#     4  11  23  37  59  97 119 161 211 246 299 364
#     4   9  20  37  56  86 125 165 203 255 284 351
#     4  10  22  44  66  87 129 153 194 259 309 363
#     4   9  19  37  52  82 124 163 205 244 290 345
#     4  10  20  36  58  83 126 169 206 240 301 344
#     4  10  22  40  63  97 120 157 209 246 305 359
#     4   9  21  46  68  91 116 161 197 245 320 377
#
# _framework density 25.198616000000001
#
# number of rings (size 3 to 8) (size 9 to 14) (size 15 to 20)
#    0.000    2.286    0.000    1.286    2.000    4.000 
#   18.000    6.429    0.000    0.000    0.000    0.000 
#    0.000    0.000    0.000    0.000    0.000    0.000 
#
# Total GULP energy -78171.969201 kJ/mol
# GULP energy per Si atom -5583.712086 kJ/mol
# Density = 2.514126 g / cm^3
# Si number density = 25.198616 Si / 1000 Ang^3
#
#
#
# Elastic Constant Matrix: (Units=GPa)
#
#
# Indices 1 2 3 4 5 6 
#
# 1 86.9296 -9.7756 25.9257 -28.8612 2.9115 -6.6409
# 2 -9.7756 93.1444 16.0482 -22.9985 24.1644 1.0408
# 3 25.9257 16.0482 111.2417 -15.4162 -0.2474 -3.5649
# 4 -28.8612 -22.9985 -15.4162 52.5665 -14.8525 8.1604
# 5 2.9115 24.1644 -0.2474 -14.8525 33.4030 -9.7980
# 6 -6.6409 1.0408 -3.5649 8.1604 -9.7980 22.9247
#
#
#
# Elastic Compliance Matrix: (Units=1/GPa)
#
#
# Indices 1 2 3 4 5 6 
#
# 1 0.016329 0.004819 -0.003106 0.010005 -0.000396 0.000298
# 2 0.004819 0.016455 -0.002790 0.006922 -0.011350 -0.007100
# 3 -0.003106 -0.002790 0.010284 0.000704 0.003256 0.001967
# 4 0.010005 0.006922 0.000704 0.030299 0.005973 -0.005539
# 5 -0.000396 -0.011350 0.003256 0.005973 0.046311 0.018573
# 6 0.000298 -0.007100 0.001967 -0.005539 0.018573 0.054245
#
#
# Mechanical properties :
#
#
# Convention : Reuss Voigt Hill
#
# Bulk Modulus (GPa) = 24.44185 39.52358 31.98272
# Shear Modulus (GPa) = 26.35512 39.05334 32.70423
#
# Velocity S-wave (km/s) = 3.23754 3.94105 3.60649
# Velocity P-wave (km/s) = 4.86788 6.03556 5.48290
#
# Compressibility (1/GPa) = 0.04091343
#
# Stress axis : x y z
#
# Youngs Moduli (GPa) = 61.23959 60.77038 97.24132
#
# Poissons Ratio (x) = -0.29283 0.30200
# Poissons Ratio (y) = -0.29509 0.27134
# Poissons Ratio (z) = 0.19019 0.16957
#
# Static dielectric constant tensor:
#      x y z
#    x 2.064960 0.026610 0.030030 
#    y 0.026610 2.117690 -0.042040 
#    z 0.030030 -0.042040 1.999720 
# 
# From -- ./inp_files/577280.got.cif
#   From: 2010.05.17/outbox.cif.g08.bks.cpg/sg2_289_cif.got.tgz:577280.got - 2010.06.03 11:33:40.
