data_PCOD9096967
_publ_section_title
;
Structure prediction by ZEFSAII (Michael W. Deem and Ramdas Pophale) SiO2 
 PCOD9096967
Probable space group: P -1
;
_chemical_formula_sum "Si O2"
_cell_formula_units_Z 16
_cell_length_a 15.035779
_cell_length_b 18.141758
_cell_length_c 12.191522
_cell_angle_alpha 150.949996
_cell_angle_beta 39.350754
_cell_angle_gamma 156.028948
_cell_volume 650.539151
_symmetry_space_group_name_H-M "P -1"
_symmetry_group_IT_number 2
_symmetry_cell_setting 'triclinic'
loop_
_space_group_symop_operation_xyz
x,y,z
-x,-y,-z
loop_
_atom_site_type_symbol
_atom_site_label
_atom_site_fract_x
_atom_site_fract_y
_atom_site_fract_z
Si Si1 0.475835 0.369850 0.075797
Si Si2 0.165908 0.724515 0.054042
Si Si3 0.200680 0.016054 0.671990
Si Si4 0.838745 0.053837 0.027348
Si Si5 0.156354 0.077232 0.553697
Si Si6 0.927805 0.604965 0.563332
Si Si7 0.528933 0.070519 0.302659
Si Si8 0.914433 0.556833 0.864676
O O1 0.340896 0.225289 0.903170
O O2 0.676144 0.413424 0.941739
O O3 0.310302 0.206549 0.123189
O O4 0.612210 0.639283 0.305887
O O5 0.162646 0.902746 0.301006
O O6 0.407591 0.887632 0.077780
O O7 0.000000 0.500000 0.000000
O O8 0.070244 0.616793 0.886740
O O9 0.357385 0.011076 0.469425
O O10 0.116628 0.040995 0.678788
O O11 0.001847 0.765996 0.598747
O O12 0.029746 0.247635 0.184330
O O13 0.668458 0.053141 0.199086
O O14 0.954202 0.188158 0.976402
O O15 0.000000 0.000000 0.500000
O O16 0.086820 0.588414 0.403004
O O17 0.686540 0.334724 0.452307
#
# Coordination Sequence:
#
# PCOD9096967 Si02
#       8
#     2   2   2   2   2   2   2   2
#     4  11  21  39  63  87 121 166 201 252 306 364
#     4  11  23  40  63  90 122 163 211 248 306 369
#     4  10  21  38  64  89 117 165 208 245 310 362
#     4  10  21  35  59  94 124 155 206 254 305 362
#     4  11  23  42  62  91 126 161 203 256 301 367
#     4  10  20  36  59  94 123 154 206 260 300 359
#     4  10  20  36  58  91 126 158 200 263 297 354
#     4  11  20  36  59  90 124 167 200 251 308 359
#
# _framework density 24.594985000000001
#
# number of rings (size 3 to 8) (size 9 to 14) (size 15 to 20)
#    0.000    1.500    1.250    6.375    0.000    4.000 
#    2.250    3.125    0.000    9.000    0.000    0.000 
#    0.000    0.000    0.000    0.000    0.000    0.000 
#
# Total GULP energy -89338.615280 kJ/mol
# GULP energy per Si atom -5583.663455 kJ/mol
# Density = 2.453901 g / cm^3
# Si number density = 24.594985 Si / 1000 Ang^3
#
#
#
# Elastic Constant Matrix: (Units=GPa)
#
#
# Indices 1 2 3 4 5 6 
#
# 1 87.9145 21.9477 29.8590 9.1636 11.7102 -14.2088
# 2 21.9477 139.2060 29.7213 40.2598 16.1954 -33.6539
# 3 29.8590 29.7213 121.1823 36.5088 13.5364 -16.8056
# 4 9.1636 40.2598 36.5088 46.7581 -3.8693 -9.9189
# 5 11.7102 16.1954 13.5364 -3.8693 37.4416 -3.2541
# 6 -14.2088 -33.6539 -16.8056 -9.9189 -3.2541 43.9092
#
#
#
# Elastic Compliance Matrix: (Units=1/GPa)
#
#
# Indices 1 2 3 4 5 6 
#
# 1 0.013143 -0.000676 -0.002499 0.000300 -0.002653 0.002649
# 2 -0.000676 0.012688 0.002304 -0.011601 -0.006677 0.007273
# 3 -0.002499 0.002304 0.012751 -0.011320 -0.005747 0.002854
# 4 0.000300 -0.011601 -0.011320 0.040592 0.012951 -0.002998
# 5 -0.002653 -0.006677 -0.005747 0.012951 0.033602 -0.002760
# 6 0.002649 0.007273 0.002854 -0.002998 -0.002760 0.029416
#
#
# Mechanical properties :
#
#
# Convention : Reuss Voigt Hill
#
# Bulk Modulus (GPa) = 27.14474 56.81766 41.98120
# Shear Modulus (GPa) = 32.00729 43.40676 37.70702
#
# Velocity S-wave (km/s) = 3.61137 4.20558 3.91975
# Velocity P-wave (km/s) = 5.33385 6.83623 6.13123
#
# Compressibility (1/GPa) = 0.03683955
#
# Stress axis : x y z
#
# Youngs Moduli (GPa) = 76.08849 78.81167 78.42571
#
# Poissons Ratio (x) = 0.05330 0.19600
# Poissons Ratio (y) = 0.05145 -0.18071
# Poissons Ratio (z) = 0.19016 -0.18160
#
# Static dielectric constant tensor:
#      x y z
#    x 2.055160 -0.018710 0.013570 
#    y -0.018710 1.996830 -0.112840 
#    z 0.013570 -0.112840 2.032220 
# 
# From -- ./inp_files/342758.got.cif
#   From: 2010.05.17/outbox.cif.g08.bks.cpg/sg2_172_cif.got.tgz:342758.got - 2010.06.03 11:33:40.
