data_PCOD9096123
_publ_section_title
;
Structure prediction by ZEFSAII (Michael W. Deem and Ramdas Pophale) SiO2 
 PCOD9096123
Probable space group: P -1
;
_chemical_formula_sum "Si O2"
_cell_formula_units_Z 14
_cell_length_a 7.098213
_cell_length_b 8.777298
_cell_length_c 13.463168
_cell_angle_alpha 111.225519
_cell_angle_beta 97.098014
_cell_angle_gamma 131.345675
_cell_volume 501.990743
_symmetry_space_group_name_H-M "P -1"
_symmetry_group_IT_number 2
_symmetry_cell_setting 'triclinic'
loop_
_space_group_symop_operation_xyz
x,y,z
-x,-y,-z
loop_
_atom_site_type_symbol
_atom_site_label
_atom_site_fract_x
_atom_site_fract_y
_atom_site_fract_z
Si Si1 0.873598 0.244718 0.270593
Si Si2 0.049911 0.102858 0.383365
Si Si3 0.603675 0.358258 0.384177
Si Si4 0.589354 0.339378 0.728496
Si Si5 0.773845 0.718003 0.996626
Si Si6 0.473642 0.752979 0.865392
Si Si7 0.070661 0.676810 0.132197
O O1 0.191580 0.510484 0.314399
O O2 0.910555 0.082785 0.266662
O O3 0.783589 0.310447 0.368036
O O4 0.626381 0.129335 0.144957
O O5 0.309556 0.150059 0.382735
O O6 0.210400 0.367042 0.500297
O O7 0.754104 0.862612 0.365122
O O8 0.520977 0.341346 0.260258
O O9 0.710317 0.555515 0.862354
O O10 0.653468 0.212193 0.763021
O O11 0.733868 0.872621 0.984532
O O12 0.500000 0.500000 0.000000
O O13 0.048880 0.831440 0.105343
O O14 0.188041 0.499823 0.846157
O O15 0.000000 0.500000 0.000000
#
# Coordination Sequence:
#
# PCOD9096123 Si02
#       7
#     2   2   2   2   2   2   2
#     4   9  20  39  58  82 123 154 193 244 295 336
#     4  11  21  39  60  87 122 156 201 241 289 357
#     4   9  21  38  57  85 124 161 188 242 305 339
#     4  10  20  35  62  91 111 157 205 240 290 357
#     4   9  16  32  58  85 118 149 191 247 296 347
#     4   8  16  32  54  80 106 159 189 219 300 346
#     4   8  15  30  54  81 110 145 191 239 291 336
#
# _framework density 27.888961999999999
#
# number of rings (size 3 to 8) (size 9 to 14) (size 15 to 20)
#    0.857    2.000    0.000    1.286    0.000    0.571 
#    7.714    6.429    0.000   56.571    0.000    0.000 
#    0.000    0.000    0.000    0.000    0.000    0.000 
#
# Total GULP energy -78307.354541 kJ/mol
# GULP energy per Si atom -5593.382467 kJ/mol
# Density = 2.782549 g / cm^3
# Si number density = 27.888962 Si / 1000 Ang^3
#
#
#
# Elastic Constant Matrix: (Units=GPa)
#
#
# Indices 1 2 3 4 5 6 
#
# 1 190.2943 52.4594 37.0502 10.0689 -3.3135 35.1862
# 2 52.4594 84.0900 22.3937 14.6259 5.0425 11.2087
# 3 37.0502 22.3937 70.4746 12.2807 2.9595 7.7182
# 4 10.0689 14.6259 12.2807 45.5592 -7.3914 22.1555
# 5 -3.3135 5.0425 2.9595 -7.3914 45.5749 -5.8261
# 6 35.1862 11.2087 7.7182 22.1555 -5.8261 71.4836
#
#
#
# Elastic Compliance Matrix: (Units=1/GPa)
#
#
# Indices 1 2 3 4 5 6 
#
# 1 0.007361 -0.003867 -0.002693 0.002115 0.001060 -0.003295
# 2 -0.003867 0.015686 -0.002171 -0.004408 -0.002483 0.000842
# 3 -0.002693 -0.002171 0.016954 -0.003994 -0.001584 0.000944
# 4 0.002115 -0.004408 -0.003994 0.028830 0.004492 -0.008488
# 5 0.001060 -0.002483 -0.001584 0.004492 0.023194 0.000537
# 6 -0.003295 0.000842 0.000944 -0.008488 0.000537 0.018052
#
#
# Mechanical properties :
#
#
# Convention : Reuss Voigt Hill
#
# Bulk Modulus (GPa) = 44.36844 63.18506 53.77675
# Shear Modulus (GPa) = 37.02217 48.05391 42.53804
#
# Velocity S-wave (km/s) = 3.64742 4.15546 3.90970
# Velocity P-wave (km/s) = 5.80360 6.76232 6.30122
#
# Compressibility (1/GPa) = 0.02253854
#
# Stress axis : x y z
#
# Youngs Moduli (GPa) = 135.84322 63.75043 58.98170
#
# Poissons Ratio (x) = 0.24654 0.15886
# Poissons Ratio (y) = 0.52535 0.12805
# Poissons Ratio (z) = 0.36588 0.13840
#
# Static dielectric constant tensor:
#      x y z
#    x 2.243650 0.049200 0.093630 
#    y 0.049200 2.213460 -0.061180 
#    z 0.093630 -0.061180 2.154250 
# 
# From -- ./inp_files/493001.got.cif
#   From: 2010.05.17/outbox.cif.g08.bks.cpg/sg2_247_cif.got.tgz:493001.got - 2010.06.03 11:33:40.
