data_PCOD9096774
_publ_section_title
;
Structure prediction by ZEFSAII (Michael W. Deem and Ramdas Pophale) SiO2 
 PCOD9096774
Probable space group: P -1
;
_chemical_formula_sum "Si O2"
_cell_formula_units_Z 14
_cell_length_a 9.407727
_cell_length_b 9.388099
_cell_length_c 10.876719
_cell_angle_alpha 73.494105
_cell_angle_beta 122.412992
_cell_angle_gamma 63.164240
_cell_volume 517.919356
_symmetry_space_group_name_H-M "P -1"
_symmetry_group_IT_number 2
_symmetry_cell_setting 'triclinic'
loop_
_space_group_symop_operation_xyz
x,y,z
-x,-y,-z
loop_
_atom_site_type_symbol
_atom_site_label
_atom_site_fract_x
_atom_site_fract_y
_atom_site_fract_z
Si Si1 0.191801 0.853166 0.510100
Si Si2 0.118062 0.360999 0.738484
Si Si3 0.076832 0.602269 0.853790
Si Si4 0.462735 0.909363 0.173886
Si Si5 0.691036 0.325752 0.893809
Si Si6 0.597341 0.831297 0.712434
Si Si7 0.797787 0.328961 0.676406
O O1 0.418585 0.586857 0.710087
O O2 0.343889 0.907067 0.548544
O O3 0.093133 0.851299 0.334423
O O4 0.000000 0.000000 0.500000
O O5 0.136683 0.512250 0.766257
O O6 0.245833 0.268500 0.688942
O O7 0.856157 0.453417 0.622254
O O8 0.296891 0.132135 0.959340
O O9 0.793534 0.737897 0.719529
O O10 0.160604 0.709270 0.910114
O O11 0.249660 0.381046 0.073913
O O12 0.364473 0.810193 0.121994
O O13 0.438977 0.990726 0.277340
O O14 0.854066 0.272288 0.861810
O O15 0.500000 0.500000 0.500000
#
# Coordination Sequence:
#
# PCOD9096774 Si02
#       7
#     2   2   2   2   2   2   2
#     4  10  20  37  59  80 110 150 185 224 275 336
#     4  10  20  36  58  82 113 150 184 223 285 331
#     4   9  17  32  55  79 106 142 182 228 270 320
#     4  10  21  36  57  85 113 142 182 238 282 322
#     4  10  21  37  58  84 111 142 188 233 274 324
#     4   9  17  33  54  77 107 143 180 221 277 324
#     4  10  20  36  58  81 109 150 188 220 269 336
#
# _framework density 27.031236
#
# number of rings (size 3 to 8) (size 9 to 14) (size 15 to 20)
#    0.000    2.286    0.000    5.143    0.000    4.000 
#    0.000    8.571    0.000    0.000    0.000    0.000 
#    0.000    0.000    0.000    0.000    0.000    0.000 
#
# Total GULP energy -78394.652721 kJ/mol
# GULP energy per Si atom -5599.618051 kJ/mol
# Density = 2.696971 g / cm^3
# Si number density = 27.031236 Si / 1000 Ang^3
#
#
#
# Elastic Constant Matrix: (Units=GPa)
#
#
# Indices 1 2 3 4 5 6 
#
# 1 91.7058 61.7803 24.3913 -1.8476 13.4906 -1.5699
# 2 61.7803 243.7143 46.5205 17.3717 10.3364 4.7279
# 3 24.3913 46.5205 91.4442 14.1229 17.3169 1.1965
# 4 -1.8476 17.3717 14.1229 44.9103 3.0815 9.1326
# 5 13.4906 10.3364 17.3169 3.0815 32.1453 3.8457
# 6 -1.5699 4.7279 1.1965 9.1326 3.8457 57.9190
#
#
#
# Elastic Compliance Matrix: (Units=1/GPa)
#
#
# Indices 1 2 3 4 5 6 
#
# 1 0.014286 -0.003306 -0.001717 0.002587 -0.004324 0.000572
# 2 -0.003306 0.005363 -0.001736 -0.001661 0.000791 -0.000282
# 3 -0.001717 -0.001736 0.013945 -0.003529 -0.005986 0.000761
# 4 0.002587 -0.001661 -0.003529 0.024900 -0.000606 -0.003607
# 5 -0.004324 0.000791 -0.005986 -0.000606 0.036235 -0.002368
# 6 0.000572 -0.000282 0.000761 -0.003607 -0.002368 0.018014
#
#
# Mechanical properties :
#
#
# Convention : Reuss Voigt Hill
#
# Bulk Modulus (GPa) = 49.80869 76.91650 63.36260
# Shear Modulus (GPa) = 37.60681 46.60641 42.10661
#
# Velocity S-wave (km/s) = 3.73397 4.15682 3.95106
# Velocity P-wave (km/s) = 6.08740 7.18020 6.65626
#
# Compressibility (1/GPa) = 0.02007682
#
# Stress axis : x y z
#
# Youngs Moduli (GPa) = 69.99780 186.46674 71.70800
#
# Poissons Ratio (x) = 0.61642 0.12312
# Poissons Ratio (y) = 0.23140 0.12449
# Poissons Ratio (z) = 0.12019 0.32371
#
# Static dielectric constant tensor:
#      x y z
#    x 2.054370 0.042960 -0.089050 
#    y 0.042960 2.041460 -0.067980 
#    z -0.089050 -0.067980 2.353830 
# 
# From -- ./inp_files/202128.got.cif
#   From: 2010.05.17/outbox.cif.g08.bks.cpg/sg2_102_cif.got.tgz:202128.got - 2010.06.03 11:33:40.
