data_PCOD9096715
_publ_section_title
;
Structure prediction by ZEFSAII (Michael W. Deem and Ramdas Pophale) SiO2 
 PCOD9096715
Probable space group: P -1
;
_chemical_formula_sum "Si O2"
_cell_formula_units_Z 16
_cell_length_a 21.060105
_cell_length_b 5.422158
_cell_length_c 15.313892
_cell_angle_alpha 83.640998
_cell_angle_beta 151.131401
_cell_angle_gamma 91.932591
_cell_volume 831.761504
_symmetry_space_group_name_H-M "P -1"
_symmetry_group_IT_number 2
_symmetry_cell_setting 'triclinic'
loop_
_space_group_symop_operation_xyz
x,y,z
-x,-y,-z
loop_
_atom_site_type_symbol
_atom_site_label
_atom_site_fract_x
_atom_site_fract_y
_atom_site_fract_z
Si Si1 0.325698 0.517222 0.391603
Si Si2 0.063037 0.071666 0.301149
Si Si3 0.210571 0.386990 0.904973
Si Si4 0.051044 0.769065 0.132897
Si Si5 0.337018 0.174877 0.564507
Si Si6 0.060966 0.945449 0.670347
Si Si7 0.832710 0.485539 0.956298
Si Si8 0.478921 0.637884 0.724258
O O1 0.190629 0.652629 0.267130
O O2 0.334453 0.239426 0.454823
O O3 0.418786 0.388269 0.692335
O O4 0.299880 0.536422 0.257297
O O5 0.188944 0.209329 0.423197
O O6 0.921539 0.226783 0.098702
O O7 0.078692 0.841611 0.262938
O O8 0.051887 0.022064 0.391531
O O9 0.155071 0.153970 0.801244
O O10 0.192958 0.368865 0.989613
O O11 0.133312 0.658994 0.774339
O O12 0.365556 0.382579 0.073536
O O13 0.930533 0.608572 0.004119
O O14 0.000000 0.000000 0.000000
O O15 0.443218 0.634195 0.577238
O O16 0.405622 0.892122 0.667807
O O17 0.000000 0.000000 0.500000
#
# Coordination Sequence:
#
# PCOD9096715 Si02
#       8
#     2   2   2   2   2   2   2   2
#     4  10  21  31  53  88 122 172 203 241 282 347
#     4  11  20  36  60  89 123 155 205 259 311 351
#     4  11  24  44  64  89 123 162 198 252 304 370
#     4  12  19  31  55  88 130 160 200 259 300 346
#     4  10  20  36  57  87 119 167 202 246 285 349
#     4  11  25  45  71  94 116 149 199 262 324 367
#     4  11  21  33  52  89 124 163 210 248 298 350
#     4  10  22  38  58  84 124 173 204 232 292 356
#
# _framework density 19.236284000000001
#
# number of rings (size 3 to 8) (size 9 to 14) (size 15 to 20)
#    0.750    0.500    5.000    2.250    0.000    0.500 
#    0.000    0.625    0.000    4.500    0.000    0.000 
#    0.000    0.000    0.000    0.000    0.000    0.000 
#
# Total GULP energy -89185.886552 kJ/mol
# GULP energy per Si atom -5574.117910 kJ/mol
# Density = 1.919250 g / cm^3
# Si number density = 19.236284 Si / 1000 Ang^3
#
#
#
# Elastic Constant Matrix: (Units=GPa)
#
#
# Indices 1 2 3 4 5 6 
#
# 1 57.7394 19.8114 32.9371 2.0851 -17.7791 -3.3903
# 2 19.8114 94.6408 28.2963 8.0920 -0.0179 -3.9641
# 3 32.9371 28.2963 61.7041 8.4992 -7.1318 2.8486
# 4 2.0851 8.0920 8.4992 28.5654 1.7967 0.7543
# 5 -17.7791 -0.0179 -7.1318 1.7967 32.1038 2.0905
# 6 -3.3903 -3.9641 2.8486 0.7543 2.0905 19.6301
#
#
#
# Elastic Compliance Matrix: (Units=1/GPa)
#
#
# Indices 1 2 3 4 5 6 
#
# 1 0.030526 -0.002019 -0.014309 0.001622 0.013279 0.005464
# 2 -0.002019 0.012764 -0.004925 -0.001944 -0.002309 0.003264
# 3 -0.014309 -0.004925 0.027031 -0.005343 -0.001164 -0.007059
# 4 0.001622 -0.001944 -0.005343 0.037190 -0.002338 -0.000517
# 5 0.013279 -0.002309 -0.001164 -0.002338 0.038505 -0.002015
# 6 0.005464 0.003264 -0.007059 -0.000517 -0.002015 0.053804
#
#
# Mechanical properties :
#
#
# Convention : Reuss Voigt Hill
#
# Bulk Modulus (GPa) = 35.95467 41.79711 38.87589
# Shear Modulus (GPa) = 19.87298 24.92917 22.40107
#
# Velocity S-wave (km/s) = 3.21767 3.60383 3.41621
# Velocity P-wave (km/s) = 5.70405 6.25238 5.98450
#
# Compressibility (1/GPa) = 0.02781280
#
# Stress axis : x y z
#
# Youngs Moduli (GPa) = 32.75923 78.34508 36.99499
#
# Poissons Ratio (x) = 0.15818 0.52938
# Poissons Ratio (y) = 0.06614 0.18222
# Poissons Ratio (z) = 0.46877 0.38588
#
# Static dielectric constant tensor:
#      x y z
#    x 1.673370 0.002140 -0.008170 
#    y 0.002140 1.726640 0.005030 
#    z -0.008170 0.005030 1.685670 
# 
# From -- ./inp_files/370853.got.cif
#   From: 2010.05.17/outbox.cif.g08.bks.cpg/sg2_186_cif.got.tgz:370853.got - 2010.06.03 11:33:40.
