data_PCOD9096034
_publ_section_title
;
Structure prediction by ZEFSAII (Michael W. Deem and Ramdas Pophale) SiO2 
 PCOD9096034
Probable space group: P -1
;
_chemical_formula_sum "Si O2"
_cell_formula_units_Z 15
_cell_length_a 11.154171
_cell_length_b 10.712290
_cell_length_c 9.196438
_cell_angle_alpha 109.696121
_cell_angle_beta 62.729418
_cell_angle_gamma 144.450868
_cell_volume 566.503078
_symmetry_space_group_name_H-M "P -1"
_symmetry_group_IT_number 2
_symmetry_cell_setting 'triclinic'
loop_
_space_group_symop_operation_xyz
x,y,z
-x,-y,-z
loop_
_atom_site_type_symbol
_atom_site_label
_atom_site_fract_x
_atom_site_fract_y
_atom_site_fract_z
Si Si1 0.000000 0.500000 0.000000
Si Si2 0.308178 0.919052 0.167705
Si Si3 0.201940 0.441539 0.420840
Si Si4 0.617743 0.183130 0.657689
Si Si5 0.136133 0.870034 0.772427
Si Si6 0.016368 0.132471 0.654710
Si Si7 0.685406 0.713017 0.178071
Si Si8 0.741823 0.464372 0.971398
O O1 0.757223 0.404315 0.092636
O O2 0.103633 0.673382 0.132336
O O3 0.335190 0.915765 0.323426
O O4 0.225158 0.003285 0.216173
O O5 0.500000 0.000000 0.000000
O O6 0.224610 0.618487 0.462732
O O7 0.128903 0.330863 0.570968
O O8 0.443319 0.570835 0.303065
O O9 0.027725 0.258962 0.323447
O O10 0.372819 0.993216 0.659527
O O11 0.635269 0.299748 0.834576
O O12 0.192168 0.062742 0.868425
O O13 0.011724 0.681091 0.884953
O O14 0.166142 0.208503 0.735124
O O15 0.000000 0.000000 0.500000
O O16 0.672373 0.563360 0.041991
#
# Coordination Sequence:
#
# PCOD9096034 Si02
#       8
#     1   2   2   2   2   2   2   2
#     4  10  20  40  62  94 132 172 212 272 332 392
#     4  11  24  45  70 102 135 173 226 281 335 397
#     4  10  23  42  63  92 134 177 224 269 329 403
#     4   9  22  39  65  95 130 171 224 272 336 391
#     4  10  20  39  62  92 137 169 220 275 334 392
#     4  12  25  45  70  99 139 181 223 274 337 402
#     4  11  22  39  64  94 131 176 224 272 334 396
#     4  10  20  35  61  95 128 170 220 274 334 389
#
# _framework density 26.478235000000002
#
# number of rings (size 3 to 8) (size 9 to 14) (size 15 to 20)
#    0.000    1.600    2.667    1.600    0.000    8.533 
#    2.400    0.667    0.000    0.000    0.000    0.000 
#    0.000    0.000    0.000    0.000    0.000    0.000 
#
# Total GULP energy -83646.330761 kJ/mol
# GULP energy per Si atom -5576.422051 kJ/mol
# Density = 2.641797 g / cm^3
# Si number density = 26.478235 Si / 1000 Ang^3
#
#
#
# Elastic Constant Matrix: (Units=GPa)
#
#
# Indices 1 2 3 4 5 6 
#
# 1 129.9357 28.9557 20.2841 -4.0968 -11.9505 36.8917
# 2 28.9557 106.9302 22.4818 -4.6400 -9.4447 4.7068
# 3 20.2841 22.4818 78.2239 -2.1827 -20.8335 6.6582
# 4 -4.0968 -4.6400 -2.1827 36.2554 0.9509 -2.6247
# 5 -11.9505 -9.4447 -20.8335 0.9509 59.4899 -1.9325
# 6 36.8917 4.7068 6.6582 -2.6247 -1.9325 52.5080
#
#
#
# Elastic Compliance Matrix: (Units=1/GPa)
#
#
# Indices 1 2 3 4 5 6 
#
# 1 0.010445 -0.002161 -0.001194 0.000301 0.001107 -0.006938
# 2 -0.002161 0.010479 -0.002396 0.001011 0.000405 0.000948
# 3 -0.001194 -0.002396 0.015082 0.000296 0.004635 -0.000674
# 4 0.000301 0.001011 0.000296 0.027841 -0.000086 0.001049
# 5 0.001107 0.000405 0.004635 -0.000086 0.018697 -0.000718
# 6 -0.006938 0.000948 -0.000674 0.001049 -0.000718 0.023946
#
#
# Mechanical properties :
#
#
# Convention : Reuss Voigt Hill
#
# Bulk Modulus (GPa) = 40.80908 50.94813 45.87861
# Shear Modulus (GPa) = 39.63219 45.87520 42.75370
#
# Velocity S-wave (km/s) = 3.87303 4.16692 4.02266
# Velocity P-wave (km/s) = 5.95367 6.51416 6.24021
#
# Compressibility (1/GPa) = 0.02450435
#
# Stress axis : x y z
#
# Youngs Moduli (GPa) = 95.73789 95.43110 66.30450
#
# Poissons Ratio (x) = 0.20626 0.07914
# Poissons Ratio (y) = 0.20692 0.15885
# Poissons Ratio (z) = 0.11428 0.22864
#
# Static dielectric constant tensor:
#      x y z
#    x 2.070600 0.070760 -0.267550 
#    y 0.070760 2.043960 0.067920 
#    z -0.267550 0.067920 2.046240 
# 
# From -- ./inp_files/428539.got.cif
#   From: 2010.05.17/outbox.cif.g08.bks.cpg/sg2_215_cif.got.tgz:428539.got - 2010.06.03 11:33:40.
