data_PCOD9096321
_publ_section_title
;
Structure prediction by ZEFSAII (Michael W. Deem and Ramdas Pophale) SiO2 
 PCOD9096321
Probable space group: P -1
;
_chemical_formula_sum "Si O2"
_cell_formula_units_Z 15
_cell_length_a 11.503514
_cell_length_b 23.123626
_cell_length_c 9.040272
_cell_angle_alpha 38.370951
_cell_angle_beta 60.148529
_cell_angle_gamma 32.937108
_cell_volume 714.326611
_symmetry_space_group_name_H-M "P -1"
_symmetry_group_IT_number 2
_symmetry_cell_setting 'triclinic'
loop_
_space_group_symop_operation_xyz
x,y,z
-x,-y,-z
loop_
_atom_site_type_symbol
_atom_site_label
_atom_site_fract_x
_atom_site_fract_y
_atom_site_fract_z
Si Si1 0.305164 0.248955 0.530084
Si Si2 0.703789 0.283466 0.105385
Si Si3 0.858565 0.676530 0.203018
Si Si4 0.419877 0.949779 0.728020
Si Si5 0.233219 0.512765 0.086226
Si Si6 0.500000 0.500000 0.500000
Si Si7 0.002869 0.714787 0.524784
Si Si8 0.243780 0.964236 0.512916
O O1 0.279042 0.218659 0.769284
O O2 0.254926 0.388561 0.297669
O O3 0.565073 0.092798 0.598882
O O4 0.106418 0.313401 0.426244
O O5 0.503792 0.396267 0.137491
O O6 0.715897 0.169627 0.265518
O O7 0.609699 0.400537 0.794814
O O8 0.970696 0.146751 0.274077
O O9 0.000000 0.500000 0.500000
O O10 0.066933 0.623199 0.114150
O O11 0.661054 0.772552 0.008637
O O12 0.309988 0.951048 0.665447
O O13 0.500000 0.000000 0.500000
O O14 0.218744 0.085865 0.707308
O O15 0.091892 0.636274 0.789119
O O16 0.226450 0.626369 0.470808
#
# Coordination Sequence:
#
# PCOD9096321 Si02
#       8
#     2   2   2   2   2   1   2   2
#     4  10  20  35  66  90 121 162 212 262 307 366
#     4   9  21  41  68  88 124 168 213 251 311 376
#     4  10  22  37  58  94 126 154 203 262 314 363
#     4  12  23  40  64  93 128 163 210 262 313 372
#     4   9  18  39  61  90 122 163 207 254 314 375
#     4  10  24  42  60  94 128 156 210 264 306 368
#     4  11  22  40  61  90 126 166 208 256 314 370
#     4  10  21  42  66  91 123 169 211 253 312 377
#
# _framework density 20.998795999999999
#
# number of rings (size 3 to 8) (size 9 to 14) (size 15 to 20)
#    0.000    1.867    2.667    0.400    1.867    6.933 
#    2.400    2.000    0.000    0.000    0.000    0.000 
#    0.000    0.000    0.000    0.000    0.000    0.000 
#
# Total GULP energy -83520.335566 kJ/mol
# GULP energy per Si atom -5568.022371 kJ/mol
# Density = 2.095100 g / cm^3
# Si number density = 20.998796 Si / 1000 Ang^3
#
#
#
# Elastic Constant Matrix: (Units=GPa)
#
#
# Indices 1 2 3 4 5 6 
#
# 1 -28.7691 -25.5178 14.0108 -33.8238 -34.4052 0.7816
# 2 -25.5178 128.8164 34.8796 -2.6994 -15.4638 -43.3676
# 3 14.0108 34.8796 98.7112 -3.7513 17.0187 -14.1540
# 4 -33.8238 -2.6994 -3.7513 29.6314 -15.1444 7.0918
# 5 -34.4052 -15.4638 17.0187 -15.1444 15.9023 -5.2743
# 6 0.7816 -43.3676 -14.1540 7.0918 -5.2743 31.6413
#
#
#
# Elastic Compliance Matrix: (Units=1/GPa)
#
#
# Indices 1 2 3 4 5 6 
#
# 1 0.000398 -0.005664 0.003599 -0.006664 -0.017352 -0.007562
# 2 -0.005664 0.014675 -0.002054 -0.009274 0.002630 0.021852
# 3 0.003599 -0.002054 0.010857 0.004412 -0.001385 0.000733
# 4 -0.006664 -0.009274 0.004412 0.024764 -0.010504 -0.017875
# 5 -0.017352 0.002630 -0.001385 -0.010504 0.022538 0.009524
# 6 -0.007562 0.021852 0.000733 -0.017875 0.009524 0.067663
#
#
# Mechanical properties :
#
#
# Convention : Reuss Voigt Hill
#
# Bulk Modulus (GPa) = 56.52123 27.27820 41.89971
# Shear Modulus (GPa) = 32.25166 27.12739 29.68953
#
# Velocity S-wave (km/s) = 3.92328 3.59814 3.76422
# Velocity P-wave (km/s) = 6.89186 5.50279 6.23612
#
# Compressibility (1/GPa) = 0.01769247
#
# Stress axis : x y z
#
# Youngs Moduli (GPa) = 2509.81365 68.14238 92.10538
#
# Poissons Ratio (x) = 0.38596 -0.33148
# Poissons Ratio (y) = 14.21567 0.18919
# Poissons Ratio (z) = -9.03272 0.13997
#
# Static dielectric constant tensor:
#      x y z
#    x 1.738020 0.012610 -0.026460 
#    y 0.012610 1.809620 -0.031300 
#    z -0.026460 -0.031300 1.758050 
# 
# From -- ./inp_files/185803.got.cif
#   From: 2010.05.17/outbox.cif.g08.bks.cpg/sg2_93_cif.got.tgz:185803.got - 2010.06.03 11:33:40.
