data_PCOD9096272
_publ_section_title
;
Structure prediction by ZEFSAII (Michael W. Deem and Ramdas Pophale) SiO2 
 PCOD9096272
Probable space group: P -1
;
_chemical_formula_sum "Si O2"
_cell_formula_units_Z 14
_cell_length_a 12.047305
_cell_length_b 8.217349
_cell_length_c 11.995037
_cell_angle_alpha 78.588851
_cell_angle_beta 107.153602
_cell_angle_gamma 40.295811
_cell_volume 535.182887
_symmetry_space_group_name_H-M "P -1"
_symmetry_group_IT_number 2
_symmetry_cell_setting 'triclinic'
loop_
_space_group_symop_operation_xyz
x,y,z
-x,-y,-z
loop_
_atom_site_type_symbol
_atom_site_label
_atom_site_fract_x
_atom_site_fract_y
_atom_site_fract_z
Si Si1 0.699180 0.391412 0.052122
Si Si2 0.532562 0.585530 0.629783
Si Si3 0.098979 0.408243 0.799862
Si Si4 0.615353 0.134453 0.680809
Si Si5 0.350188 0.201238 0.112146
Si Si6 0.939156 0.292179 0.860022
Si Si7 0.019331 0.821211 0.615568
O O1 0.859241 0.248181 0.226652
O O2 0.500000 0.500000 0.000000
O O3 0.571588 0.715518 0.919927
O O4 0.883562 0.082839 0.058216
O O5 0.642022 0.270946 0.737764
O O6 0.570365 0.579027 0.510332
O O7 0.666115 0.568907 0.728034
O O8 0.251578 0.911528 0.519252
O O9 0.016269 0.322149 0.779243
O O10 0.153685 0.469799 0.709380
O O11 0.296910 0.166786 0.988136
O O12 0.862372 0.784640 0.738795
O O13 0.533808 0.077643 0.732066
O O14 0.096733 0.562745 0.055307
O O15 0.000000 0.000000 0.500000
#
# Coordination Sequence:
#
# PCOD9096272 Si02
#       7
#     2   2   2   2   2   2   2
#     4  11  25  44  61  95 133 165 214 268 310 378
#     4  10  20  35  64  94 120 164 211 259 308 374
#     4   9  20  39  61  94 127 158 214 266 310 376
#     4   9  17  34  57  88 120 151 202 263 310 363
#     4  10  21  38  62  91 128 166 209 262 318 377
#     4  11  21  38  68  96 123 162 215 266 314 371
#     4  10  23  45  62  85 135 176 206 253 327 380
#
# _framework density 26.159278
#
# number of rings (size 3 to 8) (size 9 to 14) (size 15 to 20)
#    0.000    2.000    0.000    5.571    2.000    6.286 
#    2.571    2.143    0.000    0.000    0.000    0.000 
#    0.000    0.000    0.000    0.000    0.000    0.000 
#
# Total GULP energy -78042.831453 kJ/mol
# GULP energy per Si atom -5574.487961 kJ/mol
# Density = 2.609974 g / cm^3
# Si number density = 26.159278 Si / 1000 Ang^3
#
#
#
# Elastic Constant Matrix: (Units=GPa)
#
#
# Indices 1 2 3 4 5 6 
#
# 1 259.6002 32.4427 77.4535 2.2825 -20.7559 12.8815
# 2 32.4427 46.1639 18.6861 7.0932 -5.3838 8.9562
# 3 77.4535 18.6861 97.0994 4.0856 -12.7845 13.0919
# 4 2.2825 7.0932 4.0856 23.2417 1.4004 -6.4138
# 5 -20.7559 -5.3838 -12.7845 1.4004 62.3362 -13.0196
# 6 12.8815 8.9562 13.0919 -6.4138 -13.0196 50.8150
#
#
#
# Elastic Compliance Matrix: (Units=1/GPa)
#
#
# Indices 1 2 3 4 5 6 
#
# 1 0.005306 -0.002315 -0.003761 0.000896 0.000851 0.000363
# 2 -0.002315 0.026442 -0.002225 -0.008718 0.000308 -0.004522
# 3 -0.003761 -0.002225 0.014271 -0.002168 0.001043 -0.002338
# 4 0.000896 -0.008718 -0.002168 0.048170 -0.000340 0.007861
# 5 0.000851 0.000308 0.001043 -0.000340 0.017382 0.003872
# 6 0.000363 -0.004522 -0.002338 0.007861 0.003872 0.022971
#
#
# Mechanical properties :
#
#
# Convention : Reuss Voigt Hill
#
# Bulk Modulus (GPa) = 33.99480 73.33645 53.66563
# Shear Modulus (GPa) = 31.06564 45.56400 38.31482
#
# Velocity S-wave (km/s) = 3.44983 4.17800 3.83126
# Velocity P-wave (km/s) = 5.37513 7.16727 6.33489
#
# Compressibility (1/GPa) = 0.02941626
#
# Stress axis : x y z
#
# Youngs Moduli (GPa) = 188.47430 37.81831 70.07259
#
# Poissons Ratio (x) = 0.08755 0.26357
# Poissons Ratio (y) = 0.43633 0.15591
# Poissons Ratio (z) = 0.70892 0.08414
#
# Static dielectric constant tensor:
#      x y z
#    x 2.163480 -0.046090 -0.025810 
#    y -0.046090 2.195470 -0.021870 
#    z -0.025810 -0.021870 2.131080 
# 
# From -- ./inp_files/515385.got.cif
#   From: 2010.05.17/outbox.cif.g08.bks.cpg/sg2_258_cif.got.tgz:515385.got - 2010.06.03 11:33:40.
