data_PCOD9096407
_publ_section_title
;
Structure prediction by ZEFSAII (Michael W. Deem and Ramdas Pophale) SiO2 
 PCOD9096407
Probable space group: P -1
;
_chemical_formula_sum "Si O2"
_cell_formula_units_Z 14
_cell_length_a 20.020595
_cell_length_b 10.115225
_cell_length_c 10.375962
_cell_angle_alpha 127.792700
_cell_angle_beta 141.884102
_cell_angle_gamma 26.392804
_cell_volume 543.213842
_symmetry_space_group_name_H-M "P -1"
_symmetry_group_IT_number 2
_symmetry_cell_setting 'triclinic'
loop_
_space_group_symop_operation_xyz
x,y,z
-x,-y,-z
loop_
_atom_site_type_symbol
_atom_site_label
_atom_site_fract_x
_atom_site_fract_y
_atom_site_fract_z
Si Si1 0.247722 0.639288 0.026324
Si Si2 0.425244 0.110518 0.112537
Si Si3 0.202141 0.875255 0.343664
Si Si4 0.107972 0.168912 0.837623
Si Si5 0.723753 0.713553 0.732114
Si Si6 0.881795 0.651168 0.547843
Si Si7 0.588594 0.273488 0.165285
O O1 0.323114 0.349600 0.985879
O O2 0.351278 0.601060 0.043076
O O3 0.321679 0.618480 0.262305
O O4 0.006290 0.949226 0.837174
O O5 0.306658 0.309173 0.182821
O O6 0.657070 0.866901 0.333970
O O7 0.402387 0.941168 0.961477
O O8 0.142677 0.121977 0.324649
O O9 0.302578 0.796876 0.583661
O O10 0.904992 0.379344 0.733025
O O11 0.003049 0.395625 0.689122
O O12 0.286689 0.829671 0.832705
O O13 0.211948 0.175245 0.088601
O O14 0.500000 0.000000 0.500000
O O15 0.000000 0.500000 0.500000
#
# Coordination Sequence:
#
# PCOD9096407 Si02
#       7
#     2   2   2   2   2   2   2
#     4  11  23  38  52  87 116 154 188 229 292 348
#     4  11  22  34  58  82 116 149 191 237 281 334
#     4  11  23  35  57  82 120 154 183 228 296 347
#     4  10  21  34  56  85 115 146 193 236 287 326
#     4  10  20  36  54  82 114 151 191 244 279 326
#     4  12  20  34  58  90 118 148 182 236 288 342
#     4  11  21  35  56  83 114 149 185 242 275 342
#
# _framework density 25.772542000000001
#
# number of rings (size 3 to 8) (size 9 to 14) (size 15 to 20)
#    0.000    1.143    4.286    3.429    0.000    0.000 
#    0.000    0.000    0.000    0.857    0.000   27.000 
#    0.000    0.000    0.000    0.000    0.000    0.000 
#
# Total GULP energy -78274.686769 kJ/mol
# GULP energy per Si atom -5591.049055 kJ/mol
# Density = 2.571388 g / cm^3
# Si number density = 25.772542 Si / 1000 Ang^3
#
#
#
# Elastic Constant Matrix: (Units=GPa)
#
#
# Indices 1 2 3 4 5 6 
#
# 1 125.8877 29.6132 49.0869 -5.1229 -6.4425 -52.3424
# 2 29.6132 86.6913 47.3806 -2.5622 15.5194 -56.3293
# 3 49.0869 47.3806 126.1277 -13.5815 15.8822 -33.3638
# 4 -5.1229 -2.5622 -13.5815 42.0023 -13.1772 9.7025
# 5 -6.4425 15.5194 15.8822 -13.1772 26.2176 -4.3150
# 6 -52.3424 -56.3293 -33.3638 9.7025 -4.3150 65.3618
#
#
#
# Elastic Compliance Matrix: (Units=1/GPa)
#
#
# Indices 1 2 3 4 5 6 
#
# 1 0.015231 0.007715 -0.005102 -0.001927 0.004063 0.016796
# 2 0.007715 0.040590 -0.007297 -0.013483 -0.018195 0.038235
# 3 -0.005102 -0.007297 0.012141 0.002826 -0.003665 -0.004839
# 4 -0.001927 -0.013483 0.002826 0.033526 0.020117 -0.015368
# 5 0.004063 -0.018195 -0.003665 0.020117 0.060050 -0.013320
# 6 0.016796 0.038235 -0.004839 -0.015368 -0.013320 0.060633
#
#
# Mechanical properties :
#
#
# Convention : Reuss Voigt Hill
#
# Bulk Modulus (GPa) = 17.06661 65.65201 41.35931
# Shear Modulus (GPa) = 19.91463 40.89140 30.40301
#
# Velocity S-wave (km/s) = 2.78278 3.98757 3.43835
# Velocity P-wave (km/s) = 4.11844 6.83593 5.64320
#
# Compressibility (1/GPa) = 0.05859394
#
# Stress axis : x y z
#
# Youngs Moduli (GPa) = 65.65475 24.63631 82.36378
#
# Poissons Ratio (x) = -0.19006 0.42022
# Poissons Ratio (y) = -0.50651 0.60103
# Poissons Ratio (z) = 0.33497 0.17978
#
# Static dielectric constant tensor:
#      x y z
#    x 2.031450 -0.030670 0.014180 
#    y -0.030670 2.199980 -0.001970 
#    z 0.014180 -0.001970 1.999060 
# 
# From -- ./inp_files/476811.got.cif
#   From: 2010.05.17/outbox.cif.g08.bks.cpg/sg2_239_cif.got.tgz:476811.got - 2010.06.03 11:33:40.
