data_PCOD9096143
_publ_section_title
;
Structure prediction by ZEFSAII (Michael W. Deem and Ramdas Pophale) SiO2 
 PCOD9096143
Probable space group: P -1
;
_chemical_formula_sum "Si O2"
_cell_formula_units_Z 16
_cell_length_a 15.056616
_cell_length_b 9.466594
_cell_length_c 12.581526
_cell_angle_alpha 110.748458
_cell_angle_beta 60.706230
_cell_angle_gamma 57.989722
_cell_volume 740.170077
_symmetry_space_group_name_H-M "P -1"
_symmetry_group_IT_number 2
_symmetry_cell_setting 'triclinic'
loop_
_space_group_symop_operation_xyz
x,y,z
-x,-y,-z
loop_
_atom_site_type_symbol
_atom_site_label
_atom_site_fract_x
_atom_site_fract_y
_atom_site_fract_z
Si Si1 0.778941 0.265684 0.796201
Si Si2 0.200147 0.694251 0.446559
Si Si3 0.613177 0.245823 0.575514
Si Si4 0.321109 0.924827 0.284778
Si Si5 0.281808 0.454432 0.752664
Si Si6 0.422679 0.021995 0.726587
Si Si7 0.385151 0.145294 0.218231
Si Si8 0.889395 0.794044 0.099956
O O1 0.793388 0.330047 0.691695
O O2 0.781038 0.087426 0.713707
O O3 0.560830 0.582218 0.052295
O O4 0.974673 0.043548 0.693717
O O5 0.362434 0.611742 0.364958
O O6 0.251180 0.465004 0.397472
O O7 0.715106 0.021749 0.553825
O O8 0.391883 0.465415 0.733895
O O9 0.753419 0.036929 0.337173
O O10 0.271094 0.135240 0.302507
O O11 0.343946 0.249825 0.750895
O O12 0.386186 0.285447 0.533229
O O13 0.045508 0.721384 0.951341
O O14 0.270652 0.077832 0.850902
O O15 0.464673 0.042799 0.819813
O O16 0.500000 0.000000 0.000000
O O17 0.000000 0.500000 0.000000
#
# Coordination Sequence:
#
# PCOD9096143 Si02
#       8
#     2   2   2   2   2   2   2   2
#     4   9  20  40  59  84 121 171 219 255 289 382
#     4  10  22  38  58  90 127 163 213 254 312 372
#     4  10  20  35  62  94 115 161 210 257 303 375
#     4  10  20  37  64  85 122 167 211 255 312 360
#     4   9  17  36  63  90 117 158 212 257 300 363
#     4   9  19  36  58  88 125 159 202 258 306 367
#     4  12  23  39  60  94 132 171 196 260 328 366
#     4   9  19  34  60  98 117 149 212 267 306 353
#
# _framework density 21.616652999999999
#
# number of rings (size 3 to 8) (size 9 to 14) (size 15 to 20)
#    0.000    2.250    2.500    0.750    1.750    0.500 
#    4.500    3.750    0.000    1.500    0.000    0.000 
#    0.000    0.000    0.000    0.000    0.000    0.000 
#
# Total GULP energy -89193.747092 kJ/mol
# GULP energy per Si atom -5574.609193 kJ/mol
# Density = 2.156745 g / cm^3
# Si number density = 21.616653 Si / 1000 Ang^3
#
#
#
# Elastic Constant Matrix: (Units=GPa)
#
#
# Indices 1 2 3 4 5 6 
#
# 1 126.4799 26.5448 36.4327 -8.6045 -21.7995 12.5669
# 2 26.5448 47.5337 -3.1998 -9.7197 1.3868 18.9525
# 3 36.4327 -3.1998 48.2238 -6.9079 -23.3579 -3.2525
# 4 -8.6045 -9.7197 -6.9079 13.0035 -1.5135 7.4935
# 5 -21.7995 1.3868 -23.3579 -1.5135 36.0368 -10.6496
# 6 12.5669 18.9525 -3.2525 7.4935 -10.6496 30.4173
#
#
#
# Elastic Compliance Matrix: (Units=1/GPa)
#
#
# Indices 1 2 3 4 5 6 
#
# 1 0.012489 -0.008647 -0.009659 -0.003508 0.001670 0.000644
# 2 -0.008647 0.076219 0.012017 0.097575 -0.017824 -0.072912
# 3 -0.009659 0.012017 0.045175 0.027594 0.025119 0.003330
# 4 -0.003508 0.097575 0.027594 0.228181 -0.013036 -0.117175
# 5 0.001670 -0.017824 0.025119 -0.013036 0.055770 0.035839
# 6 0.000644 -0.072912 0.003330 -0.117175 0.035839 0.119811
#
#
# Mechanical properties :
#
#
# Convention : Reuss Voigt Hill
#
# Bulk Modulus (GPa) = 8.24378 37.97697 23.11038
# Shear Modulus (GPa) = 8.46511 26.72218 17.59365
#
# Velocity S-wave (km/s) = 1.98104 3.51976 2.85598
# Velocity P-wave (km/s) = 3.00908 5.84164 4.64647
#
# Compressibility (1/GPa) = 0.12130363
#
# Stress axis : x y z
#
# Youngs Moduli (GPa) = 80.07242 13.12003 22.13600
#
# Poissons Ratio (x) = 0.11345 0.21381
# Poissons Ratio (y) = 0.69242 -0.26600
# Poissons Ratio (z) = 0.77343 -0.15766
#
# Static dielectric constant tensor:
#      x y z
#    x 1.859080 0.026700 -0.035560 
#    y 0.026700 1.813020 0.013000 
#    z -0.035560 0.013000 1.824690 
# 
# From -- ./inp_files/447819.got.cif
#   From: 2010.05.17/outbox.cif.g08.bks.cpg/sg2_224_cif.got.tgz:447819.got - 2010.06.03 11:33:40.
