data_PCOD9096644
_publ_section_title
;
Structure prediction by ZEFSAII (Michael W. Deem and Ramdas Pophale) SiO2 
 PCOD9096644
Probable space group: P -1
;
_chemical_formula_sum "Si O2"
_cell_formula_units_Z 16
_cell_length_a 7.238081
_cell_length_b 17.455248
_cell_length_c 8.344822
_cell_angle_alpha 36.789409
_cell_angle_beta 102.524600
_cell_angle_gamma 108.321134
_cell_volume 598.262935
_symmetry_space_group_name_H-M "P -1"
_symmetry_group_IT_number 2
_symmetry_cell_setting 'triclinic'
loop_
_space_group_symop_operation_xyz
x,y,z
-x,-y,-z
loop_
_atom_site_type_symbol
_atom_site_label
_atom_site_fract_x
_atom_site_fract_y
_atom_site_fract_z
Si Si1 0.773726 0.491891 0.005310
Si Si2 0.968568 0.185309 0.283118
Si Si3 0.285440 0.110892 0.277154
Si Si4 0.833023 0.448432 0.425624
Si Si5 0.779422 0.758869 0.441808
Si Si6 0.546696 0.189112 0.499162
Si Si7 0.871551 0.172980 0.795311
Si Si8 0.349869 0.773821 0.046915
O O1 0.773034 0.529514 0.133148
O O2 0.637430 0.344156 0.214699
O O3 0.713895 0.599592 0.699298
O O4 0.000000 0.500000 0.000000
O O5 0.806254 0.259418 0.072057
O O6 0.132474 0.195639 0.158350
O O7 0.073894 0.219353 0.413869
O O8 0.845269 0.034742 0.524705
O O9 0.427090 0.119704 0.443085
O O10 0.437594 0.160627 0.082477
O O11 0.903483 0.331776 0.541536
O O12 0.000000 0.500000 0.500000
O O13 0.653023 0.362434 0.636052
O O14 0.599580 0.814268 0.373113
O O15 0.913441 0.837789 0.192443
O O16 0.718232 0.127677 0.700149
O O17 0.245163 0.859283 0.005468
#
# Coordination Sequence:
#
# PCOD9096644 Si02
#       8
#     2   2   2   2   2   2   2   2
#     4  11  19  35  57  81 114 147 187 234 271 333
#     4  10  22  39  61  86 109 148 193 231 281 329
#     4  10  22  39  61  85 112 145 191 239 273 332
#     4   9  19  32  52  82 111 149 183 223 285 327
#     4  11  20  37  61  81 115 149 191 231 273 336
#     4  10  21  36  58  84 112 148 191 226 281 330
#     4   9  21  35  54  83 114 147 177 233 280 326
#     4  10  20  36  57  82 114 148 181 231 283 335
#
# _framework density 26.744092999999999
#
# number of rings (size 3 to 8) (size 9 to 14) (size 15 to 20)
#    0.750    1.250    2.500    2.250    1.750    1.000 
#    0.000    2.500    0.000    8.250    0.000    0.000 
#    0.000    0.000    0.000    0.000    0.000    0.000 
#
# Total GULP energy -89452.785575 kJ/mol
# GULP energy per Si atom -5590.799098 kJ/mol
# Density = 2.668322 g / cm^3
# Si number density = 26.744093 Si / 1000 Ang^3
#
#
#
# Elastic Constant Matrix: (Units=GPa)
#
#
# Indices 1 2 3 4 5 6 
#
# 1 146.9597 7.6908 54.4324 18.8719 -46.9778 2.1908
# 2 7.6908 98.2161 21.8768 -6.2806 -4.5644 22.2413
# 3 54.4324 21.8768 127.9205 0.8226 -50.4072 -7.3208
# 4 18.8719 -6.2806 0.8226 28.9099 -6.5977 -4.3481
# 5 -46.9778 -4.5644 -50.4072 -6.5977 56.8534 15.3892
# 6 2.1908 22.2413 -7.3208 -4.3481 15.3892 39.7575
#
#
#
# Elastic Compliance Matrix: (Units=1/GPa)
#
#
# Indices 1 2 3 4 5 6 
#
# 1 0.010855 0.000715 -0.001781 -0.005787 0.008162 -0.005118
# 2 0.000715 0.012641 -0.002102 0.001601 0.002133 -0.008149
# 3 -0.001781 -0.002102 0.012896 0.002647 0.010092 0.000032
# 4 -0.005787 0.001601 0.002647 0.039492 0.001264 0.003741
# 5 0.008162 0.002133 0.010092 0.001264 0.037425 -0.014133
# 6 -0.005118 -0.008149 0.000032 0.003741 -0.014133 0.035879
#
#
# Mechanical properties :
#
#
# Convention : Reuss Voigt Hill
#
# Bulk Modulus (GPa) = 33.27063 60.12181 46.69622
# Shear Modulus (GPa) = 30.20380 44.37723 37.29051
#
# Velocity S-wave (km/s) = 3.36425 4.07790 3.73814
# Velocity P-wave (km/s) = 5.24959 6.68593 6.01082
#
# Compressibility (1/GPa) = 0.03005654
#
# Stress axis : x y z
#
# Youngs Moduli (GPa) = 92.12013 79.11008 77.54140
#
# Poissons Ratio (x) = -0.05656 0.13809
# Poissons Ratio (y) = -0.06586 0.16299
# Poissons Ratio (z) = 0.16405 0.16629
#
# Static dielectric constant tensor:
#      x y z
#    x 2.089440 -0.023200 0.006540 
#    y -0.023200 2.137430 0.022330 
#    z 0.006540 0.022330 2.201420 
# 
# From -- ./inp_files/216733.got.cif
#   From: 2010.05.17/outbox.cif.g08.bks.cpg/sg2_109_cif.got.tgz:216733.got - 2010.06.03 11:33:40.
