data_PCOD9096199
_publ_section_title
;
Structure prediction by ZEFSAII (Michael W. Deem and Ramdas Pophale) SiO2 
 PCOD9096199
Probable space group: P -1
;
_chemical_formula_sum "Si O2"
_cell_formula_units_Z 16
_cell_length_a 11.989066
_cell_length_b 8.880598
_cell_length_c 11.359712
_cell_angle_alpha 92.304304
_cell_angle_beta 51.615666
_cell_angle_gamma 125.421364
_cell_volume 668.876772
_symmetry_space_group_name_H-M "P -1"
_symmetry_group_IT_number 2
_symmetry_cell_setting 'triclinic'
loop_
_space_group_symop_operation_xyz
x,y,z
-x,-y,-z
loop_
_atom_site_type_symbol
_atom_site_label
_atom_site_fract_x
_atom_site_fract_y
_atom_site_fract_z
Si Si1 0.353910 0.698279 0.304798
Si Si2 0.303265 0.746047 0.098254
Si Si3 0.517542 0.597961 0.366338
Si Si4 0.927863 0.004769 0.211446
Si Si5 0.738817 0.271553 0.246893
Si Si6 0.733701 0.096421 0.472826
Si Si7 0.729178 0.517427 0.091578
Si Si8 0.184815 0.899855 0.022829
O O1 0.239840 0.605776 0.251698
O O2 0.354121 0.587132 0.414350
O O3 0.290226 0.816316 0.396023
O O4 0.588020 0.859565 0.114426
O O5 0.152169 0.756655 0.145527
O O6 0.336030 0.650389 0.969691
O O7 0.500000 0.000000 0.000000
O O8 0.500000 0.500000 0.500000
O O9 0.728214 0.845579 0.256128
O O10 0.548771 0.488160 0.249370
O O11 0.024952 0.912817 0.142893
O O12 0.854711 0.031179 0.380746
O O13 0.097665 0.241661 0.057009
O O14 0.816127 0.264213 0.318333
O O15 0.803771 0.477778 0.154690
O O16 0.498714 0.113416 0.413255
O O17 0.784755 0.181651 0.115134
#
# Coordination Sequence:
#
# PCOD9096199 Si02
#       8
#     2   2   2   2   2   2   2   2
#     4  10  20  41  67  91 128 182 221 266 313 397
#     4   9  21  44  70  92 128 176 235 266 310 397
#     4  12  25  41  66 101 141 173 214 269 348 409
#     4  12  24  40  65 103 141 161 213 291 338 388
#     4   9  19  38  60  90 130 174 220 251 327 411
#     4  10  20  35  63  89 133 179 209 259 331 398
#     4  11  23  39  66 104 126 173 223 277 333 377
#     4   9  19  39  66  96 128 170 214 278 328 375
#
# _framework density 23.920698000000002
#
# number of rings (size 3 to 8) (size 9 to 14) (size 15 to 20)
#    0.000    1.750    1.250    4.875    1.750    1.000 
#    6.750    1.250    0.000    0.000    0.000    0.000 
#    0.000    0.000    0.000    0.000    0.000    0.000 
#
# Total GULP energy -89321.060951 kJ/mol
# GULP energy per Si atom -5582.566309 kJ/mol
# Density = 2.386625 g / cm^3
# Si number density = 23.920698 Si / 1000 Ang^3
#
#
#
# Elastic Constant Matrix: (Units=GPa)
#
#
# Indices 1 2 3 4 5 6 
#
# 1 111.0345 37.9423 56.8393 21.7710 10.2708 -30.0585
# 2 37.9423 121.0833 45.7653 17.4978 -4.6392 -26.2581
# 3 56.8393 45.7653 94.5438 23.4784 -7.7177 -17.2537
# 4 21.7710 17.4978 23.4784 57.5280 -14.2297 -6.5641
# 5 10.2708 -4.6392 -7.7177 -14.2297 37.3077 12.2634
# 6 -30.0585 -26.2581 -17.2537 -6.5641 12.2634 34.7337
#
#
#
# Elastic Compliance Matrix: (Units=1/GPa)
#
#
# Indices 1 2 3 4 5 6 
#
# 1 0.021796 0.001536 -0.009986 -0.006558 -0.016880 0.019783
# 2 0.001536 0.011602 -0.004743 -0.002078 -0.003586 0.008617
# 3 -0.009986 -0.004743 0.018737 -0.001239 0.007466 -0.005791
# 4 -0.006558 -0.002078 -0.001239 0.023254 0.012783 -0.007980
# 5 -0.016880 -0.003586 0.007466 0.012783 0.046502 -0.027612
# 6 0.019783 0.008617 -0.005791 -0.007980 -0.027612 0.057789
#
#
# Mechanical properties :
#
#
# Convention : Reuss Voigt Hill
#
# Bulk Modulus (GPa) = 38.83885 67.52839 53.18362
# Shear Modulus (GPa) = 23.29361 38.32153 30.80757
#
# Velocity S-wave (km/s) = 3.12394 4.00687 3.59263
# Velocity P-wave (km/s) = 5.41144 7.04969 6.28418
#
# Compressibility (1/GPa) = 0.02574742
#
# Stress axis : x y z
#
# Youngs Moduli (GPa) = 45.87959 86.19161 53.36953
#
# Poissons Ratio (x) = -0.13235 0.53295
# Poissons Ratio (y) = -0.07045 0.25316
# Poissons Ratio (z) = 0.45816 0.40885
#
# Static dielectric constant tensor:
#      x y z
#    x 1.988080 0.011090 0.042460 
#    y 0.011090 1.948740 -0.070850 
#    z 0.042460 -0.070850 2.019750 
# 
# From -- ./inp_files/419422.got.cif
#   From: 2010.05.17/outbox.cif.g08.bks.cpg/sg2_210_cif.got.tgz:419422.got - 2010.06.03 11:33:40.
