data_PCOD9096534
_publ_section_title
;
Structure prediction by ZEFSAII (Michael W. Deem and Ramdas Pophale) SiO2 
 PCOD9096534
Probable space group: P -1
;
_chemical_formula_sum "Si O2"
_cell_formula_units_Z 16
_cell_length_a 16.669136
_cell_length_b 20.781767
_cell_length_c 10.659908
_cell_angle_alpha 31.018275
_cell_angle_beta 29.182032
_cell_angle_gamma 18.317911
_cell_volume 556.244215
_symmetry_space_group_name_H-M "P -1"
_symmetry_group_IT_number 2
_symmetry_cell_setting 'triclinic'
loop_
_space_group_symop_operation_xyz
x,y,z
-x,-y,-z
loop_
_atom_site_type_symbol
_atom_site_label
_atom_site_fract_x
_atom_site_fract_y
_atom_site_fract_z
Si Si1 0.153959 0.297137 0.053394
Si Si2 0.639267 0.171590 0.151729
Si Si3 0.428858 0.985458 0.855178
Si Si4 0.049156 0.837273 0.635265
Si Si5 0.441433 0.536720 0.807479
Si Si6 0.610556 0.164678 0.498318
Si Si7 0.927193 0.763424 0.302341
Si Si8 0.236041 0.395934 0.108501
O O1 0.918280 0.406488 0.093176
O O2 0.400491 0.198282 0.796486
O O3 0.310171 0.128212 0.231458
O O4 0.000000 0.500000 0.000000
O O5 0.590174 0.177990 0.354478
O O6 0.363463 0.349273 0.145811
O O7 0.826097 0.950430 0.201563
O O8 0.698996 0.285383 0.878882
O O9 0.312314 0.124270 0.660916
O O10 0.515289 0.799436 0.991521
O O11 0.175291 0.115159 0.071650
O O12 0.339427 0.621694 0.661546
O O13 0.918335 0.946081 0.494966
O O14 0.000000 0.000000 0.500000
O O15 0.484781 0.644442 0.632415
O O16 0.196017 0.633411 0.072436
O O17 0.938010 0.627639 0.593254
#
# Coordination Sequence:
#
# PCOD9096534 Si02
#       8
#     2   2   2   2   2   2   2   2
#     4   9  18  34  59  82 108 150 190 232 284 331
#     4  11  22  36  58  88 117 149 191 234 283 344
#     4   8  15  31  54  77 105 145 185 227 279 329
#     4   8  16  33  56  77 107 149 187 231 283 330
#     4  10  21  38  60  84 115 153 190 233 285 338
#     4  10  20  36  58  86 116 149 191 237 283 339
#     4  10  21  38  59  84 117 152 187 235 288 337
#     4  10  20  36  56  82 116 151 188 235 286 335
#
# _framework density 28.764343
#
# number of rings (size 3 to 8) (size 9 to 14) (size 15 to 20)
#    0.000    2.500    0.000    2.625    0.000    2.500 
#    0.000    6.250    0.000   83.250    0.000    0.000 
#    0.000    0.000    0.000    0.000    0.000    0.000 
#
# Total GULP energy -89430.683735 kJ/mol
# GULP energy per Si atom -5589.417733 kJ/mol
# Density = 2.869887 g / cm^3
# Si number density = 28.764343 Si / 1000 Ang^3
#
#
#
# Elastic Constant Matrix: (Units=GPa)
#
#
# Indices 1 2 3 4 5 6 
#
# 1 246.9849 51.0947 21.9401 -4.2550 30.6221 -13.5638
# 2 51.0947 92.6568 32.3341 -10.3600 5.8423 26.2532
# 3 21.9401 32.3341 67.4613 -19.4246 9.0463 -0.7806
# 4 -4.2550 -10.3600 -19.4246 51.1641 -2.9265 8.5150
# 5 30.6221 5.8423 9.0463 -2.9265 39.0657 -6.8207
# 6 -13.5638 26.2532 -0.7806 8.5150 -6.8207 67.1150
#
#
#
# Elastic Compliance Matrix: (Units=1/GPa)
#
#
# Indices 1 2 3 4 5 6 
#
# 1 0.005268 -0.003467 0.000208 -0.000738 -0.003334 0.002178
# 2 -0.003467 0.017504 -0.006843 0.001988 0.000466 -0.007832
# 3 0.000208 -0.006843 0.020129 0.005782 -0.003034 0.001911
# 4 -0.000738 0.001988 0.005782 0.022703 -0.000010 -0.003741
# 5 -0.003334 0.000466 -0.003034 -0.000010 0.029206 0.002078
# 6 0.002178 -0.007832 0.001911 -0.003741 0.002078 0.019112
#
#
# Mechanical properties :
#
#
# Convention : Reuss Voigt Hill
#
# Bulk Modulus (GPa) = 44.05611 68.64899 56.35255
# Shear Modulus (GPa) = 35.28767 51.58456 43.43611
#
# Velocity S-wave (km/s) = 3.50635 4.23939 3.89018
# Velocity P-wave (km/s) = 5.63401 6.91961 6.30964
#
# Compressibility (1/GPa) = 0.02269833
#
# Stress axis : x y z
#
# Youngs Moduli (GPa) = 189.83192 57.12838 49.67876
#
# Poissons Ratio (x) = 0.19806 -0.01035
# Poissons Ratio (y) = 0.65814 0.33995
# Poissons Ratio (z) = -0.03954 0.39092
#
# Static dielectric constant tensor:
#      x y z
#    x 2.404140 0.012020 -0.132990 
#    y 0.012020 2.238360 -0.118560 
#    z -0.132990 -0.118560 2.297520 
# 
# From -- ./inp_files/467023.got.cif
#   From: 2010.05.17/outbox.cif.g08.bks.cpg/sg2_234_cif.got.tgz:467023.got - 2010.06.03 11:33:40.
