data_PCOD9096821
_publ_section_title
;
Structure prediction by ZEFSAII (Michael W. Deem and Ramdas Pophale) SiO2 
 PCOD9096821
Probable space group: P -1
;
_chemical_formula_sum "Si O2"
_cell_formula_units_Z 16
_cell_length_a 11.500623
_cell_length_b 8.845040
_cell_length_c 21.705230
_cell_angle_alpha 147.188088
_cell_angle_beta 144.563235
_cell_angle_gamma 39.463060
_cell_volume 666.403344
_symmetry_space_group_name_H-M "P -1"
_symmetry_group_IT_number 2
_symmetry_cell_setting 'triclinic'
loop_
_space_group_symop_operation_xyz
x,y,z
-x,-y,-z
loop_
_atom_site_type_symbol
_atom_site_label
_atom_site_fract_x
_atom_site_fract_y
_atom_site_fract_z
Si Si1 0.275814 0.140859 0.865858
Si Si2 0.020353 0.886425 0.825801
Si Si3 0.694933 0.677847 0.925892
Si Si4 0.163651 0.894112 0.291268
Si Si5 0.757834 0.158276 0.458204
Si Si6 0.643625 0.677736 0.173766
Si Si7 0.607484 0.428494 0.617370
Si Si8 0.219645 0.024607 0.127862
O O1 0.290474 0.226206 0.830807
O O2 0.044951 0.111372 0.764309
O O3 0.464888 0.854566 0.864193
O O4 0.301174 0.340563 0.004140
O O5 0.199859 0.615607 0.835967
O O6 0.828452 0.948978 0.811542
O O7 0.925022 0.840464 0.702709
O O8 0.145004 0.132863 0.957785
O O9 0.764472 0.374627 0.817532
O O10 0.342751 0.817133 0.393264
O O11 0.708051 0.286967 0.548525
O O12 0.634885 0.412711 0.445911
O O13 0.650679 0.907628 0.309425
O O14 0.000000 0.000000 0.500000
O O15 0.394881 0.740050 0.083590
O O16 0.716026 0.688717 0.768825
O O17 0.000000 0.000000 0.000000
#
# Coordination Sequence:
#
# PCOD9096821 Si02
#       8
#     2   2   2   2   2   2   2   2
#     4  10  20  36  58  83 118 160 207 250 291 353
#     4  11  23  35  54  84 124 163 195 240 302 363
#     4  10  22  37  56  84 120 166 208 243 291 358
#     4  11  22  39  58  84 120 161 203 247 296 356
#     4  10  20  40  67  88 113 150 205 264 294 338
#     4  11  24  39  60  93 123 159 204 249 303 355
#     4  10  22  39  65  92 112 155 211 244 294 359
#     4  11  23  39  61  91 128 160 193 248 306 361
#
# _framework density 24.009484
#
# number of rings (size 3 to 8) (size 9 to 14) (size 15 to 20)
#    0.000    1.500    0.000    6.750    0.000    8.000 
#    0.000    0.625    0.000   12.000    0.000    0.000 
#    0.000    0.000    0.000    0.000    0.000    0.000 
#
# Total GULP energy -89449.241074 kJ/mol
# GULP energy per Si atom -5590.577567 kJ/mol
# Density = 2.395484 g / cm^3
# Si number density = 24.009484 Si / 1000 Ang^3
#
#
#
# Elastic Constant Matrix: (Units=GPa)
#
#
# Indices 1 2 3 4 5 6 
#
# 1 124.8368 67.1692 15.0248 -15.8486 -8.6942 -10.2491
# 2 67.1692 154.3428 29.2172 -52.8336 -10.9273 -10.0894
# 3 15.0248 29.2172 53.8218 -10.8081 -6.8612 9.9346
# 4 -15.8486 -52.8336 -10.8081 46.6695 4.8739 -6.7465
# 5 -8.6942 -10.9273 -6.8612 4.8739 27.5642 -11.4747
# 6 -10.2491 -10.0894 9.9346 -6.7465 -11.4747 51.3757
#
#
#
# Elastic Compliance Matrix: (Units=1/GPa)
#
#
# Indices 1 2 3 4 5 6 
#
# 1 0.010831 -0.005106 -0.000700 -0.002282 0.002244 0.001495
# 2 -0.005106 0.015233 -0.004473 0.014957 0.002943 0.005459
# 3 -0.000700 -0.004473 0.022128 -0.001078 0.001588 -0.005084
# 4 -0.002282 0.014957 -0.001078 0.038343 0.001519 0.008065
# 5 0.002244 0.002943 0.001588 0.001519 0.042626 0.010438
# 6 0.001495 0.005459 -0.005084 0.008065 0.010438 0.025208
#
#
# Mechanical properties :
#
#
# Convention : Reuss Voigt Hill
#
# Bulk Modulus (GPa) = 36.18686 61.75819 48.97252
# Shear Modulus (GPa) = 27.15356 39.89455 33.52405
#
# Velocity S-wave (km/s) = 3.36661 4.08071 3.74074
# Velocity P-wave (km/s) = 5.49697 6.92685 6.25292
#
# Compressibility (1/GPa) = 0.02763434
#
# Stress axis : x y z
#
# Youngs Moduli (GPa) = 92.32581 65.64624 45.19193
#
# Poissons Ratio (x) = 0.33518 0.03164
# Poissons Ratio (y) = 0.47141 0.20214
# Poissons Ratio (z) = 0.06464 0.29363
#
# Static dielectric constant tensor:
#      x y z
#    x 1.940530 0.004780 0.022860 
#    y 0.004780 2.021010 -0.062070 
#    z 0.022860 -0.062070 2.102450 
# 
# From -- ./inp_files/594260.got.cif
#   From: 2010.05.17/outbox.cif.g08.bks.cpg/sg2_298_cif.got.tgz:594260.got - 2010.06.03 11:33:40.
