data_PCOD9096570
_publ_section_title
;
Structure prediction by ZEFSAII (Michael W. Deem and Ramdas Pophale) SiO2 
 PCOD9096570
Probable space group: P -1
;
_chemical_formula_sum "Si O2"
_cell_formula_units_Z 14
_cell_length_a 10.405980
_cell_length_b 13.813897
_cell_length_c 10.816575
_cell_angle_alpha 115.529102
_cell_angle_beta 153.106670
_cell_angle_gamma 60.697803
_cell_volume 613.259637
_symmetry_space_group_name_H-M "P -1"
_symmetry_group_IT_number 2
_symmetry_cell_setting 'triclinic'
loop_
_space_group_symop_operation_xyz
x,y,z
-x,-y,-z
loop_
_atom_site_type_symbol
_atom_site_label
_atom_site_fract_x
_atom_site_fract_y
_atom_site_fract_z
Si Si1 0.689720 0.536204 0.574590
Si Si2 0.651625 0.598485 0.935715
Si Si3 0.275744 0.798237 0.082620
Si Si4 0.716115 0.924447 0.540892
Si Si5 0.305524 0.417679 0.760486
Si Si6 0.016764 0.881152 0.174496
Si Si7 0.530187 0.760036 0.690500
O O1 0.500000 0.500000 0.500000
O O2 0.645461 0.667276 0.630957
O O3 0.029120 0.481745 0.859656
O O4 0.578099 0.477146 0.329003
O O5 0.688038 0.637843 0.128080
O O6 0.581696 0.696972 0.830283
O O7 0.475940 0.874853 0.240193
O O8 0.499428 0.678032 0.210014
O O9 0.169932 0.834936 0.150341
O O10 0.969328 0.822443 0.758684
O O11 0.500000 0.000000 0.500000
O O12 0.903808 0.000992 0.681793
O O13 0.000000 0.500000 0.500000
O O14 0.500000 0.500000 0.000000
O O15 0.190020 0.807750 0.393940
O O16 0.697966 0.857571 0.881680
#
# Coordination Sequence:
#
# PCOD9096570 Si02
#       7
#     2   2   2   2   2   2   2
#     4  10  20  36  56  85 117 166 203 247 311 363
#     4  11  23  41  58  82 129 167 209 251 305 371
#     4  11  23  41  62  89 129 164 205 257 318 363
#     4  10  20  40  64  92 124 159 201 263 328 369
#     4  12  28  44  63  90 125 178 219 249 288 378
#     4  11  21  34  64  96 119 149 205 263 315 376
#     4  11  21  34  59  92 122 156 196 261 322 352
#
# _framework density 22.828827
#
# number of rings (size 3 to 8) (size 9 to 14) (size 15 to 20)
#    0.000    1.143    0.000   10.286    6.000    0.000 
#    0.000    0.000    0.000    5.143    0.000    0.000 
#    0.000    0.000    0.000    0.000    0.000    0.000 
#
# Total GULP energy -78079.535083 kJ/mol
# GULP energy per Si atom -5577.109649 kJ/mol
# Density = 2.277687 g / cm^3
# Si number density = 22.828827 Si / 1000 Ang^3
#
#
#
# Elastic Constant Matrix: (Units=GPa)
#
#
# Indices 1 2 3 4 5 6 
#
# 1 48.8155 -4.3605 9.3060 -3.9565 -11.7575 9.8046
# 2 -4.3605 45.4514 9.2087 -2.7436 9.2576 11.3051
# 3 9.3060 9.2087 153.4174 -13.5839 10.3285 6.6349
# 4 -3.9565 -2.7436 -13.5839 46.9001 10.8860 6.1970
# 5 -11.7575 9.2576 10.3285 10.8860 34.4566 -3.1366
# 6 9.8046 11.3051 6.6349 6.1970 -3.1366 24.2503
#
#
#
# Elastic Compliance Matrix: (Units=1/GPa)
#
#
# Indices 1 2 3 4 5 6 
#
# 1 0.025141 0.004469 -0.001526 0.002043 0.006137 -0.011559
# 2 0.004469 0.029625 0.000085 0.007028 -0.010389 -0.018780
# 3 -0.001526 0.000085 0.007287 0.003286 -0.004019 -0.002776
# 4 0.002043 0.007028 0.003286 0.027457 -0.012087 -0.013581
# 5 0.006137 -0.010389 -0.004019 -0.012087 0.039998 0.011724
# 6 -0.011559 -0.018780 -0.002776 -0.013581 0.011724 0.060412
#
#
# Mechanical properties :
#
#
# Convention : Reuss Voigt Hill
#
# Bulk Modulus (GPa) = 14.68220 30.66584 22.67402
# Shear Modulus (GPa) = 24.20526 36.69006 30.44766
#
# Velocity S-wave (km/s) = 3.25975 4.01332 3.65600
# Velocity P-wave (km/s) = 4.54019 5.91081 5.27025
#
# Compressibility (1/GPa) = 0.06810970
#
# Stress axis : x y z
#
# Youngs Moduli (GPa) = 39.77580 33.75551 137.22641
#
# Poissons Ratio (x) = -0.15087 0.20936
# Poissons Ratio (y) = -0.17778 -0.01161
# Poissons Ratio (z) = 0.06068 -0.00286
#
# Static dielectric constant tensor:
#      x y z
#    x 1.975670 0.064160 -0.074430 
#    y 0.064160 1.994600 -0.005910 
#    z -0.074430 -0.005910 1.840110 
# 
# From -- ./inp_files/433877.got.cif
#   From: 2010.05.17/outbox.cif.g08.bks.cpg/sg2_217_cif.got.tgz:433877.got - 2010.06.03 11:33:40.
