data_PCOD9096274
_publ_section_title
;
Structure prediction by ZEFSAII (Michael W. Deem and Ramdas Pophale) SiO2 
 PCOD9096274
Probable space group: P -1
;
_chemical_formula_sum "Si O2"
_cell_formula_units_Z 12
_cell_length_a 22.602046
_cell_length_b 4.732144
_cell_length_c 5.531664
_cell_angle_alpha 92.578764
_cell_angle_beta 127.319349
_cell_angle_gamma 69.380997
_cell_volume 428.944320
_symmetry_space_group_name_H-M "P -1"
_symmetry_group_IT_number 2
_symmetry_cell_setting 'triclinic'
loop_
_space_group_symop_operation_xyz
x,y,z
-x,-y,-z
loop_
_atom_site_type_symbol
_atom_site_label
_atom_site_fract_x
_atom_site_fract_y
_atom_site_fract_z
Si Si1 0.161046 0.115924 0.611013
Si Si2 0.581750 0.192248 0.677050
Si Si3 0.989138 0.193167 0.231755
Si Si4 0.580503 0.174866 0.176847
Si Si5 0.812116 0.472614 0.664366
Si Si6 0.713143 0.313176 0.744540
O O1 0.173815 0.859068 0.425885
O O2 0.063897 0.297943 0.414072
O O3 0.202663 0.322766 0.604273
O O4 0.202984 0.943682 0.952346
O O5 0.500000 0.500000 0.500000
O O6 0.578951 0.009858 0.419437
O O7 0.652467 0.316011 0.812856
O O8 0.588030 0.015366 0.933791
O O9 0.000000 0.000000 0.500000
O O10 0.896738 0.443369 0.991258
O O11 0.000000 0.000000 0.000000
O O12 0.660071 0.246723 0.401618
O O13 0.500000 0.500000 0.000000
O O14 0.743330 0.554216 0.701883
#
# Coordination Sequence:
#
# PCOD9096274 Si02
#       6
#     2   2   2   2   2   2
#     4  11  24  43  66 100 137 178 225 278 336 401
#     4   8  15  29  54  88 122 169 215 270 330 396
#     4  10  21  44  68  99 137 181 224 276 336 403
#     4   8  15  29  54  88 122 169 215 270 330 396
#     4  11  24  43  66 100 137 178 225 278 336 401
#     4  10  20  35  64  94 134 174 224 281 330 406
#
# _framework density 27.975660999999999
#
# number of rings (size 3 to 8) (size 9 to 14) (size 15 to 20)
#    1.000    1.333    1.667    1.500    0.000    1.333 
#    0.000    3.333    0.000    2.000    0.000    0.000 
#    0.000    0.000    0.000    0.000    0.000    0.000 
#
# Total GULP energy -67073.341543 kJ/mol
# GULP energy per Si atom -5589.445129 kJ/mol
# Density = 2.791199 g / cm^3
# Si number density = 27.975661 Si / 1000 Ang^3
#
#
#
# Elastic Constant Matrix: (Units=GPa)
#
#
# Indices 1 2 3 4 5 6 
#
# 1 188.6537 39.9932 74.2226 -2.8699 0.1691 22.1353
# 2 39.9932 62.3657 13.8130 -0.1036 -6.6040 1.6268
# 3 74.2226 13.8130 155.5021 -8.9676 -36.0370 5.0070
# 4 -2.8699 -0.1036 -8.9676 24.3699 1.8261 -2.6338
# 5 0.1691 -6.6040 -36.0370 1.8261 98.7280 -5.9964
# 6 22.1353 1.6268 5.0070 -2.6338 -5.9964 44.2350
#
#
#
# Elastic Compliance Matrix: (Units=1/GPa)
#
#
# Indices 1 2 3 4 5 6 
#
# 1 0.008234 -0.004525 -0.003903 -0.000752 -0.001960 -0.003823
# 2 -0.004525 0.018890 0.000809 -0.000097 0.001672 0.001699
# 3 -0.003903 0.000809 0.009131 0.002811 0.003434 0.001523
# 4 -0.000752 -0.000097 0.002811 0.042234 0.000399 0.002630
# 5 -0.001960 0.001672 0.003434 0.000399 0.011619 0.002129
# 6 -0.003823 0.001699 0.001523 0.002630 0.002129 0.024730
#
#
# Mechanical properties :
#
#
# Convention : Reuss Voigt Hill
#
# Bulk Modulus (GPa) = 47.58066 73.61990 60.60028
# Shear Modulus (GPa) = 36.47476 52.03277 44.25376
#
# Velocity S-wave (km/s) = 3.61474 4.31737 3.98158
# Velocity P-wave (km/s) = 5.87082 7.15722 6.54570
#
# Compressibility (1/GPa) = 0.02101694
#
# Stress axis : x y z
#
# Youngs Moduli (GPa) = 121.44298 52.93928 109.52115
#
# Poissons Ratio (x) = 0.23955 0.42744
# Poissons Ratio (y) = 0.54954 -0.08861
# Poissons Ratio (z) = 0.47396 -0.04283
#
# Static dielectric constant tensor:
#      x y z
#    x 2.108620 -0.064960 -0.076680 
#    y -0.064960 2.114090 0.035940 
#    z -0.076680 0.035940 2.168180 
# 
# From -- ./inp_files/6539.got.cif
#   From: 2010.05.17/outbox.cif.g08.bks.cpg/sg2_4_cif.got.tgz:6539.got - 2010.06.03 11:33:40.
