data_PCOD9096350
_publ_section_title
;
Structure prediction by ZEFSAII (Michael W. Deem and Ramdas Pophale) SiO2 
 PCOD9096350
Probable space group: P -1
;
_chemical_formula_sum "Si O2"
_cell_formula_units_Z 16
_cell_length_a 13.425480
_cell_length_b 7.870139
_cell_length_c 11.837037
_cell_angle_alpha 102.274775
_cell_angle_beta 69.265860
_cell_angle_gamma 46.324617
_cell_volume 623.622255
_symmetry_space_group_name_H-M "P -1"
_symmetry_group_IT_number 2
_symmetry_cell_setting 'triclinic'
loop_
_space_group_symop_operation_xyz
x,y,z
-x,-y,-z
loop_
_atom_site_type_symbol
_atom_site_label
_atom_site_fract_x
_atom_site_fract_y
_atom_site_fract_z
Si Si1 0.210649 0.617380 0.521916
Si Si2 0.129746 0.384410 0.773293
Si Si3 0.681367 0.206289 0.640399
Si Si4 0.963524 0.521808 0.647712
Si Si5 0.395901 0.175523 0.202150
Si Si6 0.767065 0.296621 0.814865
Si Si7 0.831058 0.492569 0.993801
Si Si8 0.520930 0.656645 0.449454
O O1 0.324278 0.604413 0.397359
O O2 0.292918 0.336206 0.388360
O O3 0.277597 0.547274 0.613009
O O4 0.986208 0.957380 0.637907
O O5 0.131283 0.524805 0.891038
O O6 0.033471 0.565370 0.717427
O O7 0.349220 0.017390 0.613142
O O8 0.999359 0.389669 0.859040
O O9 0.666443 0.265025 0.788820
O O10 0.511015 0.325366 0.668594
O O11 0.882629 0.849772 0.457685
O O12 0.734206 0.801853 0.794343
O O13 0.000000 0.500000 0.500000
O O14 0.337930 0.404513 0.168948
O O15 0.621219 0.858318 0.095163
O O16 0.809698 0.327800 0.924725
O O17 0.500000 0.500000 0.500000
#
# Coordination Sequence:
#
# PCOD9096350 Si02
#       8
#     2   2   2   2   2   2   2   2
#     4  10  16  30  54  79 114 135 178 235 276 324
#     4  10  21  36  50  85 119 144 178 219 290 334
#     4   9  17  30  50  77 104 134 182 227 270 309
#     4  11  21  37  58  77 110 151 193 230 256 317
#     4  11  19  34  52  88 108 146 183 222 282 328
#     4  11  18  31  52  85 115 137 171 234 287 326
#     4  11  21  33  56  81 125 142 166 231 292 344
#     4   9  16  28  48  76 111 138 168 223 275 325
#
# _framework density 25.656559999999999
#
# number of rings (size 3 to 8) (size 9 to 14) (size 15 to 20)
#    0.000    1.750    5.000    2.625    0.000    0.000 
#    0.000    0.625    0.000    1.500    0.000    0.000 
#    0.000    0.000    0.000    0.000    0.000    0.000 
#
# Total GULP energy -89145.742606 kJ/mol
# GULP energy per Si atom -5571.608913 kJ/mol
# Density = 2.559816 g / cm^3
# Si number density = 25.656560 Si / 1000 Ang^3
#
#
#
# Elastic Constant Matrix: (Units=GPa)
#
#
# Indices 1 2 3 4 5 6 
#
# 1 111.4078 44.2865 27.4765 -19.0003 34.1922 -41.6426
# 2 44.2865 89.1700 34.4323 -12.4698 8.7265 -44.6306
# 3 27.4765 34.4323 88.4045 -23.3992 32.2987 -23.1495
# 4 -19.0003 -12.4698 -23.3992 46.4629 -25.3847 11.4469
# 5 34.1922 8.7265 32.2987 -25.3847 45.5686 -18.4592
# 6 -41.6426 -44.6306 -23.1495 11.4469 -18.4592 46.4510
#
#
#
# Elastic Compliance Matrix: (Units=1/GPa)
#
#
# Indices 1 2 3 4 5 6 
#
# 1 0.015805 -0.003955 0.002025 -0.000891 -0.009935 0.007650
# 2 -0.003955 0.026995 -0.007468 0.004262 0.015021 0.023588
# 3 0.002025 -0.007468 0.018225 0.001351 -0.012969 -0.001764
# 4 -0.000891 0.004262 0.001351 0.032052 0.018066 0.003250
# 5 -0.009935 0.015021 -0.012969 0.018066 0.051961 0.015259
# 6 0.007650 0.023588 -0.001764 0.003250 0.015259 0.055433
#
#
# Mechanical properties :
#
#
# Convention : Reuss Voigt Hill
#
# Bulk Modulus (GPa) = 23.68029 55.70812 39.69420
# Shear Modulus (GPa) = 21.42762 39.88228 30.65495
#
# Velocity S-wave (km/s) = 2.89307 3.94695 3.46037
# Velocity P-wave (km/s) = 4.51769 6.52161 5.60985
#
# Compressibility (1/GPa) = 0.04222921
#
# Stress axis : x y z
#
# Youngs Moduli (GPa) = 63.26920 37.04429 54.87030
#
# Poissons Ratio (x) = 0.14653 -0.11113
# Poissons Ratio (y) = 0.25026 0.40976
# Poissons Ratio (z) = -0.12814 0.27664
#
# Static dielectric constant tensor:
#      x y z
#    x -4.637250 -4.313970 -5.820730 
#    y -4.313970 -0.688670 -3.830910 
#    z -5.820730 -3.830910 -3.052770 
# 
# From -- ./inp_files/463909.got.cif
#   From: 2010.05.17/outbox.cif.g08.bks.cpg/sg2_232_cif.got.tgz:463909.got - 2010.06.03 11:33:40.
