data_PCOD9096738
_publ_section_title
;
Structure prediction by ZEFSAII (Michael W. Deem and Ramdas Pophale) SiO2 
 PCOD9096738
Probable space group: P -1
;
_chemical_formula_sum "Si O2"
_cell_formula_units_Z 16
_cell_length_a 16.954857
_cell_length_b 18.111191
_cell_length_c 8.808722
_cell_angle_alpha 127.818591
_cell_angle_beta 37.008418
_cell_angle_gamma 148.464765
_cell_volume 831.798192
_symmetry_space_group_name_H-M "P -1"
_symmetry_group_IT_number 2
_symmetry_cell_setting 'triclinic'
loop_
_space_group_symop_operation_xyz
x,y,z
-x,-y,-z
loop_
_atom_site_type_symbol
_atom_site_label
_atom_site_fract_x
_atom_site_fract_y
_atom_site_fract_z
Si Si1 0.075786 0.964675 0.954034
Si Si2 0.215856 0.579392 0.826608
Si Si3 0.800033 0.366921 0.734218
Si Si4 0.018013 0.905970 0.290188
Si Si5 0.789917 0.146810 0.569546
Si Si6 0.616935 0.160069 0.273308
Si Si7 0.023521 0.291488 0.711276
Si Si8 0.433043 0.143421 0.821466
O O1 0.121824 0.890905 0.711838
O O2 0.284626 0.117019 0.900870
O O3 0.940426 0.869260 0.189867
O O4 0.000000 0.000000 0.000000
O O5 0.371001 0.732340 0.694351
O O6 0.206005 0.465447 0.652338
O O7 0.218089 0.596870 0.025983
O O8 0.000000 0.500000 0.000000
O O9 0.800966 0.255469 0.617311
O O10 0.604289 0.286693 0.834227
O O11 0.000000 0.500000 0.500000
O O12 0.920732 0.775934 0.382607
O O13 0.258323 0.010191 0.034342
O O14 0.000000 0.000000 0.500000
O O15 0.917366 0.220047 0.621317
O O16 0.551603 0.991493 0.746975
O O17 0.545312 0.133077 0.522932
O O18 0.839984 0.238135 0.022778
#
# Coordination Sequence:
#
# PCOD9096738 Si02
#       8
#     2   2   2   2   2   2   2   2
#     4   9  21  40  60  89 118 157 216 262 300 353
#     4  10  21  36  53  87 127 170 193 236 312 378
#     4  12  23  36  61  93 136 163 202 252 321 383
#     4  10  22  39  64  87 121 158 217 263 300 355
#     4  11  22  34  62  92 121 166 204 250 320 368
#     4  10  20  36  57  89 131 150 202 251 314 384
#     4  11  21  35  60  89 125 165 202 250 314 377
#     4   9  23  36  61  92 124 159 205 257 315 361
#
# _framework density 19.235434999999999
#
# number of rings (size 3 to 8) (size 9 to 14) (size 15 to 20)
#    0.750    1.000    2.500    3.375    5.250    1.500 
#    0.000    0.000    0.000    5.250    0.000    0.000 
#    0.000    0.000    0.000    0.000    0.000    0.000 
#
# Total GULP energy -89089.379258 kJ/mol
# GULP energy per Si atom -5568.086204 kJ/mol
# Density = 1.919165 g / cm^3
# Si number density = 19.235435 Si / 1000 Ang^3
#
#
#
# Elastic Constant Matrix: (Units=GPa)
#
#
# Indices 1 2 3 4 5 6 
#
# 1 105.6365 49.3674 4.0233 9.8439 1.8267 5.7609
# 2 49.3674 134.3227 10.3036 4.2183 7.0612 -17.6119
# 3 4.0233 10.3036 51.2623 13.4708 15.1701 -2.7859
# 4 9.8439 4.2183 13.4708 25.5653 -3.0744 3.1348
# 5 1.8267 7.0612 15.1701 -3.0744 16.6870 11.8737
# 6 5.7609 -17.6119 -2.7859 3.1348 11.8737 41.4299
#
#
#
# Elastic Compliance Matrix: (Units=1/GPa)
#
#
# Indices 1 2 3 4 5 6 
#
# 1 0.012463 -0.005527 -0.001744 -0.001451 0.006536 -0.005963
# 2 -0.005527 0.012104 0.007538 -0.008197 -0.022473 0.013482
# 3 -0.001744 0.007538 0.061268 -0.049025 -0.095159 0.038549
# 4 -0.001451 -0.008197 -0.049025 0.082592 0.091124 -0.038945
# 5 0.006536 -0.022473 -0.095159 0.091124 0.237319 -0.091771
# 6 -0.005963 0.013482 0.038549 -0.038945 -0.091771 0.062538
#
#
# Mechanical properties :
#
#
# Convention : Reuss Voigt Hill
#
# Bulk Modulus (GPa) = 11.57829 46.51225 29.04527
# Shear Modulus (GPa) = 10.06969 31.90494 20.98732
#
# Velocity S-wave (km/s) = 2.29049 4.07708 3.30673
# Velocity P-wave (km/s) = 3.60935 6.81149 5.45086
#
# Compressibility (1/GPa) = 0.08636857
#
# Stress axis : x y z
#
# Youngs Moduli (GPa) = 80.23774 82.61621 16.32179
#
# Poissons Ratio (x) = 0.45658 0.02847
# Poissons Ratio (y) = 0.44344 -0.12303
# Poissons Ratio (z) = 0.13997 -0.62274
#
# Static dielectric constant tensor:
#      x y z
#    x 1.684540 -0.011270 0.020520 
#    y -0.011270 1.709070 -0.016010 
#    z 0.020520 -0.016010 1.716910 
# 
# From -- ./inp_files/336336.got.cif
#   From: 2010.05.17/outbox.cif.g08.bks.cpg/sg2_169_cif.got.tgz:336336.got - 2010.06.03 11:33:40.
