data_PCOD9096232
_publ_section_title
;
Structure prediction by ZEFSAII (Michael W. Deem and Ramdas Pophale) SiO2 
 PCOD9096232
Probable space group: P -1
;
_chemical_formula_sum "Si O2"
_cell_formula_units_Z 16
_cell_length_a 20.402874
_cell_length_b 24.244390
_cell_length_c 14.773446
_cell_angle_alpha 19.305980
_cell_angle_beta 155.224171
_cell_angle_gamma 162.098586
_cell_volume 739.125691
_symmetry_space_group_name_H-M "P -1"
_symmetry_group_IT_number 2
_symmetry_cell_setting 'triclinic'
loop_
_space_group_symop_operation_xyz
x,y,z
-x,-y,-z
loop_
_atom_site_type_symbol
_atom_site_label
_atom_site_fract_x
_atom_site_fract_y
_atom_site_fract_z
Si Si1 0.092134 0.057248 0.339222
Si Si2 0.183087 0.616552 0.716002
Si Si3 0.480786 0.788820 0.316311
Si Si4 0.752237 0.579401 0.745297
Si Si5 0.477165 0.085524 0.456097
Si Si6 0.500223 0.719283 0.265110
Si Si7 0.828121 0.182842 0.861659
Si Si8 0.577170 0.740812 0.701512
O O1 0.295328 0.149328 0.511563
O O2 0.185464 0.098540 0.292475
O O3 0.907618 0.798336 0.537930
O O4 0.005000 0.176972 0.062390
O O5 0.388106 0.714684 0.759530
O O6 0.961571 0.446992 0.645018
O O7 0.275151 0.847319 0.525046
O O8 0.140105 0.444349 0.003604
O O9 0.364972 0.645941 0.300699
O O10 0.437174 0.713128 0.483901
O O11 0.500000 0.000000 0.000000
O O12 0.592619 0.599504 0.556846
O O13 0.641169 0.367738 0.867398
O O14 0.662667 0.093792 0.710506
O O15 0.425686 0.151460 0.379167
O O16 0.688641 0.992827 0.060644
O O17 0.500000 0.500000 0.000000
#
# Coordination Sequence:
#
# PCOD9096232 Si02
#       8
#     2   2   2   2   2   2   2   2
#     4   9  22  39  64  96 128 169 218 268 330 396
#     4  11  23  37  66  97 130 172 216 281 325 381
#     4  10  21  38  63  92 128 173 217 261 323 398
#     4  10  20  37  61  97 131 160 218 284 327 370
#     4  11  24  42  64  98 132 174 223 269 326 399
#     4  10  20  35  63  96 123 166 213 276 329 384
#     4  11  20  41  68  95 130 166 227 273 328 384
#     4  10  23  43  65  92 138 180 213 266 337 402
#
# _framework density 21.647196999999998
#
# number of rings (size 3 to 8) (size 9 to 14) (size 15 to 20)
#    0.750    1.000    1.250    3.375    1.750    2.000 
#    0.000    5.000    0.000    4.500    0.000    0.000 
#    0.000    0.000    0.000    0.000    0.000    0.000 
#
# Total GULP energy -89130.228740 kJ/mol
# GULP energy per Si atom -5570.639296 kJ/mol
# Density = 2.159793 g / cm^3
# Si number density = 21.647197 Si / 1000 Ang^3
#
#
#
# Elastic Constant Matrix: (Units=GPa)
#
#
# Indices 1 2 3 4 5 6 
#
# 1 157.7330 16.0952 33.6048 -17.1812 -3.4488 -20.6096
# 2 16.0952 61.2826 18.1329 -17.8272 1.7873 -21.8336
# 3 33.6048 18.1329 82.1449 -7.5045 -9.3258 -4.4917
# 4 -17.1812 -17.8272 -7.5045 33.0766 6.6086 5.7324
# 5 -3.4488 1.7873 -9.3258 6.6086 23.4598 0.8192
# 6 -20.6096 -21.8336 -4.4917 5.7324 0.8192 30.1877
#
#
#
# Elastic Compliance Matrix: (Units=1/GPa)
#
#
# Indices 1 2 3 4 5 6 
#
# 1 0.007951 0.002080 -0.003223 0.003830 -0.001551 0.005768
# 2 0.002080 0.028353 -0.005831 0.013518 -0.008634 0.018726
# 3 -0.003223 -0.005831 0.015137 -0.002034 0.006699 -0.003960
# 4 0.003830 0.013518 -0.002034 0.040819 -0.012938 0.004689
# 5 -0.001551 -0.008634 0.006699 -0.012938 0.049545 -0.005195
# 6 0.005768 0.018726 -0.003960 0.004689 -0.005195 0.049269
#
#
# Mechanical properties :
#
#
# Convention : Reuss Voigt Hill
#
# Bulk Modulus (GPa) = 26.67111 48.53626 37.60368
# Shear Modulus (GPa) = 22.98641 32.89998 27.94320
#
# Velocity S-wave (km/s) = 3.26216 3.90272 3.59673
# Velocity P-wave (km/s) = 5.15136 6.54053 5.88706
#
# Compressibility (1/GPa) = 0.03749375
#
# Stress axis : x y z
#
# Youngs Moduli (GPa) = 125.76890 35.26963 66.06247
#
# Poissons Ratio (x) = -0.07335 0.21289
# Poissons Ratio (y) = -0.26155 0.38519
# Poissons Ratio (z) = 0.40530 0.20565
#
# Static dielectric constant tensor:
#      x y z
#    x 1.833250 -0.021680 -0.007890 
#    y -0.021680 1.849070 0.000190 
#    z -0.007890 0.000190 1.804580 
# 
# From -- ./inp_files/541752.got.cif
#   From: 2010.05.17/outbox.cif.g08.bks.cpg/sg2_271_cif.got.tgz:541752.got - 2010.06.03 11:33:40.
