data_PCOD9096533
_publ_section_title
;
Structure prediction by ZEFSAII (Michael W. Deem and Ramdas Pophale) SiO2 
 PCOD9096533
Probable space group: P -1
;
_chemical_formula_sum "Si O2"
_cell_formula_units_Z 16
_cell_length_a 6.565069
_cell_length_b 21.520673
_cell_length_c 8.014893
_cell_angle_alpha 136.261292
_cell_angle_beta 122.662931
_cell_angle_gamma 53.088754
_cell_volume 614.410198
_symmetry_space_group_name_H-M "P -1"
_symmetry_group_IT_number 2
_symmetry_cell_setting 'triclinic'
loop_
_space_group_symop_operation_xyz
x,y,z
-x,-y,-z
loop_
_atom_site_type_symbol
_atom_site_label
_atom_site_fract_x
_atom_site_fract_y
_atom_site_fract_z
Si Si1 0.330750 0.486973 0.639874
Si Si2 0.386966 0.086768 0.988000
Si Si3 0.809718 0.962113 0.732607
Si Si4 0.126557 0.249102 0.622423
Si Si5 0.817548 0.379459 0.491530
Si Si6 0.732177 0.182581 0.496816
Si Si7 0.152228 0.779037 0.035199
Si Si8 0.100305 0.347964 0.122365
O O1 0.636537 0.449714 0.687055
O O2 0.220072 0.549893 0.544124
O O3 0.167050 0.559328 0.847673
O O4 0.263267 0.392769 0.396331
O O5 0.511187 0.163150 0.256966
O O6 0.076052 0.123155 0.929229
O O7 0.500000 0.000000 0.000000
O O8 0.528770 0.046644 0.793975
O O9 0.763366 0.865008 0.584697
O O10 0.002886 0.914785 0.571821
O O11 0.000000 0.000000 0.000000
O O12 0.083873 0.318136 0.579025
O O13 0.840957 0.254281 0.582183
O O14 0.227866 0.294779 0.908059
O O15 0.739562 0.292244 0.209800
O O16 0.667043 0.209826 0.714139
O O17 0.978503 0.728917 0.959762
#
# Coordination Sequence:
#
# PCOD9096533 Si02
#       8
#     2   2   2   2   2   2   2   2
#     4   9  20  36  57  82 112 147 178 242 282 344
#     4  11  21  35  59  84 116 149 188 241 282 326
#     4   8  17  35  55  79 113 145 187 234 270 327
#     4   9  18  35  59  80 112 147 187 231 276 342
#     4  10  20  36  56  82 116 147 179 232 299 327
#     4   8  20  39  54  80 111 153 189 229 275 334
#     4  10  21  38  57  83 115 153 187 232 280 341
#     4   9  19  38  58  82 111 142 196 226 282 344
#
# _framework density 26.041236000000001
#
# number of rings (size 3 to 8) (size 9 to 14) (size 15 to 20)
#    0.750    2.000    0.000    0.750    1.750    2.000 
#    4.500    0.000    0.000    0.000    0.000    0.000 
#    0.000    0.000    0.000    0.000    0.000    0.000 
#
# Total GULP energy -89118.229039 kJ/mol
# GULP energy per Si atom -5569.889315 kJ/mol
# Density = 2.598197 g / cm^3
# Si number density = 26.041236 Si / 1000 Ang^3
#
#
#
# Elastic Constant Matrix: (Units=GPa)
#
#
# Indices 1 2 3 4 5 6 
#
# 1 48.7804 2.2018 12.2567 8.8126 -21.7844 -16.5613
# 2 2.2018 71.8099 19.4005 6.2840 11.8745 2.9190
# 3 12.2567 19.4005 86.7905 5.6145 -12.0934 9.5723
# 4 8.8126 6.2840 5.6145 30.5094 -1.7973 0.6657
# 5 -21.7844 11.8745 -12.0934 -1.7973 47.9340 2.4777
# 6 -16.5613 2.9190 9.5723 0.6657 2.4777 16.9603
#
#
#
# Elastic Compliance Matrix: (Units=1/GPa)
#
#
# Indices 1 2 3 4 5 6 
#
# 1 0.052226 -0.003357 -0.009166 -0.012779 0.018959 0.054480
# 2 -0.003357 0.016367 -0.003610 -0.002049 -0.006410 -0.003040
# 3 -0.009166 -0.003610 0.015715 0.000977 0.001634 -0.017475
# 4 -0.012779 -0.002049 0.000977 0.036834 -0.002965 -0.013690
# 5 0.018959 -0.006410 0.001634 -0.002965 0.030626 0.014337
# 6 0.054480 -0.003040 -0.017475 -0.013690 0.014337 0.120989
#
#
# Mechanical properties :
#
#
# Convention : Reuss Voigt Hill
#
# Bulk Modulus (GPa) = 19.21433 30.56652 24.89043
# Shear Modulus (GPa) = 15.51014 30.64885 23.07950
#
# Velocity S-wave (km/s) = 2.44314 3.43437 2.98025
# Velocity P-wave (km/s) = 3.91829 5.24307 4.62832
#
# Compressibility (1/GPa) = 0.05204448
#
# Stress axis : x y z
#
# Youngs Moduli (GPa) = 19.14738 61.09976 63.63304
#
# Poissons Ratio (x) = 0.20508 0.58323
# Poissons Ratio (y) = 0.06427 0.22971
# Poissons Ratio (z) = 0.17550 0.22056
#
# Static dielectric constant tensor:
#      x y z
#    x 2.180460 -0.034820 -0.038490 
#    y -0.034820 2.085890 -0.010930 
#    z -0.038490 -0.010930 2.057060 
# 
# From -- ./inp_files/225087.got.cif
#   From: 2010.05.17/outbox.cif.g08.bks.cpg/sg2_113_cif.got.tgz:225087.got - 2010.06.03 11:33:40.
