data_PCOD9096665
_publ_section_title
;
Structure prediction by ZEFSAII (Michael W. Deem and Ramdas Pophale) SiO2 
 PCOD9096665
Probable space group: P -1
;
_chemical_formula_sum "Si O2"
_cell_formula_units_Z 16
_cell_length_a 13.896857
_cell_length_b 8.363425
_cell_length_c 14.922395
_cell_angle_alpha 70.098365
_cell_angle_beta 32.375159
_cell_angle_gamma 91.545297
_cell_volume 681.955561
_symmetry_space_group_name_H-M "P -1"
_symmetry_group_IT_number 2
_symmetry_cell_setting 'triclinic'
loop_
_space_group_symop_operation_xyz
x,y,z
-x,-y,-z
loop_
_atom_site_type_symbol
_atom_site_label
_atom_site_fract_x
_atom_site_fract_y
_atom_site_fract_z
Si Si1 0.240965 0.783142 0.911985
Si Si2 0.026684 0.368866 0.269332
Si Si3 0.379967 0.199544 0.830458
Si Si4 0.005310 0.148264 0.042458
Si Si5 0.402530 0.326082 0.031434
Si Si6 0.198790 0.570068 0.425599
Si Si7 0.070460 0.906315 0.301236
Si Si8 0.272230 0.059419 0.522544
O O1 0.346544 0.019126 0.825417
O O2 0.457161 0.796156 0.713664
O O3 0.102235 0.597235 0.130917
O O4 0.081432 0.736416 0.962189
O O5 0.246820 0.373941 0.092026
O O6 0.915877 0.328035 0.462706
O O7 0.840343 0.175450 0.387595
O O8 0.255152 0.285846 0.866035
O O9 0.636354 0.385520 0.627664
O O10 0.232167 0.054574 0.061697
O O11 0.831593 0.990410 0.287488
O O12 0.000000 0.000000 0.000000
O O13 0.207856 0.064992 0.246800
O O14 0.500000 0.500000 0.000000
O O15 0.616505 0.352314 0.813505
O O16 0.987118 0.324131 0.613051
O O17 0.826734 0.852570 0.481639
#
# Coordination Sequence:
#
# PCOD9096665 Si02
#       8
#     2   2   2   2   2   2   2   2
#     4  11  19  35  57  84 117 151 202 249 288 340
#     4  11  23  38  64  90 113 156 204 239 294 365
#     4   9  18  35  56  82 117 155 197 241 284 340
#     4   9  20  35  54  82 121 160 200 248 296 337
#     4  10  24  43  61  92 125 146 188 248 297 361
#     4  11  20  39  66  86 116 162 197 236 301 350
#     4   9  19  37  62  84 115 156 195 233 292 358
#     4  10  20  36  57  83 119 159 198 249 295 338
#
# _framework density 23.461938
#
# number of rings (size 3 to 8) (size 9 to 14) (size 15 to 20)
#    0.000    2.000    2.500    1.875    0.000    1.500 
#    0.000    3.750    0.000    0.000    0.000    0.000 
#    0.000    0.000    0.000    0.000    0.000    0.000 
#
# Total GULP energy -89263.592942 kJ/mol
# GULP energy per Si atom -5578.974559 kJ/mol
# Density = 2.340854 g / cm^3
# Si number density = 23.461938 Si / 1000 Ang^3
#
#
#
# Elastic Constant Matrix: (Units=GPa)
#
#
# Indices 1 2 3 4 5 6 
#
# 1 68.1844 18.6788 37.8139 -7.8845 -11.4611 2.5381
# 2 18.6788 91.7805 37.9732 3.0120 4.1917 17.6216
# 3 37.8139 37.9732 91.1584 23.3210 -9.4193 -7.0208
# 4 -7.8845 3.0120 23.3210 41.0420 4.9136 -0.9912
# 5 -11.4611 4.1917 -9.4193 4.9136 25.9135 6.2415
# 6 2.5381 17.6216 -7.0208 -0.9912 6.2415 29.8142
#
#
#
# Elastic Compliance Matrix: (Units=1/GPa)
#
#
# Indices 1 2 3 4 5 6 
#
# 1 0.024239 0.001367 -0.013568 0.011504 0.005008 -0.006733
# 2 0.001367 0.017150 -0.010331 0.005081 -0.004079 -0.011663
# 3 -0.013568 -0.010331 0.026919 -0.017573 0.005952 0.011770
# 4 0.011504 0.005081 -0.017573 0.037004 -0.007875 -0.005242
# 5 0.005008 -0.004079 0.005952 -0.007875 0.046725 -0.006657
# 6 -0.006733 -0.011663 0.011770 -0.005242 -0.006657 0.044999
#
#
# Mechanical properties :
#
#
# Convention : Reuss Voigt Hill
#
# Bulk Modulus (GPa) = 43.02185 48.89501 45.95843
# Shear Modulus (GPa) = 20.01217 29.79776 24.90497
#
# Velocity S-wave (km/s) = 2.92372 3.56764 3.26161
# Velocity P-wave (km/s) = 5.45657 6.15273 5.81508
#
# Compressibility (1/GPa) = 0.02324400
#
# Stress axis : x y z
#
# Youngs Moduli (GPa) = 41.25598 58.30738 37.14869
#
# Poissons Ratio (x) = -0.07971 0.50404
# Poissons Ratio (y) = -0.05640 0.38378
# Poissons Ratio (z) = 0.55977 0.60237
#
# Static dielectric constant tensor:
#      x y z
#    x 1.952450 -0.018100 0.010810 
#    y -0.018100 1.927160 0.021510 
#    z 0.010810 0.021510 1.890800 
# 
# From -- ./inp_files/43283.got.cif
#   From: 2010.05.17/outbox.cif.g08.bks.cpg/sg2_22_cif.got.tgz:43283.got - 2010.06.03 11:33:40.
