data_PCOD9096702
_publ_section_title
;
Structure prediction by ZEFSAII (Michael W. Deem and Ramdas Pophale) SiO2 
 PCOD9096702
Probable space group: P -1
;
_chemical_formula_sum "Si O2"
_cell_formula_units_Z 14
_cell_length_a 10.823396
_cell_length_b 11.888191
_cell_length_c 12.255852
_cell_angle_alpha 145.101845
_cell_angle_beta 54.735610
_cell_angle_gamma 104.804867
_cell_volume 651.520211
_symmetry_space_group_name_H-M "P -1"
_symmetry_group_IT_number 2
_symmetry_cell_setting 'triclinic'
loop_
_space_group_symop_operation_xyz
x,y,z
-x,-y,-z
loop_
_atom_site_type_symbol
_atom_site_label
_atom_site_fract_x
_atom_site_fract_y
_atom_site_fract_z
Si Si1 0.218325 0.408543 0.754741
Si Si2 0.759742 0.843739 0.757550
Si Si3 0.830003 0.125164 0.759989
Si Si4 0.684932 0.302253 0.766233
Si Si5 0.500568 0.262774 0.326086
Si Si6 0.052486 0.501799 0.230772
Si Si7 0.294889 0.095621 0.674983
O O1 0.403826 0.286773 0.507727
O O2 0.225685 0.263070 0.739611
O O3 0.082933 0.435504 0.750756
O O4 0.177586 0.655235 0.008282
O O5 0.618879 0.769049 0.730691
O O6 0.937623 0.614747 0.485724
O O7 0.799814 0.979780 0.750086
O O8 0.677141 0.033370 0.042977
O O9 0.683007 0.200677 0.804346
O O10 0.000000 0.000000 0.500000
O O11 0.821484 0.392732 0.769355
O O12 0.735668 0.112448 0.500225
O O13 0.500000 0.500000 0.000000
O O14 0.500000 0.500000 0.500000
O O15 0.181677 0.240081 0.948438
O O16 0.500000 0.000000 0.500000
#
# Coordination Sequence:
#
# PCOD9096702 Si02
#       7
#     2   2   2   2   2   2   2
#     4  11  22  36  59  89 118 156 200 241 296 350
#     4  10  21  35  57  89 116 153 199 246 296 343
#     4  12  20  35  59  89 123 152 191 245 297 360
#     4  12  23  36  54  85 121 157 189 234 304 356
#     4  10  20  36  57  86 120 153 199 253 289 337
#     4  11  22  37  56  88 120 153 197 243 294 353
#     4  12  23  39  57  86 126 156 192 241 301 363
#
# _framework density 21.488206999999999
#
# number of rings (size 3 to 8) (size 9 to 14) (size 15 to 20)
#    0.000    0.857    5.714    3.000    0.000    0.000 
#    0.000    0.000    0.000    0.857    3.714    6.000 
#    0.000    0.000    0.000    0.000    0.000    0.000 
#
# Total GULP energy -78157.496141 kJ/mol
# GULP energy per Si atom -5582.678296 kJ/mol
# Density = 2.143930 g / cm^3
# Si number density = 21.488207 Si / 1000 Ang^3
#
#
#
# Elastic Constant Matrix: (Units=GPa)
#
#
# Indices 1 2 3 4 5 6 
#
# 1 63.0273 7.6998 41.2001 11.5920 2.1246 18.6263
# 2 7.6998 39.5248 34.7975 0.1689 5.0370 15.0106
# 3 41.2001 34.7975 242.5937 -3.3501 17.6197 19.1902
# 4 11.5920 0.1689 -3.3501 40.0925 13.0460 7.9750
# 5 2.1246 5.0370 17.6197 13.0460 40.6083 13.8889
# 6 18.6263 15.0106 19.1902 7.9750 13.8889 25.7868
#
#
#
# Elastic Compliance Matrix: (Units=1/GPa)
#
#
# Indices 1 2 3 4 5 6 
#
# 1 0.025003 0.005701 -0.004131 -0.006326 0.009072 -0.021234
# 2 0.005701 0.037365 -0.004680 0.001117 0.005533 -0.025710
# 3 -0.004131 -0.004680 0.005551 0.002202 -0.003219 0.002630
# 4 -0.006326 0.001117 0.002202 0.030551 -0.009962 -0.001802
# 5 0.009072 0.005533 -0.003219 -0.009962 0.036200 -0.023795
# 6 -0.021234 -0.025710 0.002630 -0.001802 -0.023795 0.080500
#
#
# Mechanical properties :
#
#
# Convention : Reuss Voigt Hill
#
# Bulk Modulus (GPa) = 16.20773 56.94897 36.57835
# Shear Modulus (GPa) = 20.66490 38.72741 29.69616
#
# Velocity S-wave (km/s) = 3.10447 4.24991 3.72152
# Velocity P-wave (km/s) = 4.51767 7.11634 5.96035
#
# Compressibility (1/GPa) = 0.06169897
#
# Stress axis : x y z
#
# Youngs Moduli (GPa) = 39.99539 26.76308 180.14254
#
# Poissons Ratio (x) = -0.15258 0.74409
# Poissons Ratio (y) = -0.22801 0.84314
# Poissons Ratio (z) = 0.16520 0.12526
#
# Static dielectric constant tensor:
#      x y z
#    x 1.817160 -0.014380 -0.018570 
#    y -0.014380 1.725370 -0.054630 
#    z -0.018570 -0.054630 1.822640 
# 
# From -- ./inp_files/521878.got.cif
#   From: 2010.05.17/outbox.cif.g08.bks.cpg/sg2_261_cif.got.tgz:521878.got - 2010.06.03 11:33:40.
