data_PCOD9096896
_publ_section_title
;
Structure prediction by ZEFSAII (Michael W. Deem and Ramdas Pophale) SiO2 
 PCOD9096896
Probable space group: P -1
;
_chemical_formula_sum "Si O2"
_cell_formula_units_Z 16
_cell_length_a 7.323845
_cell_length_b 11.068327
_cell_length_c 18.890981
_cell_angle_alpha 33.884356
_cell_angle_beta 54.922243
_cell_angle_gamma 50.894163
_cell_volume 657.871247
_symmetry_space_group_name_H-M "P -1"
_symmetry_group_IT_number 2
_symmetry_cell_setting 'triclinic'
loop_
_space_group_symop_operation_xyz
x,y,z
-x,-y,-z
loop_
_atom_site_type_symbol
_atom_site_label
_atom_site_fract_x
_atom_site_fract_y
_atom_site_fract_z
Si Si1 0.921087 0.887441 0.430063
Si Si2 0.418787 0.584329 0.055695
Si Si3 0.871679 0.908790 0.820007
Si Si4 0.334047 0.086914 0.809496
Si Si5 0.549912 0.262575 0.561416
Si Si6 0.824576 0.549684 0.094145
Si Si7 0.303308 0.680775 0.645132
Si Si8 0.068323 0.436910 0.299362
O O1 0.177907 0.870804 0.413750
O O2 0.871529 0.672261 0.582483
O O3 0.973481 0.933099 0.314453
O O4 0.724501 0.111459 0.396508
O O5 0.643825 0.556850 0.068032
O O6 0.272282 0.454961 0.194335
O O7 0.500000 0.500000 0.000000
O O8 0.279431 0.856494 0.948612
O O9 0.964135 0.692756 0.848022
O O10 0.592090 0.048244 0.806851
O O11 0.904401 0.770175 0.954529
O O12 0.390674 0.127039 0.695776
O O13 0.128765 0.313016 0.769833
O O14 0.500000 0.500000 0.500000
O O15 0.520441 0.320681 0.456959
O O16 0.684862 0.536928 0.202812
O O17 0.059399 0.714456 0.640785
#
# Coordination Sequence:
#
# PCOD9096896 Si02
#       8
#     2   2   2   2   2   2   2   2
#     4   9  18  31  56  89 112 144 189 244 277 331
#     4  11  26  38  61  81 114 161 197 232 285 349
#     4   8  17  32  62  79 113 142 191 229 297 313
#     4  10  20  37  58  86 118 153 186 244 281 347
#     4  10  16  30  56  90 114 139 188 238 287 327
#     4   9  19  39  56  84 120 149 188 247 282 336
#     4  10  20  33  62  88 115 147 191 247 283 329
#     4  11  21  36  59  88 119 148 195 230 294 346
#
# _framework density 24.320868999999998
#
# number of rings (size 3 to 8) (size 9 to 14) (size 15 to 20)
#    0.000    2.250    2.500    1.875   12.250    0.000 
#    0.000    5.000    2.750    0.750    0.000    0.000 
#    0.000    0.000    0.000    0.000    0.000    0.000 
#
# Total GULP energy -89254.969849 kJ/mol
# GULP energy per Si atom -5578.435616 kJ/mol
# Density = 2.426551 g / cm^3
# Si number density = 24.320869 Si / 1000 Ang^3
#
#
#
# Elastic Constant Matrix: (Units=GPa)
#
#
# Indices 1 2 3 4 5 6 
#
# 1 58.3071 14.0594 15.8815 6.7868 6.1506 -1.6288
# 2 14.0594 72.0332 26.5957 1.8316 16.7870 -15.0804
# 3 15.8815 26.5957 179.7054 24.1666 26.3870 -7.8437
# 4 6.7868 1.8316 24.1666 45.2199 -0.0943 5.1627
# 5 6.1506 16.7870 26.3870 -0.0943 28.2906 3.9945
# 6 -1.6288 -15.0804 -7.8437 5.1627 3.9945 12.6756
#
#
#
# Elastic Compliance Matrix: (Units=1/GPa)
#
#
# Indices 1 2 3 4 5 6 
#
# 1 0.018477 -0.002923 -0.000643 -0.002311 -0.001686 -0.000028
# 2 -0.002923 0.030115 0.002984 -0.008035 -0.026973 0.049072
# 3 -0.000643 0.002984 0.008353 -0.006202 -0.011532 0.014797
# 4 -0.002311 -0.008035 -0.006202 0.029631 0.015480 -0.030641
# 5 -0.001686 -0.026973 -0.011532 0.015480 0.072199 -0.068501
# 6 -0.000028 0.049072 0.014797 -0.030641 -0.068501 0.180494
#
#
# Mechanical properties :
#
#
# Convention : Reuss Voigt Hill
#
# Bulk Modulus (GPa) = 17.92715 47.01321 32.47018
# Shear Modulus (GPa) = 13.92656 34.13783 24.03219
#
# Velocity S-wave (km/s) = 2.39554 3.75059 3.14686
# Velocity P-wave (km/s) = 3.87796 6.17481 5.15591
#
# Compressibility (1/GPa) = 0.05578130
#
# Stress axis : x y z
#
# Youngs Moduli (GPa) = 54.12232 33.20613 119.71791
#
# Poissons Ratio (x) = 0.09706 0.07699
# Poissons Ratio (y) = 0.15820 -0.35729
# Poissons Ratio (z) = 0.03481 -0.09910
#
# Static dielectric constant tensor:
#      x y z
#    x 1.988280 0.001970 0.009340 
#    y 0.001970 1.931640 0.038480 
#    z 0.009340 0.038480 2.102510 
# 
# From -- ./inp_files/345278.got.cif
#   From: 2010.05.17/outbox.cif.g08.bks.cpg/sg2_173_cif.got.tgz:345278.got - 2010.06.03 11:33:40.
