data_PCOD9096899
_publ_section_title
;
Structure prediction by ZEFSAII (Michael W. Deem and Ramdas Pophale) SiO2 
 PCOD9096899
Probable space group: P -1
;
_chemical_formula_sum "Si O2"
_cell_formula_units_Z 14
_cell_length_a 7.820096
_cell_length_b 5.126052
_cell_length_c 14.931237
_cell_angle_alpha 110.369739
_cell_angle_beta 77.494687
_cell_angle_gamma 98.731593
_cell_volume 545.882346
_symmetry_space_group_name_H-M "P -1"
_symmetry_group_IT_number 2
_symmetry_cell_setting 'triclinic'
loop_
_space_group_symop_operation_xyz
x,y,z
-x,-y,-z
loop_
_atom_site_type_symbol
_atom_site_label
_atom_site_fract_x
_atom_site_fract_y
_atom_site_fract_z
Si Si1 0.928553 0.417015 0.596279
Si Si2 0.900431 0.011599 0.702679
Si Si3 0.875543 0.859985 0.871268
Si Si4 0.487922 0.743086 0.400642
Si Si5 0.515002 0.128340 0.294416
Si Si6 0.866331 0.340455 0.062597
Si Si7 0.506941 0.233927 0.104293
O O1 0.971078 0.711229 0.674210
O O2 0.720510 0.338211 0.598465
O O3 0.000000 0.500000 0.500000
O O4 0.989206 0.183873 0.630414
O O5 0.897873 0.091098 0.816936
O O6 0.697583 0.939965 0.688272
O O7 0.691026 0.673235 0.852404
O O8 0.041916 0.694232 0.856595
O O9 0.841386 0.030585 0.985575
O O10 0.559150 0.437872 0.369281
O O11 0.500000 0.000000 0.500000
O O12 0.579391 0.884435 0.318891
O O13 0.555630 0.127372 0.184844
O O14 0.673384 0.450817 0.091844
O O15 0.000000 0.500000 0.000000
O O16 0.500000 0.000000 0.000000
#
# Coordination Sequence:
#
# PCOD9096899 Si02
#       7
#     2   2   2   2   2   2   2
#     4  10  20  36  58  87 116 152 206 254 308 382
#     4   9  19  35  61  82 117 160 204 253 305 372
#     4   9  20  39  58  84 121 167 203 253 315 369
#     4  10  20  38  61  84 122 159 203 263 317 364
#     4   9  19  38  59  90 116 161 215 253 302 392
#     4  10  21  37  58  89 126 154 209 261 304 377
#     4   9  19  41  62  88 124 168 209 251 324 375
#
# _framework density 25.646550999999999
#
# number of rings (size 3 to 8) (size 9 to 14) (size 15 to 20)
#    0.000    2.571    0.000    0.857    2.000    0.571 
#   18.000    0.000    0.000    0.000    0.000    0.000 
#    0.000    0.000    0.000    0.000    0.000    0.000 
#
# Total GULP energy -77995.674232 kJ/mol
# GULP energy per Si atom -5571.119588 kJ/mol
# Density = 2.558818 g / cm^3
# Si number density = 25.646551 Si / 1000 Ang^3
#
#
#
# Elastic Constant Matrix: (Units=GPa)
#
#
# Indices 1 2 3 4 5 6 
#
# 1 94.7200 43.4268 8.7554 -13.7634 16.5175 17.6606
# 2 43.4268 143.9042 43.3898 -24.2175 4.9977 3.5776
# 3 8.7554 43.3898 118.4698 -15.9455 5.3209 9.5429
# 4 -13.7634 -24.2175 -15.9455 39.4520 -3.5992 -9.2158
# 5 16.5175 4.9977 5.3209 -3.5992 17.8884 -8.8864
# 6 17.6606 3.5776 9.5429 -9.2158 -8.8864 20.8963
#
#
#
# Elastic Compliance Matrix: (Units=1/GPa)
#
#
# Indices 1 2 3 4 5 6 
#
# 1 0.042543 -0.013609 0.009781 -0.015469 -0.080907 -0.079321
# 2 -0.013609 0.012817 -0.005778 0.009549 0.026183 0.027292
# 3 0.009781 -0.005778 0.012474 -0.002978 -0.023867 -0.024437
# 4 -0.015469 0.009549 -0.002978 0.040424 0.045452 0.049956
# 5 -0.080907 0.026183 -0.023867 0.045452 0.236645 0.195477
# 6 -0.079321 0.027292 -0.024437 0.049956 0.195477 0.226542
#
#
# Mechanical properties :
#
#
# Convention : Reuss Voigt Hill
#
# Bulk Modulus (GPa) = 20.56630 60.91533 40.74082
# Shear Modulus (GPa) = 8.23908 33.08214 20.66061
#
# Velocity S-wave (km/s) = 1.79430 3.59545 2.84137
# Velocity P-wave (km/s) = 3.51130 6.40623 5.16570
#
# Compressibility (1/GPa) = 0.04862322
#
# Stress axis : x y z
#
# Youngs Moduli (GPa) = 23.50552 78.02027 80.16894
#
# Poissons Ratio (x) = 1.06179 -0.78417
# Poissons Ratio (y) = 0.31989 0.46319
# Poissons Ratio (z) = -0.22992 0.45077
#
# Static dielectric constant tensor:
#      x y z
#    x 2.102140 -0.000840 -0.050000 
#    y -0.000840 2.040410 0.048650 
#    z -0.050000 0.048650 2.309640 
# 
# From -- ./inp_files/487909.got.cif
#   From: 2010.05.17/outbox.cif.g08.bks.cpg/sg2_244_cif.got.tgz:487909.got - 2010.06.03 11:33:40.
