data_PCOD9096733
_publ_section_title
;
Structure prediction by ZEFSAII (Michael W. Deem and Ramdas Pophale) SiO2 
 PCOD9096733
Probable space group: P -1
;
_chemical_formula_sum "Si O2"
_cell_formula_units_Z 14
_cell_length_a 16.049537
_cell_length_b 10.681858
_cell_length_c 5.142694
_cell_angle_alpha 57.813147
_cell_angle_beta 105.351456
_cell_angle_gamma 130.538111
_cell_volume 562.493763
_symmetry_space_group_name_H-M "P -1"
_symmetry_group_IT_number 2
_symmetry_cell_setting 'triclinic'
loop_
_space_group_symop_operation_xyz
x,y,z
-x,-y,-z
loop_
_atom_site_type_symbol
_atom_site_label
_atom_site_fract_x
_atom_site_fract_y
_atom_site_fract_z
Si Si1 0.062627 0.000067 0.798193
Si Si2 0.342836 0.901550 0.136970
Si Si3 0.684527 0.868675 0.749626
Si Si4 0.730711 0.621264 0.303218
Si Si5 0.139974 0.525877 0.426712
Si Si6 0.473529 0.775109 0.444102
Si Si7 0.902567 0.233201 0.555215
O O1 0.186430 0.197414 0.651460
O O2 0.000000 0.000000 0.500000
O O3 0.074387 0.843230 0.081392
O O4 0.000000 0.000000 0.000000
O O5 0.237336 0.707237 0.140162
O O6 0.401219 0.834749 0.434596
O O7 0.307161 0.011581 0.129403
O O8 0.436826 0.053789 0.854557
O O9 0.557833 0.765887 0.685176
O O10 0.800944 0.049510 0.518288
O O11 0.695647 0.706727 0.973332
O O12 0.806563 0.568439 0.323168
O O13 0.619653 0.428702 0.534996
O O14 0.122604 0.627348 0.527134
O O15 0.023091 0.368226 0.371349
#
# Coordination Sequence:
#
# PCOD9096733 Si02
#       7
#     2   2   2   2   2   2   2
#     4  11  23  45  68  99 135 170 215 274 335 393
#     4   9  20  37  58  83 120 162 215 263 324 386
#     4  10  20  36  57  89 120 166 206 266 328 384
#     4  10  21  39  62  92 124 163 218 263 330 391
#     4   9  17  38  61  85 129 163 217 268 323 388
#     4  10  20  39  59  85 123 161 213 265 320 391
#     4   9  19  38  64  91 128 166 217 263 329 392
#
# _framework density 24.889164000000001
#
# number of rings (size 3 to 8) (size 9 to 14) (size 15 to 20)
#    0.000    2.286    1.429    0.857    0.000    0.571 
#   18.000   14.286    0.000    0.000    0.000    0.000 
#    0.000    0.000    0.000    0.000    0.000    0.000 
#
# Total GULP energy -77957.470109 kJ/mol
# GULP energy per Si atom -5568.390722 kJ/mol
# Density = 2.483251 g / cm^3
# Si number density = 24.889164 Si / 1000 Ang^3
#
#
#
# Elastic Constant Matrix: (Units=GPa)
#
#
# Indices 1 2 3 4 5 6 
#
# 1 136.4805 9.7954 40.3540 -13.7016 32.8265 -2.9932
# 2 9.7954 224.1201 60.6856 -33.7975 7.3499 92.9723
# 3 40.3540 60.6856 85.2370 -9.6984 30.4254 10.9599
# 4 -13.7016 -33.7975 -9.6984 45.7384 3.5333 -4.4902
# 5 32.8265 7.3499 30.4254 3.5333 50.4538 -7.4098
# 6 -2.9932 92.9723 10.9599 -4.4902 -7.4098 74.5882
#
#
#
# Elastic Compliance Matrix: (Units=1/GPa)
#
#
# Indices 1 2 3 4 5 6 
#
# 1 0.009833 0.002183 -0.003683 0.003968 -0.005074 -0.002050
# 2 0.002183 0.014844 -0.007743 0.008469 -0.001998 -0.016966
# 3 -0.003683 -0.007743 0.021119 -0.001164 -0.008321 0.005504
# 4 0.003968 0.008469 -0.001164 0.028665 -0.006464 -0.009143
# 5 -0.005074 -0.001998 -0.008321 -0.006464 0.029775 0.006078
# 6 -0.002050 -0.016966 0.005504 -0.009143 0.006078 0.033717
#
#
# Mechanical properties :
#
#
# Convention : Reuss Voigt Hill
#
# Bulk Modulus (GPa) = 36.61930 74.16750 55.39340
# Shear Modulus (GPa) = 30.20351 56.48958 43.34655
#
# Velocity S-wave (km/s) = 3.48734 4.76925 4.17776
# Velocity P-wave (km/s) = 5.56420 7.75831 6.75099
#
# Compressibility (1/GPa) = 0.02730801
#
# Stress axis : x y z
#
# Youngs Moduli (GPa) = 101.69641 67.36819 47.35099
#
# Poissons Ratio (x) = -0.14706 0.17441
# Poissons Ratio (y) = -0.22199 0.36666
# Poissons Ratio (z) = 0.37458 0.52166
#
# Static dielectric constant tensor:
#      x y z
#    x 2.135160 0.082860 0.064340 
#    y 0.082860 2.045420 0.039780 
#    z 0.064340 0.039780 2.183220 
# 
# From -- ./inp_files/94563.got.cif
#   From: 2010.05.17/outbox.cif.g08.bks.cpg/sg2_48_cif.got.tgz:94563.got - 2010.06.03 11:33:40.
