data_PCOD9096689
_publ_section_title
;
Structure prediction by ZEFSAII (Michael W. Deem and Ramdas Pophale) SiO2 
 PCOD9096689
Probable space group: P -1
;
_chemical_formula_sum "Si O2"
_cell_formula_units_Z 14
_cell_length_a 8.565224
_cell_length_b 11.262016
_cell_length_c 14.465984
_cell_angle_alpha 147.725600
_cell_angle_beta 56.648216
_cell_angle_gamma 133.017877
_cell_volume 543.475528
_symmetry_space_group_name_H-M "P -1"
_symmetry_group_IT_number 2
_symmetry_cell_setting 'triclinic'
loop_
_space_group_symop_operation_xyz
x,y,z
-x,-y,-z
loop_
_atom_site_type_symbol
_atom_site_label
_atom_site_fract_x
_atom_site_fract_y
_atom_site_fract_z
Si Si1 0.972019 0.810062 0.468375
Si Si2 0.847736 0.017173 0.827541
Si Si3 0.444907 0.821764 0.069227
Si Si4 0.138045 0.665975 0.715803
Si Si5 0.328397 0.322532 0.864983
Si Si6 0.736254 0.528076 0.642168
Si Si7 0.429300 0.971430 0.381619
O O1 0.833289 0.503847 0.325016
O O2 0.204512 0.832569 0.413142
O O3 0.000000 0.000000 0.500000
O O4 0.904008 0.920022 0.649755
O O5 0.698453 0.135228 0.930026
O O6 0.088671 0.213085 0.909865
O O7 0.729102 0.775134 0.772630
O O8 0.693341 0.039289 0.127402
O O9 0.385261 0.888995 0.234312
O O10 0.374075 0.524232 0.901291
O O11 0.190857 0.567731 0.537165
O O12 0.902270 0.614917 0.730641
O O13 0.393500 0.102530 0.690752
O O14 0.500000 0.500000 0.000000
O O15 0.521435 0.270332 0.561281
#
# Coordination Sequence:
#
# PCOD9096689 Si02
#       7
#     2   2   2   2   2   2   2
#     4  11  22  35  57  89 121 143 178 236 294 339
#     4  11  21  35  61  88 114 144 185 238 285 328
#     4  10  20  36  58  83 113 151 190 229 272 328
#     4   9  19  34  55  81 113 149 187 228 280 328
#     4  10  21  37  58  82 112 149 196 231 268 332
#     4   9  18  33  55  86 110 143 192 233 278 326
#     4  10  20  36  57  85 117 149 182 230 286 336
#
# _framework density 25.76013
#
# number of rings (size 3 to 8) (size 9 to 14) (size 15 to 20)
#    0.000    2.000    1.429    4.714    2.000    4.000 
#    0.000    0.714    0.000    4.286    0.000    0.000 
#    0.000    0.000    0.000    0.000    0.000    0.000 
#
# Total GULP energy -78241.890739 kJ/mol
# GULP energy per Si atom -5588.706481 kJ/mol
# Density = 2.570150 g / cm^3
# Si number density = 25.760130 Si / 1000 Ang^3
#
#
#
# Elastic Constant Matrix: (Units=GPa)
#
#
# Indices 1 2 3 4 5 6 
#
# 1 111.2208 24.7055 39.7808 19.3180 -22.5620 -8.1281
# 2 24.7055 84.9875 44.0045 37.9159 -11.9971 -19.7474
# 3 39.7808 44.0045 100.8401 11.3827 -6.7295 -2.9352
# 4 19.3180 37.9159 11.3827 52.0962 -12.3099 1.0309
# 5 -22.5620 -11.9971 -6.7295 -12.3099 28.3368 7.7702
# 6 -8.1281 -19.7474 -2.9352 1.0309 7.7702 37.1926
#
#
#
# Elastic Compliance Matrix: (Units=1/GPa)
#
#
# Indices 1 2 3 4 5 6 
#
# 1 0.012556 0.001660 -0.004768 -0.003015 0.007791 0.001705
# 2 0.001660 0.029593 -0.010914 -0.020595 -0.002139 0.016231
# 3 -0.004768 -0.010914 0.015656 0.006309 -0.000397 -0.005693
# 4 -0.003015 -0.020595 0.006309 0.036613 0.010188 -0.014239
# 5 0.007791 -0.002139 -0.000397 0.010188 0.047575 -0.009686
# 6 0.001705 0.016231 -0.005693 -0.014239 -0.009686 0.037847
#
#
# Mechanical properties :
#
#
# Convention : Reuss Voigt Hill
#
# Bulk Modulus (GPa) = 33.60136 57.11446 45.35791
# Shear Modulus (GPa) = 22.95647 36.09562 29.52604
#
# Velocity S-wave (km/s) = 2.98847 3.74735 3.38922
# Velocity P-wave (km/s) = 4.99802 6.39869 5.74123
#
# Compressibility (1/GPa) = 0.02976070
#
# Stress axis : x y z
#
# Youngs Moduli (GPa) = 79.64014 33.79224 63.87428
#
# Poissons Ratio (x) = -0.05608 0.30454
# Poissons Ratio (y) = -0.13217 0.69711
# Poissons Ratio (z) = 0.37971 0.36880
#
# Static dielectric constant tensor:
#      x y z
#    x 2.019250 -0.040010 -0.013380 
#    y -0.040010 2.072570 -0.042240 
#    z -0.013380 -0.042240 2.055170 
# 
# From -- ./inp_files/204751.got.cif
#   From: 2010.05.17/outbox.cif.g08.bks.cpg/sg2_103_cif.got.tgz:204751.got - 2010.06.03 11:33:40.
