data_PCOD9096515
_publ_section_title
;
Structure prediction by ZEFSAII (Michael W. Deem and Ramdas Pophale) SiO2 
 PCOD9096515
Probable space group: P -1
;
_chemical_formula_sum "Si O2"
_cell_formula_units_Z 16
_cell_length_a 9.838798
_cell_length_b 19.793400
_cell_length_c 7.670286
_cell_angle_alpha 136.164658
_cell_angle_beta 46.052144
_cell_angle_gamma 126.641484
_cell_volume 730.850443
_symmetry_space_group_name_H-M "P -1"
_symmetry_group_IT_number 2
_symmetry_cell_setting 'triclinic'
loop_
_space_group_symop_operation_xyz
x,y,z
-x,-y,-z
loop_
_atom_site_type_symbol
_atom_site_label
_atom_site_fract_x
_atom_site_fract_y
_atom_site_fract_z
Si Si1 0.721527 0.001157 0.326170
Si Si2 0.910131 0.476980 0.250028
Si Si3 0.280767 0.990191 0.238228
Si Si4 0.797165 0.621384 0.401398
Si Si5 0.660661 0.640443 0.175486
Si Si6 0.942661 0.833839 0.706836
Si Si7 0.754294 0.424189 0.643692
Si Si8 0.941112 0.835432 0.304896
O O1 0.746903 0.002850 0.515524
O O2 0.500000 0.000000 0.500000
O O3 0.791747 0.905371 0.008822
O O4 0.854121 0.097044 0.295350
O O5 0.745880 0.527559 0.402914
O O6 0.838699 0.408961 0.352048
O O7 0.082415 0.564171 0.333236
O O8 0.011173 0.409639 0.908841
O O9 0.190799 0.080804 0.415079
O O10 0.137338 0.885926 0.128247
O O11 0.500000 0.000000 0.000000
O O12 0.664880 0.633679 0.373645
O O13 0.853962 0.724000 0.646397
O O14 0.453124 0.645595 0.289583
O O15 0.818435 0.734293 0.152272
O O16 0.712753 0.536561 0.879125
O O17 0.974263 0.813855 0.437115
#
# Coordination Sequence:
#
# PCOD9096515 Si02
#       8
#     2   2   2   2   2   2   2   2
#     4  10  20  36  56  80 113 144 181 232 285 335
#     4   9  18  34  54  79 114 147 184 235 275 330
#     4  10  20  36  56  82 110 144 182 230 282 335
#     4   9  18  35  55  79 107 148 189 228 279 333
#     4   9  18  35  55  78 108 149 187 226 285 333
#     4   9  19  37  57  78 110 148 184 232 280 332
#     4   9  18  34  53  79 115 146 182 232 282 329
#     4   9  19  37  56  79 110 143 188 231 272 336
#
# _framework density 21.892306000000001
#
# number of rings (size 3 to 8) (size 9 to 14) (size 15 to 20)
#    0.000    2.750    0.000    0.750    0.000    2.500 
#   18.000    0.000    0.000    0.000    0.000    0.000 
#    0.000    0.000    0.000    0.000    0.000    0.000 
#
# Total GULP energy -89151.495683 kJ/mol
# GULP energy per Si atom -5571.968480 kJ/mol
# Density = 2.184248 g / cm^3
# Si number density = 21.892306 Si / 1000 Ang^3
#
#
#
# Elastic Constant Matrix: (Units=GPa)
#
#
# Indices 1 2 3 4 5 6 
#
# 1 52.8312 10.0654 3.1109 -5.7031 -10.1806 6.6185
# 2 10.0654 79.1831 29.1200 4.3735 -6.3080 26.6262
# 3 3.1109 29.1200 56.8374 -3.9572 2.9101 18.6053
# 4 -5.7031 4.3735 -3.9572 26.4682 3.7245 -0.6226
# 5 -10.1806 -6.3080 2.9101 3.7245 30.1241 -13.2322
# 6 6.6185 26.6262 18.6053 -0.6226 -13.2322 33.0698
#
#
#
# Elastic Compliance Matrix: (Units=1/GPa)
#
#
# Indices 1 2 3 4 5 6 
#
# 1 0.021003 -0.002529 -0.000032 0.004068 0.006258 0.000432
# 2 -0.002529 0.019510 -0.006150 -0.004843 -0.000940 -0.012210
# 3 -0.000032 -0.006150 0.026322 0.006129 -0.010768 -0.014044
# 4 0.004068 -0.004843 0.006129 0.041204 -0.006242 -0.002085
# 5 0.006258 -0.000940 -0.010768 -0.006242 0.047702 0.024532
# 6 0.000432 -0.012210 -0.014044 -0.002085 0.024532 0.057662
#
#
# Mechanical properties :
#
#
# Convention : Reuss Voigt Hill
#
# Bulk Modulus (GPa) = 20.23769 30.38271 25.31020
# Shear Modulus (GPa) = 20.21867 27.70279 23.96073
#
# Velocity S-wave (km/s) = 3.04230 3.56112 3.31188
# Velocity P-wave (km/s) = 4.64812 5.55132 5.11968
#
# Compressibility (1/GPa) = 0.04941276
#
# Stress axis : x y z
#
# Youngs Moduli (GPa) = 47.61221 51.25449 37.99114
#
# Poissons Ratio (x) = 0.12964 0.00123
# Poissons Ratio (y) = 0.12043 0.23364
# Poissons Ratio (z) = 0.00154 0.31520
#
# Static dielectric constant tensor:
#      x y z
#    x 1.963730 -0.053020 0.086120 
#    y -0.053020 1.913300 -0.035910 
#    z 0.086120 -0.035910 1.817620 
# 
# From -- ./inp_files/282398.got.cif
#   From: 2010.05.17/outbox.cif.g08.bks.cpg/sg2_142_cif.got.tgz:282398.got - 2010.06.03 11:33:40.
