data_PCOD9096427
_publ_section_title
;
Structure prediction by ZEFSAII (Michael W. Deem and Ramdas Pophale) SiO2 
 PCOD9096427
Probable space group: P -1
;
_chemical_formula_sum "Si O2"
_cell_formula_units_Z 16
_cell_length_a 15.565551
_cell_length_b 21.318343
_cell_length_c 8.861918
_cell_angle_alpha 57.016779
_cell_angle_beta 112.611080
_cell_angle_gamma 163.042027
_cell_volume 597.582210
_symmetry_space_group_name_H-M "P -1"
_symmetry_group_IT_number 2
_symmetry_cell_setting 'triclinic'
loop_
_space_group_symop_operation_xyz
x,y,z
-x,-y,-z
loop_
_atom_site_type_symbol
_atom_site_label
_atom_site_fract_x
_atom_site_fract_y
_atom_site_fract_z
Si Si1 0.201514 0.601693 0.820923
Si Si2 0.451436 0.045887 0.967422
Si Si3 0.186483 0.147253 0.165888
Si Si4 0.510597 0.644020 0.595455
Si Si5 0.269326 0.871247 0.366852
Si Si6 0.190830 0.262421 0.729234
Si Si7 0.620106 0.899314 0.427338
Si Si8 0.068442 0.727804 0.715655
O O1 0.496102 0.881394 0.726921
O O2 0.293082 0.658161 0.635721
O O3 0.826362 0.352891 0.897956
O O4 0.153044 0.488843 0.029219
O O5 0.391882 0.057613 0.782554
O O6 0.158936 0.810728 0.206758
O O7 0.500000 0.000000 0.000000
O O8 0.473468 0.375998 0.194214
O O9 0.231323 0.240519 0.935218
O O10 0.832272 0.880070 0.380928
O O11 0.139267 0.030098 0.202596
O O12 0.205971 0.357895 0.681384
O O13 0.605593 0.804026 0.489469
O O14 0.534141 0.004785 0.354974
O O15 0.966746 0.628912 0.604863
O O16 0.500000 0.500000 0.500000
O O17 0.926974 0.180852 0.361638
#
# Coordination Sequence:
#
# PCOD9096427 Si02
#       8
#     2   2   2   2   2   2   2   2
#     4  10  20  36  55  75 103 149 193 231 288 338
#     4  11  19  36  56  76 107 149 190 236 284 327
#     4   9  19  39  65  88 117 160 187 228 293 352
#     4  10  21  37  61  90 121 151 194 237 290 346
#     4   9  18  33  55  73  98 145 196 230 276 339
#     4   9  18  37  64  92 117 153 194 229 281 360
#     4  11  22  35  54  84 115 144 188 243 280 337
#     4   9  17  34  51  72 103 141 183 230 277 333
#
# _framework density 26.774557999999999
#
# number of rings (size 3 to 8) (size 9 to 14) (size 15 to 20)
#    0.000    2.250    2.500    2.250    0.000    1.000 
#    2.250   10.000    0.000    0.000    0.000    0.000 
#    0.000    0.000    0.000    0.000    0.000    0.000 
#
# Total GULP energy -89312.642521 kJ/mol
# GULP energy per Si atom -5582.040158 kJ/mol
# Density = 2.671362 g / cm^3
# Si number density = 26.774558 Si / 1000 Ang^3
#
#
#
# Elastic Constant Matrix: (Units=GPa)
#
#
# Indices 1 2 3 4 5 6 
#
# 1 138.6272 51.9778 51.2065 1.6278 14.2580 -55.8573
# 2 51.9778 112.4325 37.7391 2.6491 2.8473 -44.4753
# 3 51.2065 37.7391 194.8243 43.9885 0.7388 -25.0239
# 4 1.6278 2.6491 43.9885 54.3129 -23.8117 2.4304
# 5 14.2580 2.8473 0.7388 -23.8117 31.6713 -8.4951
# 6 -55.8573 -44.4753 -25.0239 2.4304 -8.4951 49.1903
#
#
#
# Elastic Compliance Matrix: (Units=1/GPa)
#
#
# Indices 1 2 3 4 5 6 
#
# 1 0.014035 -0.000113 -0.001477 -0.001354 -0.003385 0.014565
# 2 -0.000113 0.014270 -0.001423 0.001263 0.003110 0.012525
# 3 -0.001477 -0.001423 0.007892 -0.008916 -0.005971 0.000460
# 4 -0.001354 0.001263 -0.008916 0.038470 0.029145 -0.001800
# 5 -0.003385 0.003110 -0.005971 0.029145 0.055986 0.004159
# 6 0.014565 0.012525 0.000460 -0.001800 0.004159 0.049234
#
#
# Mechanical properties :
#
#
# Convention : Reuss Voigt Hill
#
# Bulk Modulus (GPa) = 33.14557 80.85898 57.00227
# Shear Modulus (GPa) = 25.51422 47.36560 36.43991
#
# Velocity S-wave (km/s) = 3.09030 4.21057 3.69316
# Velocity P-wave (km/s) = 5.01395 7.34194 6.28664
#
# Compressibility (1/GPa) = 0.03016995
#
# Stress axis : x y z
#
# Youngs Moduli (GPa) = 71.25258 70.07725 126.71651
#
# Poissons Ratio (x) = 0.00792 0.18722
# Poissons Ratio (y) = 0.00805 0.18027
# Poissons Ratio (z) = 0.10527 0.09969
#
# Static dielectric constant tensor:
#      x y z
#    x 2.145470 0.095460 -0.025560 
#    y 0.095460 2.215500 0.037530 
#    z -0.025560 0.037530 2.196850 
# 
# From -- ./inp_files/212149.got.cif
#   From: 2010.05.17/outbox.cif.g08.bks.cpg/sg2_107_cif.got.tgz:212149.got - 2010.06.03 11:33:40.
