data_PCOD9096097
_publ_section_title
;
Structure prediction by ZEFSAII (Michael W. Deem and Ramdas Pophale) SiO2 
 PCOD9096097
Probable space group: P -1
;
_chemical_formula_sum "Si O2"
_cell_formula_units_Z 16
_cell_length_a 14.096211
_cell_length_b 9.739636
_cell_length_c 5.171155
_cell_angle_alpha 106.075586
_cell_angle_beta 82.710808
_cell_angle_gamma 109.333776
_cell_volume 643.239533
_symmetry_space_group_name_H-M "P -1"
_symmetry_group_IT_number 2
_symmetry_cell_setting 'triclinic'
loop_
_space_group_symop_operation_xyz
x,y,z
-x,-y,-z
loop_
_atom_site_type_symbol
_atom_site_label
_atom_site_fract_x
_atom_site_fract_y
_atom_site_fract_z
Si Si1 0.998233 0.900376 0.201084
Si Si2 0.535299 0.141536 0.253689
Si Si3 0.474621 0.367245 0.143751
Si Si4 0.782103 0.780550 0.065949
Si Si5 0.362290 0.067916 0.699295
Si Si6 0.913143 0.323022 0.704442
Si Si7 0.138060 0.562985 0.719993
Si Si8 0.711457 0.613489 0.492920
O O1 0.890008 0.780308 0.128771
O O2 0.078434 0.818676 0.208767
O O3 0.000000 0.000000 0.500000
O O4 0.000000 0.000000 0.000000
O O5 0.560797 0.305282 0.204195
O O6 0.438104 0.123735 0.460544
O O7 0.624571 0.094959 0.336977
O O8 0.500000 0.000000 0.000000
O O9 0.401673 0.413855 0.391027
O O10 0.500000 0.500000 0.000000
O O11 0.409972 0.205709 0.955488
O O12 0.751720 0.926698 0.247642
O O13 0.712340 0.654789 0.213133
O O14 0.770017 0.746743 0.747680
O O15 0.872218 0.314718 0.423693
O O16 0.028560 0.433230 0.691691
O O17 0.849599 0.389816 0.960116
O O18 0.226650 0.502284 0.560877
#
# Coordination Sequence:
#
# PCOD9096097 Si02
#       8
#     2   2   2   2   2   2   2   2
#     4  12  25  41  62  90 126 163 201 259 313 363
#     4   9  17  35  60  86 117 158 213 243 305 371
#     4  10  21  36  59  92 128 160 199 262 321 363
#     4  11  22  39  63  91 119 159 218 254 297 369
#     4   9  19  36  62  88 113 164 210 250 294 378
#     4  10  21  36  60  86 116 158 198 248 310 354
#     4  10  20  35  62  88 114 152 205 254 288 367
#     4  11  21  38  62  94 119 162 209 258 301 370
#
# _framework density 24.874095000000001
#
# number of rings (size 3 to 8) (size 9 to 14) (size 15 to 20)
#    0.000    1.750    2.500    2.250    3.500    0.500 
#    0.000    1.250   13.750    0.000    0.000    0.000 
#    0.000    0.000    0.000    0.000    0.000    0.000 
#
# Total GULP energy -89208.794777 kJ/mol
# GULP energy per Si atom -5575.549674 kJ/mol
# Density = 2.481748 g / cm^3
# Si number density = 24.874095 Si / 1000 Ang^3
#
#
#
# Elastic Constant Matrix: (Units=GPa)
#
#
# Indices 1 2 3 4 5 6 
#
# 1 69.9742 32.1935 22.0295 -0.0130 -7.1565 -28.0640
# 2 32.1935 140.5929 34.7663 -21.5159 -7.5721 -52.4415
# 3 22.0295 34.7663 109.6742 0.1797 -2.7584 -14.7501
# 4 -0.0130 -21.5159 0.1797 43.1340 -11.2596 7.0237
# 5 -7.1565 -7.5721 -2.7584 -11.2596 36.8696 6.7985
# 6 -28.0640 -52.4415 -14.7501 7.0237 6.7985 49.1847
#
#
#
# Elastic Compliance Matrix: (Units=1/GPa)
#
#
# Indices 1 2 3 4 5 6 
#
# 1 0.019331 -0.000202 -0.002425 -0.001411 0.001233 0.010118
# 2 -0.000202 0.013215 -0.002462 0.005068 0.001776 0.012267
# 3 -0.002425 -0.002462 0.010285 -0.001286 -0.000475 -0.000675
# 4 -0.001411 0.005068 -0.001286 0.028401 0.009559 -0.001164
# 5 0.001233 0.001776 -0.000475 0.009559 0.031205 -0.003223
# 6 0.010118 0.012267 -0.000675 -0.001164 -0.003223 0.039593
#
#
# Mechanical properties :
#
#
# Convention : Reuss Voigt Hill
#
# Bulk Modulus (GPa) = 30.62571 55.35779 42.99175
# Shear Modulus (GPa) = 30.65746 41.25447 35.95596
#
# Velocity S-wave (km/s) = 3.51451 4.07693 3.80612
# Velocity P-wave (km/s) = 5.36732 6.66823 6.05282
#
# Compressibility (1/GPa) = 0.03265230
#
# Stress axis : x y z
#
# Youngs Moduli (GPa) = 51.72958 75.67344 97.23066
#
# Poissons Ratio (x) = 0.01531 0.23575
# Poissons Ratio (y) = 0.01047 0.23941
# Poissons Ratio (z) = 0.12543 0.18633
#
# Static dielectric constant tensor:
#      x y z
#    x 2.238670 -0.010700 0.031940 
#    y -0.010700 2.225540 -0.089290 
#    z 0.031940 -0.089290 1.977370 
# 
# From -- ./inp_files/90683.got.cif
#   From: 2010.05.17/outbox.cif.g08.bks.cpg/sg2_46_cif.got.tgz:90683.got - 2010.06.03 11:33:40.
