data_PCOD9096463
_publ_section_title
;
Structure prediction by ZEFSAII (Michael W. Deem and Ramdas Pophale) SiO2 
 PCOD9096463
Probable space group: P -1
;
_chemical_formula_sum "Si O2"
_cell_formula_units_Z 16
_cell_length_a 14.554622
_cell_length_b 15.023102
_cell_length_c 12.621690
_cell_angle_alpha 114.529231
_cell_angle_beta 118.067262
_cell_angle_gamma 19.614475
_cell_volume 813.811094
_symmetry_space_group_name_H-M "P -1"
_symmetry_group_IT_number 2
_symmetry_cell_setting 'triclinic'
loop_
_space_group_symop_operation_xyz
x,y,z
-x,-y,-z
loop_
_atom_site_type_symbol
_atom_site_label
_atom_site_fract_x
_atom_site_fract_y
_atom_site_fract_z
Si Si1 0.662722 0.091212 0.818590
Si Si2 0.723021 0.636619 0.086161
Si Si3 0.704423 0.947656 0.113374
Si Si4 0.826779 0.597387 0.800392
Si Si5 0.889813 0.747332 0.600271
Si Si6 0.932410 0.250712 0.926061
Si Si7 0.314967 0.288104 0.455606
Si Si8 0.295639 0.728186 0.087217
O O1 0.388858 0.276703 0.811715
O O2 0.601165 0.253032 0.820418
O O3 0.841266 0.869526 0.725486
O O4 0.849613 0.942911 0.952785
O O5 0.747738 0.508206 0.982021
O O6 0.025037 0.425874 0.140801
O O7 0.493617 0.896885 0.020611
O O8 0.475918 0.147281 0.181548
O O9 0.947027 0.659444 0.133656
O O10 0.885457 0.885333 0.146811
O O11 0.789201 0.592765 0.658282
O O12 0.802846 0.717434 0.584692
O O13 0.185113 0.473707 0.565271
O O14 0.651233 0.984287 0.500690
O O15 0.757133 0.303789 0.863706
O O16 0.500000 0.500000 0.000000
O O17 0.000000 0.000000 0.000000
#
# Coordination Sequence:
#
# PCOD9096463 Si02
#       8
#     2   2   2   2   2   2   2   2
#     4  10  22  34  59  85 116 152 180 227 286 340
#     4  11  22  34  55  83 118 150 185 220 274 340
#     4  11  24  37  53  80 114 151 192 225 264 335
#     4  12  24  36  55  79 112 155 188 227 275 318
#     4  10  22  38  56  82 111 146 188 231 282 328
#     4  10  21  37  56  83 117 150 181 228 273 334
#     4  10  23  38  56  79 111 148 191 236 271 330
#     4  10  20  36  55  83 115 147 184 224 277 341
#
# _framework density 19.660582000000002
#
# number of rings (size 3 to 8) (size 9 to 14) (size 15 to 20)
#    0.000    1.500    2.500    2.250   12.250    0.000 
#    0.000    0.000    0.000    0.000    0.000    5.250 
#    0.000    0.000    0.000    0.000    0.000    0.000 
#
# Total GULP energy -89325.579920 kJ/mol
# GULP energy per Si atom -5582.848745 kJ/mol
# Density = 1.961583 g / cm^3
# Si number density = 19.660582 Si / 1000 Ang^3
#
#
#
# Elastic Constant Matrix: (Units=GPa)
#
#
# Indices 1 2 3 4 5 6 
#
# 1 119.2991 32.3122 40.3589 23.0837 -11.7297 0.8395
# 2 32.3122 103.0069 15.4060 22.1302 -3.3399 -2.3486
# 3 40.3589 15.4060 69.2605 19.3654 -10.6509 1.0902
# 4 23.0837 22.1302 19.3654 36.0369 -0.1029 -4.0447
# 5 -11.7297 -3.3399 -10.6509 -0.1029 16.9798 5.5318
# 6 0.8395 -2.3486 1.0902 -4.0447 5.5318 25.2011
#
#
#
# Elastic Compliance Matrix: (Units=1/GPa)
#
#
# Indices 1 2 3 4 5 6 
#
# 1 0.011792 -0.002007 -0.004309 -0.004252 0.005787 -0.002346
# 2 -0.002007 0.011616 0.000483 -0.006117 0.001202 -0.000117
# 3 -0.004309 0.000483 0.021468 -0.009593 0.012137 -0.004944
# 4 -0.004252 -0.006117 -0.009593 0.040393 -0.012947 0.009311
# 5 0.005787 0.001202 0.012137 -0.012947 0.077047 -0.019596
# 6 -0.002346 -0.000117 -0.004944 0.009311 -0.019596 0.045758
#
#
# Mechanical properties :
#
#
# Convention : Reuss Voigt Hill
#
# Bulk Modulus (GPa) = 30.11180 51.96895 41.04038
# Shear Modulus (GPa) = 21.66287 29.20951 25.43619
#
# Velocity S-wave (km/s) = 3.32300 3.85865 3.60080
# Velocity P-wave (km/s) = 5.48381 6.80754 6.18122
#
# Compressibility (1/GPa) = 0.03320957
#
# Stress axis : x y z
#
# Youngs Moduli (GPa) = 84.80425 86.08881 46.58009
#
# Poissons Ratio (x) = 0.17276 0.20072
# Poissons Ratio (y) = 0.17019 -0.02248
# Poissons Ratio (z) = 0.36543 -0.04155
#
# Static dielectric constant tensor:
#      x y z
#    x 1.763320 -0.004770 -0.002650 
#    y -0.004770 1.744530 -0.010240 
#    z -0.002650 -0.010240 1.689260 
# 
# From -- ./inp_files/455744.got.cif
#   From: 2010.05.17/outbox.cif.g08.bks.cpg/sg2_228_cif.got.tgz:455744.got - 2010.06.03 11:33:40.
