data_PCOD9096620
_publ_section_title
;
Structure prediction by ZEFSAII (Michael W. Deem and Ramdas Pophale) SiO2 
 PCOD9096620
Probable space group: P -1
;
_chemical_formula_sum "Si O2"
_cell_formula_units_Z 14
_cell_length_a 18.088845
_cell_length_b 9.184632
_cell_length_c 8.633057
_cell_angle_alpha 104.587531
_cell_angle_beta 151.128561
_cell_angle_gamma 64.306807
_cell_volume 596.539624
_symmetry_space_group_name_H-M "P -1"
_symmetry_group_IT_number 2
_symmetry_cell_setting 'triclinic'
loop_
_space_group_symop_operation_xyz
x,y,z
-x,-y,-z
loop_
_atom_site_type_symbol
_atom_site_label
_atom_site_fract_x
_atom_site_fract_y
_atom_site_fract_z
Si Si1 0.778426 0.051801 0.915376
Si Si2 0.706502 0.115476 0.151814
Si Si3 0.957762 0.887187 0.768973
Si Si4 0.317715 0.534916 0.752396
Si Si5 0.180402 0.539498 0.191149
Si Si6 0.368696 0.166644 0.407844
Si Si7 0.531081 0.373029 0.382186
O O1 0.605057 0.194709 0.555188
O O2 0.773937 0.883761 0.801303
O O3 0.779229 0.036478 0.097245
O O4 0.920971 0.108395 0.147175
O O5 0.760069 0.265292 0.305233
O O6 0.502296 0.184427 0.775119
O O7 0.770049 0.994035 0.382659
O O8 0.006841 0.697989 0.859978
O O9 0.000000 0.000000 0.000000
O O10 0.198132 0.506711 0.399637
O O11 0.500000 0.500000 0.000000
O O12 0.373095 0.432506 0.988420
O O13 0.256807 0.359507 0.194610
O O14 0.312990 0.618191 0.422078
O O15 0.500000 0.000000 0.500000
O O16 0.500000 0.500000 0.500000
#
# Coordination Sequence:
#
# PCOD9096620 Si02
#       7
#     2   2   2   2   2   2   2
#     4  10  22  36  57  88 117 150 192 241 289 345
#     4  11  19  37  62  86 116 153 192 241 286 344
#     4  11  23  38  61  86 118 152 199 237 290 340
#     4  10  17  30  57  87 110 144 198 236 285 328
#     4  10  20  36  58  81 116 156 189 235 288 349
#     4  10  20  38  62  85 118 153 191 238 295 343
#     4  10  16  30  55  86 106 142 198 243 271 334
#
# _framework density 23.468685000000001
#
# number of rings (size 3 to 8) (size 9 to 14) (size 15 to 20)
#    0.000    1.714    5.714    1.286    0.000    0.000 
#    0.000    6.429    3.143    0.000    0.000    0.000 
#    0.000    0.000    0.000    0.000    0.000    0.000 
#
# Total GULP energy -77953.796861 kJ/mol
# GULP energy per Si atom -5568.128347 kJ/mol
# Density = 2.341527 g / cm^3
# Si number density = 23.468685 Si / 1000 Ang^3
#
#
#
# Elastic Constant Matrix: (Units=GPa)
#
#
# Indices 1 2 3 4 5 6 
#
# 1 27.5584 4.0581 15.9241 0.7155 -18.2269 0.8476
# 2 4.0581 130.5398 32.0119 -24.6991 -7.2415 9.7582
# 3 15.9241 32.0119 73.5887 -27.7603 -33.0137 4.1790
# 4 0.7155 -24.6991 -27.7603 37.2362 9.0094 -2.8917
# 5 -18.2269 -7.2415 -33.0137 9.0094 30.9639 1.2618
# 6 0.8476 9.7582 4.1790 -2.8917 1.2618 28.8050
#
#
#
# Elastic Compliance Matrix: (Units=1/GPa)
#
#
# Indices 1 2 3 4 5 6 
#
# 1 0.064525 -0.002032 0.002276 -0.011788 0.043553 -0.004632
# 2 -0.002032 0.009381 -0.003811 0.004294 -0.004235 -0.001949
# 3 0.002276 -0.003811 0.036846 0.016060 0.035226 -0.004052
# 4 -0.011788 0.004294 0.016060 0.042245 -0.001138 0.000853
# 5 0.043553 -0.004235 0.035226 -0.001138 0.095209 -0.009242
# 6 -0.004632 -0.001949 -0.004052 0.000853 -0.009242 0.036591
#
#
# Mechanical properties :
#
#
# Convention : Reuss Voigt Hill
#
# Bulk Modulus (GPa) = 9.65071 37.29723 23.47397
# Shear Modulus (GPa) = 15.31531 31.38052 23.34791
#
# Velocity S-wave (km/s) = 2.55735 3.66064 3.15755
# Velocity P-wave (km/s) = 3.58345 5.81325 4.82882
#
# Compressibility (1/GPa) = 0.10361932
#
# Stress axis : x y z
#
# Youngs Moduli (GPa) = 15.49793 106.59385 27.13977
#
# Poissons Ratio (x) = 0.21663 -0.06178
# Poissons Ratio (y) = 0.03150 0.10342
# Poissons Ratio (z) = -0.03528 0.40619
#
# Static dielectric constant tensor:
#      x y z
#    x 2.032170 -0.054310 0.043540 
#    y -0.054310 1.997250 -0.040110 
#    z 0.043540 -0.040110 1.954480 
# 
# From -- ./inp_files/171601.got.cif
#   From: 2010.05.17/outbox.cif.g08.bks.cpg/sg2_86_cif.got.tgz:171601.got - 2010.06.03 11:33:40.
