data_PCOD9096868
_publ_section_title
;
Structure prediction by ZEFSAII (Michael W. Deem and Ramdas Pophale) SiO2 
 PCOD9096868
Probable space group: P -1
;
_chemical_formula_sum "Si O2"
_cell_formula_units_Z 16
_cell_length_a 13.110515
_cell_length_b 6.956927
_cell_length_c 26.262584
_cell_angle_alpha 48.748533
_cell_angle_beta 155.147326
_cell_angle_gamma 133.829004
_cell_volume 722.473277
_symmetry_space_group_name_H-M "P -1"
_symmetry_group_IT_number 2
_symmetry_cell_setting 'triclinic'
loop_
_space_group_symop_operation_xyz
x,y,z
-x,-y,-z
loop_
_atom_site_type_symbol
_atom_site_label
_atom_site_fract_x
_atom_site_fract_y
_atom_site_fract_z
Si Si1 0.034709 0.476842 0.181791
Si Si2 0.054876 0.281206 0.004813
Si Si3 0.999417 0.025123 0.124138
Si Si4 0.619523 0.466221 0.209401
Si Si5 0.957497 0.267355 0.565158
Si Si6 0.515829 0.717481 0.012966
Si Si7 0.190605 0.043104 0.626943
Si Si8 0.548632 0.636216 0.661442
O O1 0.287658 0.384262 0.311353
O O2 0.040987 0.751554 0.166637
O O3 0.016806 0.541740 0.102058
O O4 0.770031 0.262451 0.116158
O O5 0.929592 0.200498 0.016681
O O6 0.353588 0.393406 0.130819
O O7 0.000000 0.000000 0.000000
O O8 0.257215 0.182389 0.241601
O O9 0.757355 0.954055 0.063943
O O10 0.577993 0.604216 0.114325
O O11 0.680018 0.190920 0.272627
O O12 0.840258 0.637375 0.315295
O O13 0.681176 0.233246 0.469063
O O14 0.000000 0.500000 0.500000
O O15 0.023550 0.037526 0.602826
O O16 0.500000 0.500000 0.000000
O O17 0.406635 0.329444 0.668484
O O18 0.000000 0.000000 0.500000
#
# Coordination Sequence:
#
# PCOD9096868 Si02
#       8
#     2   2   2   2   2   2   2   2
#     4   9  20  37  58  88 122 162 203 249 310 364
#     4   9  17  32  58  87 118 151 197 255 301 356
#     4  10  20  36  58  85 126 156 202 255 297 366
#     4  11  20  39  64  89 128 161 204 256 305 367
#     4  10  21  36  57  94 120 157 202 249 312 362
#     4   9  21  42  64  89 124 171 206 247 309 369
#     4  11  21  35  62  91 126 157 199 259 313 360
#     4  11  22  33  59  91 118 161 198 248 314 360
#
# _framework density 22.146149000000001
#
# number of rings (size 3 to 8) (size 9 to 14) (size 15 to 20)
#    0.000    2.000    2.500    3.750    1.750    1.000 
#    0.000   13.125    0.000    3.750    0.000    0.000 
#    0.000    0.000    0.000    0.000    0.000    0.000 
#
# Total GULP energy -89358.000822 kJ/mol
# GULP energy per Si atom -5584.875051 kJ/mol
# Density = 2.209574 g / cm^3
# Si number density = 22.146149 Si / 1000 Ang^3
#
#
#
# Elastic Constant Matrix: (Units=GPa)
#
#
# Indices 1 2 3 4 5 6 
#
# 1 137.5762 42.2818 53.8167 12.8022 28.9788 -5.3585
# 2 42.2818 72.4432 40.6185 21.4542 2.5031 -4.8620
# 3 53.8167 40.6185 104.1776 37.8887 21.9951 -3.7796
# 4 12.8022 21.4542 37.8887 33.7653 -5.6134 3.4995
# 5 28.9788 2.5031 21.9951 -5.6134 45.7852 2.3431
# 6 -5.3585 -4.8620 -3.7796 3.4995 2.3431 43.1730
#
#
#
# Elastic Compliance Matrix: (Units=1/GPa)
#
#
# Indices 1 2 3 4 5 6 
#
# 1 0.010956 -0.004825 -0.003421 0.001883 -0.004828 0.000626
# 2 -0.004825 0.020729 -0.003421 -0.007270 0.002576 0.001885
# 3 -0.003421 -0.003421 0.026370 -0.028941 -0.014100 0.004610
# 4 0.001883 -0.007270 -0.028941 0.070747 0.022298 -0.010063
# 5 -0.004828 0.002576 -0.014100 0.022298 0.034531 -0.005225
# 6 0.000626 0.001885 0.004610 -0.010063 -0.005225 0.024956
#
#
# Mechanical properties :
#
#
# Convention : Reuss Voigt Hill
#
# Bulk Modulus (GPa) = 28.80193 65.29235 47.04714
# Shear Modulus (GPa) = 22.40175 36.37670 29.38922
#
# Velocity S-wave (km/s) = 3.18392 4.05727 3.64683
# Velocity P-wave (km/s) = 5.15268 7.17600 6.24681
#
# Compressibility (1/GPa) = 0.03471989
#
# Stress axis : x y z
#
# Youngs Moduli (GPa) = 91.27315 48.24209 37.92152
#
# Poissons Ratio (x) = 0.23278 0.12974
# Poissons Ratio (y) = 0.44041 0.12973
# Poissons Ratio (z) = 0.31228 0.16504
#
# Static dielectric constant tensor:
#      x y z
#    x 1.834580 -0.035010 0.033550 
#    y -0.035010 1.828590 -0.029290 
#    z 0.033550 -0.029290 1.808840 
# 
# From -- ./inp_files/609816.got.cif
#   From: 2010.05.17/outbox.cif.g08.bks.cpg/sg2_305_cif.got.tgz:609816.got - 2010.06.03 11:33:40.
