data_PCOD9096596
_publ_section_title
;
Structure prediction by ZEFSAII (Michael W. Deem and Ramdas Pophale) SiO2 
 PCOD9096596
Probable space group: P -1
;
_chemical_formula_sum "Si O2"
_cell_formula_units_Z 16
_cell_length_a 5.695298
_cell_length_b 9.794364
_cell_length_c 12.484859
_cell_angle_alpha 118.947741
_cell_angle_beta 112.928855
_cell_angle_gamma 76.581616
_cell_volume 560.449029
_symmetry_space_group_name_H-M "P -1"
_symmetry_group_IT_number 2
_symmetry_cell_setting 'triclinic'
loop_
_space_group_symop_operation_xyz
x,y,z
-x,-y,-z
loop_
_atom_site_type_symbol
_atom_site_label
_atom_site_fract_x
_atom_site_fract_y
_atom_site_fract_z
Si Si1 0.082411 0.334849 0.757819
Si Si2 0.400831 0.604342 0.392870
Si Si3 0.945066 0.746014 0.947137
Si Si4 0.244379 0.666581 0.632277
Si Si5 0.481531 0.298726 0.993779
Si Si6 0.797415 0.810455 0.500190
Si Si7 0.556793 0.947871 0.825592
Si Si8 0.824437 0.092821 0.754648
O O1 0.348710 0.342212 0.871916
O O2 0.125383 0.223747 0.620289
O O3 0.872799 0.456954 0.713727
O O4 0.894504 0.257976 0.780938
O O5 0.370293 0.638963 0.526848
O O6 0.617852 0.479372 0.339094
O O7 0.503773 0.769870 0.435783
O O8 0.735816 0.651860 0.940335
O O9 0.221762 0.661311 0.937248
O O10 0.025314 0.882337 0.096888
O O11 0.800806 0.835870 0.859101
O O12 0.333126 0.829602 0.754495
O O13 0.946162 0.687954 0.563049
O O14 0.509463 0.109521 0.941624
O O15 0.880540 0.972184 0.623077
O O16 0.579092 0.014624 0.733874
#
# Coordination Sequence:
#
# PCOD9096596 Si02
#       8
#     2   2   2   2   2   2   2   2
#     4  10  23  36  58  85 122 161 193 236 307 366
#     4  10  22  39  57  81 120 156 199 244 295 354
#     4  10  22  38  61  90 126 158 197 249 310 360
#     4  10  21  39  58  85 113 154 204 249 289 352
#     4  10  21  38  61  92 127 156 195 250 306 372
#     4  11  21  36  59  88 118 157 195 245 299 360
#     4  11  21  38  63  87 119 156 196 251 303 351
#     4  10  20  36  56  89 121 149 189 244 299 366
#
# _framework density 28.548538000000001
#
# number of rings (size 3 to 8) (size 9 to 14) (size 15 to 20)
#    0.000    1.750    1.250    4.125    5.250    3.500 
#    0.000    0.000    0.000    3.750    0.000    0.000 
#    0.000    0.000    0.000    0.000    0.000    0.000 
#
# Total GULP energy -89238.273986 kJ/mol
# GULP energy per Si atom -5577.392124 kJ/mol
# Density = 2.848356 g / cm^3
# Si number density = 28.548538 Si / 1000 Ang^3
#
#
#
# Elastic Constant Matrix: (Units=GPa)
#
#
# Indices 1 2 3 4 5 6 
#
# 1 120.5359 -2.4187 34.1178 1.5230 18.5356 -12.0330
# 2 -2.4187 80.5021 17.9837 -6.1879 16.1258 -26.3802
# 3 34.1178 17.9837 113.3975 5.1718 22.7350 -12.8589
# 4 1.5230 -6.1879 5.1718 32.1552 -8.0758 5.9559
# 5 18.5356 16.1258 22.7350 -8.0758 67.0964 -8.9757
# 6 -12.0330 -26.3802 -12.8589 5.9559 -8.9757 32.4739
#
#
#
# Elastic Compliance Matrix: (Units=1/GPa)
#
#
# Indices 1 2 3 4 5 6 
#
# 1 0.009796 0.002614 -0.002414 -0.000899 -0.002036 0.004400
# 2 0.002614 0.018059 -0.001526 0.000302 -0.002601 0.014260
# 3 -0.002414 -0.001526 0.010671 -0.002918 -0.002681 0.001886
# 4 -0.000899 0.000302 -0.002918 0.033935 0.004413 -0.006247
# 5 -0.002036 -0.002601 -0.002681 0.004413 0.017546 0.000111
# 6 0.004400 0.014260 0.001886 -0.006247 0.000111 0.045932
#
#
# Mechanical properties :
#
#
# Convention : Reuss Voigt Hill
#
# Bulk Modulus (GPa) = 27.87454 45.97789 36.92622
# Shear Modulus (GPa) = 33.21224 43.99528 38.60376
#
# Velocity S-wave (km/s) = 3.41451 3.92990 3.68124
# Velocity P-wave (km/s) = 5.03292 6.06072 5.57057
#
# Compressibility (1/GPa) = 0.03587503
#
# Stress axis : x y z
#
# Youngs Moduli (GPa) = 102.08688 55.37509 93.71006
#
# Poissons Ratio (x) = -0.14475 0.22618
# Poissons Ratio (y) = -0.26685 0.14296
# Poissons Ratio (z) = 0.24640 0.08448
#
# Static dielectric constant tensor:
#      x y z
#    x 2.218730 -0.049980 0.006210 
#    y -0.049980 2.465580 -0.057540 
#    z 0.006210 -0.057540 2.245670 
# 
# From -- ./inp_files/482898.got.cif
#   From: 2010.05.17/outbox.cif.g08.bks.cpg/sg2_242_cif.got.tgz:482898.got - 2010.06.03 11:33:40.
