data_PCOD9096679
_publ_section_title
;
Structure prediction by ZEFSAII (Michael W. Deem and Ramdas Pophale) SiO2 
 PCOD9096679
Probable space group: P -1
;
_chemical_formula_sum "Si O2"
_cell_formula_units_Z 16
_cell_length_a 5.367466
_cell_length_b 12.346044
_cell_length_c 17.976310
_cell_angle_alpha 36.647654
_cell_angle_beta 72.086445
_cell_angle_gamma 77.208385
_cell_volume 675.893949
_symmetry_space_group_name_H-M "P -1"
_symmetry_group_IT_number 2
_symmetry_cell_setting 'triclinic'
loop_
_space_group_symop_operation_xyz
x,y,z
-x,-y,-z
loop_
_atom_site_type_symbol
_atom_site_label
_atom_site_fract_x
_atom_site_fract_y
_atom_site_fract_z
Si Si1 0.986742 0.284906 0.105515
Si Si2 0.579702 0.682744 0.846403
Si Si3 0.323044 0.837898 0.514841
Si Si4 0.259172 0.243591 0.363942
Si Si5 0.257511 0.851397 0.108788
Si Si6 0.142808 0.860909 0.956402
Si Si7 0.404984 0.133564 0.684445
Si Si8 0.854792 0.312752 0.638809
O O1 0.694348 0.222165 0.191272
O O2 0.010545 0.244925 0.037682
O O3 0.198170 0.212792 0.182654
O O4 0.000000 0.500000 0.000000
O O5 0.692157 0.639986 0.779229
O O6 0.500000 0.500000 0.000000
O O7 0.513658 0.730461 0.610662
O O8 0.463185 0.865366 0.408403
O O9 0.034199 0.743670 0.586200
O O10 0.284012 0.036113 0.445575
O O11 0.251582 0.707695 0.255495
O O12 0.221660 0.763678 0.078732
O O13 0.021317 0.976384 0.085905
O O14 0.500000 0.000000 0.000000
O O15 0.388325 0.958534 0.837616
O O16 0.597390 0.272950 0.635068
O O17 0.096391 0.177073 0.679485
O O18 0.000000 0.500000 0.500000
#
# Coordination Sequence:
#
# PCOD9096679 Si02
#       8
#     2   2   2   2   2   2   2   2
#     4  10  22  38  60  93 130 171 212 262 329 386
#     4  10  21  38  58  81 120 169 211 253 316 383
#     4  10  21  35  58  87 117 153 209 254 305 361
#     4  10  20  36  57  84 119 160 199 262 304 354
#     4  10  21  41  67  98 130 168 221 279 331 385
#     4  10  22  38  67  98 128 169 222 277 324 394
#     4  11  22  40  66  94 122 168 221 264 325 396
#     4  11  24  43  66  93 132 168 208 268 342 402
#
# _framework density 23.672350000000002
#
# number of rings (size 3 to 8) (size 9 to 14) (size 15 to 20)
#    0.000    1.750    1.250    2.625    1.750    4.000 
#    0.000    7.500    0.000    0.000    0.000    0.000 
#    0.000    0.000    0.000    0.000    0.000    0.000 
#
# Total GULP energy -89319.766066 kJ/mol
# GULP energy per Si atom -5582.485379 kJ/mol
# Density = 2.361847 g / cm^3
# Si number density = 23.672350 Si / 1000 Ang^3
#
#
#
# Elastic Constant Matrix: (Units=GPa)
#
#
# Indices 1 2 3 4 5 6 
#
# 1 139.1135 24.1996 36.2801 25.9868 -10.2574 14.5787
# 2 24.1996 84.2729 37.4686 32.3043 9.6126 21.8898
# 3 36.2801 37.4686 158.9018 39.5002 -7.0468 10.1852
# 4 25.9868 32.3043 39.5002 42.5830 0.6335 -2.3853
# 5 -10.2574 9.6126 -7.0468 0.6335 33.7951 9.9242
# 6 14.5787 21.8898 10.1852 -2.3853 9.9242 38.6117
#
#
#
# Elastic Compliance Matrix: (Units=1/GPa)
#
#
# Indices 1 2 3 4 5 6 
#
# 1 0.009160 0.000813 -0.000156 -0.006425 0.004210 -0.005357
# 2 0.000813 0.022357 -0.000191 -0.018013 -0.001828 -0.013574
# 3 -0.000156 -0.000191 0.008738 -0.008101 0.002980 -0.003404
# 4 -0.006425 -0.018013 -0.008101 0.049731 -0.005071 0.019150
# 5 0.004210 -0.001828 0.002980 -0.005071 0.035250 -0.010713
# 6 -0.005357 -0.013574 -0.003404 0.019150 -0.010713 0.040452
#
#
# Mechanical properties :
#
#
# Convention : Reuss Voigt Hill
#
# Bulk Modulus (GPa) = 24.27927 64.24276 44.26101
# Shear Modulus (GPa) = 28.01384 41.95397 34.98391
#
# Velocity S-wave (km/s) = 3.44379 4.21441 3.84844
# Velocity P-wave (km/s) = 5.10799 7.13294 6.20365
#
# Compressibility (1/GPa) = 0.04118740
#
# Stress axis : x y z
#
# Youngs Moduli (GPa) = 109.17549 44.72937 114.44558
#
# Poissons Ratio (x) = -0.03637 0.01784
# Poissons Ratio (y) = -0.08878 0.02182
# Poissons Ratio (z) = 0.01702 0.00853
#
# Static dielectric constant tensor:
#      x y z
#    x 1.951980 0.065680 0.001580 
#    y 0.065680 1.918450 -0.009340 
#    z 0.001580 -0.009340 1.950200 
# 
# From -- ./inp_files/482605.got.cif
#   From: 2010.05.17/outbox.cif.g08.bks.cpg/sg2_242_cif.got.tgz:482605.got - 2010.06.03 11:33:40.
