data_PCOD9096242
_publ_section_title
;
Structure prediction by ZEFSAII (Michael W. Deem and Ramdas Pophale) SiO2 
 PCOD9096242
Probable space group: P -1
;
_chemical_formula_sum "Si O2"
_cell_formula_units_Z 16
_cell_length_a 10.518049
_cell_length_b 14.405120
_cell_length_c 7.403501
_cell_angle_alpha 94.614594
_cell_angle_beta 113.998280
_cell_angle_gamma 41.220744
_cell_volume 626.133049
_symmetry_space_group_name_H-M "P -1"
_symmetry_group_IT_number 2
_symmetry_cell_setting 'triclinic'
loop_
_space_group_symop_operation_xyz
x,y,z
-x,-y,-z
loop_
_atom_site_type_symbol
_atom_site_label
_atom_site_fract_x
_atom_site_fract_y
_atom_site_fract_z
Si Si1 0.364953 0.352750 0.882078
Si Si2 0.916371 0.659008 0.771196
Si Si3 0.699151 0.320775 0.537840
Si Si4 0.576937 0.976245 0.748562
Si Si5 0.702718 0.320732 0.138436
Si Si6 0.295660 0.425173 0.425917
Si Si7 0.956671 0.912889 0.992080
Si Si8 0.843105 0.736879 0.310164
O O1 0.344572 0.388632 0.662914
O O2 0.279814 0.292537 0.834743
O O3 0.184925 0.507018 0.922022
O O4 0.605198 0.267083 0.062305
O O5 0.782100 0.795034 0.852501
O O6 0.805560 0.616427 0.712841
O O7 0.889637 0.697670 0.547204
O O8 0.500000 0.500000 0.500000
O O9 0.779199 0.298226 0.380352
O O10 0.533914 0.318335 0.453261
O O11 0.091973 0.809156 0.231361
O O12 0.698032 0.012971 0.849920
O O13 0.500000 0.000000 0.500000
O O14 0.357393 0.081282 0.765872
O O15 0.912224 0.213053 0.109067
O O16 0.500000 0.500000 0.000000
O O17 0.085851 0.609846 0.331135
O O18 0.000000 0.000000 0.000000
#
# Coordination Sequence:
#
# PCOD9096242 Si02
#       8
#     2   2   2   2   2   2   2   2
#     4   9  15  32  59  90 126 172 227 277 347 405
#     4   8  16  28  58  92 130 173 226 281 340 413
#     4  12  26  44  72 107 142 185 248 298 355 433
#     4  10  20  35  64 102 136 183 237 273 356 432
#     4  12  23  42  72 101 136 190 239 296 357 425
#     4   9  17  36  64  96 133 171 230 294 346 409
#     4  12  27  46  75 107 149 192 234 299 368 424
#     4   8  16  31  58  93 127 178 220 281 342 415
#
# _framework density 25.553674000000001
#
# number of rings (size 3 to 8) (size 9 to 14) (size 15 to 20)
#    0.000    2.000    2.500    3.000    3.500    2.500 
#    0.000    2.500    2.750    3.000    0.000    0.000 
#    0.000    0.000    0.000    0.000    0.000    0.000 
#
# Total GULP energy -89481.574612 kJ/mol
# GULP energy per Si atom -5592.598413 kJ/mol
# Density = 2.549551 g / cm^3
# Si number density = 25.553674 Si / 1000 Ang^3
#
#
#
# Elastic Constant Matrix: (Units=GPa)
#
#
# Indices 1 2 3 4 5 6 
#
# 1 71.8935 10.8028 33.9657 0.6768 15.9394 -7.0729
# 2 10.8028 114.1152 10.4316 5.2290 -4.9511 -21.6315
# 3 33.9657 10.4316 133.1793 -5.3295 -9.7590 5.0962
# 4 0.6768 5.2290 -5.3295 24.0972 2.1468 7.4033
# 5 15.9394 -4.9511 -9.7590 2.1468 52.8648 0.0352
# 6 -7.0729 -21.6315 5.0962 7.4033 0.0352 46.2813
#
#
#
# Elastic Compliance Matrix: (Units=1/GPa)
#
#
# Indices 1 2 3 4 5 6 
#
# 1 0.018316 -0.000814 -0.005288 -0.001948 -0.006498 0.003317
# 2 -0.000814 0.010185 -0.000874 -0.004145 0.001203 0.005394
# 3 -0.005288 -0.000874 0.009378 0.002972 0.003125 -0.002727
# 4 -0.001948 -0.004145 0.002972 0.046271 -0.001125 -0.009963
# 5 -0.006498 0.001203 0.003125 -0.001125 0.021611 -0.000612
# 6 0.003317 0.005394 -0.002727 -0.009963 -0.000612 0.026530
#
#
# Mechanical properties :
#
#
# Convention : Reuss Voigt Hill
#
# Bulk Modulus (GPa) = 41.79790 47.73203 44.76497
# Shear Modulus (GPa) = 32.42139 42.24785 37.33462
#
# Velocity S-wave (km/s) = 3.56583 4.07049 3.82649
# Velocity P-wave (km/s) = 5.77459 6.38839 6.08923
#
# Compressibility (1/GPa) = 0.02392465
#
# Stress axis : x y z
#
# Youngs Moduli (GPa) = 54.59803 98.18648 106.63052
#
# Poissons Ratio (x) = 0.07995 0.56391
# Poissons Ratio (y) = 0.04446 0.09322
# Poissons Ratio (z) = 0.28874 0.08584
#
# Static dielectric constant tensor:
#      x y z
#    x 2.142120 0.033560 0.035470 
#    y 0.033560 2.079400 -0.052530 
#    z 0.035470 -0.052530 2.059600 
# 
# From -- ./inp_files/273479.got.cif
#   From: 2010.05.17/outbox.cif.g08.bks.cpg/sg2_137_cif.got.tgz:273479.got - 2010.06.03 11:33:40.
