data_PCOD9096970
_publ_section_title
;
Structure prediction by ZEFSAII (Michael W. Deem and Ramdas Pophale) SiO2 
 PCOD9096970
Probable space group: P -1
;
_chemical_formula_sum "Si O2"
_cell_formula_units_Z 15
_cell_length_a 9.433363
_cell_length_b 11.267133
_cell_length_c 8.814121
_cell_angle_alpha 40.646876
_cell_angle_beta 98.256225
_cell_angle_gamma 88.264223
_cell_volume 589.662338
_symmetry_space_group_name_H-M "P -1"
_symmetry_group_IT_number 2
_symmetry_cell_setting 'triclinic'
loop_
_space_group_symop_operation_xyz
x,y,z
-x,-y,-z
loop_
_atom_site_type_symbol
_atom_site_label
_atom_site_fract_x
_atom_site_fract_y
_atom_site_fract_z
Si Si1 0.139560 0.997125 0.329802
Si Si2 0.102718 0.851362 0.052503
Si Si3 0.725129 0.424492 0.210512
Si Si4 0.366409 0.024926 0.575020
Si Si5 0.735130 0.757915 0.125910
Si Si6 0.586138 0.244636 0.889408
Si Si7 0.600498 0.591616 0.719856
Si Si8 0.000000 0.500000 0.500000
O O1 0.213087 0.052784 0.438445
O O2 0.164779 0.773033 0.552868
O O3 0.233978 0.077048 0.136329
O O4 0.972530 0.096141 0.173850
O O5 0.086751 0.645189 0.290759
O O6 0.272475 0.858554 0.079290
O O7 0.000000 0.000000 0.000000
O O8 0.758670 0.579513 0.182550
O O9 0.565071 0.388782 0.261440
O O10 0.709622 0.502598 0.960724
O O11 0.373849 0.203922 0.501925
O O12 0.500000 0.000000 0.500000
O O13 0.392679 0.838988 0.856507
O O14 0.862930 0.680895 0.337595
O O15 0.574255 0.783374 0.144686
O O16 0.600887 0.456788 0.708362
#
# Coordination Sequence:
#
# PCOD9096970 Si02
#       8
#     2   2   2   2   2   2   2   1
#     4  11  20  36  64  92 131 169 201 253 328 378
#     4  11  27  48  64  85 123 175 226 276 317 360
#     4  10  16  30  57  89 127 163 194 239 311 381
#     4  12  18  35  64 103 138 161 195 257 322 399
#     4  10  20  37  65  94 123 170 209 258 315 382
#     4  11  23  39  65  98 126 167 219 256 316 390
#     4  10  18  30  55  96 129 156 197 247 305 381
#     4  10  24  46  66  86 124 166 216 276 318 358
#
# _framework density 25.438289000000001
#
# number of rings (size 3 to 8) (size 9 to 14) (size 15 to 20)
#    0.000    1.333    5.333    1.600    0.000    2.133 
#    0.000    3.333    0.000    0.000    0.000    0.000 
#    0.000    0.000    0.000    0.000    0.000    0.000 
#
# Total GULP energy -83728.591941 kJ/mol
# GULP energy per Si atom -5581.906129 kJ/mol
# Density = 2.538039 g / cm^3
# Si number density = 25.438289 Si / 1000 Ang^3
#
#
#
# Elastic Constant Matrix: (Units=GPa)
#
#
# Indices 1 2 3 4 5 6 
#
# 1 125.9893 2.3872 13.7059 -10.5357 8.6803 -18.6967
# 2 2.3872 69.2349 4.3366 -10.5873 -10.5272 6.9838
# 3 13.7059 4.3366 99.9640 -6.4631 -1.4746 -0.3629
# 4 -10.5357 -10.5873 -6.4631 22.4765 5.2019 -4.8091
# 5 8.6803 -10.5272 -1.4746 5.2019 31.0763 -7.4638
# 6 -18.6967 6.9838 -0.3629 -4.8091 -7.4638 29.1227
#
#
#
# Elastic Compliance Matrix: (Units=1/GPa)
#
#
# Indices 1 2 3 4 5 6 
#
# 1 0.009710 -0.000373 -0.000931 0.006076 -0.002284 0.006730
# 2 -0.000373 0.016221 -0.000211 0.006013 0.004080 -0.002094
# 3 -0.000931 -0.000211 0.010298 0.002367 0.000292 0.000047
# 4 0.006076 0.006013 0.002367 0.054418 -0.006288 0.009863
# 5 -0.002284 0.004080 0.000292 -0.006288 0.036688 0.005924
# 6 0.006730 -0.002094 0.000047 0.009863 0.005924 0.042307
#
#
# Mechanical properties :
#
#
# Convention : Reuss Voigt Hill
#
# Bulk Modulus (GPa) = 30.12381 37.33861 33.73121
# Shear Modulus (GPa) = 27.21259 34.85235 31.03247
#
# Velocity S-wave (km/s) = 3.27425 3.70547 3.49651
# Velocity P-wave (km/s) = 5.11487 5.74607 5.43963
#
# Compressibility (1/GPa) = 0.03319633
#
# Stress axis : x y z
#
# Youngs Moduli (GPa) = 102.98994 61.64988 97.10596
#
# Poissons Ratio (x) = 0.02302 0.09045
# Poissons Ratio (y) = 0.03845 0.02050
# Poissons Ratio (z) = 0.09593 0.01302
#
# Static dielectric constant tensor:
#      x y z
#    x 2.058190 0.024580 0.053110 
#    y 0.024580 2.116520 0.073650 
#    z 0.053110 0.073650 2.027770 
# 
# From -- ./inp_files/398207.got.cif
#   From: 2010.05.17/outbox.cif.g08.bks.cpg/sg2_200_cif.got.tgz:398207.got - 2010.06.03 11:33:40.
