data_PCOD9096282
_publ_section_title
;
Structure prediction by ZEFSAII (Michael W. Deem and Ramdas Pophale) SiO2 
 PCOD9096282
Probable space group: P -1
;
_chemical_formula_sum "Si O2"
_cell_formula_units_Z 15
_cell_length_a 13.742048
_cell_length_b 9.986573
_cell_length_c 8.325094
_cell_angle_alpha 110.970173
_cell_angle_beta 140.387574
_cell_angle_gamma 63.678965
_cell_volume 652.660811
_symmetry_space_group_name_H-M "P -1"
_symmetry_group_IT_number 2
_symmetry_cell_setting 'triclinic'
loop_
_space_group_symop_operation_xyz
x,y,z
-x,-y,-z
loop_
_atom_site_type_symbol
_atom_site_label
_atom_site_fract_x
_atom_site_fract_y
_atom_site_fract_z
Si Si1 0.000000 0.000000 0.000000
Si Si2 0.701696 0.035650 0.443942
Si Si3 0.474490 0.168336 0.478228
Si Si4 0.784349 0.590056 0.599091
Si Si5 0.708545 0.286162 0.343736
Si Si6 0.648345 0.735217 0.144086
Si Si7 0.099681 0.497673 0.790649
Si Si8 0.770969 0.238556 0.034822
O O1 0.162877 0.038116 0.287424
O O2 0.103228 0.904441 0.940104
O O3 0.549550 0.143410 0.386398
O O4 0.778664 0.143869 0.485300
O O5 0.650502 0.905955 0.233911
O O6 0.299814 0.279043 0.328642
O O7 0.594090 0.234428 0.763794
O O8 0.500000 0.000000 0.500000
O O9 0.731580 0.440737 0.501888
O O10 0.716015 0.656374 0.365956
O O11 0.974346 0.537914 0.792803
O O12 0.523976 0.290316 0.099643
O O13 0.782163 0.257893 0.247502
O O14 0.766457 0.658331 0.118796
O O15 0.000000 0.500000 0.500000
O O16 0.190807 0.622962 0.944854
#
# Coordination Sequence:
#
# PCOD9096282 Si02
#       8
#     1   2   2   2   2   2   2   2
#     4  10  24  42  60  88 132 176 210 252 332 396
#     4  11  25  41  67  97 133 169 219 275 329 387
#     4  11  22  40  66  92 129 179 221 257 321 403
#     4  11  21  38  67  94 131 172 220 262 323 393
#     4  12  23  39  67 105 126 164 223 282 327 370
#     4  11  20  40  66  96 130 170 217 272 319 394
#     4  10  20  35  64  96 126 170 217 264 316 390
#     4  11  21  38  65  95 124 170 219 265 321 389
#
# _framework density 22.982842000000002
#
# number of rings (size 3 to 8) (size 9 to 14) (size 15 to 20)
#    0.000    1.067    5.333    3.200    1.867    1.067 
#    0.000    0.000    0.000    8.000    0.000    0.000 
#    0.000    0.000    0.000    0.000    0.000    0.000 
#
# Total GULP energy -83622.282321 kJ/mol
# GULP energy per Si atom -5574.818821 kJ/mol
# Density = 2.293053 g / cm^3
# Si number density = 22.982842 Si / 1000 Ang^3
#
#
#
# Elastic Constant Matrix: (Units=GPa)
#
#
# Indices 1 2 3 4 5 6 
#
# 1 159.7781 54.3651 18.3159 9.9241 9.9765 -43.0349
# 2 54.3651 112.3230 24.0223 37.4227 6.1300 8.6901
# 3 18.3159 24.0223 41.0290 23.3928 16.1367 -5.5864
# 4 9.9241 37.4227 23.3928 25.6259 6.7445 11.4009
# 5 9.9765 6.1300 16.1367 6.7445 22.2674 -12.0257
# 6 -43.0349 8.6901 -5.5864 11.4009 -12.0257 42.0104
#
#
#
# Elastic Compliance Matrix: (Units=1/GPa)
#
#
# Indices 1 2 3 4 5 6 
#
# 1 0.013651 -0.005190 0.004445 -0.013367 0.007748 0.021494
# 2 -0.005190 0.026548 0.022874 -0.062961 0.003010 0.010182
# 3 0.004445 0.022874 0.109961 -0.156176 -0.011806 0.053449
# 4 -0.013367 -0.062961 -0.156176 0.343252 -0.034721 -0.124529
# 5 0.007748 0.003010 -0.011806 -0.034721 0.080283 0.038148
# 6 0.021494 0.010182 0.053449 -0.124529 0.038148 0.095538
#
#
# Mechanical properties :
#
#
# Convention : Reuss Voigt Hill
#
# Bulk Modulus (GPa) = 5.14356 56.28185 30.71270
# Shear Modulus (GPa) = 7.24868 32.40920 19.82894
#
# Velocity S-wave (km/s) = 1.77786 3.75927 2.94048
# Velocity P-wave (km/s) = 2.54111 6.58670 4.99209
#
# Compressibility (1/GPa) = 0.19441772
#
# Stress axis : x y z
#
# Youngs Moduli (GPa) = 73.25686 37.66784 9.09410
#
# Poissons Ratio (x) = 0.19550 -0.04043
# Poissons Ratio (y) = 0.38020 -0.20801
# Poissons Ratio (z) = -0.32566 -0.86160
#
# Static dielectric constant tensor:
#      x y z
#    x 1.783680 0.047780 0.500960 
#    y 0.047780 1.899150 -0.171280 
#    z 0.500960 -0.171280 -0.698690 
# 
# From -- ./inp_files/240041.got.cif
#   From: 2010.05.17/outbox.cif.g08.bks.cpg/sg2_121_cif.got.tgz:240041.got - 2010.06.03 11:33:40.
