data_PCOD9096216
_publ_section_title
;
Structure prediction by ZEFSAII (Michael W. Deem and Ramdas Pophale) SiO2 
 PCOD9096216
Probable space group: P -1
;
_chemical_formula_sum "Si O2"
_cell_formula_units_Z 16
_cell_length_a 12.536878
_cell_length_b 11.899996
_cell_length_c 6.983347
_cell_angle_alpha 58.101981
_cell_angle_beta 79.189082
_cell_angle_gamma 117.083501
_cell_volume 649.010559
_symmetry_space_group_name_H-M "P -1"
_symmetry_group_IT_number 2
_symmetry_cell_setting 'triclinic'
loop_
_space_group_symop_operation_xyz
x,y,z
-x,-y,-z
loop_
_atom_site_type_symbol
_atom_site_label
_atom_site_fract_x
_atom_site_fract_y
_atom_site_fract_z
Si Si1 0.341104 0.033910 0.272047
Si Si2 0.347463 0.628965 0.210208
Si Si3 0.791849 0.225517 0.768935
Si Si4 0.446491 0.125260 0.589485
Si Si5 0.767442 0.383410 0.150364
Si Si6 0.608646 0.616847 0.676985
Si Si7 0.858665 0.943680 0.507531
Si Si8 0.034862 0.693226 0.020786
O O1 0.257242 0.105269 0.249204
O O2 0.391787 0.051542 0.457722
O O3 0.495375 0.175492 0.991534
O O4 0.226082 0.848182 0.369265
O O5 0.376696 0.498844 0.359556
O O6 0.238284 0.642975 0.332675
O O7 0.293940 0.589088 0.041371
O O8 0.936935 0.303417 0.764459
O O9 0.661247 0.046894 0.089371
O O10 0.615763 0.225629 0.449142
O O11 0.434548 0.274022 0.489560
O O12 0.862163 0.339513 0.071418
O O13 0.879550 0.552430 0.095939
O O14 0.771431 0.773639 0.557483
O O15 0.500000 0.500000 0.000000
O O16 0.903467 0.113256 0.228504
O O17 0.000000 0.000000 0.500000
#
# Coordination Sequence:
#
# PCOD9096216 Si02
#       8
#     2   2   2   2   2   2   2   2
#     4  10  21  39  62  95 126 157 206 266 298 367
#     4  10  20  35  63  93 123 163 204 253 313 353
#     4  11  22  39  66  94 125 161 208 257 307 371
#     4  10  21  38  68  92 117 169 211 248 314 363
#     4   9  19  33  61  87 125 157 209 258 299 358
#     4  11  18  36  60  89 122 158 204 256 300 362
#     4  11  22  36  65  88 119 170 208 241 316 375
#     4  10  20  36  58  91 119 166 205 248 308 367
#
# _framework density 24.652913999999999
#
# number of rings (size 3 to 8) (size 9 to 14) (size 15 to 20)
#    0.000    1.750    6.250    1.125    1.750    1.500 
#    0.000    1.250    8.250    4.500    0.000    0.000 
#    0.000    0.000    0.000    0.000    0.000    0.000 
#
# Total GULP energy -89456.455634 kJ/mol
# GULP energy per Si atom -5591.028477 kJ/mol
# Density = 2.459680 g / cm^3
# Si number density = 24.652914 Si / 1000 Ang^3
#
#
#
# Elastic Constant Matrix: (Units=GPa)
#
#
# Indices 1 2 3 4 5 6 
#
# 1 114.1825 31.9480 13.6711 -14.2685 7.1504 29.4225
# 2 31.9480 150.1778 21.5011 -20.9201 8.8880 31.2103
# 3 13.6711 21.5011 83.1815 -22.1445 1.4332 4.9558
# 4 -14.2685 -20.9201 -22.1445 30.9995 3.3756 0.4618
# 5 7.1504 8.8880 1.4332 3.3756 37.9139 -27.7237
# 6 29.4225 31.2103 4.9558 0.4618 -27.7237 47.3787
#
#
#
# Elastic Compliance Matrix: (Units=1/GPa)
#
#
# Indices 1 2 3 4 5 6 
#
# 1 0.025251 0.011966 0.004499 0.029051 -0.049125 -0.053062
# 2 0.011966 0.019357 0.003541 0.026447 -0.042824 -0.045869
# 3 0.004499 0.003541 0.016449 0.018177 -0.015827 -0.016285
# 4 0.029051 0.026447 0.018177 0.086908 -0.083976 -0.087350
# 5 -0.049125 -0.042824 -0.015827 -0.083976 0.172162 0.161931
# 6 -0.053062 -0.045869 -0.016285 -0.087350 0.161931 0.181583
#
#
# Mechanical properties :
#
#
# Convention : Reuss Voigt Hill
#
# Bulk Modulus (GPa) = 9.89423 53.53135 31.71279
# Shear Modulus (GPa) = 10.09306 41.95322 26.02314
#
# Velocity S-wave (km/s) = 2.02557 4.12971 3.25249
# Velocity P-wave (km/s) = 3.08103 6.67087 5.19583
#
# Compressibility (1/GPa) = 0.10106900
#
# Stress axis : x y z
#
# Youngs Moduli (GPa) = 39.60248 51.65984 60.79334
#
# Poissons Ratio (x) = -0.61816 -0.27349
# Poissons Ratio (y) = -0.47388 -0.21528
# Poissons Ratio (z) = -0.17816 -0.18293
#
# Static dielectric constant tensor:
#      x y z
#    x 1.941440 -0.007670 0.006950 
#    y -0.007670 1.989770 0.018280 
#    z 0.006950 0.018280 2.025670 
# 
# From -- ./inp_files/261634.got.cif
#   From: 2010.05.17/outbox.cif.g08.bks.cpg/sg2_131_cif.got.tgz:261634.got - 2010.06.03 11:33:40.
