data_PCOD9096215
_publ_section_title
;
Structure prediction by ZEFSAII (Michael W. Deem and Ramdas Pophale) SiO2 
 PCOD9096215
Probable space group: P -1
;
_chemical_formula_sum "Si O2"
_cell_formula_units_Z 16
_cell_length_a 18.148997
_cell_length_b 11.409967
_cell_length_c 7.074172
_cell_angle_alpha 93.604906
_cell_angle_beta 96.884974
_cell_angle_gamma 148.833639
_cell_volume 712.571405
_symmetry_space_group_name_H-M "P -1"
_symmetry_group_IT_number 2
_symmetry_cell_setting 'triclinic'
loop_
_space_group_symop_operation_xyz
x,y,z
-x,-y,-z
loop_
_atom_site_type_symbol
_atom_site_label
_atom_site_fract_x
_atom_site_fract_y
_atom_site_fract_z
Si Si1 0.873908 0.400759 0.062791
Si Si2 0.970252 0.597644 0.502936
Si Si3 0.490130 0.709964 0.228967
Si Si4 0.317535 0.664437 0.923216
Si Si5 0.752379 0.989278 0.117532
Si Si6 0.629504 0.127269 0.419807
Si Si7 0.933614 0.864516 0.269058
Si Si8 0.203893 0.171122 0.111978
O O1 0.956148 0.588572 0.272576
O O2 0.760026 0.347379 0.957786
O O3 0.771385 0.152708 0.084837
O O4 0.000000 0.500000 0.000000
O O5 0.808740 0.396353 0.533032
O O6 0.000000 0.500000 0.500000
O O7 0.107015 0.843654 0.682201
O O8 0.351188 0.448007 0.249248
O O9 0.594565 0.763334 0.153853
O O10 0.602309 0.948842 0.405193
O O11 0.416276 0.706198 0.069614
O O12 0.388676 0.836924 0.790340
O O13 0.192913 0.407592 0.763415
O O14 0.760160 0.913444 0.935806
O O15 0.500000 0.000000 0.500000
O O16 0.855648 0.853060 0.105837
O O17 0.000000 0.000000 0.500000
O O18 0.071366 0.002864 0.203433
#
# Coordination Sequence:
#
# PCOD9096215 Si02
#       8
#     2   2   2   2   2   2   2   2
#     4  10  20  35  63  93 122 160 208 270 317 377
#     4   9  19  38  56  86 121 159 209 253 311 368
#     4  11  22  42  61  91 131 169 212 262 324 390
#     4  10  22  41  61  94 126 166 214 264 328 371
#     4  11  21  41  63  88 130 165 218 259 316 396
#     4  11  23  36  65  95 125 167 207 271 325 380
#     4  10  23  42  67  94 127 166 218 271 316 390
#     4  10  24  40  68  94 124 178 211 260 333 388
#
# _framework density 22.453890000000001
#
# number of rings (size 3 to 8) (size 9 to 14) (size 15 to 20)
#    0.000    1.750    3.750    1.500    5.250    4.000 
#    0.000    0.000    0.000    2.250    0.000    0.000 
#    0.000    0.000    0.000    0.000    0.000    0.000 
#
# Total GULP energy -89202.264242 kJ/mol
# GULP energy per Si atom -5575.141515 kJ/mol
# Density = 2.240278 g / cm^3
# Si number density = 22.453890 Si / 1000 Ang^3
#
#
#
# Elastic Constant Matrix: (Units=GPa)
#
#
# Indices 1 2 3 4 5 6 
#
# 1 90.4719 16.9769 22.0201 2.2993 -13.9057 22.7654
# 2 16.9769 101.4455 21.0207 14.9244 -9.7115 11.5597
# 3 22.0201 21.0207 45.5589 -0.9913 -14.4896 -1.1373
# 4 2.2993 14.9244 -0.9913 31.0028 5.0127 -9.8247
# 5 -13.9057 -9.7115 -14.4896 5.0127 31.3591 2.4508
# 6 22.7654 11.5597 -1.1373 -9.8247 2.4508 46.8897
#
#
#
# Elastic Compliance Matrix: (Units=1/GPa)
#
#
# Indices 1 2 3 4 5 6 
#
# 1 0.016055 0.001355 -0.006809 -0.006199 0.006159 -0.009915
# 2 0.001355 0.013315 -0.005892 -0.009321 0.003980 -0.006245
# 3 -0.006809 -0.005892 0.030801 0.004952 0.008118 0.006119
# 4 -0.006199 -0.009321 0.004952 0.044072 -0.011585 0.015267
# 5 0.006159 0.003980 0.008118 -0.011585 0.042112 -0.008403
# 6 -0.009915 -0.006245 0.006119 0.015267 -0.008403 0.031467
#
#
# Mechanical properties :
#
#
# Convention : Reuss Voigt Hill
#
# Bulk Modulus (GPa) = 26.67976 39.72352 33.20164
# Shear Modulus (GPa) = 23.47349 33.68089 28.57719
#
# Velocity S-wave (km/s) = 3.23679 3.87719 3.57137
# Velocity P-wave (km/s) = 5.08693 6.14598 5.64136
#
# Compressibility (1/GPa) = 0.03748160
#
# Stress axis : x y z
#
# Youngs Moduli (GPa) = 62.28557 75.10068 32.46610
#
# Poissons Ratio (x) = -0.10179 0.22106
# Poissons Ratio (y) = -0.08442 0.19128
# Poissons Ratio (z) = 0.42410 0.44246
#
# Static dielectric constant tensor:
#      x y z
#    x 1.904040 0.023420 0.094280 
#    y 0.023420 1.901700 0.053230 
#    z 0.094280 0.053230 1.988620 
# 
# From -- ./inp_files/333521.got.cif
#   From: 2010.05.17/outbox.cif.g08.bks.cpg/sg2_167_cif.got.tgz:333521.got - 2010.06.03 11:33:40.
