data_PCOD9096878
_publ_section_title
;
Structure prediction by ZEFSAII (Michael W. Deem and Ramdas Pophale) SiO2 
 PCOD9096878
Probable space group: P -1
;
_chemical_formula_sum "Si O2"
_cell_formula_units_Z 16
_cell_length_a 15.091929
_cell_length_b 9.782854
_cell_length_c 15.651359
_cell_angle_alpha 66.437927
_cell_angle_beta 32.592331
_cell_angle_gamma 89.980123
_cell_volume 835.065954
_symmetry_space_group_name_H-M "P -1"
_symmetry_group_IT_number 2
_symmetry_cell_setting 'triclinic'
loop_
_space_group_symop_operation_xyz
x,y,z
-x,-y,-z
loop_
_atom_site_type_symbol
_atom_site_label
_atom_site_fract_x
_atom_site_fract_y
_atom_site_fract_z
Si Si1 0.584612 0.001996 0.789416
Si Si2 0.197069 0.524037 0.792925
Si Si3 0.021670 0.170058 0.891726
Si Si4 0.466736 0.154793 0.700804
Si Si5 0.765936 0.287589 0.716198
Si Si6 0.771745 0.798238 0.696162
Si Si7 0.441668 0.523911 0.179349
Si Si8 0.491663 0.490520 0.340259
O O1 0.633891 0.860867 0.764729
O O2 0.567320 0.097082 0.698794
O O3 0.771756 0.180220 0.658486
O O4 0.358077 0.865629 0.064794
O O5 0.374219 0.726584 0.540788
O O6 0.341595 0.521486 0.745783
O O7 0.082543 0.334499 0.869539
O O8 0.000000 0.500000 0.000000
O O9 0.234852 0.296704 0.623876
O O10 0.783966 0.049278 0.069776
O O11 0.000000 0.000000 0.000000
O O12 0.457084 0.311910 0.714213
O O13 0.615089 0.336631 0.798998
O O14 0.000000 0.500000 0.500000
O O15 0.766070 0.686729 0.646753
O O16 0.642001 0.638229 0.919492
O O17 0.000000 0.000000 0.500000
O O18 0.505254 0.498020 0.225358
#
# Coordination Sequence:
#
# PCOD9096878 Si02
#       8
#     2   2   2   2   2   2   2   2
#     4  10  22  36  58  89 115 153 204 243 290 358
#     4  11  25  42  62  93 129 157 201 262 310 361
#     4  11  21  42  67  88 119 169 202 250 311 364
#     4  11  22  41  64  91 128 159 209 256 302 370
#     4  10  20  36  58  86 117 152 197 246 289 347
#     4  10  22  41  57  85 127 161 192 247 304 358
#     4  10  22  38  60  87 119 158 198 242 303 356
#     4  11  22  41  65  93 123 159 210 255 305 370
#
# _framework density 19.160163000000001
#
# number of rings (size 3 to 8) (size 9 to 14) (size 15 to 20)
#    0.000    1.500    3.750    1.500    1.750    3.500 
#    2.250    0.000    0.000    0.000    0.000    0.000 
#    0.000    0.000    0.000    0.000    0.000    0.000 
#
# Total GULP energy -89353.676827 kJ/mol
# GULP energy per Si atom -5584.604802 kJ/mol
# Density = 1.911655 g / cm^3
# Si number density = 19.160163 Si / 1000 Ang^3
#
#
#
# Elastic Constant Matrix: (Units=GPa)
#
#
# Indices 1 2 3 4 5 6 
#
# 1 143.4555 35.7491 69.2137 -1.3075 23.1623 -5.0621
# 2 35.7491 76.3280 35.7059 -1.1550 9.4080 0.4130
# 3 69.2137 35.7059 97.6858 -12.7556 -5.2757 8.2201
# 4 -1.3075 -1.1550 -12.7556 33.5873 5.7597 -6.1647
# 5 23.1623 9.4080 -5.2757 5.7597 27.7989 -8.0524
# 6 -5.0621 0.4130 8.2201 -6.1647 -8.0524 31.4917
#
#
#
# Elastic Compliance Matrix: (Units=1/GPa)
#
#
# Indices 1 2 3 4 5 6 
#
# 1 0.014812 0.000173 -0.011594 -0.001139 -0.013892 0.001630
# 2 0.000173 0.017089 -0.006832 -0.000847 -0.007168 -0.000412
# 3 -0.011594 -0.006832 0.022618 0.004880 0.014370 -0.003048
# 4 -0.001139 -0.000847 0.004880 0.032901 -0.003465 0.004109
# 5 -0.013892 -0.007168 0.014370 -0.003465 0.055636 0.007658
# 6 0.001630 -0.000412 -0.003048 0.004109 0.007658 0.035580
#
#
# Mechanical properties :
#
#
# Convention : Reuss Voigt Hill
#
# Bulk Modulus (GPa) = 55.51401 66.53407 61.02404
# Shear Modulus (GPa) = 22.60941 30.36228 26.48584
#
# Velocity S-wave (km/s) = 3.43887 3.98509 3.72202
# Velocity P-wave (km/s) = 6.69360 7.48166 7.09858
#
# Compressibility (1/GPa) = 0.01801347
#
# Stress axis : x y z
#
# Youngs Moduli (GPa) = 67.51504 58.51625 44.21198
#
# Poissons Ratio (x) = -0.01009 0.51258
# Poissons Ratio (y) = -0.01165 0.30204
# Poissons Ratio (z) = 0.78275 0.39976
#
# Static dielectric constant tensor:
#      x y z
#    x 1.650970 0.007210 -0.019720 
#    y 0.007210 1.667490 -0.003030 
#    z -0.019720 -0.003030 1.688150 
# 
# From -- ./inp_files/279747.got.cif
#   From: 2010.05.17/outbox.cif.g08.bks.cpg/sg2_140_cif.got.tgz:279747.got - 2010.06.03 11:33:40.
