data_PCOD9096253
_publ_section_title
;
Structure prediction by ZEFSAII (Michael W. Deem and Ramdas Pophale) SiO2 
 PCOD9096253
Probable space group: P -1
;
_chemical_formula_sum "Si O2"
_cell_formula_units_Z 16
_cell_length_a 11.259918
_cell_length_b 7.988416
_cell_length_c 9.961719
_cell_angle_alpha 112.958496
_cell_angle_beta 129.159572
_cell_angle_gamma 88.010500
_cell_volume 611.006822
_symmetry_space_group_name_H-M "P -1"
_symmetry_group_IT_number 2
_symmetry_cell_setting 'triclinic'
loop_
_space_group_symop_operation_xyz
x,y,z
-x,-y,-z
loop_
_atom_site_type_symbol
_atom_site_label
_atom_site_fract_x
_atom_site_fract_y
_atom_site_fract_z
Si Si1 0.038198 0.695288 0.002807
Si Si2 0.350496 0.007158 0.987272
Si Si3 0.472766 0.110653 0.724980
Si Si4 0.255701 0.325744 0.609290
Si Si5 0.976110 0.953926 0.237351
Si Si6 0.578677 0.556948 0.782529
Si Si7 0.874320 0.563424 0.195144
Si Si8 0.634563 0.236075 0.608615
O O1 0.040283 0.598624 0.830123
O O2 0.215488 0.794398 0.216250
O O3 0.000000 0.500000 0.000000
O O4 0.947417 0.841402 0.037066
O O5 0.365600 0.868311 0.074295
O O6 0.385460 0.220742 0.132995
O O7 0.170463 0.968991 0.796993
O O8 0.500000 0.000000 0.000000
O O9 0.387391 0.886541 0.578247
O O10 0.366202 0.228533 0.750280
O O11 0.497111 0.169501 0.604301
O O12 0.392254 0.471141 0.664384
O O13 0.165124 0.428075 0.675405
O O14 0.131391 0.137006 0.399508
O O15 0.974571 0.777541 0.281580
O O16 0.634230 0.453119 0.663125
O O17 0.705534 0.525250 0.977615
#
# Coordination Sequence:
#
# PCOD9096253 Si02
#       8
#     2   2   2   2   2   2   2   2
#     4   9  17  33  55  84 120 149 191 253 291 345
#     4  11  24  42  59  84 126 164 191 237 315 369
#     4  10  20  35  64  88 116 155 202 246 290 355
#     4  11  19  35  65  93 112 152 210 257 280 344
#     4  10  20  36  59  84 122 154 197 249 301 352
#     4   9  20  36  59  85 124 154 196 244 301 358
#     4   9  18  31  55  90 117 155 205 244 292 347
#     4   9  18  36  62  90 110 152 210 247 281 345
#
# _framework density 26.186288000000001
#
# number of rings (size 3 to 8) (size 9 to 14) (size 15 to 20)
#    0.000    2.250    1.250    3.000    0.000    2.500 
#    0.000    1.250    2.750    0.000    0.000    0.000 
#    0.000    0.000    0.000    0.000    0.000    0.000 
#
# Total GULP energy -89207.113831 kJ/mol
# GULP energy per Si atom -5575.444614 kJ/mol
# Density = 2.612669 g / cm^3
# Si number density = 26.186288 Si / 1000 Ang^3
#
#
#
# Elastic Constant Matrix: (Units=GPa)
#
#
# Indices 1 2 3 4 5 6 
#
# 1 123.1157 22.6831 26.2090 15.9694 6.4923 -22.3883
# 2 22.6831 58.0665 14.0769 -1.2012 2.8153 -13.5480
# 3 26.2090 14.0769 46.6865 23.1008 14.5019 -0.5455
# 4 15.9694 -1.2012 23.1008 30.9865 -1.5841 -0.9409
# 5 6.4923 2.8153 14.5019 -1.5841 48.1009 15.6917
# 6 -22.3883 -13.5480 -0.5455 -0.9409 15.6917 45.3283
#
#
#
# Elastic Compliance Matrix: (Units=1/GPa)
#
#
# Indices 1 2 3 4 5 6 
#
# 1 0.010662 -0.002192 -0.002875 -0.003393 -0.002284 0.005297
# 2 -0.002192 0.022057 -0.010597 0.010087 0.000798 0.005316
# 3 -0.002875 -0.010597 0.048705 -0.035993 -0.015007 0.000447
# 4 -0.003393 0.010087 -0.035993 0.061862 0.013575 -0.002509
# 5 -0.002284 0.000798 -0.015007 0.013575 0.029625 -0.011044
# 6 0.005297 0.005316 0.000447 -0.002509 -0.011044 0.030043
#
#
# Mechanical properties :
#
#
# Convention : Reuss Voigt Hill
#
# Bulk Modulus (GPa) = 19.96146 39.31186 29.63666
# Shear Modulus (GPa) = 19.92194 35.87647 27.89920
#
# Velocity S-wave (km/s) = 2.76121 3.70543 3.26761
# Velocity P-wave (km/s) = 4.21961 5.77511 5.05752
#
# Compressibility (1/GPa) = 0.05009654
#
# Stress axis : x y z
#
# Youngs Moduli (GPa) = 93.79248 45.33691 20.53194
#
# Poissons Ratio (x) = 0.09937 0.05902
# Poissons Ratio (y) = 0.20557 0.21758
# Poissons Ratio (z) = 0.26962 0.48044
#
# Static dielectric constant tensor:
#      x y z
#    x 2.207920 0.053720 0.010820 
#    y 0.053720 2.263940 0.046900 
#    z 0.010820 0.046900 2.146160 
# 
# From -- ./inp_files/418294.got.cif
#   From: 2010.05.17/outbox.cif.g08.bks.cpg/sg2_210_cif.got.tgz:418294.got - 2010.06.03 11:33:40.
