data_PCOD9096295
_publ_section_title
;
Structure prediction by ZEFSAII (Michael W. Deem and Ramdas Pophale) SiO2 
 PCOD9096295
Probable space group: P -1
;
_chemical_formula_sum "Si O2"
_cell_formula_units_Z 14
_cell_length_a 5.344611
_cell_length_b 10.842991
_cell_length_c 18.262843
_cell_angle_alpha 32.439640
_cell_angle_beta 94.279087
_cell_angle_gamma 102.870827
_cell_volume 540.286817
_symmetry_space_group_name_H-M "P -1"
_symmetry_group_IT_number 2
_symmetry_cell_setting 'triclinic'
loop_
_space_group_symop_operation_xyz
x,y,z
-x,-y,-z
loop_
_atom_site_type_symbol
_atom_site_label
_atom_site_fract_x
_atom_site_fract_y
_atom_site_fract_z
Si Si1 0.053514 0.890728 0.481199
Si Si2 0.986805 0.754161 0.908757
Si Si3 0.332710 0.738396 0.216978
Si Si4 0.341754 0.716945 0.060820
Si Si5 0.774170 0.496218 0.384598
Si Si6 0.357050 0.111288 0.634142
Si Si7 0.417219 0.286721 0.192620
O O1 0.187196 0.116078 0.320856
O O2 0.226507 0.707271 0.575661
O O3 0.000000 0.000000 0.500000
O O4 0.795141 0.774260 0.485307
O O5 0.085278 0.735231 0.001927
O O6 0.699020 0.743229 0.877612
O O7 0.187120 0.003125 0.755896
O O8 0.000000 0.500000 0.000000
O O9 0.584451 0.656098 0.286024
O O10 0.076489 0.661383 0.302368
O O11 0.438664 0.025894 0.066782
O O12 0.266555 0.641520 0.180588
O O13 0.460514 0.535084 0.109931
O O14 0.643275 0.314634 0.540909
O O15 0.373659 0.858751 0.727499
#
# Coordination Sequence:
#
# PCOD9096295 Si02
#       7
#     2   2   2   2   2   2   2
#     4  10  20  35  65 100 130 170 215 280 341 392
#     4   9  20  43  63  98 135 176 221 277 338 397
#     4  11  25  46  67 100 132 187 222 277 325 401
#     4  10  23  43  65  95 137 176 233 270 332 401
#     4  11  23  44  68  94 141 171 226 274 335 400
#     4  10  21  39  68  98 137 168 224 280 344 396
#     4   9  20  37  64  98 129 171 214 281 337 393
#
# _framework density 25.912163
#
# number of rings (size 3 to 8) (size 9 to 14) (size 15 to 20)
#    0.000    2.000    1.429    0.857    2.000    5.714 
#   12.857    1.429    0.000    0.000    0.000    0.000 
#    0.000    0.000    0.000    0.000    0.000    0.000 
#
# Total GULP energy -78152.706725 kJ/mol
# GULP energy per Si atom -5582.336195 kJ/mol
# Density = 2.585319 g / cm^3
# Si number density = 25.912163 Si / 1000 Ang^3
#
#
#
# Elastic Constant Matrix: (Units=GPa)
#
#
# Indices 1 2 3 4 5 6 
#
# 1 137.1302 28.2164 63.2214 5.4149 -7.0085 -6.4452
# 2 28.2164 101.9596 27.4145 12.7385 -1.1633 7.6692
# 3 63.2214 27.4145 92.1541 -9.3138 -14.7241 0.6172
# 4 5.4149 12.7385 -9.3138 30.3888 0.1781 4.2835
# 5 -7.0085 -1.1633 -14.7241 0.1781 51.7424 -4.7869
# 6 -6.4452 7.6692 0.6172 4.2835 -4.7869 14.3194
#
#
#
# Elastic Compliance Matrix: (Units=1/GPa)
#
#
# Indices 1 2 3 4 5 6 
#
# 1 0.012034 -0.000924 -0.008604 -0.005507 -0.000090 0.007899
# 2 -0.000924 0.012119 -0.003688 -0.005241 -0.001407 -0.005650
# 3 -0.008604 -0.003688 0.019471 0.009634 0.003859 -0.004329
# 4 -0.005507 -0.005241 0.009634 0.040735 0.000621 -0.012065
# 5 -0.000090 -0.001407 0.003859 0.000621 0.021063 0.007402
# 6 0.007899 -0.005650 -0.004329 -0.012065 0.007402 0.082687
#
#
# Mechanical properties :
#
#
# Convention : Reuss Voigt Hill
#
# Bulk Modulus (GPa) = 58.17173 63.21649 60.69411
# Shear Modulus (GPa) = 22.69923 33.44956 28.07439
#
# Velocity S-wave (km/s) = 2.96295 3.59678 3.29514
# Velocity P-wave (km/s) = 5.84840 6.45744 6.16045
#
# Compressibility (1/GPa) = 0.01719048
#
# Stress axis : x y z
#
# Youngs Moduli (GPa) = 83.10117 82.51625 51.35894
#
# Poissons Ratio (x) = 0.07623 0.44192
# Poissons Ratio (y) = 0.07677 0.18942
# Poissons Ratio (z) = 0.71504 0.30433
#
# Static dielectric constant tensor:
#      x y z
#    x 2.124090 0.078590 -0.043050 
#    y 0.078590 2.143460 0.015190 
#    z -0.043050 0.015190 2.086440 
# 
# From -- ./inp_files/582953.got.cif
#   From: 2010.05.17/outbox.cif.g08.bks.cpg/sg2_292_cif.got.tgz:582953.got - 2010.06.03 11:33:40.
