data_PCOD9096642
_publ_section_title
;
Structure prediction by ZEFSAII (Michael W. Deem and Ramdas Pophale) SiO2 
 PCOD9096642
Probable space group: P -1
;
_chemical_formula_sum "Si O2"
_cell_formula_units_Z 14
_cell_length_a 10.940944
_cell_length_b 10.994456
_cell_length_c 13.682263
_cell_angle_alpha 88.895007
_cell_angle_beta 101.421025
_cell_angle_gamma 25.185398
_cell_volume 603.817005
_symmetry_space_group_name_H-M "P -1"
_symmetry_group_IT_number 2
_symmetry_cell_setting 'triclinic'
loop_
_space_group_symop_operation_xyz
x,y,z
-x,-y,-z
loop_
_atom_site_type_symbol
_atom_site_label
_atom_site_fract_x
_atom_site_fract_y
_atom_site_fract_z
Si Si1 0.888586 0.831774 0.401384
Si Si2 0.357134 0.477737 0.968865
Si Si3 0.743772 0.205276 0.854873
Si Si4 0.597080 0.830256 0.108288
Si Si5 0.322772 0.145696 0.258018
Si Si6 0.433176 0.918134 0.465801
Si Si7 0.236920 0.846967 0.777529
O O1 0.244894 0.449262 0.450062
O O2 0.605795 0.990042 0.323665
O O3 0.848970 0.878476 0.511622
O O4 0.839656 0.995060 0.326053
O O5 0.654434 0.281805 0.958736
O O6 0.383401 0.324888 0.922870
O O7 0.462066 0.374520 0.101203
O O8 0.985841 0.868100 0.891141
O O9 0.366505 0.596816 0.766072
O O10 0.935403 0.111521 0.803178
O O11 0.962911 0.529026 0.212226
O O12 0.346004 0.082375 0.151717
O O13 0.500000 0.000000 0.000000
O O14 0.365953 0.991510 0.339296
O O15 0.500000 0.000000 0.500000
#
# Coordination Sequence:
#
# PCOD9096642 Si02
#       7
#     2   2   2   2   2   2   2
#     4  11  21  35  59  89 114 143 183 239 290 326
#     4  11  21  36  54  79 115 151 184 220 269 339
#     4  10  21  36  55  79 110 146 186 230 281 332
#     4  12  25  38  56  85 117 156 191 218 261 333
#     4  11  22  39  56  81 119 155 185 223 271 337
#     4  10  20  36  57  82 113 149 187 230 283 336
#     4  11  20  34  57  85 112 140 180 238 288 323
#
# _framework density 23.185831
#
# number of rings (size 3 to 8) (size 9 to 14) (size 15 to 20)
#    0.000    1.143    0.000   10.714    0.000    2.286 
#    0.000    0.000    0.000    0.000    0.000   70.000 
#    0.000    0.000    0.000    0.000    0.000    0.000 
#
# Total GULP energy -77982.476335 kJ/mol
# GULP energy per Si atom -5570.176881 kJ/mol
# Density = 2.313306 g / cm^3
# Si number density = 23.185831 Si / 1000 Ang^3
#
#
#
# Elastic Constant Matrix: (Units=GPa)
#
#
# Indices 1 2 3 4 5 6 
#
# 1 60.4284 -31.7728 13.3795 -6.5223 -24.3519 -50.0503
# 2 -31.7728 285.8264 62.2270 33.5733 -29.1501 114.0822
# 3 13.3795 62.2270 107.5378 22.7163 -49.7944 39.8144
# 4 -6.5223 33.5733 22.7163 48.2475 -5.4647 16.6913
# 5 -24.3519 -29.1501 -49.7944 -5.4647 49.9800 -2.2758
# 6 -50.0503 114.0822 39.8144 16.6913 -2.2758 124.1310
#
#
#
# Elastic Compliance Matrix: (Units=1/GPa)
#
#
# Indices 1 2 3 4 5 6 
#
# 1 0.037494 -0.000461 -0.004612 0.003385 0.014541 0.016832
# 2 -0.000461 0.006237 0.000795 -0.002357 0.003684 -0.005789
# 3 -0.004612 0.000795 0.023783 -0.006944 0.020747 -0.008904
# 4 0.003385 -0.002357 -0.006944 0.024849 -0.003820 0.002347
# 5 0.014541 0.003684 0.020747 -0.003820 0.049368 -0.002758
# 6 0.016832 -0.005789 -0.008904 0.002347 -0.002758 0.022653
#
#
# Mechanical properties :
#
#
# Convention : Reuss Voigt Hill
#
# Bulk Modulus (GPa) = 16.96094 60.16223 38.56158
# Shear Modulus (GPa) = 25.96174 71.80231 48.88202
#
# Velocity S-wave (km/s) = 3.34986 5.57094 4.59657
# Velocity P-wave (km/s) = 4.72156 8.20882 6.69619
#
# Compressibility (1/GPa) = 0.05895901
#
# Stress axis : x y z
#
# Youngs Moduli (GPa) = 26.67124 160.32384 42.04724
#
# Poissons Ratio (x) = 0.07388 0.19391
# Poissons Ratio (y) = 0.01229 -0.03343
# Poissons Ratio (z) = 0.12300 -0.12747
#
# Static dielectric constant tensor:
#      x y z
#    x 1.979450 -0.024040 0.073980 
#    y -0.024040 1.929280 0.046360 
#    z 0.073980 0.046360 1.927000 
# 
# From -- ./inp_files/433753.got.cif
#   From: 2010.05.17/outbox.cif.g08.bks.cpg/sg2_217_cif.got.tgz:433753.got - 2010.06.03 11:33:40.
