data_PCOD9096433
_publ_section_title
;
Structure prediction by ZEFSAII (Michael W. Deem and Ramdas Pophale) SiO2 
 PCOD9096433
Probable space group: P -1
;
_chemical_formula_sum "Si O2"
_cell_formula_units_Z 14
_cell_length_a 15.455068
_cell_length_b 29.001036
_cell_length_c 15.896018
_cell_angle_alpha 20.146238
_cell_angle_beta 19.490887
_cell_angle_gamma 19.525023
_cell_volume 708.988407
_symmetry_space_group_name_H-M "P -1"
_symmetry_group_IT_number 2
_symmetry_cell_setting 'triclinic'
loop_
_space_group_symop_operation_xyz
x,y,z
-x,-y,-z
loop_
_atom_site_type_symbol
_atom_site_label
_atom_site_fract_x
_atom_site_fract_y
_atom_site_fract_z
Si Si1 0.747848 0.825040 0.548950
Si Si2 0.859436 0.134231 0.329231
Si Si3 0.145090 0.017257 0.579612
Si Si4 0.742066 0.297157 0.564982
Si Si5 0.144336 0.315894 0.671321
Si Si6 0.336474 0.390989 0.908781
Si Si7 0.150180 0.148979 0.778595
O O1 0.885575 0.800298 0.372686
O O2 0.999453 0.764110 0.495358
O O3 0.500000 0.000000 0.500000
O O4 0.616562 0.710979 0.879018
O O5 0.911487 0.039982 0.357478
O O6 0.501429 0.237510 0.492434
O O7 0.000000 0.000000 0.500000
O O8 0.006700 0.241777 0.990031
O O9 0.490297 0.971704 0.341892
O O10 0.906784 0.194641 0.510438
O O11 0.055024 0.927418 0.884635
O O12 0.496122 0.280425 0.872204
O O13 0.572614 0.478284 0.386428
O O14 0.097478 0.267492 0.701500
O O15 0.000000 0.500000 0.500000
O O16 0.000000 0.500000 0.000000
#
# Coordination Sequence:
#
# PCOD9096433 Si02
#       7
#     2   2   2   2   2   2   2
#     4  11  20  33  57  83 112 149 197 236 279 344
#     4  10  21  40  64  92 118 152 208 247 293 367
#     4  10  21  37  59  85 116 152 189 242 292 342
#     4  10  20  36  55  76 114 158 187 237 294 333
#     4  10  21  41  64  88 126 160 188 252 314 353
#     4   9  21  36  49  74 113 151 192 236 284 333
#     4  10  22  36  57  91 117 147 197 238 286 351
#
# _framework density 19.746442999999999
#
# number of rings (size 3 to 8) (size 9 to 14) (size 15 to 20)
#    0.000    2.000    1.429    1.714    4.000    1.143 
#    2.571    4.286    0.000    0.000    0.000    0.000 
#    0.000    0.000    0.000    0.000    0.000    0.000 
#
# Total GULP energy -77945.141416 kJ/mol
# GULP energy per Si atom -5567.510101 kJ/mol
# Density = 1.970150 g / cm^3
# Si number density = 19.746443 Si / 1000 Ang^3
#
#
#
# Elastic Constant Matrix: (Units=GPa)
#
#
# Indices 1 2 3 4 5 6 
#
# 1 48.6866 36.8780 45.8043 -9.9354 19.4322 -4.8264
# 2 36.8780 135.3283 48.1732 -9.0319 4.4204 6.3693
# 3 45.8043 48.1732 113.3609 -6.8375 26.0067 2.2009
# 4 -9.9354 -9.0319 -6.8375 34.6065 -3.6655 0.7497
# 5 19.4322 4.4204 26.0067 -3.6655 31.3444 -2.5442
# 6 -4.8264 6.3693 2.2009 0.7497 -2.5442 21.1046
#
#
#
# Elastic Compliance Matrix: (Units=1/GPa)
#
#
# Indices 1 2 3 4 5 6 
#
# 1 0.046748 -0.008243 -0.011400 0.007001 -0.016558 0.012123
# 2 -0.008243 0.010486 -0.002197 0.000576 0.005180 -0.004217
# 3 -0.011400 -0.002197 0.015796 -0.001292 -0.006228 -0.004296
# 4 0.007001 0.000576 -0.001292 0.030822 0.000296 0.000503
# 5 -0.016558 0.005180 -0.006228 0.000296 0.046715 0.000921
# 6 0.012123 -0.004217 -0.004296 0.000503 0.000921 0.051969
#
#
# Mechanical properties :
#
#
# Convention : Reuss Voigt Hill
#
# Bulk Modulus (GPa) = 34.07373 62.12078 48.09725
# Shear Modulus (GPa) = 19.53136 28.51247 24.02192
#
# Velocity S-wave (km/s) = 3.14842 3.80403 3.49165
# Velocity P-wave (km/s) = 5.52357 7.12893 6.37697
#
# Compressibility (1/GPa) = 0.02934812
#
# Stress axis : x y z
#
# Youngs Moduli (GPa) = 21.39126 95.36961 63.30897
#
# Poissons Ratio (x) = 0.78618 0.72174
# Poissons Ratio (y) = 0.17634 0.13907
# Poissons Ratio (z) = 0.24387 0.20950
#
# Static dielectric constant tensor:
#      x y z
#    x 1.705060 0.003490 -0.047900 
#    y 0.003490 1.709530 0.015820 
#    z -0.047900 0.015820 1.869580 
# 
# From -- ./inp_files/36331.got.cif
#   From: 2010.05.17/outbox.cif.g08.bks.cpg/sg2_19_cif.got.tgz:36331.got - 2010.06.03 11:33:40.
