data_PCOD9096864
_publ_section_title
;
Structure prediction by ZEFSAII (Michael W. Deem and Ramdas Pophale) SiO2 
 PCOD9096864
Probable space group: P -1
;
_chemical_formula_sum "Si O2"
_cell_formula_units_Z 16
_cell_length_a 8.639927
_cell_length_b 11.308120
_cell_length_c 15.186759
_cell_angle_alpha 121.683466
_cell_angle_beta 69.938455
_cell_angle_gamma 63.694110
_cell_volume 742.457268
_symmetry_space_group_name_H-M "P -1"
_symmetry_group_IT_number 2
_symmetry_cell_setting 'triclinic'
loop_
_space_group_symop_operation_xyz
x,y,z
-x,-y,-z
loop_
_atom_site_type_symbol
_atom_site_label
_atom_site_fract_x
_atom_site_fract_y
_atom_site_fract_z
Si Si1 0.713521 0.316163 0.260897
Si Si2 0.723272 0.024027 0.045620
Si Si3 0.128973 0.312027 0.648257
Si Si4 0.842149 0.987226 0.580134
Si Si5 0.324885 0.013389 0.659166
Si Si6 0.596187 0.793684 0.984545
Si Si7 0.311707 0.279937 0.866979
Si Si8 0.821620 0.196867 0.394455
O O1 0.664283 0.189478 0.188053
O O2 0.802480 0.265520 0.326021
O O3 0.441886 0.579292 0.415220
O O4 0.960704 0.203283 0.109872
O O5 0.621129 0.126561 0.006690
O O6 0.580322 0.970806 0.067822
O O7 0.195260 0.203058 0.687931
O O8 0.877566 0.573647 0.800356
O O9 0.091343 0.202294 0.552014
O O10 0.390077 0.213516 0.523248
O O11 0.523816 0.211645 0.733155
O O12 0.000000 0.000000 0.500000
O O13 0.941800 0.915335 0.632706
O O14 0.358701 0.084037 0.766498
O O15 0.167696 0.976372 0.684562
O O16 0.615073 0.720787 0.049952
O O17 0.000000 0.500000 0.000000
#
# Coordination Sequence:
#
# PCOD9096864 Si02
#       8
#     2   2   2   2   2   2   2   2
#     4  10  22  39  60  86 118 155 198 251 304 353
#     4  10  22  39  60  86 118 155 198 251 304 353
#     4  10  20  36  58  85 120 161 202 242 294 362
#     4  11  23  39  60  89 125 160 201 249 298 358
#     4  10  20  36  58  85 120 161 202 242 294 362
#     4  11  21  38  62  87 117 158 203 247 297 355
#     4  11  23  39  60  89 125 160 201 249 298 358
#     4  11  21  38  62  87 117 158 203 247 297 355
#
# _framework density 21.550062
#
# number of rings (size 3 to 8) (size 9 to 14) (size 15 to 20)
#    0.000    1.500    2.500    3.000    0.000    1.000 
#    0.000    3.750    0.000   12.000    0.000    0.000 
#    0.000    0.000    0.000    0.000    0.000    0.000 
#
# Total GULP energy -89294.557281 kJ/mol
# GULP energy per Si atom -5580.909830 kJ/mol
# Density = 2.150101 g / cm^3
# Si number density = 21.550062 Si / 1000 Ang^3
#
#
#
# Elastic Constant Matrix: (Units=GPa)
#
#
# Indices 1 2 3 4 5 6 
#
# 1 80.7761 11.7857 22.3275 -3.7590 5.2758 -11.0679
# 2 11.7857 31.8786 13.8990 -0.7739 -3.6708 -22.2909
# 3 22.3275 13.8990 103.3103 15.2873 -0.6422 -9.3100
# 4 -3.7590 -0.7739 15.2873 23.9136 -13.4805 2.3440
# 5 5.2758 -3.6708 -0.6422 -13.4805 30.0088 0.7676
# 6 -11.0679 -22.2909 -9.3100 2.3440 0.7676 32.7700
#
#
#
# Elastic Compliance Matrix: (Units=1/GPa)
#
#
# Indices 1 2 3 4 5 6 
#
# 1 0.014093 -0.002699 -0.002953 0.002922 -0.001607 0.001914
# 2 -0.002699 0.064559 -0.005396 0.006948 0.010336 0.040731
# 3 -0.002953 -0.005396 0.012724 -0.011634 -0.005092 -0.000101
# 4 0.002922 0.006948 -0.011634 0.067410 0.030449 -0.003127
# 5 -0.001607 0.010336 -0.005092 0.030449 0.048396 0.001729
# 6 0.001914 0.040731 -0.000101 -0.003127 0.001729 0.059023
#
#
# Mechanical properties :
#
#
# Convention : Reuss Voigt Hill
#
# Bulk Modulus (GPa) = 14.43372 34.66548 24.54960
# Shear Modulus (GPa) = 16.05690 28.53532 22.29611
#
# Velocity S-wave (km/s) = 2.73261 3.64282 3.22004
# Velocity P-wave (km/s) = 4.08271 5.81502 5.02409
#
# Compressibility (1/GPa) = 0.06928220
#
# Stress axis : x y z
#
# Youngs Moduli (GPa) = 70.95727 15.48971 78.58967
#
# Poissons Ratio (x) = 0.04181 0.23204
# Poissons Ratio (y) = 0.19151 0.42404
# Poissons Ratio (z) = 0.20950 0.08358
#
# Static dielectric constant tensor:
#      x y z
#    x 1.770000 -0.022830 -0.022340 
#    y -0.022830 1.830230 -0.051110 
#    z -0.022340 -0.051110 1.803960 
# 
# From -- ./inp_files/177771.got.cif
#   From: 2010.05.17/outbox.cif.g08.bks.cpg/sg2_89_cif.got.tgz:177771.got - 2010.06.03 11:33:40.
