data_PCOD9096730
_publ_section_title
;
Structure prediction by ZEFSAII (Michael W. Deem and Ramdas Pophale) SiO2 
 PCOD9096730
Probable space group: P -1
;
_chemical_formula_sum "Si O2"
_cell_formula_units_Z 16
_cell_length_a 17.907569
_cell_length_b 8.615629
_cell_length_c 6.128312
_cell_angle_alpha 62.490754
_cell_angle_beta 106.935350
_cell_angle_gamma 122.271196
_cell_volume 707.805789
_symmetry_space_group_name_H-M "P -1"
_symmetry_group_IT_number 2
_symmetry_cell_setting 'triclinic'
loop_
_space_group_symop_operation_xyz
x,y,z
-x,-y,-z
loop_
_atom_site_type_symbol
_atom_site_label
_atom_site_fract_x
_atom_site_fract_y
_atom_site_fract_z
Si Si1 0.169548 0.492133 0.446403
Si Si2 0.567798 0.254184 0.783410
Si Si3 0.653148 0.493420 0.326456
Si Si4 0.701861 0.904237 0.889318
Si Si5 0.010076 0.096095 0.694352
Si Si6 0.251985 0.730194 0.980507
Si Si7 0.849897 0.186766 0.546434
Si Si8 0.480361 0.156494 0.185283
O O1 0.268969 0.567983 0.570929
O O2 0.107744 0.280631 0.633904
O O3 0.189088 0.522001 0.184623
O O4 0.128842 0.635892 0.380854
O O5 0.613974 0.458250 0.560212
O O6 0.650950 0.251624 0.983087
O O7 0.532184 0.066360 0.707355
O O8 0.487247 0.216686 0.894925
O O9 0.569228 0.338649 0.223892
O O10 0.692223 0.713263 0.130220
O O11 0.604054 0.853984 0.759732
O O12 0.728285 0.090111 0.952363
O O13 0.776212 0.981251 0.719489
O O14 0.936006 0.168679 0.577793
O O15 0.000000 0.000000 0.500000
O O16 0.000000 0.000000 0.000000
O O17 0.198109 0.759511 0.722187
#
# Coordination Sequence:
#
# PCOD9096730 Si02
#       8
#     2   2   2   2   2   2   2   2
#     4  10  24  44  70 102 135 182 236 284 348 428
#     4   9  20  36  57  90 125 175 230 282 335 418
#     4  11  21  37  62  89 137 169 233 281 356 399
#     4  10  23  38  59  96 135 175 229 287 347 415
#     4  12  30  50  78 112 147 181 230 296 364 422
#     4   9  21  40  65  94 132 182 229 280 346 413
#     4  11  24  45  74  94 138 183 232 282 353 427
#     4  10  20  36  57  88 131 177 229 278 343 413
#
# _framework density 22.605072
#
# number of rings (size 3 to 8) (size 9 to 14) (size 15 to 20)
#    0.000    1.750    0.000    3.375    7.000    5.000 
#    2.250    0.000    0.000    0.000    0.000    0.000 
#    0.000    0.000    0.000    0.000    0.000    0.000 
#
# Total GULP energy -89180.291953 kJ/mol
# GULP energy per Si atom -5573.768247 kJ/mol
# Density = 2.255362 g / cm^3
# Si number density = 22.605072 Si / 1000 Ang^3
#
#
#
# Elastic Constant Matrix: (Units=GPa)
#
#
# Indices 1 2 3 4 5 6 
#
# 1 51.9611 12.8561 -17.6976 -0.1533 -9.7825 12.9470
# 2 12.8561 35.5593 24.9781 -13.7506 -13.8212 17.5714
# 3 -17.6976 24.9781 85.3740 -27.2300 -8.4673 15.0943
# 4 -0.1533 -13.7506 -27.2300 36.9613 10.2727 -5.3905
# 5 -9.7825 -13.8212 -8.4673 10.2727 29.1470 -10.2932
# 6 12.9470 17.5714 15.0943 -5.3905 -10.2932 31.4721
#
#
#
# Elastic Compliance Matrix: (Units=1/GPa)
#
#
# Indices 1 2 3 4 5 6 
#
# 1 0.029765 -0.012586 0.012690 0.002418 0.003403 -0.009777
# 2 -0.012586 0.056073 -0.013460 0.005592 0.011164 -0.015064
# 3 0.012690 -0.013460 0.023078 0.011548 -0.002136 -0.007494
# 4 0.002418 0.005592 0.011548 0.039329 -0.009128 -0.005905
# 5 0.003403 0.011164 -0.002136 -0.009128 0.045738 0.006787
# 6 -0.009777 -0.015064 -0.007494 -0.005905 0.006787 0.049010
#
#
# Mechanical properties :
#
#
# Convention : Reuss Voigt Hill
#
# Bulk Modulus (GPa) = 12.16492 23.68528 17.92510
# Shear Modulus (GPa) = 16.82894 29.69993 23.26443
#
# Velocity S-wave (km/s) = 2.73147 3.62865 3.21155
# Velocity P-wave (km/s) = 3.91677 5.29687 4.65821
#
# Compressibility (1/GPa) = 0.08220358
#
# Stress axis : x y z
#
# Youngs Moduli (GPa) = 33.59637 17.83392 43.33103
#
# Poissons Ratio (x) = 0.22446 -0.54986
# Poissons Ratio (y) = 0.42285 0.58324
# Poissons Ratio (z) = -0.42633 0.24005
#
# Static dielectric constant tensor:
#      x y z
#    x 1.807160 -0.018960 -0.045040 
#    y -0.018960 1.859780 0.044270 
#    z -0.045040 0.044270 1.992040 
# 
# From -- ./inp_files/106354.got.cif
#   From: 2010.05.17/outbox.cif.g08.bks.cpg/sg2_54_cif.got.tgz:106354.got - 2010.06.03 11:33:40.
