data_PCOD9096043
_publ_section_title
;
Structure prediction by ZEFSAII (Michael W. Deem and Ramdas Pophale) SiO2 
 PCOD9096043
Probable space group: P -1
;
_chemical_formula_sum "Si O2"
_cell_formula_units_Z 14
_cell_length_a 10.024190
_cell_length_b 8.492181
_cell_length_c 11.405527
_cell_angle_alpha 116.293393
_cell_angle_beta 140.983505
_cell_angle_gamma 82.238718
_cell_volume 508.993741
_symmetry_space_group_name_H-M "P -1"
_symmetry_group_IT_number 2
_symmetry_cell_setting 'triclinic'
loop_
_space_group_symop_operation_xyz
x,y,z
-x,-y,-z
loop_
_atom_site_type_symbol
_atom_site_label
_atom_site_fract_x
_atom_site_fract_y
_atom_site_fract_z
Si Si1 0.265561 0.543852 0.673460
Si Si2 0.397338 0.193173 0.716072
Si Si3 0.119186 0.034851 0.257972
Si Si4 0.889945 0.242578 0.037104
Si Si5 0.251910 0.298572 0.962935
Si Si6 0.312763 0.541554 0.307593
Si Si7 0.207468 0.772511 0.487035
O O1 0.296795 0.357674 0.690403
O O2 0.515846 0.696519 0.936209
O O3 0.275409 0.644129 0.583625
O O4 0.000000 0.500000 0.500000
O O5 0.667633 0.266375 0.940711
O O6 0.285790 0.994085 0.644471
O O7 0.332913 0.110584 0.512503
O O8 0.174543 0.943895 0.149121
O O9 0.896079 0.882928 0.119244
O O10 0.045640 0.209561 0.233976
O O11 0.058230 0.404388 0.124830
O O12 0.333648 0.477418 0.168454
O O13 0.062881 0.302189 0.743551
O O14 0.500000 0.500000 0.500000
O O15 0.311995 0.738526 0.421650
#
# Coordination Sequence:
#
# PCOD9096043 Si02
#       7
#     2   2   2   2   2   2   2
#     4  12  27  46  68  94 130 177 231 283 328 383
#     4  11  24  41  67  96 126 174 225 269 328 394
#     4   9  20  36  62  99 133 171 213 266 324 395
#     4  10  20  35  61  97 140 174 212 257 324 404
#     4  10  22  42  65  96 134 177 216 265 338 394
#     4  11  21  37  66 100 139 179 203 261 338 399
#     4  11  24  44  69  98 137 172 216 275 332 396
#
# _framework density 27.505248999999999
#
# number of rings (size 3 to 8) (size 9 to 14) (size 15 to 20)
#    0.000    1.429    1.429    3.429    4.000    3.429 
#    0.000    2.857    0.000    0.000    0.000    0.000 
#    0.000    0.000    0.000    0.000    0.000    0.000 
#
# Total GULP energy -78211.566169 kJ/mol
# GULP energy per Si atom -5586.540441 kJ/mol
# Density = 2.744265 g / cm^3
# Si number density = 27.505249 Si / 1000 Ang^3
#
#
#
# Elastic Constant Matrix: (Units=GPa)
#
#
# Indices 1 2 3 4 5 6 
#
# 1 106.4838 41.9503 27.7856 2.6382 29.7689 0.3455
# 2 41.9503 194.3828 57.9368 -11.6978 10.4382 -0.6949
# 3 27.7856 57.9368 130.5464 -6.8832 46.7401 -15.0256
# 4 2.6382 -11.6978 -6.8832 59.8925 -6.6111 7.2906
# 5 29.7689 10.4382 46.7401 -6.6111 49.8653 -8.7756
# 6 0.3455 -0.6949 -15.0256 7.2906 -8.7756 26.9743
#
#
#
# Elastic Compliance Matrix: (Units=1/GPa)
#
#
# Indices 1 2 3 4 5 6 
#
# 1 0.012636 -0.002778 0.001400 -0.001685 -0.008826 -0.001870
# 2 -0.002778 0.006771 -0.003836 0.001562 0.003851 -0.001096
# 3 0.001400 -0.003836 0.013955 -0.001064 -0.012576 0.003853
# 4 -0.001685 0.001562 -0.001064 0.017838 0.003288 -0.004283
# 5 -0.008826 0.003851 -0.012576 0.003288 0.037538 0.004531
# 6 -0.001870 -0.001096 0.003853 -0.004283 0.004531 0.041846
#
#
# Mechanical properties :
#
#
# Convention : Reuss Voigt Hill
#
# Bulk Modulus (GPa) = 43.60864 76.30648 59.95756
# Shear Modulus (GPa) = 33.63480 47.59580 40.61530
#
# Velocity S-wave (km/s) = 3.50072 4.16435 3.84687
# Velocity P-wave (km/s) = 5.67707 7.13619 6.44804
#
# Compressibility (1/GPa) = 0.02293124
#
# Stress axis : x y z
#
# Youngs Moduli (GPa) = 79.14114 147.69360 71.66102
#
# Poissons Ratio (x) = 0.41033 -0.10030
# Poissons Ratio (y) = 0.21987 0.27491
# Poissons Ratio (z) = -0.11076 0.56659
#
# Static dielectric constant tensor:
#      x y z
#    x 2.265940 -0.042420 -0.069040 
#    y -0.042420 2.236310 0.015440 
#    z -0.069040 0.015440 2.089890 
# 
# From -- ./inp_files/381975.got.cif
#   From: 2010.05.17/outbox.cif.g08.bks.cpg/sg2_191_cif.got.tgz:381975.got - 2010.06.03 11:33:40.
