data_PCOD9096676
_publ_section_title
;
Structure prediction by ZEFSAII (Michael W. Deem and Ramdas Pophale) SiO2 
 PCOD9096676
Probable space group: P -1
;
_chemical_formula_sum "Si O2"
_cell_formula_units_Z 14
_cell_length_a 14.088501
_cell_length_b 13.014809
_cell_length_c 13.032003
_cell_angle_alpha 44.489711
_cell_angle_beta 21.138034
_cell_angle_gamma 49.275917
_cell_volume 603.072373
_symmetry_space_group_name_H-M "P -1"
_symmetry_group_IT_number 2
_symmetry_cell_setting 'triclinic'
loop_
_space_group_symop_operation_xyz
x,y,z
-x,-y,-z
loop_
_atom_site_type_symbol
_atom_site_label
_atom_site_fract_x
_atom_site_fract_y
_atom_site_fract_z
Si Si1 0.247970 0.948694 0.724780
Si Si2 0.809834 0.553022 0.528227
Si Si3 0.544214 0.328516 0.367774
Si Si4 0.802482 0.958818 0.526945
Si Si5 0.335258 0.139073 0.910525
Si Si6 0.711458 0.640589 0.781477
Si Si7 0.757704 0.556967 0.138292
O O1 0.273317 0.774906 0.807920
O O2 0.500000 0.000000 0.500000
O O3 0.246235 0.008462 0.567941
O O4 0.000000 0.000000 0.000000
O O5 0.699918 0.622014 0.487445
O O6 0.779248 0.663339 0.576185
O O7 0.092106 0.485037 0.296417
O O8 0.590794 0.418773 0.865190
O O9 0.420409 0.230435 0.656309
O O10 0.715778 0.467082 0.140402
O O11 0.766865 0.783978 0.691761
O O12 0.587970 0.045773 0.745430
O O13 0.089371 0.027119 0.216772
O O14 0.249663 0.267056 0.982611
O O15 0.500000 0.500000 0.500000
O O16 0.000000 0.500000 0.000000
#
# Coordination Sequence:
#
# PCOD9096676 Si02
#       7
#     2   2   2   2   2   2   2
#     4  11  22  33  51  82 114 141 175 225 280 335
#     4  10  22  38  57  81 111 150 196 230 268 327
#     4  10  22  38  60  86 116 148 186 233 287 334
#     4  11  21  37  57  79 113 150 185 224 284 340
#     4  10  21  36  59  87 110 142 182 234 290 338
#     4  10  22  38  56  79 111 155 193 229 268 324
#     4  10  20  36  57  84 116 144 182 230 285 343
#
# _framework density 23.214461
#
# number of rings (size 3 to 8) (size 9 to 14) (size 15 to 20)
#    0.000    1.714    0.000    6.000    0.000   10.286 
#    0.000    0.000    0.000    5.143    0.000    0.000 
#    0.000    0.000    0.000    0.000    0.000    0.000 
#
# Total GULP energy -78332.250749 kJ/mol
# GULP energy per Si atom -5595.160768 kJ/mol
# Density = 2.316162 g / cm^3
# Si number density = 23.214461 Si / 1000 Ang^3
#
#
#
# Elastic Constant Matrix: (Units=GPa)
#
#
# Indices 1 2 3 4 5 6 
#
# 1 49.6247 14.7019 15.9078 9.2567 -9.6262 14.5926
# 2 14.7019 154.8107 27.7482 -1.8881 -4.4587 35.0174
# 3 15.9078 27.7482 104.2717 13.5938 -25.6097 15.9446
# 4 9.2567 -1.8881 13.5938 40.9251 -1.1331 -6.6469
# 5 -9.6262 -4.4587 -25.6097 -1.1331 27.5538 -1.1501
# 6 14.5926 35.0174 15.9446 -6.6469 -1.1501 35.2891
#
#
#
# Elastic Compliance Matrix: (Units=1/GPa)
#
#
# Indices 1 2 3 4 5 6 
#
# 1 0.027052 0.000420 0.001349 -0.008465 0.009862 -0.013486
# 2 0.000420 0.008453 -0.000863 -0.000758 0.000335 -0.008304
# 3 0.001349 -0.000863 0.014816 -0.006043 0.013558 -0.007093
# 4 -0.008465 -0.000758 -0.006043 0.030149 -0.006938 0.012435
# 5 0.009862 0.000335 0.013558 -0.006938 0.051684 -0.010159
# 6 -0.013486 -0.008304 -0.007093 0.012435 -0.010159 0.047370
#
#
# Mechanical properties :
#
#
# Convention : Reuss Voigt Hill
#
# Bulk Modulus (GPa) = 19.18119 47.26922 33.22520
# Shear Modulus (GPa) = 25.62926 37.44354 31.53640
#
# Velocity S-wave (km/s) = 3.32629 4.02050 3.68976
# Velocity P-wave (km/s) = 4.79925 6.47756 5.70050
#
# Compressibility (1/GPa) = 0.05213441
#
# Stress axis : x y z
#
# Youngs Moduli (GPa) = 36.96598 118.30305 67.49264
#
# Poissons Ratio (x) = -0.04974 -0.09104
# Poissons Ratio (y) = -0.01554 0.05823
# Poissons Ratio (z) = -0.04986 0.10206
#
# Static dielectric constant tensor:
#      x y z
#    x 1.885280 0.020730 0.071110 
#    y 0.020730 1.895920 -0.010040 
#    z 0.071110 -0.010040 1.855530 
# 
# From -- ./inp_files/65568.got.cif
#   From: 2010.05.17/outbox.cif.g08.bks.cpg/sg2_33_cif.got.tgz:65568.got - 2010.06.03 11:33:40.
