data_PCOD9096816
_publ_section_title
;
Structure prediction by ZEFSAII (Michael W. Deem and Ramdas Pophale) SiO2 
 PCOD9096816
Probable space group: P -1
;
_chemical_formula_sum "Si O2"
_cell_formula_units_Z 16
_cell_length_a 13.432287
_cell_length_b 15.108426
_cell_length_c 5.208995
_cell_angle_alpha 76.596704
_cell_angle_beta 116.745477
_cell_angle_gamma 139.234800
_cell_volume 605.534409
_symmetry_space_group_name_H-M "P -1"
_symmetry_group_IT_number 2
_symmetry_cell_setting 'triclinic'
loop_
_space_group_symop_operation_xyz
x,y,z
-x,-y,-z
loop_
_atom_site_type_symbol
_atom_site_label
_atom_site_fract_x
_atom_site_fract_y
_atom_site_fract_z
Si Si1 0.648117 0.020490 0.587949
Si Si2 0.580091 0.218160 0.885362
Si Si3 0.065170 0.150693 0.752693
Si Si4 0.262474 0.107036 0.144658
Si Si5 0.136519 0.711856 0.583618
Si Si6 0.859937 0.453144 0.676098
Si Si7 0.228155 0.328621 0.347517
Si Si8 0.513448 0.359715 0.652433
O O1 0.582246 0.929486 0.318890
O O2 0.673366 0.950612 0.850686
O O3 0.500000 0.000000 0.500000
O O4 0.818645 0.179768 0.626017
O O5 0.688210 0.334790 0.706450
O O6 0.539367 0.290315 0.926642
O O7 0.701109 0.207063 0.103739
O O8 0.088296 0.224702 0.474615
O O9 0.160886 0.113113 0.841886
O O10 0.156277 0.253449 0.037328
O O11 0.879288 0.010456 0.729340
O O12 0.405395 0.251952 0.361732
O O13 0.152282 0.626425 0.511030
O O14 0.952784 0.598498 0.572957
O O15 0.000000 0.500000 0.000000
O O16 0.386104 0.361203 0.596615
O O17 0.312414 0.479967 0.315257
#
# Coordination Sequence:
#
# PCOD9096816 Si02
#       8
#     2   2   2   2   2   2   2   2
#     4  11  21  38  60  90 126 164 209 254 312 378
#     4  10  20  39  58  88 118 164 205 256 310 377
#     4  10  22  45  69  96 129 168 219 268 328 382
#     4   9  22  40  64  92 129 170 211 269 323 385
#     4  10  20  36  58  83 115 163 202 254 303 363
#     4   9  19  37  57  78 114 157 203 254 302 356
#     4  10  22  43  67  97 129 165 211 275 323 390
#     4   9  21  39  62  94 127 162 209 264 332 384
#
# _framework density 26.422943
#
# number of rings (size 3 to 8) (size 9 to 14) (size 15 to 20)
#    0.000    2.250    1.250    0.375    0.000   11.000 
#   11.250    3.750    0.000    0.000    0.000    0.000 
#    0.000    0.000    0.000    0.000    0.000    0.000 
#
# Total GULP energy -89313.749956 kJ/mol
# GULP energy per Si atom -5582.109372 kJ/mol
# Density = 2.636280 g / cm^3
# Si number density = 26.422943 Si / 1000 Ang^3
#
#
#
# Elastic Constant Matrix: (Units=GPa)
#
#
# Indices 1 2 3 4 5 6 
#
# 1 53.8407 13.3999 19.4095 -11.9343 17.6167 -22.3684
# 2 13.3999 151.2533 29.1015 -24.3179 1.5685 -6.1813
# 3 19.4095 29.1015 43.4657 -10.1249 -5.5625 4.9463
# 4 -11.9343 -24.3179 -10.1249 46.2372 5.0441 13.4300
# 5 17.6167 1.5685 -5.5625 5.0441 34.3412 -10.5040
# 6 -22.3684 -6.1813 4.9463 13.4300 -10.5040 43.3319
#
#
#
# Elastic Compliance Matrix: (Units=1/GPa)
#
#
# Indices 1 2 3 4 5 6 
#
# 1 0.041977 0.002521 -0.024334 0.003612 -0.020388 0.018745
# 2 0.002521 0.008261 -0.006366 0.003480 -0.002767 0.001457
# 3 -0.024334 -0.006366 0.042370 0.002601 0.014483 -0.015601
# 4 0.003612 0.003480 0.002601 0.028439 -0.008460 -0.008801
# 5 -0.020388 -0.002767 0.014483 -0.008460 0.043473 0.000588
# 6 0.018745 0.001457 -0.015601 -0.008801 0.000588 0.037613
#
#
# Mechanical properties :
#
#
# Convention : Reuss Voigt Hill
#
# Bulk Modulus (GPa) = 27.58581 41.37572 34.48076
# Shear Modulus (GPa) = 18.47931 37.22531 27.85231
#
# Velocity S-wave (km/s) = 2.64742 3.75750 3.25021
# Velocity P-wave (km/s) = 4.45061 5.87521 5.21181
#
# Compressibility (1/GPa) = 0.03625052
#
# Stress axis : x y z
#
# Youngs Moduli (GPa) = 23.82236 121.05631 23.60179
#
# Poissons Ratio (x) = -0.30520 0.57432
# Poissons Ratio (y) = -0.06006 0.15025
# Poissons Ratio (z) = 0.57969 0.77063
#
# Static dielectric constant tensor:
#      x y z
#    x 2.386260 -0.010520 -0.022500 
#    y -0.010520 2.001890 -0.102640 
#    z -0.022500 -0.102640 1.911760 
# 
# From -- ./inp_files/97818.got.cif
#   From: 2010.05.17/outbox.cif.g08.bks.cpg/sg2_49_cif.got.tgz:97818.got - 2010.06.03 11:33:40.
