data_PCOD9096036
_publ_section_title
;
Structure prediction by ZEFSAII (Michael W. Deem and Ramdas Pophale) SiO2 
 PCOD9096036
Probable space group: P -1
;
_chemical_formula_sum "Si O2"
_cell_formula_units_Z 12
_cell_length_a 11.519200
_cell_length_b 10.395774
_cell_length_c 8.191139
_cell_angle_alpha 71.818630
_cell_angle_beta 140.814697
_cell_angle_gamma 90.571323
_cell_volume 543.113520
_symmetry_space_group_name_H-M "P -1"
_symmetry_group_IT_number 2
_symmetry_cell_setting 'triclinic'
loop_
_space_group_symop_operation_xyz
x,y,z
-x,-y,-z
loop_
_atom_site_type_symbol
_atom_site_label
_atom_site_fract_x
_atom_site_fract_y
_atom_site_fract_z
Si Si1 0.010060 0.337260 0.563841
Si Si2 0.932740 0.091812 0.166833
Si Si3 0.323651 0.613548 0.050699
Si Si4 0.272457 0.057464 0.786499
Si Si5 0.036744 0.277289 0.986256
Si Si6 0.713539 0.588244 0.631788
O O1 0.168464 0.230753 0.649656
O O2 0.069296 0.271138 0.832765
O O3 0.000000 0.500000 0.500000
O O4 0.785254 0.363840 0.249941
O O5 0.141305 0.017909 0.519956
O O6 0.783401 0.014936 0.083629
O O7 0.829732 0.253082 0.067916
O O8 0.974343 0.142508 0.015966
O O9 0.531010 0.630260 0.292025
O O10 0.340524 0.468667 0.229651
O O11 0.500000 0.000000 0.000000
O O12 0.878214 0.443035 0.787508
O O13 0.216664 0.281696 0.294167
#
# Coordination Sequence:
#
# PCOD9096036 Si02
#       6
#     2   2   2   2   2   2
#     4  11  22  39  63 100 133 162 210 277 319 364
#     4   9  21  40  63  91 121 174 219 253 314 398
#     4   9  18  35  60  90 128 169 217 253 308 388
#     4  10  23  43  67  90 125 175 216 259 320 389
#     4  10  20  35  61  95 134 165 208 267 323 373
#     4   9  18  33  59  93 126 176 208 252 319 385
#
# _framework density 22.094828
#
# number of rings (size 3 to 8) (size 9 to 14) (size 15 to 20)
#    0.000    2.333    1.667    0.000    4.667    1.333 
#    0.000    4.167    0.000    0.000    0.000    0.000 
#    0.000    0.000    0.000    0.000    0.000    0.000 
#
# Total GULP energy -66843.006185 kJ/mol
# GULP energy per Si atom -5570.250515 kJ/mol
# Density = 2.204454 g / cm^3
# Si number density = 22.094828 Si / 1000 Ang^3
#
#
#
# Elastic Constant Matrix: (Units=GPa)
#
#
# Indices 1 2 3 4 5 6 
#
# 1 98.1322 48.9058 38.6354 3.1354 6.6978 11.5389
# 2 48.9058 91.7905 38.9366 0.8125 -0.1897 8.9449
# 3 38.6354 38.9366 103.3268 22.6582 30.3855 -4.4180
# 4 3.1354 0.8125 22.6582 28.9491 8.0140 -7.4456
# 5 6.6978 -0.1897 30.3855 8.0140 32.4118 4.5854
# 6 11.5389 8.9449 -4.4180 -7.4456 4.5854 28.7896
#
#
#
# Elastic Compliance Matrix: (Units=1/GPa)
#
#
# Indices 1 2 3 4 5 6 
#
# 1 0.015248 -0.005869 -0.004131 0.000036 0.001405 -0.005136
# 2 -0.005869 0.017884 -0.007930 0.002561 0.008850 -0.005168
# 3 -0.004131 -0.007930 0.022131 -0.009380 -0.018764 0.008078
# 4 0.000036 0.002561 -0.009380 0.045489 -0.003880 0.010133
# 5 0.001405 0.008850 -0.018764 -0.003880 0.051339 -0.015373
# 6 -0.005136 -0.005168 0.008078 0.010133 -0.015373 0.044708
#
#
# Mechanical properties :
#
#
# Convention : Reuss Voigt Hill
#
# Bulk Modulus (GPa) = 51.53416 60.68946 56.11181
# Shear Modulus (GPa) = 20.90933 29.14823 25.02878
#
# Velocity S-wave (km/s) = 3.07961 3.63607 3.36934
# Velocity P-wave (km/s) = 6.00167 6.71977 6.37085
#
# Compressibility (1/GPa) = 0.01940461
#
# Stress axis : x y z
#
# Youngs Moduli (GPa) = 65.58034 55.91445 45.18567
#
# Poissons Ratio (x) = 0.32817 0.18665
# Poissons Ratio (y) = 0.38490 0.35832
# Poissons Ratio (z) = 0.27089 0.44340
#
# Static dielectric constant tensor:
#      x y z
#    x 1.920120 0.049210 -0.021720 
#    y 0.049210 1.884940 -0.019970 
#    z -0.021720 -0.019970 1.878310 
# 
# From -- ./inp_files/257745.got.cif
#   From: 2010.05.17/outbox.cif.g08.bks.cpg/sg2_129_cif.got.tgz:257745.got - 2010.06.03 11:33:40.
