data_PCOD9096292
_publ_section_title
;
Structure prediction by ZEFSAII (Michael W. Deem and Ramdas Pophale) SiO2 
 PCOD9096292
Probable space group: P -1
;
_chemical_formula_sum "Si O2"
_cell_formula_units_Z 16
_cell_length_a 10.831623
_cell_length_b 14.189339
_cell_length_c 19.465205
_cell_angle_alpha 148.505694
_cell_angle_beta 147.721763
_cell_angle_gamma 30.373891
_cell_volume 718.743851
_symmetry_space_group_name_H-M "P -1"
_symmetry_group_IT_number 2
_symmetry_cell_setting 'triclinic'
loop_
_space_group_symop_operation_xyz
x,y,z
-x,-y,-z
loop_
_atom_site_type_symbol
_atom_site_label
_atom_site_fract_x
_atom_site_fract_y
_atom_site_fract_z
Si Si1 0.308289 0.999766 0.605753
Si Si2 0.525247 0.505906 0.205220
Si Si3 0.734080 0.338794 0.556076
Si Si4 0.074693 0.131679 0.850289
Si Si5 0.194911 0.690387 0.651502
Si Si6 0.212257 0.408077 0.167674
Si Si7 0.681039 0.800602 0.119534
Si Si8 0.661447 0.817050 0.405137
O O1 0.364650 0.080720 0.755265
O O2 0.415829 0.059500 0.626868
O O3 0.988090 0.127577 0.517084
O O4 0.377162 0.762540 0.503253
O O5 0.736516 0.436841 0.324338
O O6 0.592609 0.631891 0.259490
O O7 0.225426 0.688128 0.199064
O O8 0.502953 0.303259 0.046324
O O9 0.500000 0.500000 0.500000
O O10 0.863391 0.480438 0.725658
O O11 0.281010 0.074886 0.848154
O O12 0.064744 0.937737 0.755303
O O13 0.183726 0.216205 0.014246
O O14 0.492699 0.629813 0.728272
O O15 0.979566 0.694163 0.499660
O O16 0.978151 0.595810 0.131298
O O17 0.500000 0.000000 0.500000
#
# Coordination Sequence:
#
# PCOD9096292 Si02
#       8
#     2   2   2   2   2   2   2   2
#     4  10  25  41  61  92 123 171 202 253 322 364
#     4  11  23  43  63  93 126 171 213 253 306 369
#     4  10  22  39  64  94 132 158 201 259 317 379
#     4  11  21  38  65 100 127 155 204 269 320 360
#     4  12  23  37  67  95 126 165 210 257 314 366
#     4  10  20  35  64  99 128 153 200 259 320 371
#     4  10  21  41  68  92 131 155 204 270 315 373
#     4  12  27  44  62  87 130 174 214 253 301 376
#
# _framework density 22.261060000000001
#
# number of rings (size 3 to 8) (size 9 to 14) (size 15 to 20)
#    0.000    1.250    3.750    2.250    8.750    0.500 
#    2.250    0.000    0.000    0.750    0.000    0.000 
#    0.000    0.000    0.000    0.000    0.000    0.000 
#
# Total GULP energy -89074.339839 kJ/mol
# GULP energy per Si atom -5567.146240 kJ/mol
# Density = 2.221039 g / cm^3
# Si number density = 22.261060 Si / 1000 Ang^3
#
#
#
# Elastic Constant Matrix: (Units=GPa)
#
#
# Indices 1 2 3 4 5 6 
#
# 1 71.8952 30.5551 32.6861 15.1233 10.5631 31.8682
# 2 30.5551 87.6739 26.1854 -12.1461 -14.6093 27.6715
# 3 32.6861 26.1854 102.2833 5.4608 7.1267 12.9510
# 4 15.1233 -12.1461 5.4608 32.6168 -3.2614 6.8092
# 5 10.5631 -14.6093 7.1267 -3.2614 19.1916 -0.1321
# 6 31.8682 27.6715 12.9510 6.8092 -0.1321 34.5775
#
#
#
# Elastic Compliance Matrix: (Units=1/GPa)
#
#
# Indices 1 2 3 4 5 6 
#
# 1 0.043474 -0.019857 -0.002029 -0.027742 -0.043129 -0.018119
# 2 -0.019857 0.037303 -0.006246 0.032045 0.046984 -0.015343
# 3 -0.002029 -0.006246 0.012533 -0.005051 -0.009129 0.003134
# 4 -0.027742 0.032045 -0.005051 0.063729 0.052296 -0.010535
# 5 -0.043129 0.046984 -0.009129 0.052296 0.123858 -0.004256
# 6 -0.018119 -0.015343 0.003134 -0.010535 -0.004256 0.058783
#
#
# Mechanical properties :
#
#
# Convention : Reuss Voigt Hill
#
# Bulk Modulus (GPa) = 26.99311 48.96729 37.98020
# Shear Modulus (GPa) = 12.24615 28.77224 20.50920
#
# Velocity S-wave (km/s) = 2.34800 3.59902 3.03859
# Velocity P-wave (km/s) = 4.41620 6.27019 5.42301
#
# Compressibility (1/GPa) = 0.03704649
#
# Stress axis : x y z
#
# Youngs Moduli (GPa) = 23.00222 26.80776 79.78874
#
# Poissons Ratio (x) = 0.53231 0.16189
# Poissons Ratio (y) = 0.45674 0.49837
# Poissons Ratio (z) = 0.04667 0.16745
#
# Static dielectric constant tensor:
#      x y z
#    x 1.953530 -0.013640 -0.060580 
#    y -0.013640 1.950600 -0.049280 
#    z -0.060580 -0.049280 1.950450 
# 
# From -- ./inp_files/595668.got.cif
#   From: 2010.05.17/outbox.cif.g08.bks.cpg/sg2_298_cif.got.tgz:595668.got - 2010.06.03 11:33:40.
