data_PCOD9096249
_publ_section_title
;
Structure prediction by ZEFSAII (Michael W. Deem and Ramdas Pophale) SiO2 
 PCOD9096249
Probable space group: P -1
;
_chemical_formula_sum "Si O2"
_cell_formula_units_Z 14
_cell_length_a 14.351227
_cell_length_b 10.973899
_cell_length_c 11.475413
_cell_angle_alpha 141.986208
_cell_angle_beta 52.123922
_cell_angle_gamma 144.162454
_cell_volume 650.110850
_symmetry_space_group_name_H-M "P -1"
_symmetry_group_IT_number 2
_symmetry_cell_setting 'triclinic'
loop_
_space_group_symop_operation_xyz
x,y,z
-x,-y,-z
loop_
_atom_site_type_symbol
_atom_site_label
_atom_site_fract_x
_atom_site_fract_y
_atom_site_fract_z
Si Si1 0.615661 0.071588 0.300622
Si Si2 0.394098 0.589617 0.246399
Si Si3 0.610127 0.115648 0.888528
Si Si4 0.845009 0.564598 0.889369
Si Si5 0.041387 0.406543 0.603926
Si Si6 0.906785 0.206080 0.795329
Si Si7 0.875557 0.894625 0.804997
O O1 0.600017 0.230305 0.526341
O O2 0.797259 0.283119 0.279806
O O3 0.557419 0.805955 0.211620
O O4 0.504265 0.006981 0.228832
O O5 0.263142 0.480583 0.165042
O O6 0.310747 0.315970 0.172894
O O7 0.738806 0.430466 0.988581
O O8 0.730082 0.069015 0.784888
O O9 0.500000 0.000000 0.000000
O O10 0.900486 0.404986 0.692675
O O11 0.001033 0.867484 0.022277
O O12 0.066667 0.265433 0.383330
O O13 0.006378 0.265937 0.648988
O O14 0.892397 0.029984 0.773614
O O15 0.000000 0.500000 0.000000
#
# Coordination Sequence:
#
# PCOD9096249 Si02
#       7
#     2   2   2   2   2   2   2
#     4   9  19  36  61  84 119 161 189 243 297 348
#     4   9  20  39  59  86 123 158 198 239 295 350
#     4  10  20  35  64  84 117 161 193 240 308 348
#     4  10  21  39  64  88 118 158 198 247 292 349
#     4  10  21  37  64  89 119 157 198 243 299 346
#     4  11  20  38  61  88 120 155 197 249 296 352
#     4  11  21  36  63  90 120 152 201 249 287 353
#
# _framework density 21.534787999999999
#
# number of rings (size 3 to 8) (size 9 to 14) (size 15 to 20)
#    0.000    2.000    2.857    1.714    0.000    2.286 
#    0.000    3.571   18.857    0.000    0.000    0.000 
#    0.000    0.000    0.000    0.000    0.000    0.000 
#
# Total GULP energy -78035.291916 kJ/mol
# GULP energy per Si atom -5573.949423 kJ/mol
# Density = 2.148577 g / cm^3
# Si number density = 21.534788 Si / 1000 Ang^3
#
#
#
# Elastic Constant Matrix: (Units=GPa)
#
#
# Indices 1 2 3 4 5 6 
#
# 1 35.6313 24.3607 -1.2529 2.5416 8.6104 -9.8771
# 2 24.3607 165.0098 26.5793 -9.1447 -0.9275 -21.9717
# 3 -1.2529 26.5793 72.0700 -3.7023 1.7882 -1.7929
# 4 2.5416 -9.1447 -3.7023 33.7005 -2.8720 1.0215
# 5 8.6104 -0.9275 1.7882 -2.8720 23.7172 -2.4607
# 6 -9.8771 -21.9717 -1.7929 1.0215 -2.4607 36.1422
#
#
#
# Elastic Compliance Matrix: (Units=1/GPa)
#
#
# Indices 1 2 3 4 5 6 
#
# 1 0.037465 -0.005554 0.002925 -0.005397 -0.014049 0.006203
# 2 -0.005554 0.007940 -0.002897 0.002426 0.003183 0.003314
# 3 0.002925 -0.002897 0.015066 0.000464 -0.002295 -0.000384
# 4 -0.005397 0.002426 0.000464 0.031295 0.005760 -0.000469
# 5 -0.014049 0.003183 -0.002295 0.005760 0.048374 0.001113
# 6 0.006203 0.003314 -0.000384 -0.000469 0.001113 0.031448
#
#
# Mechanical properties :
#
#
# Convention : Reuss Voigt Hill
#
# Bulk Modulus (GPa) = 20.23485 41.34281 30.78883
# Shear Modulus (GPa) = 25.11135 33.58025 29.34580
#
# Velocity S-wave (km/s) = 3.41850 3.95314 3.69550
# Velocity P-wave (km/s) = 4.99983 6.33058 5.70415
#
# Compressibility (1/GPa) = 0.04941968
#
# Stress axis : x y z
#
# Youngs Moduli (GPa) = 26.69162 125.93766 66.37518
#
# Poissons Ratio (x) = 0.69950 -0.19417
# Poissons Ratio (y) = 0.14825 0.19228
# Poissons Ratio (z) = -0.07808 0.36483
#
# Static dielectric constant tensor:
#      x y z
#    x 1.774170 -0.030800 -0.036670 
#    y -0.030800 1.860050 -0.010510 
#    z -0.036670 -0.010510 1.803040 
# 
# From -- ./inp_files/249914.got.cif
#   From: 2010.05.17/outbox.cif.g08.bks.cpg/sg2_125_cif.got.tgz:249914.got - 2010.06.03 11:33:40.
