data_PCOD9096799
_publ_section_title
;
Structure prediction by ZEFSAII (Michael W. Deem and Ramdas Pophale) SiO2 
 PCOD9096799
Probable space group: P -1
;
_chemical_formula_sum "Si O2"
_cell_formula_units_Z 16
_cell_length_a 12.187019
_cell_length_b 17.507547
_cell_length_c 24.066465
_cell_angle_alpha 20.046468
_cell_angle_beta 27.814597
_cell_angle_gamma 26.757411
_cell_volume 757.004833
_symmetry_space_group_name_H-M "P -1"
_symmetry_group_IT_number 2
_symmetry_cell_setting 'triclinic'
loop_
_space_group_symop_operation_xyz
x,y,z
-x,-y,-z
loop_
_atom_site_type_symbol
_atom_site_label
_atom_site_fract_x
_atom_site_fract_y
_atom_site_fract_z
Si Si1 0.437098 0.620289 0.106430
Si Si2 0.463161 0.495274 0.734964
Si Si3 0.007291 0.450905 0.917325
Si Si4 0.103231 0.909706 0.247285
Si Si5 0.190388 0.413859 0.203513
Si Si6 0.259477 0.856185 0.918592
Si Si7 0.258107 0.202169 0.438441
Si Si8 0.200760 0.232044 0.606276
O O1 0.461497 0.641246 0.146593
O O2 0.295620 0.438991 0.282547
O O3 0.293516 0.844896 0.977135
O O4 0.725112 0.511042 0.027409
O O5 0.172480 0.556924 0.807997
O O6 0.644461 0.311267 0.734115
O O7 0.537596 0.728840 0.543866
O O8 0.992816 0.544697 0.796259
O O9 0.137497 0.160079 0.061069
O O10 0.987650 0.842981 0.399700
O O11 0.876494 0.934734 0.287433
O O12 0.464841 0.286134 0.137434
O O13 0.223545 0.248266 0.356303
O O14 0.124247 0.683128 0.074473
O O15 0.168236 0.125304 0.752479
O O16 0.500000 0.000000 0.500000
O O17 0.000000 0.500000 0.500000
#
# Coordination Sequence:
#
# PCOD9096799 Si02
#       8
#     2   2   2   2   2   2   2   2
#     4  10  21  36  61  90 117 151 197 250 298 344
#     4  11  24  38  56  88 126 157 190 240 305 362
#     4  11  21  40  60  86 120 158 197 239 297 363
#     4  11  21  38  61  85 115 159 204 238 289 353
#     4   9  19  32  59  91 114 147 197 256 292 333
#     4   9  17  35  58  86 118 147 199 250 292 342
#     4  11  19  34  63  93 111 147 205 254 283 339
#     4  10  20  36  58  82 118 155 197 239 290 349
#
# _framework density 21.135928
#
# number of rings (size 3 to 8) (size 9 to 14) (size 15 to 20)
#    0.000    1.750    3.750    2.250    0.000    0.000 
#    0.000    9.375    0.000    0.000    0.000    0.000 
#    0.000    0.000    0.000    0.000    0.000    0.000 
#
# Total GULP energy -89208.060681 kJ/mol
# GULP energy per Si atom -5575.503793 kJ/mol
# Density = 2.108782 g / cm^3
# Si number density = 21.135928 Si / 1000 Ang^3
#
#
#
# Elastic Constant Matrix: (Units=GPa)
#
#
# Indices 1 2 3 4 5 6 
#
# 1 106.6075 0.9764 57.4564 5.4092 25.9351 -5.4666
# 2 0.9764 47.4711 18.4557 -2.4504 10.1338 -0.7667
# 3 57.4564 18.4557 109.8198 -10.0280 28.9103 -5.5628
# 4 5.4092 -2.4504 -10.0280 23.2591 1.6737 10.2327
# 5 25.9351 10.1338 28.9103 1.6737 48.2787 3.7989
# 6 -5.4666 -0.7667 -5.5628 10.2327 3.7989 18.0882
#
#
#
# Elastic Compliance Matrix: (Units=1/GPa)
#
#
# Indices 1 2 3 4 5 6 
#
# 1 0.015939 0.003466 -0.008158 -0.010700 -0.004783 0.009513
# 2 0.003466 0.023687 -0.004682 -0.000910 -0.004156 0.001999
# 3 -0.008158 -0.004682 0.016095 0.009648 -0.004431 -0.002242
# 4 -0.010700 -0.000910 0.009648 0.066165 0.000851 -0.037914
# 5 -0.004783 -0.004156 -0.004431 0.000851 0.027506 -0.009242
# 6 0.009513 0.001999 -0.002242 -0.037914 -0.009242 0.080945
#
#
# Mechanical properties :
#
#
# Convention : Reuss Voigt Hill
#
# Bulk Modulus (GPa) = 27.04638 46.40837 36.72738
# Shear Modulus (GPa) = 19.12718 30.39254 24.75986
#
# Velocity S-wave (km/s) = 3.01152 3.79615 3.42637
# Velocity P-wave (km/s) = 4.99164 6.42021 5.75046
#
# Compressibility (1/GPa) = 0.03697352
#
# Stress axis : x y z
#
# Youngs Moduli (GPa) = 62.73762 42.21753 62.13263
#
# Poissons Ratio (x) = -0.14633 0.50688
# Poissons Ratio (y) = -0.21745 0.29089
# Poissons Ratio (z) = 0.51181 0.19765
#
# Static dielectric constant tensor:
#      x y z
#    x 1.782800 0.003070 0.017390 
#    y 0.003070 1.854100 0.019340 
#    z 0.017390 0.019340 1.781410 
# 
# From -- ./inp_files/389331.got.cif
#   From: 2010.05.17/outbox.cif.g08.bks.cpg/sg2_195_cif.got.tgz:389331.got - 2010.06.03 11:33:40.
