data_PCOD9096741
_publ_section_title
;
Structure prediction by ZEFSAII (Michael W. Deem and Ramdas Pophale) SiO2 
 PCOD9096741
Probable space group: P -1
;
_chemical_formula_sum "Si O2"
_cell_formula_units_Z 16
_cell_length_a 13.472712
_cell_length_b 9.432674
_cell_length_c 10.382366
_cell_angle_alpha 81.272299
_cell_angle_beta 133.402630
_cell_angle_gamma 125.145638
_cell_volume 714.807909
_symmetry_space_group_name_H-M "P -1"
_symmetry_group_IT_number 2
_symmetry_cell_setting 'triclinic'
loop_
_space_group_symop_operation_xyz
x,y,z
-x,-y,-z
loop_
_atom_site_type_symbol
_atom_site_label
_atom_site_fract_x
_atom_site_fract_y
_atom_site_fract_z
Si Si1 0.166660 0.503920 0.134785
Si Si2 0.529207 0.802132 0.583474
Si Si3 0.601799 0.220193 0.905098
Si Si4 0.961318 0.313765 0.536898
Si Si5 0.654168 0.105134 0.469369
Si Si6 0.306105 0.008564 0.873150
Si Si7 0.142068 0.155704 0.208437
Si Si8 0.060049 0.085111 0.686886
O O1 0.339135 0.659937 0.357681
O O2 0.253974 0.575386 0.058972
O O3 0.120190 0.311421 0.162599
O O4 0.000000 0.500000 0.000000
O O5 0.451880 0.816588 0.644668
O O6 0.658455 0.757321 0.675784
O O7 0.648328 0.020287 0.611543
O O8 0.441800 0.079460 0.680351
O O9 0.498653 0.176700 0.953638
O O10 0.688273 0.123362 0.011036
O O11 0.855320 0.262980 0.581591
O O12 0.825739 0.145580 0.335777
O O13 0.000000 0.500000 0.500000
O O14 0.103292 0.284101 0.692820
O O15 0.226073 0.092942 0.857327
O O16 0.088747 0.054586 0.315870
O O17 0.000000 0.000000 0.000000
O O18 0.000000 0.000000 0.500000
#
# Coordination Sequence:
#
# PCOD9096741 Si02
#       8
#     2   2   2   2   2   2   2   2
#     4  11  25  41  67  98 132 175 227 279 332 401
#     4  10  22  41  65  89 134 177 214 273 333 398
#     4   9  19  38  63  89 128 163 225 267 329 391
#     4  10  20  36  57  90 121 164 217 273 315 393
#     4   9  19  36  63  87 122 171 214 262 339 385
#     4   9  19  37  63  86 122 176 212 265 325 397
#     4  12  27  43  67 103 139 173 221 283 339 395
#     4  10  22  40  63  91 127 171 220 261 330 397
#
# _framework density 22.383635000000002
#
# number of rings (size 3 to 8) (size 9 to 14) (size 15 to 20)
#    0.000    2.000    1.250    1.125    8.750    4.000 
#    2.250    0.000    0.000    3.000    0.000    0.000 
#    0.000    0.000    0.000    0.000    0.000    0.000 
#
# Total GULP energy -89091.633944 kJ/mol
# GULP energy per Si atom -5568.227122 kJ/mol
# Density = 2.233269 g / cm^3
# Si number density = 22.383635 Si / 1000 Ang^3
#
#
#
# Elastic Constant Matrix: (Units=GPa)
#
#
# Indices 1 2 3 4 5 6 
#
# 1 91.0350 43.1302 17.8862 -4.6893 24.2445 -23.8509
# 2 43.1302 140.3619 12.9165 -9.0256 15.9503 -18.1725
# 3 17.8862 12.9165 69.3277 0.1143 15.1335 -12.8558
# 4 -4.6893 -9.0256 0.1143 26.8448 -9.3852 8.6620
# 5 24.2445 15.9503 15.1335 -9.3852 38.7481 -17.7585
# 6 -23.8509 -18.1725 -12.8558 8.6620 -17.7585 35.1356
#
#
#
# Elastic Compliance Matrix: (Units=1/GPa)
#
#
# Indices 1 2 3 4 5 6 
#
# 1 0.015905 -0.003475 -0.001012 -0.002455 -0.005842 0.006282
# 2 -0.003475 0.008539 -0.000412 0.001773 -0.000100 0.001419
# 3 -0.001012 -0.000412 0.016461 -0.003188 -0.004803 0.003481
# 4 -0.002455 0.001773 -0.003188 0.043117 0.008779 -0.008109
# 5 -0.005842 -0.000100 -0.004803 0.008779 0.038872 0.011708
# 6 0.006282 0.001419 0.003481 -0.008109 0.011708 0.042650
#
#
# Mechanical properties :
#
#
# Convention : Reuss Voigt Hill
#
# Bulk Modulus (GPa) = 32.14667 49.84336 40.99502
# Shear Modulus (GPa) = 26.92329 35.26515 31.09422
#
# Velocity S-wave (km/s) = 3.47192 3.97355 3.73117
# Velocity P-wave (km/s) = 5.51953 6.58546 6.07591
#
# Compressibility (1/GPa) = 0.03110742
#
# Stress axis : x y z
#
# Youngs Moduli (GPa) = 62.87304 117.10619 60.74819
#
# Poissons Ratio (x) = 0.40693 0.06147
# Poissons Ratio (y) = 0.21848 0.02505
# Poissons Ratio (z) = 0.06362 0.04829
#
# Static dielectric constant tensor:
#      x y z
#    x 2.015410 0.011870 -0.086990 
#    y 0.011870 1.863670 -0.059090 
#    z -0.086990 -0.059090 1.991680 
# 
# From -- ./inp_files/279307.got.cif
#   From: 2010.05.17/outbox.cif.g08.bks.cpg/sg2_140_cif.got.tgz:279307.got - 2010.06.03 11:33:40.
