data_PCOD9096406
_publ_section_title
;
Structure prediction by ZEFSAII (Michael W. Deem and Ramdas Pophale) SiO2 
 PCOD9096406
Probable space group: P -1
;
_chemical_formula_sum "Si O2"
_cell_formula_units_Z 16
_cell_length_a 19.327236
_cell_length_b 6.336029
_cell_length_c 8.393040
_cell_angle_alpha 84.857059
_cell_angle_beta 44.953556
_cell_angle_gamma 97.819660
_cell_volume 693.575302
_symmetry_space_group_name_H-M "P -1"
_symmetry_group_IT_number 2
_symmetry_cell_setting 'triclinic'
loop_
_space_group_symop_operation_xyz
x,y,z
-x,-y,-z
loop_
_atom_site_type_symbol
_atom_site_label
_atom_site_fract_x
_atom_site_fract_y
_atom_site_fract_z
Si Si1 0.346195 0.335272 0.296069
Si Si2 0.035525 0.766682 0.816862
Si Si3 0.093729 0.121550 0.446432
Si Si4 0.239940 0.901523 0.056371
Si Si5 0.501893 0.201861 0.864842
Si Si6 0.186369 0.545404 0.404543
Si Si7 0.348626 0.945612 0.564386
Si Si8 0.132133 0.650203 0.957260
O O1 0.420665 0.567599 0.219275
O O2 0.244087 0.395740 0.413346
O O3 0.340313 0.148441 0.452383
O O4 0.393715 0.250463 0.066652
O O5 0.116338 0.649472 0.618404
O O6 0.061721 0.764527 0.959776
O O7 0.067356 0.001146 0.666921
O O8 0.924449 0.608931 0.958131
O O9 0.112267 0.378647 0.415961
O O10 0.192525 0.073723 0.208721
O O11 0.000000 0.000000 0.500000
O O12 0.262301 0.739924 0.165554
O O13 0.329616 0.992912 0.776778
O O14 0.150084 0.749727 0.098469
O O15 0.550107 0.127091 0.633359
O O16 0.500000 0.000000 0.000000
O O17 0.249345 0.738313 0.698500
#
# Coordination Sequence:
#
# PCOD9096406 Si02
#       8
#     2   2   2   2   2   2   2   2
#     4  10  20  36  62  91 110 146 199 232 288 358
#     4  10  20  36  54  81 116 154 199 239 290 336
#     4  11  22  37  56  81 119 166 201 235 279 344
#     4   9  22  38  54  80 121 153 190 237 296 331
#     4   9  19  37  63  88 115 144 184 242 299 345
#     4  11  22  37  58  86 118 158 194 241 282 346
#     4   9  19  37  56  82 115 149 185 239 285 339
#     4   9  18  36  55  78 113 154 188 241 287 335
#
# _framework density 23.068873
#
# number of rings (size 3 to 8) (size 9 to 14) (size 15 to 20)
#    0.750    1.500    0.000    3.000    0.000    6.000 
#    4.500    4.375    0.000    7.500    0.000    0.000 
#    0.000    0.000    0.000    0.000    0.000    0.000 
#
# Total GULP energy -89279.253988 kJ/mol
# GULP energy per Si atom -5579.953374 kJ/mol
# Density = 2.301637 g / cm^3
# Si number density = 23.068873 Si / 1000 Ang^3
#
#
#
# Elastic Constant Matrix: (Units=GPa)
#
#
# Indices 1 2 3 4 5 6 
#
# 1 54.3779 23.3280 9.4206 -4.4824 -4.4421 0.6442
# 2 23.3280 86.9633 64.7077 15.1575 -1.7981 -13.2814
# 3 9.4206 64.7077 132.0307 0.6125 0.9014 -14.8903
# 4 -4.4824 15.1575 0.6125 34.5155 -0.8476 -6.0179
# 5 -4.4421 -1.7981 0.9014 -0.8476 26.8417 -3.2409
# 6 0.6442 -13.2814 -14.8903 -6.0179 -3.2409 23.6430
#
#
#
# Elastic Compliance Matrix: (Units=1/GPa)
#
#
# Indices 1 2 3 4 5 6 
#
# 1 0.022908 -0.009721 0.002837 0.006896 0.003005 -0.002131
# 2 -0.009721 0.024927 -0.010956 -0.011196 0.000631 0.004604
# 3 0.002837 -0.010956 0.013101 0.005539 -0.000117 0.003413
# 4 0.006896 -0.011196 0.005539 0.035859 0.002114 0.006428
# 5 0.003005 0.000631 -0.000117 0.002114 0.038594 0.006027
# 6 -0.002131 0.004604 0.003413 0.006428 0.006027 0.049552
#
#
# Mechanical properties :
#
#
# Convention : Reuss Voigt Hill
#
# Bulk Modulus (GPa) = 39.59595 52.03161 45.81378
# Shear Modulus (GPa) = 21.83027 28.72774 25.27901
#
# Velocity S-wave (km/s) = 3.07955 3.53271 3.31389
# Velocity P-wave (km/s) = 5.46318 6.26450 5.87751
#
# Compressibility (1/GPa) = 0.02525511
#
# Stress axis : x y z
#
# Youngs Moduli (GPa) = 43.65297 40.11758 76.32956
#
# Poissons Ratio (x) = 0.39000 -0.21655
# Poissons Ratio (y) = 0.42437 0.83627
# Poissons Ratio (z) = -0.12384 0.43953
#
# Static dielectric constant tensor:
#      x y z
#    x 1.905210 0.023980 0.003930 
#    y 0.023980 1.833330 -0.005670 
#    z 0.003930 -0.005670 1.938750 
# 
# From -- ./inp_files/340324.got.cif
#   From: 2010.05.17/outbox.cif.g08.bks.cpg/sg2_171_cif.got.tgz:340324.got - 2010.06.03 11:33:40.
