data_PCOD9096657
_publ_section_title
;
Structure prediction by ZEFSAII (Michael W. Deem and Ramdas Pophale) SiO2 
 PCOD9096657
Probable space group: P -1
;
_chemical_formula_sum "Si O2"
_cell_formula_units_Z 16
_cell_length_a 8.012036
_cell_length_b 13.158783
_cell_length_c 11.293997
_cell_angle_alpha 68.287628
_cell_angle_beta 143.940651
_cell_angle_gamma 115.964458
_cell_volume 629.848336
_symmetry_space_group_name_H-M "P -1"
_symmetry_group_IT_number 2
_symmetry_cell_setting 'triclinic'
loop_
_space_group_symop_operation_xyz
x,y,z
-x,-y,-z
loop_
_atom_site_type_symbol
_atom_site_label
_atom_site_fract_x
_atom_site_fract_y
_atom_site_fract_z
Si Si1 0.148273 0.008885 0.892439
Si Si2 0.693314 0.423160 0.492986
Si Si3 0.837489 0.354544 0.100054
Si Si4 0.825101 0.830074 0.603694
Si Si5 0.439033 0.985215 0.307152
Si Si6 0.786330 0.374039 0.324593
Si Si7 0.715718 0.410876 0.763995
Si Si8 0.044200 0.170951 0.592606
O O1 0.075874 0.915646 0.788067
O O2 0.847791 0.003014 0.794311
O O3 0.223763 0.129176 0.816874
O O4 0.371241 0.988993 0.127129
O O5 0.586283 0.366062 0.330196
O O6 0.679712 0.355718 0.637303
O O7 0.523777 0.518664 0.382000
O O8 0.030503 0.495601 0.638827
O O9 0.679648 0.335579 0.146308
O O10 0.094477 0.289133 0.279570
O O11 0.983261 0.489868 0.116496
O O12 0.695520 0.330498 0.899556
O O13 0.539266 0.874014 0.451556
O O14 0.855891 0.849882 0.472509
O O15 0.715010 0.089496 0.447283
O O16 0.002266 0.296355 0.518638
#
# Coordination Sequence:
#
# PCOD9096657 Si02
#       8
#     2   2   2   2   2   2   2   2
#     4  10  21  38  56  83 111 146 188 229 282 337
#     4   9  18  35  57  79 114 147 183 231 278 323
#     4   9  19  36  54  82 113 143 191 223 277 338
#     4  10  20  36  57  83 113 148 183 234 278 330
#     4  10  21  38  58  80 115 146 184 235 281 332
#     4   9  19  36  54  82 113 146 183 229 280 332
#     4   9  18  35  56  81 111 149 185 228 273 333
#     4  10  20  36  58  82 113 147 187 229 279 335
#
# _framework density 25.402939
#
# number of rings (size 3 to 8) (size 9 to 14) (size 15 to 20)
#    0.000    2.500    0.000    3.000    0.000    4.500 
#   18.000    0.000    0.000    0.000    0.000    0.000 
#    0.000    0.000    0.000    0.000    0.000    0.000 
#
# Total GULP energy -89342.074843 kJ/mol
# GULP energy per Si atom -5583.879678 kJ/mol
# Density = 2.534512 g / cm^3
# Si number density = 25.402939 Si / 1000 Ang^3
#
#
#
# Elastic Constant Matrix: (Units=GPa)
#
#
# Indices 1 2 3 4 5 6 
#
# 1 140.4007 22.5681 57.7610 4.1005 -42.8691 -30.6310
# 2 22.5681 90.0981 22.9073 -8.5207 -15.1248 -5.6584
# 3 57.7610 22.9073 143.1092 -8.9175 -57.4965 -9.6898
# 4 4.1005 -8.5207 -8.9175 24.4668 -4.4546 -5.6560
# 5 -42.8691 -15.1248 -57.4965 -4.4546 57.7194 8.2581
# 6 -30.6310 -5.6584 -9.6898 -5.6560 8.2581 30.9565
#
#
#
# Elastic Compliance Matrix: (Units=1/GPa)
#
#
# Indices 1 2 3 4 5 6 
#
# 1 0.011689 -0.000970 -0.001767 0.000215 0.005331 0.009453
# 2 -0.000970 0.012403 -0.000117 0.005269 0.002600 0.001540
# 3 -0.001767 -0.000117 0.013124 0.007364 0.012238 0.000418
# 4 0.000215 0.005269 0.007364 0.049620 0.011343 0.009521
# 5 0.005331 0.002600 0.012238 0.011343 0.034689 0.002400
# 6 0.009453 0.001540 0.000418 0.009521 0.002400 0.043169
#
#
# Mechanical properties :
#
#
# Convention : Reuss Voigt Hill
#
# Bulk Modulus (GPa) = 31.73759 64.45345 48.09552
# Shear Modulus (GPa) = 27.63876 40.65332 34.14604
#
# Velocity S-wave (km/s) = 3.30208 4.00476 3.67028
# Velocity P-wave (km/s) = 5.20184 6.84191 6.07745
#
# Compressibility (1/GPa) = 0.03150838
#
# Stress axis : x y z
#
# Youngs Moduli (GPa) = 85.54790 80.62548 76.19722
#
# Poissons Ratio (x) = 0.07818 0.13467
# Poissons Ratio (y) = 0.08295 0.00891
# Poissons Ratio (z) = 0.15119 0.00943
#
# Static dielectric constant tensor:
#      x y z
#    x 2.070730 0.058080 -0.013740 
#    y 0.058080 2.049610 0.070440 
#    z -0.013740 0.070440 2.031160 
# 
# From -- ./inp_files/313019.got.cif
#   From: 2010.05.17/outbox.cif.g08.bks.cpg/sg2_157_cif.got.tgz:313019.got - 2010.06.03 11:33:40.
