data_PCOD9096133
_publ_section_title
;
Structure prediction by ZEFSAII (Michael W. Deem and Ramdas Pophale) SiO2 
 PCOD9096133
Probable space group: P -1
;
_chemical_formula_sum "Si O2"
_cell_formula_units_Z 14
_cell_length_a 10.573377
_cell_length_b 9.278543
_cell_length_c 12.459952
_cell_angle_alpha 89.103120
_cell_angle_beta 49.810494
_cell_angle_gamma 122.425344
_cell_volume 652.551331
_symmetry_space_group_name_H-M "P -1"
_symmetry_group_IT_number 2
_symmetry_cell_setting 'triclinic'
loop_
_space_group_symop_operation_xyz
x,y,z
-x,-y,-z
loop_
_atom_site_type_symbol
_atom_site_label
_atom_site_fract_x
_atom_site_fract_y
_atom_site_fract_z
Si Si1 0.244557 0.993427 0.065326
Si Si2 0.282591 0.198359 0.845187
Si Si3 0.455873 0.089802 0.178378
Si Si4 0.720594 0.051233 0.504242
Si Si5 0.300193 0.250730 0.613149
Si Si6 0.184426 0.720942 0.748983
Si Si7 0.232061 0.492096 0.865281
O O1 0.959904 0.839006 0.226364
O O2 0.334177 0.065790 0.136435
O O3 0.353008 0.911858 0.961809
O O4 0.355109 0.175352 0.917669
O O5 0.365244 0.195346 0.683840
O O6 0.340602 0.402689 0.803257
O O7 0.000000 0.000000 0.000000
O O8 0.262493 0.922043 0.376711
O O9 0.602728 0.304955 0.154925
O O10 0.732237 0.890139 0.460802
O O11 0.449503 0.926464 0.632684
O O12 0.868113 0.245717 0.339891
O O13 0.500000 0.500000 0.500000
O O14 0.181647 0.547722 0.781656
O O15 0.009288 0.675276 0.934158
#
# Coordination Sequence:
#
# PCOD9096133 Si02
#       7
#     2   2   2   2   2   2   2
#     4  10  24  43  62  86 125 166 206 252 301 366
#     4  10  22  37  61  91 125 157 197 256 307 362
#     4  10  23  42  64  86 120 172 209 241 300 375
#     4  10  21  35  59  92 120 164 195 251 319 350
#     4  11  23  37  61  95 125 154 198 263 318 355
#     4   9  19  31  58  90 122 145 205 252 290 360
#     4  10  20  35  62  92 116 168 205 244 305 367
#
# _framework density 21.454252
#
# number of rings (size 3 to 8) (size 9 to 14) (size 15 to 20)
#    0.000    2.000    0.000    3.429   20.000    1.143 
#    0.000    1.429    0.000    3.429    0.000    0.000 
#    0.000    0.000    0.000    0.000    0.000    0.000 
#
# Total GULP energy -77971.872521 kJ/mol
# GULP energy per Si atom -5569.419466 kJ/mol
# Density = 2.140542 g / cm^3
# Si number density = 21.454252 Si / 1000 Ang^3
#
#
#
# Elastic Constant Matrix: (Units=GPa)
#
#
# Indices 1 2 3 4 5 6 
#
# 1 107.6642 45.6168 55.1826 4.9465 35.4504 -9.3552
# 2 45.6168 98.0503 27.9691 10.7532 11.1783 -18.8069
# 3 55.1826 27.9691 125.9709 -0.0750 33.1613 0.9606
# 4 4.9465 10.7532 -0.0750 31.7729 -1.1915 3.3952
# 5 35.4504 11.1783 33.1613 -1.1915 50.2017 9.2513
# 6 -9.3552 -18.8069 0.9606 3.3952 9.2513 21.8498
#
#
#
# Elastic Compliance Matrix: (Units=1/GPa)
#
#
# Indices 1 2 3 4 5 6 
#
# 1 0.017321 -0.003556 -0.004096 -0.002908 -0.010545 0.009452
# 2 -0.003556 0.016139 -0.001331 -0.006604 -0.003079 0.014757
# 3 -0.004096 -0.001331 0.011016 0.001190 -0.003689 -0.002007
# 4 -0.002908 -0.006604 0.001190 0.036039 0.006412 -0.015297
# 5 -0.010545 -0.003079 -0.003689 0.006412 0.034833 -0.022748
# 6 0.009452 0.014757 -0.002007 -0.015297 -0.022748 0.074613
#
#
# Mechanical properties :
#
#
# Convention : Reuss Voigt Hill
#
# Bulk Modulus (GPa) = 37.72338 65.46914 51.59626
# Shear Modulus (GPa) = 23.06656 34.29268 28.67962
#
# Velocity S-wave (km/s) = 3.28251 4.00235 3.66017
# Velocity P-wave (km/s) = 5.65578 7.20696 6.47797
#
# Compressibility (1/GPa) = 0.02650876
#
# Stress axis : x y z
#
# Youngs Moduli (GPa) = 57.73243 61.96202 90.78110
#
# Poissons Ratio (x) = 0.22033 0.37185
# Poissons Ratio (y) = 0.20529 0.12087
# Poissons Ratio (z) = 0.23648 0.08250
#
# Static dielectric constant tensor:
#      x y z
#    x 1.815190 -0.040260 0.044480 
#    y -0.040260 1.823570 0.018750 
#    z 0.044480 0.018750 1.927720 
# 
# From -- ./inp_files/419412.got.cif
#   From: 2010.05.17/outbox.cif.g08.bks.cpg/sg2_210_cif.got.tgz:419412.got - 2010.06.03 11:33:40.
