data_PCOD9096315
_publ_section_title
;
Structure prediction by ZEFSAII (Michael W. Deem and Ramdas Pophale) SiO2 
 PCOD9096315
Probable space group: P -1
;
_chemical_formula_sum "Si O2"
_cell_formula_units_Z 16
_cell_length_a 25.405160
_cell_length_b 8.179898
_cell_length_c 12.678363
_cell_angle_alpha 49.010687
_cell_angle_beta 26.969201
_cell_angle_gamma 36.695170
_cell_volume 697.047979
_symmetry_space_group_name_H-M "P -1"
_symmetry_group_IT_number 2
_symmetry_cell_setting 'triclinic'
loop_
_space_group_symop_operation_xyz
x,y,z
-x,-y,-z
loop_
_atom_site_type_symbol
_atom_site_label
_atom_site_fract_x
_atom_site_fract_y
_atom_site_fract_z
Si Si1 0.848370 0.220185 0.465536
Si Si2 0.790366 0.872011 0.801624
Si Si3 0.867235 0.296794 0.166046
Si Si4 0.880189 0.689221 0.259273
Si Si5 0.875729 0.165859 0.742988
Si Si6 0.869162 0.635146 0.529793
Si Si7 0.626980 0.654422 0.261753
Si Si8 0.310037 0.845154 0.775681
O O1 0.810678 0.265112 0.390779
O O2 0.858452 0.458637 0.381360
O O3 0.757637 0.169155 0.728839
O O4 0.020473 0.932759 0.295419
O O5 0.823697 0.798229 0.649541
O O6 0.948718 0.620515 0.682526
O O7 0.666212 0.848411 0.069167
O O8 0.738828 0.476628 0.233779
O O9 0.949276 0.425318 0.997561
O O10 0.000000 0.000000 0.000000
O O11 0.826692 0.798344 0.428074
O O12 0.793543 0.922151 0.226211
O O13 0.795657 0.484659 0.728698
O O14 0.768544 0.098163 0.994799
O O15 0.000000 0.000000 0.500000
O O16 0.457584 0.815483 0.532589
O O17 0.652996 0.439658 0.215733
#
# Coordination Sequence:
#
# PCOD9096315 Si02
#       8
#     2   2   2   2   2   2   2   2
#     4  11  24  37  63  99 131 166 223 281 320 388
#     4  10  21  38  63  96 133 168 219 275 330 385
#     4  12  22  40  68 100 129 167 230 277 326 384
#     4  12  22  40  65 101 132 169 225 277 326 391
#     4  11  20  38  65  99 130 169 219 275 327 389
#     4  10  20  35  65  98 127 164 223 278 324 377
#     4  11  23  45  67  95 136 175 213 279 334 398
#     4  11  25  42  67  99 134 171 220 272 344 393
#
# _framework density 22.953942999999999
#
# number of rings (size 3 to 8) (size 9 to 14) (size 15 to 20)
#    0.000    1.000    6.250    1.125    1.750    0.000 
#    0.000    3.125    0.000    0.000    0.000    0.000 
#    0.000    0.000    0.000    0.000    0.000    0.000 
#
# Total GULP energy -89385.770205 kJ/mol
# GULP energy per Si atom -5586.610638 kJ/mol
# Density = 2.290170 g / cm^3
# Si number density = 22.953943 Si / 1000 Ang^3
#
#
#
# Elastic Constant Matrix: (Units=GPa)
#
#
# Indices 1 2 3 4 5 6 
#
# 1 96.1689 22.2651 58.7762 -9.0837 2.9391 -9.7315
# 2 22.2651 45.3119 48.2047 -35.2506 -1.1963 4.0881
# 3 58.7762 48.2047 194.8430 -42.0887 -7.1706 -14.5942
# 4 -9.0837 -35.2506 -42.0887 40.0184 1.5418 -2.7881
# 5 2.9391 -1.1963 -7.1706 1.5418 38.6217 -12.9000
# 6 -9.7315 4.0881 -14.5942 -2.7881 -12.9000 36.2181
#
#
#
# Elastic Compliance Matrix: (Units=1/GPa)
#
#
# Indices 1 2 3 4 5 6 
#
# 1 0.014692 -0.012176 -0.003615 -0.010971 -0.000817 0.002730
# 2 -0.012176 0.086453 -0.003746 0.068852 -0.003321 -0.010422
# 3 -0.003615 -0.003746 0.008732 0.005257 0.003062 0.004466
# 4 -0.010971 0.068852 0.005257 0.088555 -0.000213 -0.001860
# 5 -0.000817 -0.003321 0.003062 -0.000213 0.030518 0.012242
# 6 0.002730 -0.010422 0.004466 -0.001860 0.012242 0.035537
#
#
# Mechanical properties :
#
#
# Convention : Reuss Voigt Hill
#
# Bulk Modulus (GPa) = 14.12356 66.09065 40.10710
# Shear Modulus (GPa) = 15.28300 36.77682 26.02991
#
# Velocity S-wave (km/s) = 2.58313 4.00709 3.37115
# Velocity P-wave (km/s) = 3.88112 7.08973 5.71522
#
# Compressibility (1/GPa) = 0.07080369
#
# Stress axis : x y z
#
# Youngs Moduli (GPa) = 68.06574 11.56697 114.51731
#
# Poissons Ratio (x) = 0.14084 0.41397
# Poissons Ratio (y) = 0.82877 0.42894
# Poissons Ratio (z) = 0.24605 0.04333
#
# Static dielectric constant tensor:
#      x y z
#    x 1.939970 0.100430 -0.016850 
#    y 0.100430 1.916950 -0.044180 
#    z -0.016850 -0.044180 1.916100 
# 
# From -- ./inp_files/474111.got.cif
#   From: 2010.05.17/outbox.cif.g08.bks.cpg/sg2_238_cif.got.tgz:474111.got - 2010.06.03 11:33:40.
