data_PCOD9096334
_publ_section_title
;
Structure prediction by ZEFSAII (Michael W. Deem and Ramdas Pophale) SiO2 
 PCOD9096334
Probable space group: P -1
;
_chemical_formula_sum "Si O2"
_cell_formula_units_Z 12
_cell_length_a 8.285072
_cell_length_b 9.277251
_cell_length_c 7.731029
_cell_angle_alpha 64.071169
_cell_angle_beta 82.267030
_cell_angle_gamma 117.284791
_cell_volume 431.221923
_symmetry_space_group_name_H-M "P -1"
_symmetry_group_IT_number 2
_symmetry_cell_setting 'triclinic'
loop_
_space_group_symop_operation_xyz
x,y,z
-x,-y,-z
loop_
_atom_site_type_symbol
_atom_site_label
_atom_site_fract_x
_atom_site_fract_y
_atom_site_fract_z
Si Si1 0.090025 0.358729 0.694879
Si Si2 0.513495 0.326023 0.525021
Si Si3 0.119903 0.398002 0.051429
Si Si4 0.957458 0.975216 0.808480
Si Si5 0.480964 0.247374 0.172450
Si Si6 0.666099 0.070247 0.079452
O O1 0.066081 0.207684 0.633871
O O2 0.252624 0.586692 0.502772
O O3 0.191122 0.385075 0.854949
O O4 0.867111 0.247232 0.864278
O O5 0.500000 0.500000 0.500000
O O6 0.452242 0.270514 0.364212
O O7 0.668591 0.459572 0.957340
O O8 0.588366 0.135657 0.211982
O O9 0.000000 0.500000 0.000000
O O10 0.990945 0.162984 0.226406
O O11 0.639161 0.873150 0.245642
O O12 0.000000 0.000000 0.000000
O O13 0.275083 0.134542 0.156521
O O14 0.500000 0.000000 0.000000
#
# Coordination Sequence:
#
# PCOD9096334 Si02
#       6
#     2   2   2   2   2   2
#     4  10  23  44  72 105 149 197 249 310 382 447
#     4  11  29  47  74 114 158 200 258 321 380 463
#     4  10  20  35  67 109 142 190 252 302 369 456
#     4  10  22  40  71 104 151 198 251 311 379 458
#     4  11  23  45  71 112 150 204 252 319 383 459
#     4  12  25  45  81 109 150 206 253 318 390 455
#
# _framework density 27.827895999999999
#
# number of rings (size 3 to 8) (size 9 to 14) (size 15 to 20)
#    0.000    1.333    3.333    1.000    9.333    2.000 
#    0.000    0.833    0.000    0.000    0.000    0.000 
#    0.000    0.000    0.000    0.000    0.000    0.000 
#
# Total GULP energy -66812.990525 kJ/mol
# GULP energy per Si atom -5567.749210 kJ/mol
# Density = 2.776456 g / cm^3
# Si number density = 27.827896 Si / 1000 Ang^3
#
#
#
# Elastic Constant Matrix: (Units=GPa)
#
#
# Indices 1 2 3 4 5 6 
#
# 1 145.7646 79.2165 53.5769 -7.0246 -24.4901 10.9454
# 2 79.2165 200.6345 51.9452 -6.5658 -15.5809 12.6068
# 3 53.5769 51.9452 97.9916 1.6194 -14.5757 9.8906
# 4 -7.0246 -6.5658 1.6194 43.3215 5.3031 -23.1924
# 5 -24.4901 -15.5809 -14.5757 5.3031 38.3518 -7.5527
# 6 10.9454 12.6068 9.8906 -23.1924 -7.5527 84.5624
#
#
#
# Elastic Compliance Matrix: (Units=1/GPa)
#
#
# Indices 1 2 3 4 5 6 
#
# 1 0.010462 -0.002852 -0.003637 0.000973 0.004029 0.000123
# 2 -0.002852 0.006647 -0.001942 0.000474 0.000024 -0.000262
# 3 -0.003637 -0.001942 0.013716 -0.002357 0.002172 -0.001296
# 4 0.000973 0.000474 -0.002357 0.027691 -0.002443 0.007456
# 5 0.004029 0.000024 0.002172 -0.002443 0.030064 0.001236
# 6 0.000123 -0.000262 -0.001296 0.007456 0.001236 0.014156
#
#
# Mechanical properties :
#
#
# Convention : Reuss Voigt Hill
#
# Bulk Modulus (GPa) = 71.62257 90.42976 81.02617
# Shear Modulus (GPa) = 40.24087 50.55727 45.39907
#
# Velocity S-wave (km/s) = 3.80684 4.26700 4.04347
# Velocity P-wave (km/s) = 6.71686 7.53943 7.14000
#
# Compressibility (1/GPa) = 0.01396208
#
# Stress axis : x y z
#
# Youngs Moduli (GPa) = 95.58588 150.44695 72.90767
#
# Poissons Ratio (x) = 0.42906 0.26519
# Poissons Ratio (y) = 0.27260 0.14159
# Poissons Ratio (z) = 0.34768 0.29217
#
# Static dielectric constant tensor:
#      x y z
#    x 2.636610 -0.223790 0.032350 
#    y -0.223790 2.413240 -0.270630 
#    z 0.032350 -0.270630 2.494000 
# 
# From -- ./inp_files/374028.got.cif
#   From: 2010.05.17/outbox.cif.g08.bks.cpg/sg2_188_cif.got.tgz:374028.got - 2010.06.03 11:33:40.
