data_PCOD9096417
_publ_section_title
;
Structure prediction by ZEFSAII (Michael W. Deem and Ramdas Pophale) SiO2 
 PCOD9096417
Probable space group: P -1
;
_chemical_formula_sum "Si O2"
_cell_formula_units_Z 14
_cell_length_a 14.664581
_cell_length_b 6.915178
_cell_length_c 8.580371
_cell_angle_alpha 76.828502
_cell_angle_beta 92.675931
_cell_angle_gamma 53.037610
_cell_volume 657.820542
_symmetry_space_group_name_H-M "P -1"
_symmetry_group_IT_number 2
_symmetry_cell_setting 'triclinic'
loop_
_space_group_symop_operation_xyz
x,y,z
-x,-y,-z
loop_
_atom_site_type_symbol
_atom_site_label
_atom_site_fract_x
_atom_site_fract_y
_atom_site_fract_z
Si Si1 0.663418 0.012682 0.270068
Si Si2 0.574532 0.657250 0.968639
Si Si3 0.528410 0.820592 0.268998
Si Si4 0.670663 0.119348 0.587596
Si Si5 0.864874 0.540167 0.817543
Si Si6 0.875562 0.716329 0.104701
Si Si7 0.225142 0.763314 0.166025
O O1 0.674819 0.129846 0.401349
O O2 0.779644 0.834057 0.210361
O O3 0.555819 0.234028 0.112573
O O4 0.617372 0.855621 0.347182
O O5 0.568397 0.898723 0.870435
O O6 0.326320 0.578997 0.081897
O O7 0.587533 0.638205 0.157983
O O8 0.458081 0.772828 0.384512
O O9 0.761672 0.818017 0.691702
O O10 0.713912 0.245996 0.668819
O O11 0.847509 0.338107 0.802324
O O12 0.991386 0.453157 0.795151
O O13 0.862125 0.562982 0.002059
O O14 0.850300 0.952836 0.961869
#
# Coordination Sequence:
#
# PCOD9096417 Si02
#       7
#     2   2   2   2   2   2   2
#     4  10  20  36  54  86 115 146 184 221 274 347
#     4   9  18  34  59  80 112 134 190 229 265 317
#     4   9  18  36  58  82 109 146 182 230 267 326
#     4  11  22  35  58  80 118 152 177 219 288 330
#     4  10  20  41  59  83 106 144 191 240 266 322
#     4  10  22  37  63  81 107 144 193 232 278 312
#     4  11  21  36  59  84 110 146 184 232 275 328
#
# _framework density 21.282398000000001
#
# number of rings (size 3 to 8) (size 9 to 14) (size 15 to 20)
#    0.857    1.143    1.429    3.429    0.000    3.429 
#    0.000    3.571    0.000    0.000    0.000    0.000 
#    0.000    0.000    0.000    0.000    0.000    0.000 
#
# Total GULP energy -78236.640087 kJ/mol
# GULP energy per Si atom -5588.331435 kJ/mol
# Density = 2.123396 g / cm^3
# Si number density = 21.282398 Si / 1000 Ang^3
#
#
#
# Elastic Constant Matrix: (Units=GPa)
#
#
# Indices 1 2 3 4 5 6 
#
# 1 99.3695 25.5697 31.5601 6.6431 2.3655 1.5553
# 2 25.5697 66.3948 32.3533 15.6922 8.5788 14.8017
# 3 31.5601 32.3533 66.0523 22.7805 5.1697 2.2227
# 4 6.6431 15.6922 22.7805 32.0943 4.9666 -2.0406
# 5 2.3655 8.5788 5.1697 4.9666 21.7740 11.5160
# 6 1.5553 14.8017 2.2227 -2.0406 11.5160 40.5378
#
#
#
# Elastic Compliance Matrix: (Units=1/GPa)
#
#
# Indices 1 2 3 4 5 6 
#
# 1 0.012363 -0.003017 -0.005448 0.002867 -0.000095 0.001097
# 2 -0.003017 0.023181 -0.007612 -0.005546 -0.001637 -0.007745
# 3 -0.005448 -0.007612 0.026152 -0.013666 0.000048 0.000853
# 4 0.002867 -0.005546 -0.013666 0.044859 -0.009082 0.007502
# 5 -0.000095 -0.001637 0.000048 -0.009082 0.057154 -0.016095
# 6 0.001097 -0.007745 0.000853 0.007502 -0.016095 0.032357
#
#
# Mechanical properties :
#
#
# Convention : Reuss Voigt Hill
#
# Bulk Modulus (GPa) = 33.84792 45.64254 39.74523
# Shear Modulus (GPa) = 21.00245 28.37014 24.68629
#
# Velocity S-wave (km/s) = 3.14482 3.65503 3.40948
# Velocity P-wave (km/s) = 5.39678 6.26937 5.84937
#
# Compressibility (1/GPa) = 0.02954391
#
# Stress axis : x y z
#
# Youngs Moduli (GPa) = 80.88374 43.13840 38.23826
#
# Poissons Ratio (x) = 0.13013 0.20833
# Poissons Ratio (y) = 0.24399 0.29105
# Poissons Ratio (z) = 0.44067 0.32835
#
# Static dielectric constant tensor:
#      x y z
#    x 1.766120 0.049620 -0.005630 
#    y 0.049620 1.830230 -0.032300 
#    z -0.005630 -0.032300 1.747910 
# 
# From -- ./inp_files/288844.got.cif
#   From: 2010.05.17/outbox.cif.g08.bks.cpg/sg2_145_cif.got.tgz:288844.got - 2010.06.03 11:33:40.
