data_PCOD9096928
_publ_section_title
;
Structure prediction by ZEFSAII (Michael W. Deem and Ramdas Pophale) SiO2 
 PCOD9096928
Probable space group: P -1
;
_chemical_formula_sum "Si O2"
_cell_formula_units_Z 16
_cell_length_a 15.637476
_cell_length_b 11.794410
_cell_length_c 15.115464
_cell_angle_alpha 46.148539
_cell_angle_beta 151.737085
_cell_angle_gamma 142.866044
_cell_volume 796.477760
_symmetry_space_group_name_H-M "P -1"
_symmetry_group_IT_number 2
_symmetry_cell_setting 'triclinic'
loop_
_space_group_symop_operation_xyz
x,y,z
-x,-y,-z
loop_
_atom_site_type_symbol
_atom_site_label
_atom_site_fract_x
_atom_site_fract_y
_atom_site_fract_z
Si Si1 0.256319 0.425153 0.290053
Si Si2 0.754717 0.986524 0.888317
Si Si3 0.377636 0.658745 0.831943
Si Si4 0.911625 0.988729 0.687235
Si Si5 0.047002 0.510885 0.368713
Si Si6 0.274099 0.949630 0.360780
Si Si7 0.728497 0.637208 0.254723
Si Si8 0.018614 0.573035 0.111255
O O1 0.500000 0.500000 0.500000
O O2 0.142972 0.201293 0.304567
O O3 0.145177 0.497498 0.214848
O O4 0.193845 0.471085 0.112350
O O5 0.780954 0.966740 0.818806
O O6 0.828992 0.200700 0.859545
O O7 0.526698 0.834891 0.808021
O O8 0.920713 0.959006 0.108126
O O9 0.161779 0.633067 0.686076
O O10 0.294648 0.476824 0.793683
O O11 0.526287 0.659113 0.046874
O O12 0.717232 0.968611 0.578766
O O13 0.049277 0.160424 0.654195
O O14 0.125551 0.723313 0.352608
O O15 0.240380 0.478631 0.578371
O O16 0.975011 0.488177 0.214551
O O17 0.500000 0.000000 0.500000
#
# Coordination Sequence:
#
# PCOD9096928 Si02
#       8
#     2   2   2   2   2   2   2   2
#     4  10  22  41  65  82 113 156 203 250 297 339
#     4   9  20  37  59  86 122 151 189 244 290 355
#     4  10  20  36  58  88 123 167 187 225 294 360
#     4  10  21  38  58  85 116 158 194 241 294 348
#     4  11  22  37  60  87 126 154 190 245 290 355
#     4  11  22  33  54  92 121 150 193 238 296 353
#     4  10  21  36  56  87 126 159 193 229 291 363
#     4   9  22  42  60  91 115 148 201 254 293 340
#
# _framework density 20.088445
#
# number of rings (size 3 to 8) (size 9 to 14) (size 15 to 20)
#    0.000    2.000    1.250    1.500    5.250    1.000 
#    4.500    0.625    0.000   15.750    0.000    0.000 
#    0.000    0.000    0.000    0.000    0.000    0.000 
#
# Total GULP energy -89150.185953 kJ/mol
# GULP energy per Si atom -5571.886622 kJ/mol
# Density = 2.004272 g / cm^3
# Si number density = 20.088445 Si / 1000 Ang^3
#
#
#
# Elastic Constant Matrix: (Units=GPa)
#
#
# Indices 1 2 3 4 5 6 
#
# 1 29.9470 10.0111 1.1716 4.2369 3.5863 -0.8332
# 2 10.0111 59.5786 12.3388 -4.7658 -2.8532 8.4824
# 3 1.1716 12.3388 108.6401 -3.7783 3.0259 7.5812
# 4 4.2369 -4.7658 -3.7783 26.4108 2.5600 4.7368
# 5 3.5863 -2.8532 3.0259 2.5600 25.5570 -0.0335
# 6 -0.8332 8.4824 7.5812 4.7368 -0.0335 26.1884
#
#
#
# Elastic Compliance Matrix: (Units=1/GPa)
#
#
# Indices 1 2 3 4 5 6 
#
# 1 0.037997 -0.008029 0.000011 -0.007957 -0.005426 0.005238
# 2 -0.008029 0.020104 -0.001568 0.005720 0.002974 -0.007344
# 3 0.000011 -0.001568 0.009665 0.001709 -0.001496 -0.002601
# 4 -0.007957 0.005720 0.001709 0.042527 -0.002721 -0.010296
# 5 -0.005426 0.002974 -0.001496 -0.002721 0.040671 -0.000159
# 6 0.005238 -0.007344 -0.002601 -0.010296 -0.000159 0.043345
#
#
# Mechanical properties :
#
#
# Convention : Reuss Voigt Hill
#
# Bulk Modulus (GPa) = 20.57867 27.24541 23.91204
# Shear Modulus (GPa) = 21.76940 27.27416 24.52178
#
# Velocity S-wave (km/s) = 3.29550 3.68870 3.49763
# Velocity P-wave (km/s) = 4.97460 5.63331 5.31417
#
# Compressibility (1/GPa) = 0.04859401
#
# Stress axis : x y z
#
# Youngs Moduli (GPa) = 26.31775 49.74121 103.46311
#
# Poissons Ratio (x) = 0.39938 -0.00114
# Poissons Ratio (y) = 0.21131 0.16224
# Poissons Ratio (z) = -0.00029 0.07800
#
# Static dielectric constant tensor:
#      x y z
#    x 1.712450 0.027490 -0.002130 
#    y 0.027490 1.707170 -0.026630 
#    z -0.002130 -0.026630 1.901670 
# 
# From -- ./inp_files/277318.got.cif
#   From: 2010.05.17/outbox.cif.g08.bks.cpg/sg2_139_cif.got.tgz:277318.got - 2010.06.03 11:33:40.
