data_PCOD9096978
_publ_section_title
;
Structure prediction by ZEFSAII (Michael W. Deem and Ramdas Pophale) SiO2 
 PCOD9096978
Probable space group: P -1
;
_chemical_formula_sum "Si O2"
_cell_formula_units_Z 16
_cell_length_a 13.305513
_cell_length_b 11.339043
_cell_length_c 13.251546
_cell_angle_alpha 22.186933
_cell_angle_beta 86.797235
_cell_angle_gamma 84.808422
_cell_volume 749.817439
_symmetry_space_group_name_H-M "P -1"
_symmetry_group_IT_number 2
_symmetry_cell_setting 'triclinic'
loop_
_space_group_symop_operation_xyz
x,y,z
-x,-y,-z
loop_
_atom_site_type_symbol
_atom_site_label
_atom_site_fract_x
_atom_site_fract_y
_atom_site_fract_z
Si Si1 0.899261 0.363448 0.308791
Si Si2 0.903824 0.683957 0.775012
Si Si3 0.527825 0.179913 0.958869
Si Si4 0.762947 0.212943 0.701705
Si Si5 0.832270 0.034090 0.295221
Si Si6 0.662210 0.704535 0.464863
Si Si7 0.691834 0.575950 0.222453
Si Si8 0.980640 0.276047 0.585968
O O1 0.782154 0.490639 0.205567
O O2 0.942691 0.452336 0.344798
O O3 0.978590 0.435481 0.161292
O O4 0.901086 0.984063 0.609584
O O5 0.865104 0.839538 0.547508
O O6 0.838371 0.400429 0.024920
O O7 0.606990 0.435091 0.736440
O O8 0.422572 0.368317 0.851867
O O9 0.500000 0.000000 0.000000
O O10 0.576869 0.913357 0.241572
O O11 0.742264 0.511383 0.538667
O O12 0.708143 0.324433 0.511307
O O13 0.880592 0.119567 0.747474
O O14 0.716675 0.919290 0.986003
O O15 0.726061 0.927807 0.349956
O O16 0.918342 0.939004 0.280622
O O17 0.000000 0.500000 0.500000
#
# Coordination Sequence:
#
# PCOD9096978 Si02
#       8
#     2   2   2   2   2   2   2   2
#     4   9  22  40  63  92 119 158 202 251 294 357
#     4  10  22  42  65  87 118 158 209 246 293 352
#     4  12  22  36  58  83 122 163 196 241 295 363
#     4  11  20  35  54  84 121 157 186 231 291 370
#     4  11  23  40  62  87 121 164 199 248 298 354
#     4  12  22  37  56  85 120 158 201 237 294 359
#     4  11  22  36  58  85 118 151 197 244 296 345
#     4  10  20  36  58  93 129 156 185 237 305 369
#
# _framework density 21.338528
#
# number of rings (size 3 to 8) (size 9 to 14) (size 15 to 20)
#    0.000    1.250    3.750    2.625    0.000    6.500 
#    0.000    2.500    0.000    4.500    0.000    0.000 
#    0.000    0.000    0.000    0.000    0.000    0.000 
#
# Total GULP energy -89412.957865 kJ/mol
# GULP energy per Si atom -5588.309867 kJ/mol
# Density = 2.128996 g / cm^3
# Si number density = 21.338528 Si / 1000 Ang^3
#
#
#
# Elastic Constant Matrix: (Units=GPa)
#
#
# Indices 1 2 3 4 5 6 
#
# 1 99.5673 17.8995 13.0267 -12.9002 -1.4174 -8.4996
# 2 17.8995 71.6641 10.9759 -11.2406 4.7319 5.5127
# 3 13.0267 10.9759 94.9197 -7.6796 -4.8014 2.4859
# 4 -12.9002 -11.2406 -7.6796 15.4745 0.0226 -5.0651
# 5 -1.4174 4.7319 -4.8014 0.0226 34.6350 -3.6857
# 6 -8.4996 5.5127 2.4859 -5.0651 -3.6857 26.6654
#
#
#
# Elastic Compliance Matrix: (Units=1/GPa)
#
#
# Indices 1 2 3 4 5 6 
#
# 1 0.012477 -0.001911 -0.000720 0.010843 0.001377 0.006689
# 2 -0.001911 0.016366 -0.000975 0.008973 -0.002729 -0.002574
# 3 -0.000720 -0.000975 0.011173 0.004221 0.001646 -0.000040
# 4 0.010843 0.008973 0.004221 0.088229 0.001682 0.018199
# 5 0.001377 -0.002729 0.001646 0.001682 0.030096 0.005329
# 6 0.006689 -0.002574 -0.000040 0.018199 0.005329 0.044363
#
#
# Mechanical properties :
#
#
# Convention : Reuss Voigt Hill
#
# Bulk Modulus (GPa) = 30.48325 38.88391 34.68358
# Shear Modulus (GPa) = 22.63992 30.30494 26.47243
#
# Velocity S-wave (km/s) = 3.26081 3.77264 3.52603
# Velocity P-wave (km/s) = 5.33796 6.10238 5.73292
#
# Compressibility (1/GPa) = 0.03280490
#
# Stress axis : x y z
#
# Youngs Moduli (GPa) = 80.15006 61.10158 89.50544
#
# Poissons Ratio (x) = 0.11675 0.06441
# Poissons Ratio (y) = 0.15314 0.08726
# Poissons Ratio (z) = 0.05768 0.05957
#
# Static dielectric constant tensor:
#      x y z
#    x 1.784540 -0.031180 0.009820 
#    y -0.031180 1.802250 0.001260 
#    z 0.009820 0.001260 1.779040 
# 
# From -- ./inp_files/56923.got.cif
#   From: 2010.05.17/outbox.cif.g08.bks.cpg/sg2_29_cif.got.tgz:56923.got - 2010.06.03 11:33:40.
