data_PCOD9096503
_publ_section_title
;
Structure prediction by ZEFSAII (Michael W. Deem and Ramdas Pophale) SiO2 
 PCOD9096503
Probable space group: P -1
;
_chemical_formula_sum "Si O2"
_cell_formula_units_Z 14
_cell_length_a 12.030203
_cell_length_b 5.228519
_cell_length_c 9.841679
_cell_angle_alpha 69.338969
_cell_angle_beta 71.962531
_cell_angle_gamma 75.582460
_cell_volume 543.926910
_symmetry_space_group_name_H-M "P -1"
_symmetry_group_IT_number 2
_symmetry_cell_setting 'triclinic'
loop_
_space_group_symop_operation_xyz
x,y,z
-x,-y,-z
loop_
_atom_site_type_symbol
_atom_site_label
_atom_site_fract_x
_atom_site_fract_y
_atom_site_fract_z
Si Si1 0.919331 0.301342 0.991741
Si Si2 0.001555 0.344972 0.673498
Si Si3 0.355212 0.016424 0.055624
Si Si4 0.131968 0.762473 0.691367
Si Si5 0.678259 0.135870 0.613303
Si Si6 0.543473 0.716083 0.615416
Si Si7 0.383621 0.585452 0.928137
O O1 0.831263 0.270006 0.158459
O O2 0.000000 0.500000 0.000000
O O3 0.902364 0.393268 0.821755
O O4 0.000000 0.000000 0.000000
O O5 0.104541 0.477419 0.689443
O O6 0.000000 0.500000 0.500000
O O7 0.023549 0.019381 0.690142
O O8 0.307082 0.867510 0.229367
O O9 0.309988 0.338145 0.012339
O O10 0.500000 0.000000 0.000000
O O11 0.322701 0.871683 0.959599
O O12 0.220295 0.876418 0.532730
O O13 0.604929 0.446446 0.562899
O O14 0.624553 0.851057 0.667024
O O15 0.437652 0.615725 0.755538
O O16 0.500000 0.000000 0.500000
O O17 0.500000 0.500000 0.000000
#
# Coordination Sequence:
#
# PCOD9096503 Si02
#       7
#     2   2   2   2   2   2   2
#     4   8  16  32  55  80 107 149 185 204 254 355
#     4  10  19  36  62  88 115 142 181 227 271 341
#     4  10  16  30  55  75  92 142 191 226 253 317
#     4  10  21  35  58  88 110 150 186 221 286 330
#     4  12  21  36  57  80 114 141 191 244 269 331
#     4  12  23  35  55  80 106 148 192 240 283 319
#     4  10  16  32  53  73  94 132 199 224 253 333
#
# _framework density 25.738752999999999
#
# number of rings (size 3 to 8) (size 9 to 14) (size 15 to 20)
#    0.000    1.714    5.714    1.714    0.000    0.000 
#    0.000    0.000    9.429    0.000    0.000    0.000 
#    0.000    0.000    0.000    0.000    0.000    0.000 
#
# Total GULP energy -78075.115568 kJ/mol
# GULP energy per Si atom -5576.793969 kJ/mol
# Density = 2.568017 g / cm^3
# Si number density = 25.738753 Si / 1000 Ang^3
#
#
#
# Elastic Constant Matrix: (Units=GPa)
#
#
# Indices 1 2 3 4 5 6 
#
# 1 33.0241 12.8285 24.5107 13.7089 -6.2823 10.2627
# 2 12.8285 155.5021 7.3337 4.5251 -9.2539 22.5968
# 3 24.5107 7.3337 209.6147 23.9417 -14.0077 -15.3497
# 4 13.7089 4.5251 23.9417 56.4299 -4.2675 -0.4015
# 5 -6.2823 -9.2539 -14.0077 -4.2675 42.8850 5.8422
# 6 10.2627 22.5968 -15.3497 -0.4015 5.8422 33.0165
#
#
#
# Elastic Compliance Matrix: (Units=1/GPa)
#
#
# Indices 1 2 3 4 5 6 
#
# 1 0.044001 -0.000313 -0.005028 -0.008180 0.006238 -0.017004
# 2 -0.000313 0.007423 -0.000466 -0.000199 0.002144 -0.005582
# 3 -0.005028 -0.000466 0.005864 -0.001171 0.000344 0.004533
# 4 -0.008180 -0.000199 -0.001171 0.020243 0.000068 0.002369
# 5 0.006238 0.002144 0.000344 0.000068 0.025880 -0.007825
# 6 -0.017004 -0.005582 0.004533 0.002369 -0.007825 0.042914
#
#
# Mechanical properties :
#
#
# Convention : Reuss Voigt Hill
#
# Bulk Modulus (GPa) = 21.89404 54.16518 38.02961
# Shear Modulus (GPa) = 28.87454 50.03084 39.45269
#
# Velocity S-wave (km/s) = 3.35301 4.41363 3.91936
# Velocity P-wave (km/s) = 4.84922 6.86028 5.94047
#
# Compressibility (1/GPa) = 0.04567454
#
# Stress axis : x y z
#
# Youngs Moduli (GPa) = 22.72669 134.71550 170.54587
#
# Poissons Ratio (x) = 0.04211 0.85753
# Poissons Ratio (y) = 0.00710 0.07945
# Poissons Ratio (z) = 0.11427 0.06276
#
# Static dielectric constant tensor:
#      x y z
#    x 2.221610 0.228340 0.066840 
#    y 0.228340 1.718330 -0.027560 
#    z 0.066840 -0.027560 2.231430 
# 
# From -- ./inp_files/90176.got.cif
#   From: 2010.05.17/outbox.cif.g08.bks.cpg/sg2_46_cif.got.tgz:90176.got - 2010.06.03 11:33:40.
