data_PCOD9096982
_publ_section_title
;
Structure prediction by ZEFSAII (Michael W. Deem and Ramdas Pophale) SiO2 
 PCOD9096982
Probable space group: P -1
;
_chemical_formula_sum "Si O2"
_cell_formula_units_Z 16
_cell_length_a 23.455751
_cell_length_b 15.997987
_cell_length_c 4.944938
_cell_angle_alpha 84.780010
_cell_angle_beta 87.484434
_cell_angle_gamma 157.507472
_cell_volume 665.864565
_symmetry_space_group_name_H-M "P -1"
_symmetry_group_IT_number 2
_symmetry_cell_setting 'triclinic'
loop_
_space_group_symop_operation_xyz
x,y,z
-x,-y,-z
loop_
_atom_site_type_symbol
_atom_site_label
_atom_site_fract_x
_atom_site_fract_y
_atom_site_fract_z
Si Si1 0.365725 0.758034 0.473405
Si Si2 0.175864 0.915910 0.866512
Si Si3 0.533240 0.729102 0.653968
Si Si4 0.368430 0.344767 0.791754
Si Si5 0.220183 0.310773 0.488529
Si Si6 0.621690 0.340727 0.995833
Si Si7 0.934805 0.015839 0.816771
Si Si8 0.978150 0.675068 0.451674
O O1 0.325344 0.638013 0.758808
O O2 0.209321 0.593292 0.461277
O O3 0.500000 0.000000 0.500000
O O4 0.425708 0.787917 0.193546
O O5 0.044292 0.760795 0.716500
O O6 0.304361 0.045547 0.611991
O O7 0.283679 0.138662 0.901395
O O8 0.077907 0.753306 0.199469
O O9 0.480201 0.567291 0.855463
O O10 0.392806 0.543391 0.516562
O O11 0.512223 0.777322 0.846566
O O12 0.500000 0.500000 0.500000
O O13 0.200385 0.165484 0.871226
O O14 0.164323 0.156295 0.365033
O O15 0.239480 0.411952 0.229299
O O16 0.087270 0.166655 0.753888
O O17 0.990942 0.186785 0.691480
#
# Coordination Sequence:
#
# PCOD9096982 Si02
#       8
#     2   2   2   2   2   2   2   2
#     4  12  27  48  74  98 125 160 215 285 349 400
#     4  10  24  37  64  92 134 182 216 266 300 377
#     4  11  22  39  61  94 138 178 227 253 318 380
#     4   9  19  35  55  91 134 190 224 255 295 372
#     4  11  22  36  61  97 137 177 211 268 318 385
#     4  12  23  43  69 100 128 168 215 270 330 398
#     4  10  20  36  58  94 138 175 222 265 316 375
#     4  11  22  42  63  95 128 168 226 260 327 378
#
# _framework density 24.028911000000001
#
# number of rings (size 3 to 8) (size 9 to 14) (size 15 to 20)
#    0.000    1.250    3.750    1.875    1.750    1.500 
#    2.250    5.000    0.000    4.500    0.000    0.000 
#    0.000    0.000    0.000    0.000    0.000    0.000 
#
# Total GULP energy -89221.714267 kJ/mol
# GULP energy per Si atom -5576.357142 kJ/mol
# Density = 2.397422 g / cm^3
# Si number density = 24.028911 Si / 1000 Ang^3
#
#
#
# Elastic Constant Matrix: (Units=GPa)
#
#
# Indices 1 2 3 4 5 6 
#
# 1 6.7700 46.8818 65.1981 7.1904 -30.2394 12.3889
# 2 46.8818 150.7496 51.7606 18.9792 -9.4577 26.2323
# 3 65.1981 51.7606 90.9476 7.5212 -31.5252 12.0718
# 4 7.1904 18.9792 7.5212 40.7256 10.6658 -3.6510
# 5 -30.2394 -9.4577 -31.5252 10.6658 50.5605 -1.9013
# 6 12.3889 26.2323 12.0718 -3.6510 -1.9013 25.0412
#
#
#
# Elastic Compliance Matrix: (Units=1/GPa)
#
#
# Indices 1 2 3 4 5 6 
#
# 1 -0.023079 0.001319 0.012995 0.002951 -0.005936 0.003752
# 2 0.001319 0.010285 -0.004981 -0.005060 0.000308 -0.009740
# 3 0.012995 -0.004981 0.011040 -0.006470 0.014850 -0.006349
# 4 0.002951 -0.005060 -0.006470 0.031001 -0.009350 0.010770
# 5 -0.005936 0.000308 0.014850 -0.009350 0.027373 -0.003830
# 6 0.003752 -0.009740 -0.006349 0.010770 -0.003830 0.052621
#
#
# Mechanical properties :
#
#
# Convention : Reuss Voigt Hill
#
# Bulk Modulus (GPa) = 59.13313 64.01645 61.57479
# Shear Modulus (GPa) = 51.96857 28.90724 40.43791
#
# Velocity S-wave (km/s) = 4.65558 3.47222 4.10675
# Velocity P-wave (km/s) = 7.31860 6.54021 6.94032
#
# Compressibility (1/GPa) = 0.01691099
#
# Stress axis : x y z
#
# Youngs Moduli (GPa) = -43.32959 97.23197 90.58320
#
# Poissons Ratio (x) = -0.12823 -1.17710
# Poissons Ratio (y) = 0.05714 0.45116
# Poissons Ratio (z) = 0.56306 0.48428
#
# Static dielectric constant tensor:
#      x y z
#    x 2.256910 0.175710 0.209530 
#    y 0.175710 1.983930 0.108060 
#    z 0.209530 0.108060 2.127360 
# 
# From -- ./inp_files/127433.got.cif
#   From: 2010.05.17/outbox.cif.g08.bks.cpg/sg2_64_cif.got.tgz:127433.got - 2010.06.03 11:33:40.
