data_PCOD9096718
_publ_section_title
;
Structure prediction by ZEFSAII (Michael W. Deem and Ramdas Pophale) SiO2 
 PCOD9096718
Probable space group: P -1
;
_chemical_formula_sum "Si O2"
_cell_formula_units_Z 16
_cell_length_a 11.256382
_cell_length_b 13.867743
_cell_length_c 4.879943
_cell_angle_alpha 82.411876
_cell_angle_beta 96.166456
_cell_angle_gamma 106.630704
_cell_volume 721.558751
_symmetry_space_group_name_H-M "P -1"
_symmetry_group_IT_number 2
_symmetry_cell_setting 'triclinic'
loop_
_space_group_symop_operation_xyz
x,y,z
-x,-y,-z
loop_
_atom_site_type_symbol
_atom_site_label
_atom_site_fract_x
_atom_site_fract_y
_atom_site_fract_z
Si Si1 0.002094 0.602227 0.805980
Si Si2 0.120923 0.721686 0.295875
Si Si3 0.411517 0.398487 0.892842
Si Si4 0.746072 0.859610 0.451497
Si Si5 0.661109 0.132554 0.930769
Si Si6 0.576664 0.818265 0.928853
Si Si7 0.209738 0.925732 0.484352
Si Si8 0.242534 0.355091 0.366655
O O1 0.869503 0.596521 0.643715
O O2 0.097323 0.640746 0.564995
O O3 0.000000 0.500000 0.000000
O O4 0.034958 0.684007 0.028363
O O5 0.262955 0.756690 0.207896
O O6 0.108893 0.828091 0.376061
O O7 0.466465 0.302352 0.975252
O O8 0.360435 0.402057 0.573344
O O9 0.500000 0.500000 0.000000
O O10 0.288838 0.370198 0.062236
O O11 0.698646 0.860501 0.130446
O O12 0.800314 0.764769 0.538387
O O13 0.823874 0.970118 0.522989
O O14 0.621072 0.833274 0.620903
O O15 0.741526 0.106050 0.206596
O O16 0.528867 0.132501 0.013851
O O17 0.675275 0.061465 0.707436
#
# Coordination Sequence:
#
# PCOD9096718 Si02
#       8
#     2   2   2   2   2   2   2   2
#     4  12  24  43  66  87 115 157 201 255 306 349
#     4  10  22  42  57  88 124 147 202 257 289 360
#     4  10  21  41  62  87 124 156 197 243 295 359
#     4  10  21  37  59  85 126 156 200 245 293 360
#     4  10  20  36  57  87 125 157 196 244 298 343
#     4  10  21  34  56  90 121 162 200 241 292 355
#     4  10  20  37  59  84 126 161 193 244 303 344
#     4  10  23  42  61  92 117 156 202 248 293 360
#
# _framework density 22.174218
#
# number of rings (size 3 to 8) (size 9 to 14) (size 15 to 20)
#    0.750    1.000    1.250    3.000    0.000    4.000 
#    2.250    1.250    0.000    0.000    0.000    0.000 
#    0.000    0.000    0.000    0.000    0.000    0.000 
#
# Total GULP energy -89297.168676 kJ/mol
# GULP energy per Si atom -5581.073042 kJ/mol
# Density = 2.212375 g / cm^3
# Si number density = 22.174218 Si / 1000 Ang^3
#
#
#
# Elastic Constant Matrix: (Units=GPa)
#
#
# Indices 1 2 3 4 5 6 
#
# 1 36.4988 14.9138 1.1340 -15.8074 -8.8486 -2.5165
# 2 14.9138 100.5412 13.4715 8.6881 11.2273 1.6158
# 3 1.1340 13.4715 100.9401 -6.2381 -14.7947 2.4336
# 4 -15.8074 8.6881 -6.2381 34.7620 5.5914 -1.3369
# 5 -8.8486 11.2273 -14.7947 5.5914 22.8587 -1.1357
# 6 -2.5165 1.6158 2.4336 -1.3369 -1.1357 18.1385
#
#
#
# Elastic Compliance Matrix: (Units=1/GPa)
#
#
# Indices 1 2 3 4 5 6 
#
# 1 0.049019 -0.012896 0.005861 0.023110 0.023965 0.010367
# 2 -0.012896 0.014652 -0.004139 -0.008326 -0.013028 -0.003968
# 3 0.005861 -0.004139 0.012287 0.004112 0.011275 0.000542
# 4 0.023110 -0.008326 0.004112 0.041407 0.005907 0.006818
# 5 0.023965 -0.013028 0.011275 0.005907 0.065649 0.007518
# 6 0.010367 -0.003968 0.000542 0.006818 0.007518 0.057824
#
#
# Mechanical properties :
#
#
# Convention : Reuss Voigt Hill
#
# Bulk Modulus (GPa) = 18.65325 33.00207 25.82766
# Shear Modulus (GPa) = 17.79006 29.04923 23.41965
#
# Velocity S-wave (km/s) = 2.83554 3.62338 3.25340
# Velocity P-wave (km/s) = 4.37616 5.69391 5.07796
#
# Compressibility (1/GPa) = 0.05360996
#
# Stress axis : x y z
#
# Youngs Moduli (GPa) = 20.40019 68.25083 81.38630
#
# Poissons Ratio (x) = 0.88019 -0.47703
# Poissons Ratio (y) = 0.26309 0.33685
# Poissons Ratio (z) = -0.11957 0.28249
#
# Static dielectric constant tensor:
#      x y z
#    x 1.810040 0.022420 -0.027300 
#    y 0.022420 1.875030 -0.000990 
#    z -0.027300 -0.000990 1.780060 
# 
# From -- ./inp_files/70694.got.cif
#   From: 2010.05.17/outbox.cif.g08.bks.cpg/sg2_36_cif.got.tgz:70694.got - 2010.06.03 11:33:40.
