data_PCOD9096125
_publ_section_title
;
Structure prediction by ZEFSAII (Michael W. Deem and Ramdas Pophale) SiO2 
 PCOD9096125
Probable space group: P -1
;
_chemical_formula_sum "Si O2"
_cell_formula_units_Z 14
_cell_length_a 14.344048
_cell_length_b 7.915042
_cell_length_c 19.801514
_cell_angle_alpha 138.666944
_cell_angle_beta 30.919941
_cell_angle_gamma 149.971007
_cell_volume 577.807756
_symmetry_space_group_name_H-M "P -1"
_symmetry_group_IT_number 2
_symmetry_cell_setting 'triclinic'
loop_
_space_group_symop_operation_xyz
x,y,z
-x,-y,-z
loop_
_atom_site_type_symbol
_atom_site_label
_atom_site_fract_x
_atom_site_fract_y
_atom_site_fract_z
Si Si1 0.817366 0.870361 0.742578
Si Si2 0.668842 0.215005 0.124474
Si Si3 0.692082 0.454815 0.033657
Si Si4 0.724597 0.753168 0.618040
Si Si5 0.159265 0.894782 0.802264
Si Si6 0.664836 0.472801 0.434193
Si Si7 0.029823 0.951933 0.155503
O O1 0.587349 0.829871 0.894837
O O2 0.709676 0.647116 0.673151
O O3 0.892897 0.840201 0.760722
O O4 0.064218 0.201892 0.657825
O O5 0.732124 0.377291 0.059288
O O6 0.401023 0.080823 0.259993
O O7 0.842488 0.544247 0.163383
O O8 0.749279 0.993162 0.003797
O O9 0.749331 0.811063 0.113099
O O10 0.897020 0.553630 0.885830
O O11 0.609123 0.476184 0.548210
O O12 0.000000 0.000000 0.500000
O O13 0.343754 0.834492 0.666119
O O14 0.103166 0.979806 0.791843
O O15 0.500000 0.500000 0.500000
#
# Coordination Sequence:
#
# PCOD9096125 Si02
#       7
#     2   2   2   2   2   2   2
#     4  10  21  40  62  89 119 156 200 242 300 352
#     4   9  18  36  60  87 118 156 202 240 293 356
#     4   9  20  39  62  88 120 153 194 254 300 343
#     4   9  20  36  57  85 117 155 200 241 279 349
#     4  10  22  40  61  89 121 153 197 249 303 351
#     4  11  23  41  64  85 116 164 205 238 291 366
#     4  10  20  35  62  91 117 152 195 253 302 345
#
# _framework density 24.229514000000002
#
# number of rings (size 3 to 8) (size 9 to 14) (size 15 to 20)
#    0.000    2.286    0.000    1.714    0.000   11.429 
#    0.000   17.143    0.000    0.000    0.000    0.000 
#    0.000    0.000    0.000    0.000    0.000    0.000 
#
# Total GULP energy -78048.964718 kJ/mol
# GULP energy per Si atom -5574.926051 kJ/mol
# Density = 2.417437 g / cm^3
# Si number density = 24.229514 Si / 1000 Ang^3
#
#
#
# Elastic Constant Matrix: (Units=GPa)
#
#
# Indices 1 2 3 4 5 6 
#
# 1 128.2626 18.6374 58.9163 23.0040 -0.3655 19.5872
# 2 18.6374 50.5449 37.3744 -13.0675 -8.5686 5.7464
# 3 58.9163 37.3744 166.7861 -0.5063 -18.6036 0.8488
# 4 23.0040 -13.0675 -0.5063 48.5086 3.4728 0.4365
# 5 -0.3655 -8.5686 -18.6036 3.4728 47.4916 2.9393
# 6 19.5872 5.7464 0.8488 0.4365 2.9393 23.5793
#
#
#
# Elastic Compliance Matrix: (Units=1/GPa)
#
#
# Indices 1 2 3 4 5 6 
#
# 1 0.012593 -0.002466 -0.003960 -0.006532 -0.000834 -0.009492
# 2 -0.002466 0.027547 -0.004949 0.008390 0.002707 -0.004980
# 3 -0.003960 -0.004949 0.008733 0.000442 0.002224 0.003896
# 4 -0.006532 0.008390 0.000442 0.025983 -0.000446 0.002940
# 5 -0.000834 0.002707 0.002224 -0.000446 0.022619 -0.002858
# 6 -0.009492 -0.004980 0.003896 0.002940 -0.002858 0.051671
#
#
# Mechanical properties :
#
#
# Convention : Reuss Voigt Hill
#
# Bulk Modulus (GPa) = 38.28117 63.93885 51.11001
# Shear Modulus (GPa) = 27.68490 39.29358 33.48924
#
# Velocity S-wave (km/s) = 3.38392 4.03143 3.72178
# Velocity P-wave (km/s) = 5.57688 6.93657 6.29355
#
# Compressibility (1/GPa) = 0.02612250
#
# Stress axis : x y z
#
# Youngs Moduli (GPa) = 79.41081 36.30134 114.50473
#
# Poissons Ratio (x) = 0.08952 0.45347
# Poissons Ratio (y) = 0.19583 0.56669
# Poissons Ratio (z) = 0.31449 0.17966
#
# Static dielectric constant tensor:
#      x y z
#    x 1.940280 0.055450 -0.019670 
#    y 0.055450 2.051740 0.006800 
#    z -0.019670 0.006800 1.987640 
# 
# From -- ./inp_files/333589.got.cif
#   From: 2010.05.17/outbox.cif.g08.bks.cpg/sg2_167_cif.got.tgz:333589.got - 2010.06.03 11:33:40.
