data_PCOD9096851
_publ_section_title
;
Structure prediction by ZEFSAII (Michael W. Deem and Ramdas Pophale) SiO2 
 PCOD9096851
Probable space group: P -1
;
_chemical_formula_sum "Si O2"
_cell_formula_units_Z 16
_cell_length_a 6.648156
_cell_length_b 13.143821
_cell_length_c 13.782018
_cell_angle_alpha 115.920304
_cell_angle_beta 97.343167
_cell_angle_gamma 43.537837
_cell_volume 710.520851
_symmetry_space_group_name_H-M "P -1"
_symmetry_group_IT_number 2
_symmetry_cell_setting 'triclinic'
loop_
_space_group_symop_operation_xyz
x,y,z
-x,-y,-z
loop_
_atom_site_type_symbol
_atom_site_label
_atom_site_fract_x
_atom_site_fract_y
_atom_site_fract_z
Si Si1 0.656745 0.034593 0.890931
Si Si2 0.614177 0.812316 0.855833
Si Si3 0.655761 0.298637 0.273635
Si Si4 0.227997 0.354571 0.529433
Si Si5 0.168601 0.185079 0.588032
Si Si6 0.852710 0.155259 0.430416
Si Si7 0.500351 0.208866 0.761297
Si Si8 0.312977 0.500605 0.763904
O O1 0.502772 0.179197 0.862433
O O2 0.539278 0.953444 0.845158
O O3 0.587022 0.101526 0.023573
O O4 0.014911 0.878018 0.822427
O O5 0.564330 0.716325 0.757764
O O6 0.970118 0.676205 0.850127
O O7 0.726388 0.286692 0.387798
O O8 0.550038 0.445379 0.258076
O O9 0.080537 0.308226 0.549108
O O10 0.571438 0.187246 0.442763
O O11 0.271841 0.431074 0.644485
O O12 0.000000 0.500000 0.500000
O O13 0.243734 0.233703 0.705148
O O14 0.935839 0.180193 0.549037
O O15 0.500000 0.000000 0.500000
O O16 0.168244 0.968734 0.334348
O O17 0.460713 0.357782 0.794774
#
# Coordination Sequence:
#
# PCOD9096851 Si02
#       8
#     2   2   2   2   2   2   2   2
#     4   9  20  39  62  82 107 144 190 234 280 337
#     4  10  20  38  61  83 108 145 186 236 286 326
#     4  10  20  36  58  85 112 143 189 234 277 335
#     4  11  22  36  55  81 113 151 192 231 274 329
#     4   9  20  36  54  79 112 149 189 227 270 329
#     4  10  21  37  58  80 112 155 191 228 275 326
#     4   9  20  39  57  82 117 150 189 234 278 336
#     4  10  22  35  52  83 118 144 183 233 279 334
#
# _framework density 22.518692999999999
#
# number of rings (size 3 to 8) (size 9 to 14) (size 15 to 20)
#    0.000    2.250    0.000    1.875    0.000   13.000 
#    0.000    6.875    0.000    0.000    0.000    0.000 
#    0.000    0.000    0.000    0.000    0.000    0.000 
#
# Total GULP energy -89266.742150 kJ/mol
# GULP energy per Si atom -5579.171384 kJ/mol
# Density = 2.246744 g / cm^3
# Si number density = 22.518693 Si / 1000 Ang^3
#
#
#
# Elastic Constant Matrix: (Units=GPa)
#
#
# Indices 1 2 3 4 5 6 
#
# 1 82.6540 25.0367 14.0338 -15.7616 3.7642 3.9684
# 2 25.0367 130.3677 6.3343 -21.0938 -1.0378 30.1387
# 3 14.0338 6.3343 35.0302 0.4198 -11.8334 -1.7797
# 4 -15.7616 -21.0938 0.4198 22.7772 4.5172 -8.0977
# 5 3.7642 -1.0378 -11.8334 4.5172 29.5968 7.2715
# 6 3.9684 30.1387 -1.7797 -8.0977 7.2715 39.5576
#
#
#
# Elastic Compliance Matrix: (Units=1/GPa)
#
#
# Indices 1 2 3 4 5 6 
#
# 1 0.016993 -0.001462 -0.009552 0.013562 -0.008936 0.003398
# 2 -0.001462 0.010636 -0.001535 0.006295 0.000670 -0.006860
# 3 -0.009552 -0.001535 0.039287 -0.013505 0.019534 -0.002460
# 4 0.013562 0.006295 -0.013505 0.067045 -0.019738 0.010589
# 5 -0.008936 0.000670 0.019534 -0.019738 0.048649 -0.011718
# 6 0.003398 -0.006860 -0.002460 0.010589 -0.011718 0.034377
#
#
# Mechanical properties :
#
#
# Convention : Reuss Voigt Hill
#
# Bulk Modulus (GPa) = 23.91350 37.65127 30.78238
# Shear Modulus (GPa) = 19.52935 31.89613 25.71274
#
# Velocity S-wave (km/s) = 2.94811 3.76763 3.38278
# Velocity P-wave (km/s) = 4.71497 5.97353 5.38117
#
# Compressibility (1/GPa) = 0.04181739
#
# Stress axis : x y z
#
# Youngs Moduli (GPa) = 58.84683 94.02259 25.45373
#
# Poissons Ratio (x) = 0.13744 0.24314
# Poissons Ratio (y) = 0.08602 0.03908
# Poissons Ratio (z) = 0.56212 0.14435
#
# Static dielectric constant tensor:
#      x y z
#    x 2.022920 0.235850 -0.012070 
#    y 0.235850 2.216850 0.037160 
#    z -0.012070 0.037160 1.834440 
# 
# From -- ./inp_files/47432.got.cif
#   From: 2010.05.17/outbox.cif.g08.bks.cpg/sg2_24_cif.got.tgz:47432.got - 2010.06.03 11:33:40.
