data_PCOD9096783
_publ_section_title
;
Structure prediction by ZEFSAII (Michael W. Deem and Ramdas Pophale) SiO2 
 PCOD9096783
Probable space group: P -1
;
_chemical_formula_sum "Si O2"
_cell_formula_units_Z 16
_cell_length_a 13.462719
_cell_length_b 11.573979
_cell_length_c 6.281624
_cell_angle_alpha 104.355467
_cell_angle_beta 81.759805
_cell_angle_gamma 65.808288
_cell_volume 831.064745
_symmetry_space_group_name_H-M "P -1"
_symmetry_group_IT_number 2
_symmetry_cell_setting 'triclinic'
loop_
_space_group_symop_operation_xyz
x,y,z
-x,-y,-z
loop_
_atom_site_type_symbol
_atom_site_label
_atom_site_fract_x
_atom_site_fract_y
_atom_site_fract_z
Si Si1 0.957953 0.111664 0.748703
Si Si2 0.833969 0.076164 0.155597
Si Si3 0.312451 0.462943 0.593122
Si Si4 0.390895 0.218473 0.736842
Si Si5 0.819069 0.314342 0.566804
Si Si6 0.622111 0.388412 0.990747
Si Si7 0.391869 0.943513 0.673988
Si Si8 0.486452 0.261476 0.136520
O O1 0.913009 0.251566 0.696654
O O2 0.860291 0.101473 0.916261
O O3 0.000000 0.000000 0.500000
O O4 0.062540 0.064689 0.858299
O O5 0.840061 0.195228 0.341967
O O6 0.717978 0.075408 0.256000
O O7 0.309917 0.339420 0.664047
O O8 0.209700 0.555726 0.511311
O O9 0.333400 0.554473 0.802996
O O10 0.424710 0.382528 0.378125
O O11 0.521626 0.148230 0.578356
O O12 0.360505 0.097083 0.710670
O O13 0.398334 0.279128 0.988111
O O14 0.705484 0.349701 0.749782
O O15 0.595663 0.270388 0.022391
O O16 0.500000 0.500000 0.000000
O O17 0.471921 0.881109 0.826804
#
# Coordination Sequence:
#
# PCOD9096783 Si02
#       8
#     2   2   2   2   2   2   2   2
#     4   9  20  37  55  82 108 135 177 230 282 328
#     4  10  20  36  58  82 108 139 182 226 277 323
#     4  11  21  32  48  74 109 148 176 214 264 324
#     4  10  21  36  48  76 112 151 187 218 256 316
#     4  11  20  32  54  80 111 142 170 221 278 328
#     4  12  21  31  50  79 113 144 177 217 269 330
#     4  10  21  34  55  75 106 148 189 224 261 314
#     4  11  20  32  49  72 109 144 183 220 261 320
#
# _framework density 19.252413000000001
#
# number of rings (size 3 to 8) (size 9 to 14) (size 15 to 20)
#    0.000    1.500    2.500    3.750    1.750    1.000 
#    0.000    0.000    0.000    0.750    0.000   14.875 
#    0.000    0.000    0.000    0.000    0.000    0.000 
#
# Total GULP energy -89175.458473 kJ/mol
# GULP energy per Si atom -5573.466155 kJ/mol
# Density = 1.920859 g / cm^3
# Si number density = 19.252413 Si / 1000 Ang^3
#
#
#
# Elastic Constant Matrix: (Units=GPa)
#
#
# Indices 1 2 3 4 5 6 
#
# 1 25.5580 15.3111 3.9247 -5.7436 -4.2901 -6.2268
# 2 15.3111 150.6310 16.3702 -35.3786 14.1803 -12.7058
# 3 3.9247 16.3702 88.3168 -7.5128 -1.7364 4.7024
# 4 -5.7436 -35.3786 -7.5128 32.4125 -4.7774 3.3159
# 5 -4.2901 14.1803 -1.7364 -4.7774 15.0278 0.8957
# 6 -6.2268 -12.7058 4.7024 3.3159 0.8957 26.6366
#
#
#
# Elastic Compliance Matrix: (Units=1/GPa)
#
#
# Indices 1 2 3 4 5 6 
#
# 1 0.048481 -0.004764 -0.000864 0.005246 0.019432 0.007907
# 2 -0.004764 0.010381 -0.001335 0.008544 -0.008791 0.003306
# 3 -0.000864 -0.001335 0.012018 0.001992 0.003232 -0.003317
# 4 0.005246 0.008544 0.001992 0.042704 0.007278 -0.000611
# 5 0.019432 -0.008791 0.003232 0.007278 0.083307 -0.003929
# 6 0.007907 0.003306 -0.003317 -0.000611 -0.003929 0.041761
#
#
# Mechanical properties :
#
#
# Convention : Reuss Voigt Hill
#
# Bulk Modulus (GPa) = 17.55799 37.30196 27.42998
# Shear Modulus (GPa) = 18.41191 30.07536 24.24363
#
# Velocity S-wave (km/s) = 3.09583 3.95671 3.55244
# Velocity P-wave (km/s) = 4.68173 6.34754 5.57718
#
# Compressibility (1/GPa) = 0.05695413
#
# Stress axis : x y z
#
# Youngs Moduli (GPa) = 20.62676 96.32891 83.20710
#
# Poissons Ratio (x) = 0.45895 0.07189
# Poissons Ratio (y) = 0.09827 0.11105
# Poissons Ratio (z) = 0.01782 0.12856
#
# Static dielectric constant tensor:
#      x y z
#    x 1.650250 -0.041620 0.004280 
#    y -0.041620 1.762890 -0.045150 
#    z 0.004280 -0.045150 1.708860 
# 
# From -- ./inp_files/69217.got.cif
#   From: 2010.05.17/outbox.cif.g08.bks.cpg/sg2_35_cif.got.tgz:69217.got - 2010.06.03 11:33:40.
