data_PCOD9096698
_publ_section_title
;
Structure prediction by ZEFSAII (Michael W. Deem and Ramdas Pophale) SiO2 
 PCOD9096698
Probable space group: P -1
;
_chemical_formula_sum "Si O2"
_cell_formula_units_Z 16
_cell_length_a 16.274376
_cell_length_b 11.550355
_cell_length_c 15.049473
_cell_angle_alpha 135.092488
_cell_angle_beta 150.859512
_cell_angle_gamma 64.527052
_cell_volume 813.232822
_symmetry_space_group_name_H-M "P -1"
_symmetry_group_IT_number 2
_symmetry_cell_setting 'triclinic'
loop_
_space_group_symop_operation_xyz
x,y,z
-x,-y,-z
loop_
_atom_site_type_symbol
_atom_site_label
_atom_site_fract_x
_atom_site_fract_y
_atom_site_fract_z
Si Si1 0.348345 0.426675 0.703547
Si Si2 0.881270 0.620238 0.706522
Si Si3 0.314381 0.783262 0.189475
Si Si4 0.468727 0.578977 0.603453
Si Si5 0.573512 0.263904 0.918630
Si Si6 0.483487 0.966650 0.822029
Si Si7 0.289166 0.392137 0.986375
Si Si8 0.170318 0.801802 0.588554
O O1 0.181794 0.329353 0.417582
O O2 0.398271 0.283080 0.720481
O O3 0.555011 0.583081 0.929530
O O4 0.307966 0.545184 0.802350
O O5 0.728403 0.590308 0.622549
O O6 0.848128 0.406106 0.546395
O O7 0.114246 0.763918 0.024583
O O8 0.300455 0.738601 0.046340
O O9 0.330333 0.610295 0.152692
O O10 0.500000 0.000000 0.500000
O O11 0.500000 0.500000 0.500000
O O12 0.440404 0.753940 0.648844
O O13 0.647068 0.656018 0.886923
O O14 0.489883 0.077169 0.800190
O O15 0.313464 0.934481 0.714368
O O16 0.700707 0.093046 0.144714
O O17 0.055605 0.248791 0.660797
#
# Coordination Sequence:
#
# PCOD9096698 Si02
#       8
#     2   2   2   2   2   2   2   2
#     4   9  18  37  59  84 114 147 184 239 297 326
#     4   9  18  40  62  81 115 151 189 233 296 336
#     4  10  22  39  60  82 113 160 191 231 281 343
#     4  10  22  39  60  84 115 157 191 235 281 339
#     4  10  20  36  57  86 115 146 189 241 272 346
#     4  10  20  36  58  85 118 146 194 237 279 349
#     4   9  20  39  58  82 118 149 189 236 295 337
#     4   9  18  36  60  85 112 152 183 238 303 328
#
# _framework density 19.674562999999999
#
# number of rings (size 3 to 8) (size 9 to 14) (size 15 to 20)
#    0.000    2.500    1.250    0.000    3.500    1.000 
#    6.750    7.500    0.000    0.000    0.000    0.000 
#    0.000    0.000    0.000    0.000    0.000    0.000 
#
# Total GULP energy -89298.773402 kJ/mol
# GULP energy per Si atom -5581.173338 kJ/mol
# Density = 1.962978 g / cm^3
# Si number density = 19.674563 Si / 1000 Ang^3
#
#
#
# Elastic Constant Matrix: (Units=GPa)
#
#
# Indices 1 2 3 4 5 6 
#
# 1 79.0696 25.5758 16.0027 -8.7417 -14.4811 1.0616
# 2 25.5758 75.9749 8.4541 -1.3120 0.6605 31.5498
# 3 16.0027 8.4541 78.6223 -4.2875 14.5555 -10.0381
# 4 -8.7417 -1.3120 -4.2875 17.6349 -4.0012 2.7827
# 5 -14.4811 0.6605 14.5555 -4.0012 16.3182 -1.7182
# 6 1.0616 31.5498 -10.0381 2.7827 -1.7182 34.6122
#
#
#
# Elastic Compliance Matrix: (Units=1/GPa)
#
#
# Indices 1 2 3 4 5 6 
#
# 1 0.026830 -0.010792 -0.009463 0.017698 0.037735 0.006720
# 2 -0.010792 0.027932 -0.002004 -0.002419 -0.012264 -0.026125
# 3 -0.009463 -0.002004 0.020508 -0.007271 -0.027626 0.007277
# 4 0.017698 -0.002419 -0.007271 0.073247 0.039789 -0.004360
# 5 0.037735 -0.012264 -0.027626 0.039789 0.130217 0.005275
# 6 0.006720 -0.026125 0.007277 -0.004360 0.005275 0.055222
#
#
# Mechanical properties :
#
#
# Convention : Reuss Voigt Hill
#
# Bulk Modulus (GPa) = 32.51868 37.08133 34.80000
# Shear Modulus (GPa) = 12.86256 25.95535 19.40895
#
# Velocity S-wave (km/s) = 2.55966 3.63607 3.14427
# Velocity P-wave (km/s) = 5.02991 6.04287 5.55951
#
# Compressibility (1/GPa) = 0.03075155
#
# Stress axis : x y z
#
# Youngs Moduli (GPa) = 37.27112 35.80133 48.76200
#
# Poissons Ratio (x) = 0.38637 0.46145
# Poissons Ratio (y) = 0.40224 0.09771
# Poissons Ratio (z) = 0.35271 0.07174
#
# Static dielectric constant tensor:
#      x y z
#    x 1.687370 -0.007110 0.013400 
#    y -0.007110 1.701170 -0.002300 
#    z 0.013400 -0.002300 1.680250 
# 
# From -- ./inp_files/416615.got.cif
#   From: 2010.05.17/outbox.cif.g08.bks.cpg/sg2_209_cif.got.tgz:416615.got - 2010.06.03 11:33:40.
