data_PCOD9096415
_publ_section_title
;
Structure prediction by ZEFSAII (Michael W. Deem and Ramdas Pophale) SiO2 
 PCOD9096415
Probable space group: P -1
;
_chemical_formula_sum "Si O2"
_cell_formula_units_Z 15
_cell_length_a 11.851320
_cell_length_b 8.399690
_cell_length_c 21.041342
_cell_angle_alpha 37.554948
_cell_angle_beta 31.224251
_cell_angle_gamma 47.769715
_cell_volume 661.720947
_symmetry_space_group_name_H-M "P -1"
_symmetry_group_IT_number 2
_symmetry_cell_setting 'triclinic'
loop_
_space_group_symop_operation_xyz
x,y,z
-x,-y,-z
loop_
_atom_site_type_symbol
_atom_site_label
_atom_site_fract_x
_atom_site_fract_y
_atom_site_fract_z
Si Si1 0.762364 0.261268 0.231646
Si Si2 0.000000 0.000000 0.000000
Si Si3 0.673398 0.613527 0.637585
Si Si4 0.048662 0.398850 0.161125
Si Si5 0.891704 0.262670 0.543476
Si Si6 0.537649 0.304829 0.928884
Si Si7 0.177927 0.115524 0.009801
Si Si8 0.142419 0.327839 0.277968
O O1 0.516641 0.193906 0.352510
O O2 0.854826 0.262727 0.257998
O O3 0.933255 0.095460 0.162105
O O4 0.773932 0.572998 0.110289
O O5 0.063138 0.704548 0.040682
O O6 0.172308 0.995292 0.980072
O O7 0.725209 0.433065 0.609091
O O8 0.604397 0.433771 0.788282
O O9 0.896548 0.756289 0.506848
O O10 0.020472 0.391432 0.252055
O O11 0.279951 0.277757 0.070793
O O12 0.984322 0.384998 0.395203
O O13 0.806556 0.977993 0.654874
O O14 0.638087 0.512559 0.865124
O O15 0.659721 0.042360 0.973186
#
# Coordination Sequence:
#
# PCOD9096415 Si02
#       8
#     2   1   2   2   2   2   2   2
#     4  10  23  38  57  87 135 162 193 248 327 364
#     4  10  20  36  54  84 138 156 186 236 316 372
#     4  10  21  42  64  88 117 169 207 262 301 359
#     4  11  23  38  61  99 128 163 196 250 317 389
#     4   9  22  41  67  86 118 161 227 257 292 348
#     4  11  22  36  67  96 123 155 210 251 316 374
#     4  10  21  37  55  95 127 162 193 247 315 396
#     4  10  21  40  62  93 119 159 208 264 295 358
#
# _framework density 22.668164999999998
#
# number of rings (size 3 to 8) (size 9 to 14) (size 15 to 20)
#    0.000    1.867    1.333    2.800    3.733    2.133 
#    0.000    2.667    0.000    0.000    0.000    0.000 
#    0.000    0.000    0.000    0.000    0.000    0.000 
#
# Total GULP energy -83569.537319 kJ/mol
# GULP energy per Si atom -5571.302488 kJ/mol
# Density = 2.261657 g / cm^3
# Si number density = 22.668165 Si / 1000 Ang^3
#
#
#
# Elastic Constant Matrix: (Units=GPa)
#
#
# Indices 1 2 3 4 5 6 
#
# 1 119.5901 23.1806 18.5621 13.7876 12.9031 -13.6164
# 2 23.1806 70.2291 22.6810 15.9021 -1.5735 -16.2930
# 3 18.5621 22.6810 35.5696 11.9017 -4.2609 -8.0958
# 4 13.7876 15.9021 11.9017 29.5849 3.8398 -12.8258
# 5 12.9031 -1.5735 -4.2609 3.8398 31.3939 6.0966
# 6 -13.6164 -16.2930 -8.0958 -12.8258 6.0966 37.9086
#
#
#
# Elastic Compliance Matrix: (Units=1/GPa)
#
#
# Indices 1 2 3 4 5 6 
#
# 1 0.010254 -0.001341 -0.004366 -0.000329 -0.005404 0.002932
# 2 -0.001341 0.019746 -0.009464 -0.004174 -0.000125 0.004592
# 3 -0.004366 -0.009464 0.040767 -0.011338 0.008659 -0.002158
# 4 -0.000329 -0.004174 -0.011338 0.047924 -0.010097 0.013505
# 5 -0.005404 -0.000125 0.008659 -0.010097 0.038368 -0.009732
# 6 0.002932 0.004592 -0.002158 0.013505 -0.009732 0.035079
#
#
# Mechanical properties :
#
#
# Convention : Reuss Voigt Hill
#
# Bulk Modulus (GPa) = 24.73733 39.35958 32.04845
# Shear Modulus (GPa) = 21.19035 30.50849 25.84942
#
# Velocity S-wave (km/s) = 3.06078 3.67260 3.38056
# Velocity P-wave (km/s) = 4.84021 5.94853 5.42276
#
# Compressibility (1/GPa) = 0.04042473
#
# Stress axis : x y z
#
# Youngs Moduli (GPa) = 97.52016 50.64322 24.52960
#
# Poissons Ratio (x) = 0.06791 0.10710
# Poissons Ratio (y) = 0.13076 0.23216
# Poissons Ratio (z) = 0.42577 0.47931
#
# Static dielectric constant tensor:
#      x y z
#    x 1.893500 -0.025060 0.007840 
#    y -0.025060 1.824670 -0.033270 
#    z 0.007840 -0.033270 1.902400 
# 
# From -- ./inp_files/609474.got.cif
#   From: 2010.05.17/outbox.cif.g08.bks.cpg/sg2_305_cif.got.tgz:609474.got - 2010.06.03 11:33:40.
