data_PCOD9096990
_publ_section_title
;
Structure prediction by ZEFSAII (Michael W. Deem and Ramdas Pophale) SiO2 
 PCOD9096990
Probable space group: P -1
;
_chemical_formula_sum "Si O2"
_cell_formula_units_Z 16
_cell_length_a 5.386902
_cell_length_b 9.563016
_cell_length_c 17.360216
_cell_angle_alpha 64.405070
_cell_angle_beta 90.790513
_cell_angle_gamma 96.585775
_cell_volume 800.593502
_symmetry_space_group_name_H-M "P -1"
_symmetry_group_IT_number 2
_symmetry_cell_setting 'triclinic'
loop_
_space_group_symop_operation_xyz
x,y,z
-x,-y,-z
loop_
_atom_site_type_symbol
_atom_site_label
_atom_site_fract_x
_atom_site_fract_y
_atom_site_fract_z
Si Si1 0.478308 0.650330 0.911835
Si Si2 0.279810 0.612001 0.525025
Si Si3 0.456834 0.011772 0.087688
Si Si4 0.944990 0.929415 0.190634
Si Si5 0.090000 0.289365 0.616907
Si Si6 0.011591 0.267482 0.191802
Si Si7 0.079458 0.784119 0.618419
Si Si8 0.282777 0.108098 0.527197
O O1 0.511509 0.808178 0.926080
O O2 0.710500 0.663786 0.849910
O O3 0.209712 0.649871 0.869126
O O4 0.500000 0.500000 0.000000
O O5 0.315925 0.431064 0.578061
O O6 0.117013 0.647198 0.591584
O O7 0.492524 0.755872 0.497152
O O8 0.138849 0.633253 0.439206
O O9 0.179727 0.940623 0.130767
O O10 0.677032 0.929929 0.148787
O O11 0.500000 0.000000 0.000000
O O12 0.945341 0.783927 0.282440
O O13 0.979463 0.088477 0.203779
O O14 0.118860 0.150999 0.589705
O O15 0.974472 0.268833 0.282827
O O16 0.855691 0.865145 0.559540
O O17 0.308292 0.926152 0.581834
#
# Coordination Sequence:
#
# PCOD9096990 Si02
#       8
#     2   2   2   2   2   2   2   2
#     4  10  22  41  64  89 117 156 190 242 313 361
#     4  10  22  36  56  82 122 161 196 254 294 345
#     4  10  22  42  64  89 118 149 197 249 300 363
#     4  10  21  39  64  90 115 160 201 240 296 366
#     4  10  21  38  55  85 117 159 206 241 298 352
#     4  10  21  38  64  88 122 154 201 243 288 373
#     4  10  21  36  53  90 115 156 205 243 293 343
#     4  10  20  36  59  78 120 160 198 245 296 347
#
# _framework density 19.985173
#
# number of rings (size 3 to 8) (size 9 to 14) (size 15 to 20)
#    0.000    2.000    1.250    1.500    3.500    1.000 
#    4.500    0.000    0.000    0.000    0.000    0.000 
#    0.000    0.000    0.000    0.000    0.000    0.000 
#
# Total GULP energy -89224.780323 kJ/mol
# GULP energy per Si atom -5576.548770 kJ/mol
# Density = 1.993969 g / cm^3
# Si number density = 19.985173 Si / 1000 Ang^3
#
#
#
# Elastic Constant Matrix: (Units=GPa)
#
#
# Indices 1 2 3 4 5 6 
#
# 1 109.8999 27.5318 51.1047 -3.4200 -1.3339 -5.9685
# 2 27.5318 81.1707 46.1069 -4.7437 -3.2586 -4.8173
# 3 51.1047 46.1069 158.0200 -4.9849 -5.8021 -13.3565
# 4 -3.4200 -4.7437 -4.9849 33.0650 -1.3626 -5.1799
# 5 -1.3339 -3.2586 -5.8021 -1.3626 15.0182 0.3521
# 6 -5.9685 -4.8173 -13.3565 -5.1799 0.3521 26.8216
#
#
#
# Elastic Compliance Matrix: (Units=1/GPa)
#
#
# Indices 1 2 3 4 5 6 
#
# 1 0.011010 -0.002030 -0.002910 0.000502 -0.000559 0.000740
# 2 -0.002030 0.015279 -0.003615 0.001637 0.001868 0.000784
# 3 -0.002910 -0.003615 0.008718 0.001097 0.002349 0.003225
# 4 0.000502 0.001637 0.001097 0.031950 0.003556 0.007075
# 5 -0.000559 0.001868 0.002349 0.003556 0.068144 0.001173
# 6 0.000740 0.000784 0.003225 0.007075 0.001173 0.040546
#
#
# Mechanical properties :
#
#
# Convention : Reuss Voigt Hill
#
# Bulk Modulus (GPa) = 55.88060 66.50859 61.19460
# Shear Modulus (GPa) = 25.16043 29.93745 27.54894
#
# Velocity S-wave (km/s) = 3.55202 3.87458 3.71680
# Velocity P-wave (km/s) = 6.69658 7.30532 7.00756
#
# Compressibility (1/GPa) = 0.01789530
#
# Stress axis : x y z
#
# Youngs Moduli (GPa) = 90.82411 65.44952 114.70794
#
# Poissons Ratio (x) = 0.13289 0.33385
# Poissons Ratio (y) = 0.18442 0.41466
# Poissons Ratio (z) = 0.26434 0.23659
#
# Static dielectric constant tensor:
#      x y z
#    x 1.827040 0.015630 -0.027900 
#    y 0.015630 1.740210 -0.006270 
#    z -0.027900 -0.006270 1.659400 
# 
# From -- ./inp_files/81618.got.cif
#   From: 2010.05.17/outbox.cif.g08.bks.cpg/sg2_41_cif.got.tgz:81618.got - 2010.06.03 11:33:40.
