data_PCOD9096496
_publ_section_title
;
Structure prediction by ZEFSAII (Michael W. Deem and Ramdas Pophale) SiO2 
 PCOD9096496
Probable space group: P -1
;
_chemical_formula_sum "Si O2"
_cell_formula_units_Z 16
_cell_length_a 9.197300
_cell_length_b 14.451226
_cell_length_c 13.540964
_cell_angle_alpha 45.322073
_cell_angle_beta 35.646993
_cell_angle_gamma 49.470596
_cell_volume 732.336880
_symmetry_space_group_name_H-M "P -1"
_symmetry_group_IT_number 2
_symmetry_cell_setting 'triclinic'
loop_
_space_group_symop_operation_xyz
x,y,z
-x,-y,-z
loop_
_atom_site_type_symbol
_atom_site_label
_atom_site_fract_x
_atom_site_fract_y
_atom_site_fract_z
Si Si1 0.063801 0.040154 0.042986
Si Si2 0.701203 0.605715 0.681217
Si Si3 0.625349 0.068255 0.748077
Si Si4 0.123853 0.897136 0.613262
Si Si5 0.399539 0.333457 0.749473
Si Si6 0.152336 0.697801 0.917652
Si Si7 0.756004 0.904227 0.463710
Si Si8 0.255834 0.464046 0.521872
O O1 0.927824 0.188700 0.039656
O O2 0.361126 0.035125 0.886194
O O3 0.970796 0.940676 0.245989
O O4 0.000000 0.000000 0.000000
O O5 0.411191 0.596980 0.876177
O O6 0.733078 0.753722 0.582055
O O7 0.714872 0.587507 0.568071
O O8 0.949316 0.513513 0.661610
O O9 0.766011 0.130158 0.534865
O O10 0.547331 0.181961 0.786987
O O11 0.821311 0.934878 0.765182
O O12 0.221276 0.781469 0.722480
O O13 0.199472 0.036515 0.499019
O O14 0.358359 0.367783 0.628825
O O15 0.575839 0.421973 0.639359
O O16 0.104616 0.353915 0.930057
O O17 0.500000 0.000000 0.500000
#
# Coordination Sequence:
#
# PCOD9096496 Si02
#       8
#     2   2   2   2   2   2   2   2
#     4  10  21  33  54  90 117 156 186 232 296 361
#     4  11  22  40  61  91 116 159 199 251 290 358
#     4  10  21  35  60  83 125 150 197 237 293 365
#     4  10  20  36  55  94 117 158 184 238 306 362
#     4  10  22  42  60  85 112 166 198 255 288 349
#     4  10  22  36  64  83 123 151 195 248 298 354
#     4  11  20  34  60  85 118 151 183 237 300 356
#     4  10  24  41  63  82 118 159 211 243 296 339
#
# _framework density 21.84787
#
# number of rings (size 3 to 8) (size 9 to 14) (size 15 to 20)
#    0.000    1.750    2.500    2.250    3.500    6.500 
#    0.000    0.000    0.000    0.000    0.000    0.000 
#    0.000    0.000    0.000    0.000    0.000    0.000 
#
# Total GULP energy -89286.902411 kJ/mol
# GULP energy per Si atom -5580.431401 kJ/mol
# Density = 2.179814 g / cm^3
# Si number density = 21.847870 Si / 1000 Ang^3
#
#
#
# Elastic Constant Matrix: (Units=GPa)
#
#
# Indices 1 2 3 4 5 6 
#
# 1 79.7297 22.5072 15.9217 12.1582 -18.1624 -7.9950
# 2 22.5072 60.6787 24.1180 30.1068 -19.2730 -17.9386
# 3 15.9217 24.1180 97.8904 22.7552 -29.6966 -8.5308
# 4 12.1582 30.1068 22.7552 36.3225 -9.3341 -14.5708
# 5 -18.1624 -19.2730 -29.6966 -9.3341 35.3602 3.2009
# 6 -7.9950 -17.9386 -8.5308 -14.5708 3.2009 23.3688
#
#
#
# Elastic Compliance Matrix: (Units=1/GPa)
#
#
# Indices 1 2 3 4 5 6 
#
# 1 0.014952 -0.002989 0.000435 -0.000491 0.006121 0.001836
# 2 -0.002989 0.034544 0.001457 -0.020919 0.011968 0.011344
# 3 0.000435 0.001457 0.015148 -0.007679 0.011676 0.000410
# 4 -0.000491 -0.020919 -0.007679 0.054933 -0.005043 0.015913
# 5 0.006121 0.011968 0.011676 -0.005043 0.045869 0.006116
# 6 0.001836 0.011344 0.000410 0.015913 0.006116 0.061362
#
#
# Mechanical properties :
#
#
# Convention : Reuss Voigt Hill
#
# Bulk Modulus (GPa) = 16.01214 40.37695 28.19454
# Shear Modulus (GPa) = 20.01459 30.72708 25.37083
#
# Velocity S-wave (km/s) = 3.02998 3.75428 3.41141
# Velocity P-wave (km/s) = 4.42559 6.10851 5.33384
#
# Compressibility (1/GPa) = 0.06245263
#
# Stress axis : x y z
#
# Youngs Moduli (GPa) = 66.87859 28.94883 66.01327
#
# Poissons Ratio (x) = 0.08652 -0.02874
# Poissons Ratio (y) = 0.19988 -0.09620
# Poissons Ratio (z) = -0.02912 -0.04219
#
# Static dielectric constant tensor:
#      x y z
#    x 1.829450 -0.034860 -0.027980 
#    y -0.034860 1.821220 0.036870 
#    z -0.027980 0.036870 1.854710 
# 
# From -- ./inp_files/179961.got.cif
#   From: 2010.05.17/outbox.cif.g08.bks.cpg/sg2_90_cif.got.tgz:179961.got - 2010.06.03 11:33:40.
