data_PCOD9096003
_publ_section_title
;
Structure prediction by ZEFSAII (Michael W. Deem and Ramdas Pophale) SiO2 
 PCOD9096003
Probable space group: P -1
;
_chemical_formula_sum "Si O2"
_cell_formula_units_Z 16
_cell_length_a 9.891147
_cell_length_b 8.272498
_cell_length_c 11.495375
_cell_angle_alpha 120.876976
_cell_angle_beta 108.999763
_cell_angle_gamma 102.589655
_cell_volume 671.917727
_symmetry_space_group_name_H-M "P -1"
_symmetry_group_IT_number 2
_symmetry_cell_setting 'triclinic'
loop_
_space_group_symop_operation_xyz
x,y,z
-x,-y,-z
loop_
_atom_site_type_symbol
_atom_site_label
_atom_site_fract_x
_atom_site_fract_y
_atom_site_fract_z
Si Si1 0.254227 0.450581 0.985337
Si Si2 0.921927 0.084592 0.846119
Si Si3 0.357502 0.333520 0.485600
Si Si4 0.362210 0.882831 0.794607
Si Si5 0.904794 0.198426 0.135688
Si Si6 0.589417 0.250550 0.652788
Si Si7 0.466209 0.673149 0.927138
Si Si8 0.815341 0.423429 0.555839
O O1 0.308782 0.650983 0.164720
O O2 0.305337 0.498333 0.882110
O O3 0.378773 0.364471 0.032103
O O4 0.065978 0.274916 0.884134
O O5 0.749973 0.912232 0.679829
O O6 0.892926 0.190877 0.991833
O O7 0.000366 0.934072 0.854313
O O8 0.500000 0.500000 0.500000
O O9 0.447467 0.319082 0.621085
O O10 0.230913 0.425195 0.480755
O O11 0.261796 0.902603 0.881345
O O12 0.247696 0.786231 0.616612
O O13 0.494464 0.123458 0.902528
O O14 0.436856 0.738045 0.814429
O O15 0.001111 0.435805 0.303407
O O16 0.715519 0.366843 0.626269
O O17 0.500000 0.000000 0.500000
#
# Coordination Sequence:
#
# PCOD9096003 Si02
#       8
#     2   2   2   2   2   2   2   2
#     4  11  21  43  63  86 127 164 205 249 309 370
#     4  10  20  38  64  90 122 159 208 250 300 368
#     4   9  21  37  61  89 121 160 201 243 300 365
#     4  11  21  38  59  91 123 156 208 254 297 361
#     4  10  20  35  61  92 117 159 201 253 301 358
#     4  11  22  38  60  90 124 160 199 253 306 361
#     4  10  24  38  63  89 119 168 207 249 305 362
#     4  10  20  37  59  87 120 160 200 247 303 357
#
# _framework density 23.812436999999999
#
# number of rings (size 3 to 8) (size 9 to 14) (size 15 to 20)
#    0.000    1.750    2.500    1.875    1.750    5.000 
#    2.250    1.250    0.000    3.000    0.000    0.000 
#    0.000    0.000    0.000    0.000    0.000    0.000 
#
# Total GULP energy -89275.154212 kJ/mol
# GULP energy per Si atom -5579.697138 kJ/mol
# Density = 2.375824 g / cm^3
# Si number density = 23.812437 Si / 1000 Ang^3
#
#
#
# Elastic Constant Matrix: (Units=GPa)
#
#
# Indices 1 2 3 4 5 6 
#
# 1 57.0718 8.9415 7.4708 -5.9805 7.1505 13.1697
# 2 8.9415 43.5876 13.6708 7.4885 11.4041 7.6175
# 3 7.4708 13.6708 128.9460 17.5515 20.0591 11.0474
# 4 -5.9805 7.4885 17.5515 25.8959 3.8196 4.8633
# 5 7.1505 11.4041 20.0591 3.8196 30.6867 7.2156
# 6 13.1697 7.6175 11.0474 4.8633 7.2156 40.0312
#
#
#
# Elastic Compliance Matrix: (Units=1/GPa)
#
#
# Indices 1 2 3 4 5 6 
#
# 1 0.020853 -0.003611 -0.001010 0.008103 -0.002348 -0.006456
# 2 -0.003611 0.027339 -0.000377 -0.007022 -0.007810 -0.001650
# 3 -0.001010 -0.000377 0.009450 -0.005683 -0.004948 -0.000622
# 4 0.008103 -0.007022 -0.005683 0.047427 -0.000176 -0.005491
# 5 -0.002348 -0.007810 -0.004948 -0.000176 0.040138 -0.003589
# 6 -0.006456 -0.001650 -0.000622 -0.005491 -0.003589 0.028904
#
#
# Mechanical properties :
#
#
# Convention : Reuss Voigt Hill
#
# Bulk Modulus (GPa) = 20.98778 32.19685 26.59231
# Shear Modulus (GPa) = 25.00144 32.62425 28.81285
#
# Velocity S-wave (km/s) = 3.24378 3.70544 3.48227
# Velocity P-wave (km/s) = 4.78147 5.64423 5.23067
#
# Compressibility (1/GPa) = 0.04764678
#
# Stress axis : x y z
#
# Youngs Moduli (GPa) = 47.95561 36.57714 105.81779
#
# Poissons Ratio (x) = 0.13206 0.10688
# Poissons Ratio (y) = 0.17315 0.03991
# Poissons Ratio (z) = 0.04844 0.01380
#
# Static dielectric constant tensor:
#      x y z
#    x 2.108020 0.045460 0.158400 
#    y 0.045460 2.021190 0.162420 
#    z 0.158400 0.162420 2.127940 
# 
# From -- ./inp_files/263104.got.cif
#   From: 2010.05.17/outbox.cif.g08.bks.cpg/sg2_132_cif.got.tgz:263104.got - 2010.06.03 11:33:40.
