data_PCOD9096759
_publ_section_title
;
Structure prediction by ZEFSAII (Michael W. Deem and Ramdas Pophale) SiO2 
 PCOD9096759
Probable space group: P -1
;
_chemical_formula_sum "Si O2"
_cell_formula_units_Z 16
_cell_length_a 7.657016
_cell_length_b 11.076603
_cell_length_c 17.737808
_cell_angle_alpha 44.825442
_cell_angle_beta 133.846740
_cell_angle_gamma 136.858894
_cell_volume 675.591657
_symmetry_space_group_name_H-M "P -1"
_symmetry_group_IT_number 2
_symmetry_cell_setting 'triclinic'
loop_
_space_group_symop_operation_xyz
x,y,z
-x,-y,-z
loop_
_atom_site_type_symbol
_atom_site_label
_atom_site_fract_x
_atom_site_fract_y
_atom_site_fract_z
Si Si1 0.290726 0.509630 0.064919
Si Si2 0.821719 0.007075 0.272335
Si Si3 0.247126 0.051321 0.490295
Si Si4 0.101063 0.579695 0.831860
Si Si5 0.556557 0.321754 0.577751
Si Si6 0.120415 0.450895 0.628481
Si Si7 0.447945 0.744433 0.714699
Si Si8 0.517224 0.739748 0.177725
O O1 0.305725 0.308839 0.171581
O O2 0.492099 0.679531 0.107446
O O3 0.305926 0.550358 0.963060
O O4 0.000000 0.500000 0.000000
O O5 0.600284 0.845401 0.333583
O O6 0.667648 0.951697 0.168801
O O7 0.104607 0.004774 0.386121
O O8 0.892036 0.222784 0.223530
O O9 0.422681 0.940181 0.612560
O O10 0.440006 0.265047 0.482863
O O11 0.000000 0.000000 0.500000
O O12 0.229731 0.625805 0.767455
O O13 0.792317 0.399561 0.823563
O O14 0.500000 0.500000 0.500000
O O15 0.866459 0.358041 0.651444
O O16 0.341368 0.641596 0.649579
O O17 0.259853 0.324008 0.701057
O O18 0.000000 0.500000 0.500000
#
# Coordination Sequence:
#
# PCOD9096759 Si02
#       8
#     2   2   2   2   2   2   2   2
#     4   9  22  43  67  94 130 176 218 270 336 383
#     4  11  23  39  68 100 130 171 221 266 328 392
#     4  10  20  36  58 102 129 157 215 265 317 386
#     4  11  22  42  72  97 124 173 226 275 321 382
#     4  11  22  38  64  87 138 178 213 267 314 389
#     4  11  23  37  60  93 130 176 211 252 335 398
#     4  11  20  40  68  94 130 166 225 270 316 390
#     4  10  23  42  62  94 135 175 208 267 338 384
#
# _framework density 23.682943000000002
#
# number of rings (size 3 to 8) (size 9 to 14) (size 15 to 20)
#    0.000    1.500    2.500    4.125    3.500    0.500 
#    6.750    1.250    2.750    6.750    0.000    0.000 
#    0.000    0.000    0.000    0.000    0.000    0.000 
#
# Total GULP energy -89164.604034 kJ/mol
# GULP energy per Si atom -5572.787752 kJ/mol
# Density = 2.362904 g / cm^3
# Si number density = 23.682943 Si / 1000 Ang^3
#
#
#
# Elastic Constant Matrix: (Units=GPa)
#
#
# Indices 1 2 3 4 5 6 
#
# 1 94.7068 18.2449 16.1852 -0.5445 13.5463 0.7197
# 2 18.2449 112.7073 25.0546 19.8368 0.5883 -10.4501
# 3 16.1852 25.0546 129.4484 11.5291 11.9699 -9.1817
# 4 -0.5445 19.8368 11.5291 36.4923 -9.5388 0.0367
# 5 13.5463 0.5883 11.9699 -9.5388 40.2521 4.3791
# 6 0.7197 -10.4501 -9.1817 0.0367 4.3791 32.7164
#
#
#
# Elastic Compliance Matrix: (Units=1/GPa)
#
#
# Indices 1 2 3 4 5 6 
#
# 1 0.011552 -0.001812 -0.000871 0.000543 -0.003406 -0.000622
# 2 -0.001812 0.010723 -0.001006 -0.005798 -0.000983 0.003321
# 3 -0.000871 -0.001006 0.008801 -0.003120 -0.003333 0.002617
# 4 0.000543 -0.005798 -0.003120 0.033990 0.009323 -0.004026
# 5 -0.003406 -0.000983 -0.003333 0.009323 0.029767 -0.005169
# 6 -0.000622 0.003321 0.002617 -0.004026 -0.005169 0.033071
#
#
# Mechanical properties :
#
#
# Convention : Reuss Voigt Hill
#
# Bulk Modulus (GPa) = 42.19890 50.64800 46.42345
# Shear Modulus (GPa) = 34.92102 40.38402 37.65252
#
# Velocity S-wave (km/s) = 3.84412 4.13388 3.99163
# Velocity P-wave (km/s) = 6.12861 6.64963 6.39443
#
# Compressibility (1/GPa) = 0.02369730
#
# Stress axis : x y z
#
# Youngs Moduli (GPa) = 86.56651 93.25723 113.62961
#
# Poissons Ratio (x) = 0.16896 0.09900
# Poissons Ratio (y) = 0.15684 0.11431
# Poissons Ratio (z) = 0.07542 0.09382
#
# Static dielectric constant tensor:
#      x y z
#    x 4.036420 3.005720 1.101420 
#    y 3.005720 5.686290 2.282440 
#    z 1.101420 2.282440 2.286790 
# 
# From -- ./inp_files/588976.got.cif
#   From: 2010.05.17/outbox.cif.g08.bks.cpg/sg2_295_cif.got.tgz:588976.got - 2010.06.03 11:33:40.
