data_PCOD9096359
_publ_section_title
;
Structure prediction by ZEFSAII (Michael W. Deem and Ramdas Pophale) SiO2 
 PCOD9096359
Probable space group: P -1
;
_chemical_formula_sum "Si O2"
_cell_formula_units_Z 13
_cell_length_a 15.849434
_cell_length_b 15.828888
_cell_length_c 7.329537
_cell_angle_alpha 113.517717
_cell_angle_beta 118.574608
_cell_angle_gamma 18.802750
_cell_volume 511.014893
_symmetry_space_group_name_H-M "P -1"
_symmetry_group_IT_number 2
_symmetry_cell_setting 'triclinic'
loop_
_space_group_symop_operation_xyz
x,y,z
-x,-y,-z
loop_
_atom_site_type_symbol
_atom_site_label
_atom_site_fract_x
_atom_site_fract_y
_atom_site_fract_z
Si Si1 0.331698 0.019705 0.290936
Si Si2 0.699909 0.294601 0.860774
Si Si3 0.423504 0.210433 0.011356
Si Si4 0.000000 0.500000 0.500000
Si Si5 0.227923 0.570861 0.015352
Si Si6 0.611534 0.603671 0.395290
Si Si7 0.995717 0.619808 0.223313
O O1 0.193523 0.237026 0.395742
O O2 0.427145 0.862771 0.409487
O O3 0.086312 0.184103 0.073861
O O4 0.595124 0.799637 0.233809
O O5 0.732480 0.358591 0.833621
O O6 0.565404 0.324376 0.661212
O O7 0.500000 0.500000 0.000000
O O8 0.000000 0.000000 0.000000
O O9 0.434033 0.312123 0.097984
O O10 0.169184 0.423368 0.064951
O O11 0.681883 0.922914 0.106289
O O12 0.032921 0.525980 0.359253
O O13 0.286838 0.507957 0.803521
O O14 0.868829 0.402122 0.608883
#
# Coordination Sequence:
#
# PCOD9096359 Si02
#       7
#     2   2   2   1   2   2   2
#     4  11  22  46  71 101 137 181 233 286 343 402
#     4  10  20  35  69 107 133 175 233 277 334 396
#     4  11  26  45  70  96 147 186 216 285 356 411
#     4  12  28  46  76 102 130 180 242 294 336 410
#     4  10  20  44  70 101 135 185 227 280 336 413
#     4  10  22  40  71 103 139 178 232 292 327 399
#     4  12  26  46  68 101 139 182 232 284 350 404
#
# _framework density 25.439571999999998
#
# number of rings (size 3 to 8) (size 9 to 14) (size 15 to 20)
#    0.000    1.231    4.615    0.923    0.000    3.692 
#    0.000    1.538    0.000    0.000    0.000    0.000 
#    0.000    0.000    0.000    0.000    0.000    0.000 
#
# Total GULP energy -72676.645493 kJ/mol
# GULP energy per Si atom -5590.511192 kJ/mol
# Density = 2.538167 g / cm^3
# Si number density = 25.439572 Si / 1000 Ang^3
#
#
#
# Elastic Constant Matrix: (Units=GPa)
#
#
# Indices 1 2 3 4 5 6 
#
# 1 185.5291 70.0076 74.5588 15.2594 34.4216 10.1316
# 2 70.0076 178.5218 36.9460 16.3316 0.5098 7.9881
# 3 74.5588 36.9460 95.4177 2.5054 -0.8901 -0.5038
# 4 15.2594 16.3316 2.5054 40.7021 -6.3718 -6.6251
# 5 34.4216 0.5098 -0.8901 -6.3718 52.3391 1.5141
# 6 10.1316 7.9881 -0.5038 -6.6251 1.5141 49.9842
#
#
#
# Elastic Compliance Matrix: (Units=1/GPa)
#
#
# Indices 1 2 3 4 5 6 
#
# 1 0.011539 -0.002299 -0.008095 -0.004580 -0.008192 -0.002412
# 2 -0.002299 0.006873 -0.000811 -0.001801 0.001239 -0.000917
# 3 -0.008095 -0.000811 0.017093 0.003611 0.005997 0.002240
# 4 -0.004580 -0.001801 0.003611 0.028582 0.006431 0.004846
# 5 -0.008192 0.001239 0.005997 0.006431 0.025320 0.001608
# 6 -0.002412 -0.000917 0.002240 0.004846 0.001608 0.021258
#
#
# Mechanical properties :
#
#
# Convention : Reuss Voigt Hill
#
# Bulk Modulus (GPa) = 76.36714 91.38814 83.87764
# Shear Modulus (GPa) = 36.37942 47.13549 41.75745
#
# Velocity S-wave (km/s) = 3.78568 4.30913 4.05586
# Velocity P-wave (km/s) = 7.01375 7.79486 7.41460
#
# Compressibility (1/GPa) = 0.01309464
#
# Stress axis : x y z
#
# Youngs Moduli (GPa) = 86.66095 145.49038 58.50486
#
# Poissons Ratio (x) = 0.33455 0.47361
# Poissons Ratio (y) = 0.19927 0.04742
# Poissons Ratio (z) = 0.70154 0.11793
#
# Static dielectric constant tensor:
#      x y z
#    x 2.000930 -0.016900 -0.020780 
#    y -0.016900 1.822360 0.151090 
#    z -0.020780 0.151090 1.848170 
# 
# From -- ./inp_files/313999.got.cif
#   From: 2010.05.17/outbox.cif.g08.bks.cpg/sg2_157_cif.got.tgz:313999.got - 2010.06.03 11:33:40.
