data_PCOD9096762
_publ_section_title
;
Structure prediction by ZEFSAII (Michael W. Deem and Ramdas Pophale) SiO2 
 PCOD9096762
Probable space group: P -1
;
_chemical_formula_sum "Si O2"
_cell_formula_units_Z 12
_cell_length_a 7.814217
_cell_length_b 8.673245
_cell_length_c 8.027703
_cell_angle_alpha 59.240858
_cell_angle_beta 68.082493
_cell_angle_gamma 73.293772
_cell_volume 430.550691
_symmetry_space_group_name_H-M "P -1"
_symmetry_group_IT_number 2
_symmetry_cell_setting 'triclinic'
loop_
_space_group_symop_operation_xyz
x,y,z
-x,-y,-z
loop_
_atom_site_type_symbol
_atom_site_label
_atom_site_fract_x
_atom_site_fract_y
_atom_site_fract_z
Si Si1 0.875304 0.811450 0.845054
Si Si2 0.456579 0.300900 0.646936
Si Si3 0.746013 0.089068 0.439188
Si Si4 0.772184 0.168827 0.853669
Si Si5 0.844785 0.740045 0.427529
Si Si6 0.720247 0.496776 0.907725
O O1 0.794844 0.619905 0.959595
O O2 0.090747 0.790004 0.723875
O O3 0.789989 0.947532 0.653732
O O4 0.830239 0.953297 0.936744
O O5 0.500000 0.500000 0.500000
O O6 0.560102 0.203839 0.501255
O O7 0.569922 0.215054 0.813699
O O8 0.236845 0.317562 0.685153
O O9 0.753585 0.947732 0.365783
O O10 0.778375 0.285282 0.955974
O O11 0.936319 0.248792 0.646241
O O12 0.781500 0.606292 0.663606
O O13 0.500000 0.500000 0.000000
#
# Coordination Sequence:
#
# PCOD9096762 Si02
#       6
#     2   2   2   2   2   2
#     4   8  17  33  54  75 106 144 177 218 266 316
#     4  11  19  28  54  87 108 132 176 230 272 311
#     4   8  16  31  51  80 106 134 176 226 270 309
#     4  10  21  38  58  81 107 141 182 225 267 315
#     4  10  20  36  58  78 108 143 179 223 268 315
#     4  11  21  33  54  82 112 144 177 218 269 323
#
# _framework density 27.871283999999999
#
# number of rings (size 3 to 8) (size 9 to 14) (size 15 to 20)
#    0.000    2.333    1.667    4.000    2.333    0.667 
#    0.000    0.000    0.000    9.000    0.000   15.167 
#    0.000    0.000    0.000    0.000    0.000    0.000 
#
# Total GULP energy -67037.107509 kJ/mol
# GULP energy per Si atom -5586.425626 kJ/mol
# Density = 2.780785 g / cm^3
# Si number density = 27.871284 Si / 1000 Ang^3
#
#
#
# Elastic Constant Matrix: (Units=GPa)
#
#
# Indices 1 2 3 4 5 6 
#
# 1 88.3950 32.3986 24.8800 -9.7499 -11.4288 14.5146
# 2 32.3986 206.3022 39.0970 3.2876 1.9763 29.9033
# 3 24.8800 39.0970 74.8210 -20.2340 4.6818 5.6463
# 4 -9.7499 3.2876 -20.2340 42.5184 2.8912 -4.4924
# 5 -11.4288 1.9763 4.6818 2.8912 36.1555 -9.7248
# 6 14.5146 29.9033 5.6463 -4.4924 -9.7248 44.7380
#
#
#
# Elastic Compliance Matrix: (Units=1/GPa)
#
#
# Indices 1 2 3 4 5 6 
#
# 1 0.013841 -0.001184 -0.003838 0.000917 0.004273 -0.002194
# 2 -0.001184 0.006263 -0.003223 -0.002625 -0.001140 -0.003907
# 3 -0.003838 -0.003223 0.018846 0.008713 -0.003892 0.001050
# 4 0.000917 -0.002625 0.008713 0.028520 -0.002240 0.002734
# 5 0.004273 -0.001140 -0.003892 -0.002240 0.031500 0.006489
# 6 -0.002194 -0.003907 0.001050 0.002734 0.006489 0.027228
#
#
# Mechanical properties :
#
#
# Convention : Reuss Voigt Hill
#
# Bulk Modulus (GPa) = 44.52104 62.47439 53.49771
# Shear Modulus (GPa) = 33.29487 42.89189 38.09338
#
# Velocity S-wave (km/s) = 3.46004 3.92717 3.70098
# Velocity P-wave (km/s) = 5.65429 6.55954 6.12367
#
# Compressibility (1/GPa) = 0.02246129
#
# Stress axis : x y z
#
# Youngs Moduli (GPa) = 72.25003 159.66969 53.06171
#
# Poissons Ratio (x) = 0.18903 0.20364
# Poissons Ratio (y) = 0.08553 0.17099
# Poissons Ratio (z) = 0.27728 0.51455
#
# Static dielectric constant tensor:
#      x y z
#    x 2.282540 0.082820 -0.062360 
#    y 0.082820 2.266860 0.115560 
#    z -0.062360 0.115560 2.215860 
# 
# From -- ./inp_files/173456.got.cif
#   From: 2010.05.17/outbox.cif.g08.bks.cpg/sg2_87_cif.got.tgz:173456.got - 2010.06.03 11:33:40.
