data_PCOD9096233
_publ_section_title
;
Structure prediction by ZEFSAII (Michael W. Deem and Ramdas Pophale) SiO2 
 PCOD9096233
Probable space group: P -1
;
_chemical_formula_sum "Si O2"
_cell_formula_units_Z 16
_cell_length_a 7.574216
_cell_length_b 12.910030
_cell_length_c 8.247371
_cell_angle_alpha 87.611707
_cell_angle_beta 87.502554
_cell_angle_gamma 122.922185
_cell_volume 674.246664
_symmetry_space_group_name_H-M "P -1"
_symmetry_group_IT_number 2
_symmetry_cell_setting 'triclinic'
loop_
_space_group_symop_operation_xyz
x,y,z
-x,-y,-z
loop_
_atom_site_type_symbol
_atom_site_label
_atom_site_fract_x
_atom_site_fract_y
_atom_site_fract_z
Si Si1 0.003886 0.165816 0.775038
Si Si2 0.756859 0.310174 0.962271
Si Si3 0.869325 0.003472 0.354175
Si Si4 0.612698 0.146796 0.670706
Si Si5 0.788203 0.566271 0.233605
Si Si6 0.749320 0.403543 0.516702
Si Si7 0.008629 0.759784 0.856135
Si Si8 0.368790 0.519885 0.151629
O O1 0.136471 0.304386 0.684552
O O2 0.776850 0.105697 0.698978
O O3 0.107227 0.087617 0.760373
O O4 0.994851 0.191186 0.965187
O O5 0.008891 0.602643 0.137486
O O6 0.796955 0.258655 0.126803
O O7 0.616424 0.200844 0.847415
O O8 0.669070 0.396280 0.974282
O O9 0.971052 0.141011 0.275323
O O10 0.620974 0.949730 0.375264
O O11 0.000000 0.000000 0.500000
O O12 0.701316 0.266797 0.544587
O O13 0.687149 0.446096 0.356586
O O14 0.603003 0.551164 0.131363
O O15 0.652636 0.429261 0.675459
O O16 0.000000 0.500000 0.500000
O O17 0.811589 0.624451 0.831754
#
# Coordination Sequence:
#
# PCOD9096233 Si02
#       8
#     2   2   2   2   2   2   2   2
#     4  10  22  44  66  85 125 163 210 258 305 366
#     4   9  20  41  63  92 123 159 203 259 306 374
#     4  12  27  43  63  92 124 165 214 259 298 367
#     4   9  21  40  64  90 121 166 207 251 308 365
#     4  10  20  35  63  96 124 162 198 253 321 370
#     4  11  18  36  63  93 130 163 197 253 321 368
#     4  10  24  42  63  92 126 168 209 250 308 368
#     4  11  21  35  63  96 128 158 203 257 312 369
#
# _framework density 23.730187999999998
#
# number of rings (size 3 to 8) (size 9 to 14) (size 15 to 20)
#    0.000    2.000    3.750    2.625    3.500    4.500 
#    0.000    6.250    0.000    0.000    0.000    0.000 
#    0.000    0.000    0.000    0.000    0.000    0.000 
#
# Total GULP energy -89382.744716 kJ/mol
# GULP energy per Si atom -5586.421545 kJ/mol
# Density = 2.367618 g / cm^3
# Si number density = 23.730188 Si / 1000 Ang^3
#
#
#
# Elastic Constant Matrix: (Units=GPa)
#
#
# Indices 1 2 3 4 5 6 
#
# 1 120.9908 27.7855 24.2748 2.6502 30.0090 -17.4420
# 2 27.7855 52.4121 16.9428 -22.9242 13.9854 -21.8987
# 3 24.2748 16.9428 78.1818 -17.1986 29.9048 -4.1696
# 4 2.6502 -22.9242 -17.1986 42.6239 -8.3167 15.0899
# 5 30.0090 13.9854 29.9048 -8.3167 42.5508 7.4003
# 6 -17.4420 -21.8987 -4.1696 15.0899 7.4003 41.3084
#
#
#
# Elastic Compliance Matrix: (Units=1/GPa)
#
#
# Indices 1 2 3 4 5 6 
#
# 1 0.013407 -0.004235 -0.000515 -0.008385 -0.010795 0.008361
# 2 -0.004235 0.034667 0.000664 0.012648 -0.008769 0.013608
# 3 -0.000515 0.000664 0.018778 0.004579 -0.012613 0.002617
# 4 -0.008385 0.012648 0.004579 0.038413 0.008109 -0.011858
# 5 -0.010795 -0.008769 -0.012613 0.008109 0.048288 -0.022093
# 6 0.008361 0.013608 0.002617 -0.011858 -0.022093 0.043506
#
#
# Mechanical properties :
#
#
# Convention : Reuss Voigt Hill
#
# Bulk Modulus (GPa) = 17.04111 43.28787 30.16449
# Shear Modulus (GPa) = 22.24293 37.46873 29.85583
#
# Velocity S-wave (km/s) = 3.06490 3.97791 3.55087
# Velocity P-wave (km/s) = 4.44090 6.27532 5.43605
#
# Compressibility (1/GPa) = 0.05868161
#
# Stress axis : x y z
#
# Youngs Moduli (GPa) = 74.58569 28.84559 53.25460
#
# Poissons Ratio (x) = 0.12216 0.02741
# Poissons Ratio (y) = 0.31588 -0.03538
# Poissons Ratio (z) = 0.03839 -0.01916
#
# Static dielectric constant tensor:
#      x y z
#    x 1.918450 -0.037710 -0.009770 
#    y -0.037710 1.924660 0.060110 
#    z -0.009770 0.060110 2.081080 
# 
# From -- ./inp_files/170759.got.cif
#   From: 2010.05.17/outbox.cif.g08.bks.cpg/sg2_86_cif.got.tgz:170759.got - 2010.06.03 11:33:40.
