data_PCOD9096344
_publ_section_title
;
Structure prediction by ZEFSAII (Michael W. Deem and Ramdas Pophale) SiO2 
 PCOD9096344
Probable space group: P -1
;
_chemical_formula_sum "Si O2"
_cell_formula_units_Z 15
_cell_length_a 7.130769
_cell_length_b 9.794470
_cell_length_c 11.126818
_cell_angle_alpha 67.833938
_cell_angle_beta 80.100897
_cell_angle_gamma 118.118164
_cell_volume 573.619585
_symmetry_space_group_name_H-M "P -1"
_symmetry_group_IT_number 2
_symmetry_cell_setting 'triclinic'
loop_
_space_group_symop_operation_xyz
x,y,z
-x,-y,-z
loop_
_atom_site_type_symbol
_atom_site_label
_atom_site_fract_x
_atom_site_fract_y
_atom_site_fract_z
Si Si1 0.725249 0.631736 0.555021
Si Si2 0.727926 0.676808 0.141962
Si Si3 0.969533 0.586097 0.328586
Si Si4 0.000000 0.000000 0.500000
Si Si5 0.523345 0.203606 0.524774
Si Si6 0.625193 0.936979 0.669118
Si Si7 0.542894 0.191324 0.902293
Si Si8 0.734797 0.433066 0.039557
O O1 0.508088 0.474966 0.708627
O O2 0.880087 0.600475 0.462877
O O3 0.602767 0.701868 0.459057
O O4 0.883439 0.782508 0.587785
O O5 0.925832 0.688719 0.196256
O O6 0.703834 0.841487 0.088361
O O7 0.726343 0.594926 0.039355
O O8 0.783176 0.368833 0.395470
O O9 0.247394 0.690607 0.256107
O O10 0.119141 0.005222 0.347358
O O11 0.548184 0.069905 0.646126
O O12 0.345935 0.075399 0.476325
O O13 0.427041 0.738408 0.798510
O O14 0.641385 0.335657 0.953844
O O15 0.500000 0.000000 0.000000
O O16 0.000000 0.500000 0.000000
#
# Coordination Sequence:
#
# PCOD9096344 Si02
#       8
#     2   2   2   1   2   2   2   2
#     4  10  22  40  68  97 134 172 215 290 359 412
#     4  11  23  49  71  97 137 180 240 291 340 414
#     4  11  23  45  70  99 136 180 223 282 367 411
#     4  10  20  38  58 102 134 158 218 290 340 402
#     4   9  18  38  62 100 125 163 216 278 346 403
#     4  10  20  35  67  96 131 164 222 284 339 400
#     4  12  30  45  68 102 141 187 242 283 339 420
#     4  12  23  49  71  97 142 198 238 275 336 429
#
# _framework density 26.149733999999999
#
# number of rings (size 3 to 8) (size 9 to 14) (size 15 to 20)
#    0.000    1.333    5.333    2.000    3.733    3.200 
#    4.800    0.000    0.000    0.000    0.000    0.000 
#    0.000    0.000    0.000    0.000    0.000    0.000 
#
# Total GULP energy -83600.737950 kJ/mol
# GULP energy per Si atom -5573.382530 kJ/mol
# Density = 2.609022 g / cm^3
# Si number density = 26.149734 Si / 1000 Ang^3
#
#
#
# Elastic Constant Matrix: (Units=GPa)
#
#
# Indices 1 2 3 4 5 6 
#
# 1 92.4745 30.6866 14.6183 2.6968 -19.7878 -31.6342
# 2 30.6866 94.9028 17.8903 19.1524 2.2666 -14.9182
# 3 14.6183 17.8903 80.4299 2.8120 -30.9362 -12.9082
# 4 2.6968 19.1524 2.8120 48.8209 2.4234 1.8820
# 5 -19.7878 2.2666 -30.9362 2.4234 39.8248 5.6068
# 6 -31.6342 -14.9182 -12.9082 1.8820 5.6068 58.6514
#
#
#
# Elastic Compliance Matrix: (Units=1/GPa)
#
#
# Indices 1 2 3 4 5 6 
#
# 1 0.016668 -0.005066 0.003106 0.000108 0.009930 0.007432
# 2 -0.005066 0.014255 -0.004536 -0.004747 -0.006659 0.000684
# 3 0.003106 -0.004536 0.019896 -0.000501 0.016822 0.003308
# 4 0.000108 -0.004747 -0.000501 0.022498 -0.001171 -0.001869
# 5 0.009930 -0.006659 0.016822 -0.001171 0.043099 0.003282
# 6 0.007432 0.000684 0.003308 -0.001869 0.003282 0.021707
#
#
# Mechanical properties :
#
#
# Convention : Reuss Voigt Hill
#
# Bulk Modulus (GPa) = 26.43563 43.79974 35.11768
# Shear Modulus (GPa) = 30.53931 43.10023 36.81977
#
# Velocity S-wave (km/s) = 3.42111 4.06422 3.75645
# Velocity P-wave (km/s) = 5.07312 6.22975 5.68095
#
# Compressibility (1/GPa) = 0.03782773
#
# Stress axis : x y z
#
# Youngs Moduli (GPa) = 59.99535 70.15264 50.26085
#
# Poissons Ratio (x) = 0.35537 -0.15610
# Poissons Ratio (y) = 0.30392 0.22796
# Poissons Ratio (z) = -0.18633 0.31818
#
# Static dielectric constant tensor:
#      x y z
#    x 1.618410 -0.058700 0.260990 
#    y -0.058700 2.209020 0.049950 
#    z 0.260990 0.049950 2.021120 
# 
# From -- ./inp_files/492697.got.cif
#   From: 2010.05.17/outbox.cif.g08.bks.cpg/sg2_247_cif.got.tgz:492697.got - 2010.06.03 11:33:40.
