data_PCOD9096585
_publ_section_title
;
Structure prediction by ZEFSAII (Michael W. Deem and Ramdas Pophale) SiO2 
 PCOD9096585
Probable space group: P -1
;
_chemical_formula_sum "Si O2"
_cell_formula_units_Z 14
_cell_length_a 5.208977
_cell_length_b 14.555672
_cell_length_c 12.776963
_cell_angle_alpha 41.500739
_cell_angle_beta 69.506042
_cell_angle_gamma 60.517154
_cell_volume 558.509012
_symmetry_space_group_name_H-M "P -1"
_symmetry_group_IT_number 2
_symmetry_cell_setting 'triclinic'
loop_
_space_group_symop_operation_xyz
x,y,z
-x,-y,-z
loop_
_atom_site_type_symbol
_atom_site_label
_atom_site_fract_x
_atom_site_fract_y
_atom_site_fract_z
Si Si1 0.776620 0.479560 0.635733
Si Si2 0.606776 0.201706 0.645854
Si Si3 0.176640 0.169766 0.358164
Si Si4 0.013729 0.151405 0.820130
Si Si5 0.914636 0.450596 0.882298
Si Si6 0.428927 0.338067 0.053085
Si Si7 0.623381 0.153787 0.452693
O O1 0.489931 0.623571 0.523068
O O2 0.793125 0.310387 0.763371
O O3 0.870621 0.495045 0.728525
O O4 0.000000 0.500000 0.500000
O O5 0.890713 0.155238 0.717261
O O6 0.657820 0.119618 0.597932
O O7 0.335022 0.165879 0.766754
O O8 0.369925 0.191231 0.217572
O O9 0.289942 0.218787 0.405902
O O10 0.828725 0.248310 0.320418
O O11 0.243603 0.995413 0.507185
O O12 0.000000 0.000000 0.000000
O O13 0.735775 0.559242 0.910706
O O14 0.761368 0.327000 0.012046
O O15 0.246978 0.399632 0.920727
#
# Coordination Sequence:
#
# PCOD9096585 Si02
#       7
#     2   2   2   2   2   2   2
#     4  10  24  44  67  95 128 171 219 267 319 380
#     4  11  23  42  66  91 124 168 215 260 321 386
#     4  10  20  36  56  87 125 157 204 256 311 374
#     4  11  25  43  64  92 126 162 213 271 322 379
#     4  10  22  37  59  87 119 158 205 250 306 376
#     4  10  21  37  57  87 121 159 198 252 315 368
#     4  10  21  35  59  88 118 162 207 255 308 378
#
# _framework density 25.066737
#
# number of rings (size 3 to 8) (size 9 to 14) (size 15 to 20)
#    0.000    1.714    0.000    3.429    0.000   10.286 
#    0.000    0.000    0.000    0.000    0.000    0.000 
#    0.000    0.000    0.000    0.000    0.000    0.000 
#
# Total GULP energy -78111.026363 kJ/mol
# GULP energy per Si atom -5579.359026 kJ/mol
# Density = 2.500968 g / cm^3
# Si number density = 25.066737 Si / 1000 Ang^3
#
#
#
# Elastic Constant Matrix: (Units=GPa)
#
#
# Indices 1 2 3 4 5 6 
#
# 1 102.8773 9.6974 20.6169 -4.8419 -3.0152 27.7774
# 2 9.6974 73.5463 37.0381 -5.6394 -7.0839 15.7082
# 3 20.6169 37.0381 130.4771 -7.1569 9.1187 12.1052
# 4 -4.8419 -5.6394 -7.1569 40.8900 10.6756 -0.3938
# 5 -3.0152 -7.0839 9.1187 10.6756 43.7938 11.4443
# 6 27.7774 15.7082 12.1052 -0.3938 11.4443 31.7186
#
#
#
# Elastic Compliance Matrix: (Units=1/GPa)
#
#
# Indices 1 2 3 4 5 6 
#
# 1 0.014122 0.002989 -0.002079 0.000050 0.005838 -0.015160
# 2 0.002989 0.019430 -0.005333 -0.000086 0.007891 -0.013052
# 3 -0.002079 -0.005333 0.009679 0.001790 -0.004045 0.002249
# 4 0.000050 -0.000086 0.001790 0.026750 -0.007521 0.002361
# 5 0.005838 0.007891 -0.004045 -0.007521 0.032203 -0.019189
# 6 -0.015160 -0.013052 0.002249 0.002361 -0.019189 0.057361
#
#
# Mechanical properties :
#
#
# Convention : Reuss Voigt Hill
#
# Bulk Modulus (GPa) = 29.08276 49.06729 39.07502
# Shear Modulus (GPa) = 27.80079 39.25037 33.52558
#
# Velocity S-wave (km/s) = 3.33388 3.96136 3.66109
# Velocity P-wave (km/s) = 5.14267 6.36712 5.78737
#
# Compressibility (1/GPa) = 0.03438464
#
# Stress axis : x y z
#
# Youngs Moduli (GPa) = 70.81262 51.46758 103.31989
#
# Poissons Ratio (x) = -0.15382 0.21476
# Poissons Ratio (y) = -0.21164 0.55100
# Poissons Ratio (z) = 0.14719 0.27447
#
# Static dielectric constant tensor:
#      x y z
#    x 2.116980 -0.033330 -0.019410 
#    y -0.033330 2.053310 -0.077290 
#    z -0.019410 -0.077290 2.048880 
# 
# From -- ./inp_files/367366.got.cif
#   From: 2010.05.17/outbox.cif.g08.bks.cpg/sg2_184_cif.got.tgz:367366.got - 2010.06.03 11:33:40.
