data_PCOD9096172
_publ_section_title
;
Structure prediction by ZEFSAII (Michael W. Deem and Ramdas Pophale) SiO2 
 PCOD9096172
Probable space group: P -1
;
_chemical_formula_sum "Si O2"
_cell_formula_units_Z 12
_cell_length_a 15.086917
_cell_length_b 8.448568
_cell_length_c 5.436872
_cell_angle_alpha 93.645151
_cell_angle_beta 43.835483
_cell_angle_gamma 93.025962
_cell_volume 478.969248
_symmetry_space_group_name_H-M "P -1"
_symmetry_group_IT_number 2
_symmetry_cell_setting 'triclinic'
loop_
_space_group_symop_operation_xyz
x,y,z
-x,-y,-z
loop_
_atom_site_type_symbol
_atom_site_label
_atom_site_fract_x
_atom_site_fract_y
_atom_site_fract_z
Si Si1 0.774061 0.135478 0.153061
Si Si2 0.498307 0.236940 0.927978
Si Si3 0.917041 0.352179 0.250276
Si Si4 0.268860 0.391901 0.241415
Si Si5 0.403039 0.925929 0.884095
Si Si6 0.836275 0.771965 0.061541
O O1 0.877206 0.248616 0.083529
O O2 0.736841 0.114672 0.939153
O O3 0.807353 0.957529 0.145907
O O4 0.637810 0.203587 0.531316
O O5 0.421358 0.376894 0.971267
O O6 0.529864 0.227113 0.151403
O O7 0.406314 0.079736 0.067671
O O8 0.793809 0.435351 0.624249
O O9 0.000000 0.500000 0.000000
O O10 0.011325 0.259103 0.233280
O O11 0.219524 0.313628 0.590587
O O12 0.222853 0.300568 0.078710
O O13 0.500000 0.000000 0.500000
#
# Coordination Sequence:
#
# PCOD9096172 Si02
#       6
#     2   2   2   2   2   2
#     4  11  22  40  68 101 129 172 227 277 325 401
#     4  10  20  35  63 102 131 167 213 274 343 388
#     4  10  25  48  64  92 135 181 224 274 333 390
#     4  11  23  43  70  97 138 177 213 276 343 398
#     4   9  17  33  59  94 131 161 205 269 323 390
#     4  11  23  44  70  98 128 182 228 273 322 396
#
# _framework density 25.053802000000001
#
# number of rings (size 3 to 8) (size 9 to 14) (size 15 to 20)
#    0.000    1.667    1.667    4.000    2.333    0.667 
#   12.000    5.000    0.000    0.000    0.000    0.000 
#    0.000    0.000    0.000    0.000    0.000    0.000 
#
# Total GULP energy -66992.677384 kJ/mol
# GULP energy per Si atom -5582.723115 kJ/mol
# Density = 2.499678 g / cm^3
# Si number density = 25.053802 Si / 1000 Ang^3
#
#
#
# Elastic Constant Matrix: (Units=GPa)
#
#
# Indices 1 2 3 4 5 6 
#
# 1 203.9539 59.2784 38.9577 8.8281 -13.2777 -2.1463
# 2 59.2784 97.0295 31.3017 10.7787 -7.4706 9.4227
# 3 38.9577 31.3017 62.0009 19.7201 -9.6419 -19.6853
# 4 8.8281 10.7787 19.7201 23.7199 -14.0463 -9.9652
# 5 -13.2777 -7.4706 -9.6419 -14.0463 45.0698 28.8020
# 6 -2.1463 9.4227 -19.6853 -9.9652 28.8020 51.2189
#
#
#
# Elastic Compliance Matrix: (Units=1/GPa)
#
#
# Indices 1 2 3 4 5 6 
#
# 1 0.006407 -0.002727 -0.003577 0.002655 0.002425 -0.001452
# 2 -0.002727 0.016273 -0.008922 0.000742 0.006715 -0.010168
# 3 -0.003577 -0.008922 0.033850 -0.023578 -0.014009 0.017792
# 4 0.002655 0.000742 -0.023578 0.070677 0.023270 -0.008421
# 5 0.002425 0.006715 -0.014009 0.023270 0.046114 -0.027922
# 6 -0.001452 -0.010168 0.017792 -0.008421 -0.027922 0.042235
#
#
# Mechanical properties :
#
#
# Convention : Reuss Voigt Hill
#
# Bulk Modulus (GPa) = 38.34809 69.11777 53.73293
# Shear Modulus (GPa) = 19.63095 39.56480 29.59788
#
# Velocity S-wave (km/s) = 2.80224 3.97822 3.44084
# Velocity P-wave (km/s) = 5.08031 6.98207 6.10569
#
# Compressibility (1/GPa) = 0.02607692
#
# Stress axis : x y z
#
# Youngs Moduli (GPa) = 156.08695 61.45298 29.54199
#
# Poissons Ratio (x) = 0.16760 0.10567
# Poissons Ratio (y) = 0.42570 0.26357
# Poissons Ratio (z) = 0.55830 0.54829
#
# Static dielectric constant tensor:
#      x y z
#    x 2.141150 -0.022480 0.066980 
#    y -0.022480 1.999110 0.009970 
#    z 0.066980 0.009970 2.187270 
# 
# From -- ./inp_files/60027.got.cif
#   From: 2010.05.17/outbox.cif.g08.bks.cpg/sg2_31_cif.got.tgz:60027.got - 2010.06.03 11:33:40.
