data_PCOD9096278
_publ_section_title
;
Structure prediction by ZEFSAII (Michael W. Deem and Ramdas Pophale) SiO2 
 PCOD9096278
Probable space group: P -1
;
_chemical_formula_sum "Si O2"
_cell_formula_units_Z 15
_cell_length_a 14.338420
_cell_length_b 18.652071
_cell_length_c 8.633684
_cell_angle_alpha 113.973430
_cell_angle_beta 55.264070
_cell_angle_gamma 160.083585
_cell_volume 573.180650
_symmetry_space_group_name_H-M "P -1"
_symmetry_group_IT_number 2
_symmetry_cell_setting 'triclinic'
loop_
_space_group_symop_operation_xyz
x,y,z
-x,-y,-z
loop_
_atom_site_type_symbol
_atom_site_label
_atom_site_fract_x
_atom_site_fract_y
_atom_site_fract_z
Si Si1 0.277070 0.591794 0.108797
Si Si2 0.791108 0.135935 0.187477
Si Si3 0.979059 0.988270 0.691082
Si Si4 0.357233 0.195028 0.771882
Si Si5 0.681321 0.620686 0.267186
Si Si6 0.134677 0.327881 0.340772
Si Si7 0.214365 0.793114 0.215189
Si Si8 0.000000 0.500000 0.000000
O O1 0.451697 0.737343 0.229976
O O2 0.930824 0.316690 0.223190
O O3 0.581682 0.731492 0.889148
O O4 0.207290 0.606549 0.051985
O O5 0.891591 0.160082 0.275523
O O6 0.406324 0.887152 0.271075
O O7 0.021648 0.246814 0.932677
O O8 0.000000 0.000000 0.500000
O O9 0.225727 0.086275 0.630101
O O10 0.137958 0.177134 0.744953
O O11 0.632851 0.444474 0.718613
O O12 0.000000 0.000000 0.000000
O O13 0.500000 0.500000 0.500000
O O14 0.397117 0.431427 0.232876
O O15 0.951574 0.234967 0.590766
O O16 0.974247 0.573278 0.166294
O O17 0.500000 0.000000 0.000000
#
# Coordination Sequence:
#
# PCOD9096278 Si02
#       8
#     2   2   2   2   2   2   2   1
#     4  10  21  40  64  91 131 183 226 284 347 413
#     4  11  22  44  68  96 141 183 234 291 355 420
#     4  10  20  35  64  95 132 172 226 289 346 414
#     4   8  18  38  63  94 133 175 225 282 349 410
#     4  11  22  38  65 104 132 181 233 289 359 424
#     4  10  23  41  72  98 139 187 234 291 360 420
#     4  12  25  46  73 101 141 188 234 293 355 423
#     4  12  26  42  72  96 140 186 242 284 352 422
#
# _framework density 26.169758000000002
#
# number of rings (size 3 to 8) (size 9 to 14) (size 15 to 20)
#    0.000    1.600    1.333    3.200    3.733    0.000 
#    0.000    6.667   14.667    0.000    0.000    0.000 
#    0.000    0.000    0.000    0.000    0.000    0.000 
#
# Total GULP energy -83633.338730 kJ/mol
# GULP energy per Si atom -5575.555915 kJ/mol
# Density = 2.611019 g / cm^3
# Si number density = 26.169758 Si / 1000 Ang^3
#
#
#
# Elastic Constant Matrix: (Units=GPa)
#
#
# Indices 1 2 3 4 5 6 
#
# 1 114.6093 33.8715 5.0756 10.7552 8.2500 56.7907
# 2 33.8715 135.7174 1.6896 23.4194 7.9179 20.6888
# 3 5.0756 1.6896 80.3091 0.5969 13.7814 -3.7053
# 4 10.7552 23.4194 0.5969 31.9449 5.3997 11.4602
# 5 8.2500 7.9179 13.7814 5.3997 36.1388 12.1029
# 6 56.7907 20.6888 -3.7053 11.4602 12.1029 56.9689
#
#
#
# Elastic Compliance Matrix: (Units=1/GPa)
#
#
# Indices 1 2 3 4 5 6 
#
# 1 0.018358 -0.002169 -0.002552 0.001611 0.003279 -0.018700
# 2 -0.002169 0.008908 0.000129 -0.005770 -0.000728 0.000251
# 3 -0.002552 0.000129 0.013918 -0.000138 -0.006332 0.004776
# 4 0.001611 -0.005770 -0.000138 0.037779 -0.002488 -0.006591
# 5 0.003279 -0.000728 -0.006332 -0.002488 0.033208 -0.009971
# 6 -0.018700 0.000251 0.004776 -0.006591 -0.009971 0.039859
#
#
# Mechanical properties :
#
#
# Convention : Reuss Voigt Hill
#
# Bulk Modulus (GPa) = 31.24935 45.76770 38.50853
# Shear Modulus (GPa) = 29.09006 44.34379 36.71693
#
# Velocity S-wave (km/s) = 3.33767 4.12086 3.74977
# Velocity P-wave (km/s) = 5.17883 6.33788 5.78744
#
# Compressibility (1/GPa) = 0.03200066
#
# Stress axis : x y z
#
# Youngs Moduli (GPa) = 54.47199 112.26191 71.84706
#
# Poissons Ratio (x) = 0.24345 0.18336
# Poissons Ratio (y) = 0.11813 -0.00927
# Poissons Ratio (z) = 0.13902 -0.01448
#
# Static dielectric constant tensor:
#      x y z
#    x 2.089800 -0.013270 0.033180 
#    y -0.013270 2.193740 0.169010 
#    z 0.033180 0.169010 2.307660 
# 
# From -- ./inp_files/243852.got.cif
#   From: 2010.05.17/outbox.cif.g08.bks.cpg/sg2_122_cif.got.tgz:243852.got - 2010.06.03 11:33:40.
