data_PCOD9096692
_publ_section_title
;
Structure prediction by ZEFSAII (Michael W. Deem and Ramdas Pophale) SiO2 
 PCOD9096692
Probable space group: P -1
;
_chemical_formula_sum "Si O2"
_cell_formula_units_Z 16
_cell_length_a 8.810217
_cell_length_b 14.475831
_cell_length_c 12.056425
_cell_angle_alpha 118.958433
_cell_angle_beta 38.285826
_cell_angle_gamma 128.977224
_cell_volume 740.468071
_symmetry_space_group_name_H-M "P -1"
_symmetry_group_IT_number 2
_symmetry_cell_setting 'triclinic'
loop_
_space_group_symop_operation_xyz
x,y,z
-x,-y,-z
loop_
_atom_site_type_symbol
_atom_site_label
_atom_site_fract_x
_atom_site_fract_y
_atom_site_fract_z
Si Si1 0.248007 0.066754 0.046562
Si Si2 0.608914 0.676121 0.526974
Si Si3 0.859822 0.133746 0.728184
Si Si4 0.770467 0.551145 0.529426
Si Si5 0.879314 0.818560 0.014577
Si Si6 0.642798 0.373639 0.681706
Si Si7 0.881066 0.031194 0.424192
Si Si8 0.361024 0.799961 0.610647
O O1 0.561516 0.108949 0.926827
O O2 0.261633 0.123882 0.951634
O O3 0.078376 0.924206 0.043573
O O4 0.058909 0.098911 0.255590
O O5 0.677121 0.646189 0.592219
O O6 0.377812 0.556819 0.535175
O O7 0.502617 0.773581 0.622930
O O8 0.894012 0.732479 0.324927
O O9 0.855677 0.107639 0.583509
O O10 0.953748 0.041357 0.673032
O O11 0.674010 0.492809 0.672236
O O12 0.098521 0.597547 0.369912
O O13 0.075039 0.787448 0.808102
O O14 0.648681 0.704728 0.140764
O O15 0.667285 0.292443 0.521921
O O16 0.571543 0.929713 0.520837
#
# Coordination Sequence:
#
# PCOD9096692 Si02
#       8
#     2   2   2   2   2   2   2   2
#     4  11  22  35  54  86 123 154 190 228 277 354
#     4   9  19  37  61  85 113 149 195 245 287 335
#     4  10  20  36  59  85 118 152 187 234 287 346
#     4   9  19  38  63  86 107 150 202 242 290 337
#     4  11  23  35  56  87 118 155 191 230 286 348
#     4  10  20  39  64  83 115 154 190 242 294 336
#     4  10  20  36  57  85 119 155 188 227 285 350
#     4  10  20  38  59  84 121 154 186 236 290 344
#
# _framework density 21.607955
#
# number of rings (size 3 to 8) (size 9 to 14) (size 15 to 20)
#    0.000    2.000    2.500    1.125    0.000    2.500 
#    0.000    6.250    0.000    3.000    0.000    0.000 
#    0.000    0.000    0.000    0.000    0.000    0.000 
#
# Total GULP energy -89310.161942 kJ/mol
# GULP energy per Si atom -5581.885121 kJ/mol
# Density = 2.155877 g / cm^3
# Si number density = 21.607955 Si / 1000 Ang^3
#
#
#
# Elastic Constant Matrix: (Units=GPa)
#
#
# Indices 1 2 3 4 5 6 
#
# 1 95.9993 23.7499 31.5937 -14.1571 -14.6766 -6.2948
# 2 23.7499 45.2891 25.2254 -21.0996 -5.6795 5.0842
# 3 31.5937 25.2254 138.9965 -19.3701 -18.6726 3.1472
# 4 -14.1571 -21.0996 -19.3701 26.8716 10.0548 -0.8590
# 5 -14.6766 -5.6795 -18.6726 10.0548 30.4932 -2.3220
# 6 -6.2948 5.0842 3.1472 -0.8590 -2.3220 26.9322
#
#
#
# Elastic Compliance Matrix: (Units=1/GPa)
#
#
# Indices 1 2 3 4 5 6 
#
# 1 0.013491 -0.006592 -0.001419 -0.000820 0.005046 0.004972
# 2 -0.006592 0.040526 -0.002624 0.028964 -0.007437 -0.008602
# 3 -0.001419 -0.002624 0.008775 0.002216 0.003433 -0.000495
# 4 -0.000820 0.028964 0.002216 0.066991 -0.016127 -0.005172
# 5 0.005046 -0.007437 0.003433 -0.016127 0.041658 0.005259
# 6 0.004972 -0.008602 -0.000495 -0.005172 0.005259 0.040263
#
#
# Mechanical properties :
#
#
# Convention : Reuss Voigt Hill
#
# Bulk Modulus (GPa) = 24.08453 49.04699 36.56576
# Shear Modulus (GPa) = 20.25811 30.17380 25.21595
#
# Velocity S-wave (km/s) = 3.06523 3.74093 3.41981
# Velocity P-wave (km/s) = 4.86805 6.43484 5.70548
#
# Compressibility (1/GPa) = 0.04152042
#
# Stress axis : x y z
#
# Youngs Moduli (GPa) = 74.12281 24.67537 113.96636
#
# Poissons Ratio (x) = 0.16266 0.16175
# Poissons Ratio (y) = 0.48862 0.29910
# Poissons Ratio (z) = 0.10520 0.06476
#
# Static dielectric constant tensor:
#      x y z
#    x 1.868810 -0.012840 0.030140 
#    y -0.012840 1.838710 -0.020190 
#    z 0.030140 -0.020190 1.760820 
# 
# From -- ./inp_files/200969.got.cif
#   From: 2010.05.17/outbox.cif.g08.bks.cpg/sg2_101_cif.got.tgz:200969.got - 2010.06.03 11:33:40.
