data_PCOD9096728
_publ_section_title
;
Structure prediction by ZEFSAII (Michael W. Deem and Ramdas Pophale) SiO2 
 PCOD9096728
Probable space group: P -1
;
_chemical_formula_sum "Si O2"
_cell_formula_units_Z 16
_cell_length_a 12.499339
_cell_length_b 10.551896
_cell_length_c 14.936206
_cell_angle_alpha 93.130310
_cell_angle_beta 149.511662
_cell_angle_gamma 109.483505
_cell_volume 658.684189
_symmetry_space_group_name_H-M "P -1"
_symmetry_group_IT_number 2
_symmetry_cell_setting 'triclinic'
loop_
_space_group_symop_operation_xyz
x,y,z
-x,-y,-z
loop_
_atom_site_type_symbol
_atom_site_label
_atom_site_fract_x
_atom_site_fract_y
_atom_site_fract_z
Si Si1 0.679162 0.679678 0.075077
Si Si2 0.398096 0.768448 0.327785
Si Si3 0.805399 0.987099 0.280878
Si Si4 0.200718 0.884453 0.896549
Si Si5 0.832764 0.300752 0.596055
Si Si6 0.560849 0.754470 0.818303
Si Si7 0.046489 0.595839 0.895867
Si Si8 0.821276 0.055137 0.787766
O O1 0.661875 0.805970 0.114730
O O2 0.026291 0.772283 0.324394
O O3 0.500000 0.500000 0.000000
O O4 0.546946 0.640576 0.879018
O O5 0.730502 0.949201 0.622752
O O6 0.242029 0.573043 0.251653
O O7 0.195510 0.800420 0.215896
O O8 0.352461 0.743585 0.187669
O O9 0.521868 0.946613 0.113023
O O10 0.000000 0.000000 0.500000
O O11 0.950412 0.139019 0.308827
O O12 0.308022 0.056140 0.036310
O O13 0.996246 0.700101 0.806473
O O14 0.775648 0.361912 0.471264
O O15 0.478426 0.120078 0.374233
O O16 0.054713 0.481733 0.829242
O O17 0.818533 0.823368 0.933235
#
# Coordination Sequence:
#
# PCOD9096728 Si02
#       8
#     2   2   2   2   2   2   2   2
#     4  11  24  41  63  91 121 162 210 254 313 371
#     4   9  19  36  62  89 123 165 207 251 300 365
#     4  10  22  40  62  86 115 156 204 257 311 359
#     4  10  22  39  59  88 121 154 205 256 301 369
#     4  11  23  40  64  93 126 163 208 259 306 369
#     4  11  23  40  64  92 124 166 208 251 310 373
#     4  10  20  36  57  88 125 159 197 254 310 353
#     4  10  20  39  64  92 125 167 211 250 305 374
#
# _framework density 24.290854
#
# number of rings (size 3 to 8) (size 9 to 14) (size 15 to 20)
#    0.000    1.750    0.000    4.875    0.000    3.500 
#    0.000    8.125    0.000    0.000    0.000    0.000 
#    0.000    0.000    0.000    0.000    0.000    0.000 
#
# Total GULP energy -89344.862716 kJ/mol
# GULP energy per Si atom -5584.053920 kJ/mol
# Density = 2.423557 g / cm^3
# Si number density = 24.290854 Si / 1000 Ang^3
#
#
#
# Elastic Constant Matrix: (Units=GPa)
#
#
# Indices 1 2 3 4 5 6 
#
# 1 73.1448 28.8762 27.1056 -13.0236 4.1539 -6.0521
# 2 28.8762 162.1370 37.8563 -26.3263 0.0317 23.0222
# 3 27.1056 37.8563 62.7834 -31.3443 0.1308 3.3306
# 4 -13.0236 -26.3263 -31.3443 41.4980 -11.1490 -5.2709
# 5 4.1539 0.0317 0.1308 -11.1490 12.9762 -6.6045
# 6 -6.0521 23.0222 3.3306 -5.2709 -6.6045 42.8310
#
#
#
# Elastic Compliance Matrix: (Units=1/GPa)
#
#
# Indices 1 2 3 4 5 6 
#
# 1 0.017577 -0.002192 -0.008279 -0.003775 -0.007408 0.002699
# 2 -0.002192 0.008107 -0.002790 0.001862 0.000175 -0.004194
# 3 -0.008279 -0.002790 0.038312 0.035231 0.036243 0.007275
# 4 -0.003775 0.001862 0.035231 0.071473 0.070057 0.015325
# 5 -0.007408 0.000175 0.036243 0.070057 0.153697 0.028362
# 6 0.002699 -0.004194 0.007275 0.015325 0.028362 0.031677
#
#
# Mechanical properties :
#
#
# Convention : Reuss Voigt Hill
#
# Bulk Modulus (GPa) = 26.68607 53.97129 40.32868
# Shear Modulus (GPa) = 13.89439 33.07618 23.48528
#
# Velocity S-wave (km/s) = 2.39425 3.69409 3.11277
# Velocity P-wave (km/s) = 4.31893 6.36098 5.43669
#
# Compressibility (1/GPa) = 0.03747274
#
# Stress axis : x y z
#
# Youngs Moduli (GPa) = 56.89331 123.34392 26.10148
#
# Poissons Ratio (x) = 0.27038 0.21610
# Poissons Ratio (y) = 0.12471 0.07283
# Poissons Ratio (z) = 0.47103 0.34418
#
# Static dielectric constant tensor:
#      x y z
#    x 1.992180 0.128500 0.001030 
#    y 0.128500 2.000190 -0.003320 
#    z 0.001030 -0.003320 2.014780 
# 
# From -- ./inp_files/531141.got.cif
#   From: 2010.05.17/outbox.cif.g08.bks.cpg/sg2_266_cif.got.tgz:531141.got - 2010.06.03 11:33:40.
