data_PCOD9096055
_publ_section_title
;
Structure prediction by ZEFSAII (Michael W. Deem and Ramdas Pophale) SiO2 
 PCOD9096055
Probable space group: P -1
;
_chemical_formula_sum "Si O2"
_cell_formula_units_Z 16
_cell_length_a 12.340766
_cell_length_b 6.675981
_cell_length_c 19.246848
_cell_angle_alpha 67.372409
_cell_angle_beta 146.328713
_cell_angle_gamma 92.162202
_cell_volume 676.666527
_symmetry_space_group_name_H-M "P -1"
_symmetry_group_IT_number 2
_symmetry_cell_setting 'triclinic'
loop_
_space_group_symop_operation_xyz
x,y,z
-x,-y,-z
loop_
_atom_site_type_symbol
_atom_site_label
_atom_site_fract_x
_atom_site_fract_y
_atom_site_fract_z
Si Si1 0.382739 0.391784 0.997158
Si Si2 0.689819 0.856015 0.180323
Si Si3 0.242894 0.387656 0.062896
Si Si4 0.269607 0.089508 0.603879
Si Si5 0.669167 0.295858 0.829792
Si Si6 0.064800 0.545417 0.325433
Si Si7 0.798974 0.387149 0.386552
Si Si8 0.916272 0.266632 0.832632
O O1 0.151407 0.444747 0.829399
O O2 0.500000 0.500000 0.000000
O O3 0.318504 0.500484 0.025523
O O4 0.578372 0.083804 0.146790
O O5 0.939071 0.762514 0.290905
O O6 0.702300 0.600422 0.244982
O O7 0.500000 0.000000 0.000000
O O8 0.254819 0.518328 0.120969
O O9 0.448862 0.081406 0.216612
O O10 0.010172 0.419847 0.904698
O O11 0.207826 0.274599 0.479007
O O12 0.077421 0.264817 0.538690
O O13 0.220975 0.861076 0.596021
O O14 0.392106 0.439179 0.678531
O O15 0.731547 0.265828 0.785482
O O16 0.849573 0.026355 0.002681
O O17 0.163632 0.623114 0.302753
#
# Coordination Sequence:
#
# PCOD9096055 Si02
#       8
#     2   2   2   2   2   2   2   2
#     4  10  21  29  51  83 109 138 184 231 279 326
#     4   9  17  30  51  75 107 141 172 228 277 324
#     4  10  21  36  56  83 114 144 183 235 275 335
#     4   9  19  32  58  80 110 153 172 222 290 341
#     4  10  20  35  62  80 109 153 182 240 276 319
#     4   9  19  35  53  76 112 143 182 230 273 331
#     4   9  17  31  52  78 107 140 184 204 278 339
#     4  10  21  38  58  85 107 142 204 229 271 323
#
# _framework density 23.645323000000001
#
# number of rings (size 3 to 8) (size 9 to 14) (size 15 to 20)
#    0.000    2.500    0.000    2.625   14.000    0.000 
#    0.000    8.125    0.000    3.000    0.000    0.000 
#    0.000    0.000    0.000    0.000    0.000    0.000 
#
# Total GULP energy -89193.702157 kJ/mol
# GULP energy per Si atom -5574.606385 kJ/mol
# Density = 2.359151 g / cm^3
# Si number density = 23.645323 Si / 1000 Ang^3
#
#
#
# Elastic Constant Matrix: (Units=GPa)
#
#
# Indices 1 2 3 4 5 6 
#
# 1 158.8339 18.3919 31.9301 -4.2173 -16.9791 -0.0262
# 2 18.3919 44.7494 10.4231 -11.9984 2.9275 -3.7842
# 3 31.9301 10.4231 105.6052 -13.3980 -24.3037 5.5121
# 4 -4.2173 -11.9984 -13.3980 28.4947 7.8780 3.2391
# 5 -16.9791 2.9275 -24.3037 7.8780 29.7353 -4.0196
# 6 -0.0262 -3.7842 5.5121 3.2391 -4.0196 32.5855
#
#
#
# Elastic Compliance Matrix: (Units=1/GPa)
#
#
# Indices 1 2 3 4 5 6 
#
# 1 0.007342 -0.003558 -0.001207 -0.002205 0.004213 0.000536
# 2 -0.003558 0.028659 -0.002507 0.013045 -0.010197 0.001195
# 3 -0.001207 -0.002507 0.012523 0.002351 0.008962 -0.001539
# 4 -0.002205 0.013045 0.002351 0.045649 -0.013402 -0.005075
# 5 0.004213 -0.010197 0.008962 -0.013402 0.048540 0.004623
# 6 0.000536 0.001195 -0.001539 -0.005075 0.004623 0.032163
#
#
# Mechanical properties :
#
#
# Convention : Reuss Voigt Hill
#
# Bulk Modulus (GPa) = 29.42872 47.85318 38.64095
# Shear Modulus (GPa) = 24.90716 34.72599 29.81658
#
# Velocity S-wave (km/s) = 3.24908 3.83641 3.55490
# Velocity P-wave (km/s) = 5.15250 6.31712 5.76430
#
# Compressibility (1/GPa) = 0.03398041
#
# Stress axis : x y z
#
# Youngs Moduli (GPa) = 136.19503 34.89329 79.85542
#
# Poissons Ratio (x) = 0.12415 0.09638
# Poissons Ratio (y) = 0.48458 0.20018
# Poissons Ratio (z) = 0.16438 0.08747
#
# Static dielectric constant tensor:
#      x y z
#    x 1.973380 -0.019030 0.001700 
#    y -0.019030 1.997130 0.013810 
#    z 0.001700 0.013810 1.921310 
# 
# From -- ./inp_files/514168.got.cif
#   From: 2010.05.17/outbox.cif.g08.bks.cpg/sg2_258_cif.got.tgz:514168.got - 2010.06.03 11:33:40.
