data_PCOD9096095
_publ_section_title
;
Structure prediction by ZEFSAII (Michael W. Deem and Ramdas Pophale) SiO2 
 PCOD9096095
Probable space group: P -1
;
_chemical_formula_sum "Si O2"
_cell_formula_units_Z 16
_cell_length_a 10.882120
_cell_length_b 22.718436
_cell_length_c 7.871770
_cell_angle_alpha 118.290948
_cell_angle_beta 115.080410
_cell_angle_gamma 22.160419
_cell_volume 645.722841
_symmetry_space_group_name_H-M "P -1"
_symmetry_group_IT_number 2
_symmetry_cell_setting 'triclinic'
loop_
_space_group_symop_operation_xyz
x,y,z
-x,-y,-z
loop_
_atom_site_type_symbol
_atom_site_label
_atom_site_fract_x
_atom_site_fract_y
_atom_site_fract_z
Si Si1 0.265421 0.250896 0.571366
Si Si2 0.303094 0.442430 0.967133
Si Si3 0.924321 0.315186 0.683808
Si Si4 0.180359 0.431200 0.334215
Si Si5 0.266569 0.865781 0.117161
Si Si6 0.379631 0.498475 0.793177
Si Si7 0.313710 0.146085 0.013842
Si Si8 0.327166 0.892771 0.716344
O O1 0.474996 0.192175 0.765448
O O2 0.510622 0.152980 0.424036
O O3 0.137143 0.235752 0.533540
O O4 0.939285 0.440907 0.602695
O O5 0.538371 0.290721 0.007148
O O6 0.433946 0.406629 0.807535
O O7 0.990773 0.538906 0.865079
O O8 0.211761 0.550785 0.157464
O O9 0.613024 0.405369 0.640370
O O10 0.166417 0.189079 0.806937
O O11 0.526606 0.243595 0.321323
O O12 0.000000 0.500000 0.500000
O O13 0.056406 0.943514 0.270246
O O14 0.000000 0.000000 0.000000
O O15 0.994295 0.688400 0.826754
O O16 0.500000 0.500000 0.000000
O O17 0.552831 0.102236 0.078703
O O18 0.500000 0.000000 0.000000
#
# Coordination Sequence:
#
# PCOD9096095 Si02
#       8
#     2   2   2   2   2   2   2   2
#     4  10  23  40  55  84 122 158 188 235 295 353
#     4   9  18  35  58  85 111 148 193 241 284 338
#     4  10  20  37  60  81 117 149 198 240 282 346
#     4   9  18  34  59  81 112 152 190 227 293 350
#     4  11  24  34  59  88 120 149 196 239 291 346
#     4   8  17  34  57  83 109 142 193 235 284 332
#     4  10  20  35  62  88 112 147 199 246 290 336
#     4  11  21  38  59  86 119 153 189 239 299 352
#
# _framework density 24.778433
#
# number of rings (size 3 to 8) (size 9 to 14) (size 15 to 20)
#    0.000    2.500    2.500    1.125    7.000    1.000 
#    0.000    1.250    0.000    0.000    0.000    0.000 
#    0.000    0.000    0.000    0.000    0.000    0.000 
#
# Total GULP energy -89289.561088 kJ/mol
# GULP energy per Si atom -5580.597568 kJ/mol
# Density = 2.472204 g / cm^3
# Si number density = 24.778433 Si / 1000 Ang^3
#
#
#
# Elastic Constant Matrix: (Units=GPa)
#
#
# Indices 1 2 3 4 5 6 
#
# 1 136.6396 41.9825 21.9912 -7.9386 -38.1347 -16.3503
# 2 41.9825 102.3534 9.9899 -15.3509 -10.6938 20.4980
# 3 21.9912 9.9899 49.6826 -9.0303 -16.5939 -1.3043
# 4 -7.9386 -15.3509 -9.0303 28.3788 -2.1660 -7.7249
# 5 -38.1347 -10.6938 -16.5939 -2.1660 49.5682 -5.8752
# 6 -16.3503 20.4980 -1.3043 -7.7249 -5.8752 51.9747
#
#
#
# Elastic Compliance Matrix: (Units=1/GPa)
#
#
# Indices 1 2 3 4 5 6 
#
# 1 0.012805 -0.005219 -0.000603 0.003382 0.009579 0.007657
# 2 -0.005219 0.013680 -0.000553 0.003797 -0.001877 -0.006698
# 3 -0.000603 -0.000553 0.025070 0.008967 0.008551 0.002957
# 4 0.003382 0.003797 0.008967 0.043792 0.009207 0.007341
# 5 0.009579 -0.001877 0.008551 0.009207 0.031458 0.008893
# 6 0.007657 -0.006698 0.002957 0.007341 0.008893 0.026461
#
#
# Mechanical properties :
#
#
# Convention : Reuss Voigt Hill
#
# Bulk Modulus (GPa) = 25.77092 48.51142 37.14117
# Shear Modulus (GPa) = 27.94066 40.29847 34.11957
#
# Velocity S-wave (km/s) = 3.36165 4.03718 3.71480
# Velocity P-wave (km/s) = 5.04883 6.43058 5.78114
#
# Compressibility (1/GPa) = 0.03880343
#
# Stress axis : x y z
#
# Youngs Moduli (GPa) = 78.09295 73.10202 39.88885
#
# Poissons Ratio (x) = 0.38150 0.02407
# Poissons Ratio (y) = 0.40755 0.02207
# Poissons Ratio (z) = 0.04713 0.04044
#
# Static dielectric constant tensor:
#      x y z
#    x 2.010100 -0.019130 -0.084740 
#    y -0.019130 1.945130 0.009360 
#    z -0.084740 0.009360 2.150520 
# 
# From -- ./inp_files/284866.got.cif
#   From: 2010.05.17/outbox.cif.g08.bks.cpg/sg2_143_cif.got.tgz:284866.got - 2010.06.03 11:33:40.
