data_PCOD9096185
_publ_section_title
;
Structure prediction by ZEFSAII (Michael W. Deem and Ramdas Pophale) SiO2 
 PCOD9096185
Probable space group: P -1
;
_chemical_formula_sum "Si O2"
_cell_formula_units_Z 16
_cell_length_a 16.872847
_cell_length_b 8.121519
_cell_length_c 9.028216
_cell_angle_alpha 84.697696
_cell_angle_beta 41.599754
_cell_angle_gamma 75.132190
_cell_volume 784.287236
_symmetry_space_group_name_H-M "P -1"
_symmetry_group_IT_number 2
_symmetry_cell_setting 'triclinic'
loop_
_space_group_symop_operation_xyz
x,y,z
-x,-y,-z
loop_
_atom_site_type_symbol
_atom_site_label
_atom_site_fract_x
_atom_site_fract_y
_atom_site_fract_z
Si Si1 0.092733 0.499559 0.681754
Si Si2 0.479451 0.094623 0.363863
Si Si3 0.976335 0.753804 0.606398
Si Si4 0.125928 0.655095 0.912647
Si Si5 0.974070 0.943813 0.294235
Si Si6 0.725366 0.869419 0.583339
Si Si7 0.387679 0.417756 0.656617
Si Si8 0.684813 0.821298 0.978743
O O1 0.125113 0.632862 0.739065
O O2 0.193160 0.316925 0.572107
O O3 0.071850 0.576601 0.540371
O O4 0.961913 0.464081 0.906265
O O5 0.381610 0.049105 0.391755
O O6 0.419933 0.290934 0.479540
O O7 0.500000 0.000000 0.500000
O O8 0.615019 0.018668 0.108045
O O9 0.001061 0.803919 0.402053
O O10 0.831191 0.764732 0.814594
O O11 0.994769 0.895631 0.686295
O O12 0.260907 0.567984 0.796276
O O13 0.061209 0.846835 0.046961
O O14 0.828519 0.971992 0.456481
O O15 0.671584 0.828164 0.819241
O O16 0.500000 0.500000 0.500000
O O17 0.373079 0.304965 0.831634
#
# Coordination Sequence:
#
# PCOD9096185 Si02
#       8
#     2   2   2   2   2   2   2   2
#     4  10  20  35  63  85 119 149 192 240 292 354
#     4  10  22  41  61  82 120 159 198 243 289 346
#     4  10  20  39  57  94 120 153 189 233 300 346
#     4  10  20  36  57  85 116 155 189 243 288 347
#     4   9  22  35  61  91 124 148 189 239 288 359
#     4  10  20  40  61  91 116 153 201 238 293 353
#     4  11  23  40  57  85 115 154 205 243 292 343
#     4  10  22  38  64  83 116 164 192 244 290 351
#
# _framework density 20.400690000000001
#
# number of rings (size 3 to 8) (size 9 to 14) (size 15 to 20)
#    0.000    2.000    2.500    0.375    3.500    2.000 
#    4.500    0.625    0.000    0.000    0.000    0.000 
#    0.000    0.000    0.000    0.000    0.000    0.000 
#
# Total GULP energy -89221.743847 kJ/mol
# GULP energy per Si atom -5576.358990 kJ/mol
# Density = 2.035426 g / cm^3
# Si number density = 20.400690 Si / 1000 Ang^3
#
#
#
# Elastic Constant Matrix: (Units=GPa)
#
#
# Indices 1 2 3 4 5 6 
#
# 1 130.0606 29.1463 31.3862 -5.0620 -2.8706 -6.0757
# 2 29.1463 35.6779 16.5743 -4.6257 -9.2381 -2.7274
# 3 31.3862 16.5743 79.6831 6.7761 -1.7503 0.3293
# 4 -5.0620 -4.6257 6.7761 26.6874 -0.2620 1.1855
# 5 -2.8706 -9.2381 -1.7503 -0.2620 23.6068 7.1450
# 6 -6.0757 -2.7274 0.3293 1.1855 7.1450 38.1572
#
#
#
# Elastic Compliance Matrix: (Units=1/GPa)
#
#
# Indices 1 2 3 4 5 6 
#
# 1 0.010014 -0.007297 -0.002585 0.001203 -0.002265 0.001482
# 2 -0.007297 0.041716 -0.006105 0.007604 0.015450 -0.001257
# 3 -0.002585 -0.006105 0.015268 -0.005416 -0.001469 -0.000536
# 4 0.001203 0.007604 -0.005416 0.040477 0.003513 -0.001134
# 5 -0.002265 0.015450 -0.001469 0.003513 0.050741 -0.008854
# 6 0.001482 -0.001257 -0.000536 -0.001134 -0.008854 0.028051
#
#
# Mechanical properties :
#
#
# Convention : Reuss Voigt Hill
#
# Bulk Modulus (GPa) = 28.55130 44.40391 36.47761
# Shear Modulus (GPa) = 21.74718 28.91128 25.32923
#
# Velocity S-wave (km/s) = 3.26851 3.76862 3.52744
# Velocity P-wave (km/s) = 5.31694 6.38356 5.87451
#
# Compressibility (1/GPa) = 0.03502467
#
# Stress axis : x y z
#
# Youngs Moduli (GPa) = 99.86279 23.97169 65.49609
#
# Poissons Ratio (x) = 0.17492 0.16928
# Poissons Ratio (y) = 0.72870 0.39985
# Poissons Ratio (z) = 0.25811 0.14634
#
# Static dielectric constant tensor:
#      x y z
#    x 1.742320 0.003480 0.035800 
#    y 0.003480 1.781750 0.011940 
#    z 0.035800 0.011940 1.738170 
# 
# From -- ./inp_files/179206.got.cif
#   From: 2010.05.17/outbox.cif.g08.bks.cpg/sg2_90_cif.got.tgz:179206.got - 2010.06.03 11:33:40.
