data_PCOD9096375
_publ_section_title
;
Structure prediction by ZEFSAII (Michael W. Deem and Ramdas Pophale) SiO2 
 PCOD9096375
Probable space group: P -1
;
_chemical_formula_sum "Si O2"
_cell_formula_units_Z 16
_cell_length_a 13.844382
_cell_length_b 18.502202
_cell_length_c 13.980386
_cell_angle_alpha 121.502440
_cell_angle_beta 20.506831
_cell_angle_gamma 130.054797
_cell_volume 916.289028
_symmetry_space_group_name_H-M "P -1"
_symmetry_group_IT_number 2
_symmetry_cell_setting 'triclinic'
loop_
_space_group_symop_operation_xyz
x,y,z
-x,-y,-z
loop_
_atom_site_type_symbol
_atom_site_label
_atom_site_fract_x
_atom_site_fract_y
_atom_site_fract_z
Si Si1 0.890652 0.836237 0.236800
Si Si2 0.780762 0.196155 0.755341
Si Si3 0.089624 0.011187 0.034915
Si Si4 0.223327 0.715855 0.852458
Si Si5 0.501880 0.295143 0.204316
Si Si6 0.189665 0.903569 0.512538
Si Si7 0.094189 0.007731 0.308650
Si Si8 0.716632 0.504010 0.213244
O O1 0.537049 0.742736 0.519110
O O2 0.887707 0.906692 0.205652
O O3 0.011575 0.905341 0.266579
O O4 0.135508 0.798491 0.968851
O O5 0.844389 0.189757 0.578919
O O6 0.116898 0.222979 0.510536
O O7 0.670670 0.271986 0.944598
O O8 0.467781 0.091279 0.003375
O O9 0.032023 0.093304 0.195910
O O10 0.453984 0.040968 0.737638
O O11 0.000000 0.000000 0.000000
O O12 0.336277 0.718919 0.859996
O O13 0.902354 0.609264 0.061237
O O14 0.551689 0.404656 0.234969
O O15 0.117583 0.959463 0.533636
O O16 0.000000 0.000000 0.500000
O O17 0.500000 0.500000 0.500000
O O18 0.000000 0.500000 0.000000
#
# Coordination Sequence:
#
# PCOD9096375 Si02
#       8
#     2   2   2   2   2   2   2   2
#     4  11  22  36  53  79 108 145 186 223 270 324
#     4  12  21  36  49  76 112 142 190 223 248 328
#     4  11  23  41  60  77 106 147 187 236 287 325
#     4  11  22  35  52  75 111 143 194 229 263 313
#     4  11  22  33  54  75 106 158 188 219 272 311
#     4  11  21  39  52  78 109 142 181 235 258 325
#     4  11  24  34  50  74 120 155 182 207 259 318
#     4  10  20  36  52  72 104 146 197 237 262 304
#
# _framework density 17.461739000000001
#
# number of rings (size 3 to 8) (size 9 to 14) (size 15 to 20)
#    0.000    1.000    3.750    6.375    1.750    1.500 
#    0.000    0.625    0.000    0.000    0.000    0.000 
#    0.000   20.000    0.000    0.000    0.000    0.000 
#
# Total GULP energy -89239.968213 kJ/mol
# GULP energy per Si atom -5577.498013 kJ/mol
# Density = 1.742200 g / cm^3
# Si number density = 17.461739 Si / 1000 Ang^3
#
#
#
# Elastic Constant Matrix: (Units=GPa)
#
#
# Indices 1 2 3 4 5 6 
#
# 1 98.9370 27.6046 31.8213 2.4575 5.1758 9.1871
# 2 27.6046 81.5523 27.8058 7.1538 1.8161 11.1477
# 3 31.8213 27.8058 97.0096 17.4640 -18.7019 3.3204
# 4 2.4575 7.1538 17.4640 36.8691 4.1667 1.9011
# 5 5.1758 1.8161 -18.7019 4.1667 21.4287 0.3141
# 6 9.1871 11.1477 3.3204 1.9011 0.3141 10.3891
#
#
#
# Elastic Compliance Matrix: (Units=1/GPa)
#
#
# Indices 1 2 3 4 5 6 
#
# 1 0.013755 -0.001403 -0.006287 0.003853 -0.009306 -0.009072
# 2 -0.001403 0.016489 -0.004856 0.000546 -0.005185 -0.014844
# 3 -0.006287 -0.004856 0.019488 -0.010533 0.020901 0.005837
# 4 0.003853 0.000546 -0.010533 0.033961 -0.016680 -0.006337
# 5 -0.009306 -0.005185 0.020901 -0.016680 0.070721 0.008028
# 6 -0.009072 -0.014844 0.005837 -0.006337 0.008028 0.119256
#
#
# Mechanical properties :
#
#
# Convention : Reuss Voigt Hill
#
# Bulk Modulus (GPa) = 40.58360 50.21804 45.40082
# Shear Modulus (GPa) = 16.28800 26.42187 21.35493
#
# Velocity S-wave (km/s) = 3.05746 3.89412 3.50087
# Velocity P-wave (km/s) = 5.97963 7.00287 6.51138
#
# Compressibility (1/GPa) = 0.02464050
#
# Stress axis : x y z
#
# Youngs Moduli (GPa) = 72.70341 60.64575 51.31336
#
# Poissons Ratio (x) = 0.08507 0.32260
# Poissons Ratio (y) = 0.10199 0.24917
# Poissons Ratio (z) = 0.45708 0.29449
#
# Static dielectric constant tensor:
#      x y z
#    x 1.572920 0.036170 -0.001900 
#    y 0.036170 1.707340 -0.007090 
#    z -0.001900 -0.007090 1.629730 
# 
# From -- ./inp_files/534887.got.cif
#   From: 2010.05.17/outbox.cif.g08.bks.cpg/sg2_268_cif.got.tgz:534887.got - 2010.06.03 11:33:40.
