data_PCOD9096225
_publ_section_title
;
Structure prediction by ZEFSAII (Michael W. Deem and Ramdas Pophale) SiO2 
 PCOD9096225
Probable space group: P -1
;
_chemical_formula_sum "Si O2"
_cell_formula_units_Z 16
_cell_length_a 9.236997
_cell_length_b 7.423611
_cell_length_c 16.053801
_cell_angle_alpha 127.918294
_cell_angle_beta 49.768813
_cell_angle_gamma 124.310181
_cell_volume 637.083528
_symmetry_space_group_name_H-M "P -1"
_symmetry_group_IT_number 2
_symmetry_cell_setting 'triclinic'
loop_
_space_group_symop_operation_xyz
x,y,z
-x,-y,-z
loop_
_atom_site_type_symbol
_atom_site_label
_atom_site_fract_x
_atom_site_fract_y
_atom_site_fract_z
Si Si1 0.905481 0.547032 0.135031
Si Si2 0.474730 0.653301 0.690604
Si Si3 0.256877 0.055083 0.698072
Si Si4 0.134743 0.522554 0.296219
Si Si5 0.551315 0.825958 0.162478
Si Si6 0.107121 0.236217 0.078938
Si Si7 0.774412 0.713636 0.457606
Si Si8 0.715376 0.200326 0.531875
O O1 0.667847 0.434958 0.200674
O O2 0.910305 0.817705 0.225334
O O3 0.021612 0.437058 0.127175
O O4 0.000000 0.500000 0.000000
O O5 0.682294 0.664650 0.571002
O O6 0.336397 0.498653 0.624593
O O7 0.495107 0.930313 0.771143
O O8 0.303703 0.095386 0.789028
O O9 0.481226 0.179819 0.613408
O O10 0.217177 0.813230 0.591854
O O11 0.351937 0.640062 0.210815
O O12 0.073191 0.270244 0.199020
O O13 0.178202 0.566468 0.390081
O O14 0.993478 0.687869 0.372950
O O15 0.668494 0.739148 0.021810
O O16 0.000000 0.000000 0.000000
O O17 0.744443 0.962344 0.501842
#
# Coordination Sequence:
#
# PCOD9096225 Si02
#       8
#     2   2   2   2   2   2   2   2
#     4  12  23  39  67  96 124 172 224 269 317 392
#     4  11  22  38  63 101 122 169 224 270 314 383
#     4  10  20  37  59  98 128 169 217 246 330 391
#     4  11  22  38  63 103 131 167 222 267 336 377
#     4  11  22  39  66  97 133 175 218 274 314 389
#     4  12  23  42  68  96 126 170 228 276 315 388
#     4  11  20  36  64  98 132 167 218 268 321 385
#     4  10  20  35  63  94 131 174 208 264 315 396
#
# _framework density 25.114446000000001
#
# number of rings (size 3 to 8) (size 9 to 14) (size 15 to 20)
#    0.000    1.000    7.500    0.750    0.000    0.000 
#    0.000    0.000    0.000   18.750    0.000    0.000 
#    0.000    0.000    0.000    0.000    0.000    0.000 
#
# Total GULP energy -89267.525662 kJ/mol
# GULP energy per Si atom -5579.220354 kJ/mol
# Density = 2.505728 g / cm^3
# Si number density = 25.114446 Si / 1000 Ang^3
#
#
#
# Elastic Constant Matrix: (Units=GPa)
#
#
# Indices 1 2 3 4 5 6 
#
# 1 65.5736 11.1498 53.6070 11.9788 3.4214 12.3919
# 2 11.1498 54.1867 37.3697 2.0648 6.8589 7.2856
# 3 53.6070 37.3697 261.8144 -10.0844 5.9282 -4.1560
# 4 11.9788 2.0648 -10.0844 50.0014 -4.0917 5.9576
# 5 3.4214 6.8589 5.9282 -4.0917 50.4670 3.9712
# 6 12.3919 7.2856 -4.1560 5.9576 3.9712 30.8741
#
#
#
# Elastic Compliance Matrix: (Units=1/GPa)
#
#
# Indices 1 2 3 4 5 6 
#
# 1 0.021692 0.000250 -0.004795 -0.005243 -0.000713 -0.008308
# 2 0.000250 0.021642 -0.003215 -0.001178 -0.002273 -0.005121
# 3 -0.004795 -0.003215 0.005384 0.002013 0.000056 0.003012
# 4 -0.005243 -0.001178 0.002013 0.022118 0.002222 -0.001901
# 5 -0.000713 -0.002273 0.000056 0.002222 0.020522 -0.002238
# 6 -0.008308 -0.005121 0.003012 -0.001901 -0.002238 0.037993
#
#
# Mechanical properties :
#
#
# Convention : Reuss Voigt Hill
#
# Bulk Modulus (GPa) = 30.12213 65.09196 47.60705
# Shear Modulus (GPa) = 32.06414 44.89841 38.48127
#
# Velocity S-wave (km/s) = 3.57700 4.23277 3.91863
# Velocity P-wave (km/s) = 5.39258 7.06136 6.28262
#
# Compressibility (1/GPa) = 0.03319818
#
# Stress axis : x y z
#
# Youngs Moduli (GPa) = 46.09946 46.20681 185.72477
#
# Poissons Ratio (x) = -0.01156 0.89053
# Poissons Ratio (y) = -0.01154 0.59719
# Poissons Ratio (z) = 0.22104 0.14858
#
# Static dielectric constant tensor:
#      x y z
#    x 2.051410 -0.007070 0.050610 
#    y -0.007070 2.148280 -0.045900 
#    z 0.050610 -0.045900 1.979840 
# 
# From -- ./inp_files/557546.got.cif
#   From: 2010.05.17/outbox.cif.g08.bks.cpg/sg2_279_cif.got.tgz:557546.got - 2010.06.03 11:33:40.
