data_PCOD9096450
_publ_section_title
;
Structure prediction by ZEFSAII (Michael W. Deem and Ramdas Pophale) SiO2 
 PCOD9096450
Probable space group: P -1
;
_chemical_formula_sum "Si O2"
_cell_formula_units_Z 12
_cell_length_a 7.751668
_cell_length_b 11.685144
_cell_length_c 22.068208
_cell_angle_alpha 30.183034
_cell_angle_beta 40.417942
_cell_angle_gamma 35.000566
_cell_volume 566.533878
_symmetry_space_group_name_H-M "P -1"
_symmetry_group_IT_number 2
_symmetry_cell_setting 'triclinic'
loop_
_space_group_symop_operation_xyz
x,y,z
-x,-y,-z
loop_
_atom_site_type_symbol
_atom_site_label
_atom_site_fract_x
_atom_site_fract_y
_atom_site_fract_z
Si Si1 0.725395 0.809724 0.170195
Si Si2 0.393771 0.628548 0.560251
Si Si3 0.509579 0.677256 0.643238
Si Si4 0.296296 0.923500 0.131288
Si Si5 0.786024 0.214428 0.048339
Si Si6 0.975989 0.176942 0.543206
O O1 0.786565 0.527541 0.303763
O O2 0.399047 0.939198 0.164119
O O3 0.712525 0.995943 0.142000
O O4 0.977838 0.780198 0.066903
O O5 0.483907 0.711197 0.560925
O O6 0.708699 0.408551 0.546697
O O7 0.190930 0.834534 0.468589
O O8 0.604148 0.379615 0.767513
O O9 0.763483 0.739542 0.573031
O O10 0.167344 0.896251 0.653115
O O11 0.954863 0.110580 0.114845
O O12 0.500000 0.000000 0.000000
O O13 0.500000 0.500000 0.000000
#
# Coordination Sequence:
#
# PCOD9096450 Si02
#       6
#     2   2   2   2   2   2
#     4   9  20  36  54  79 111 141 176 224 268 321
#     4  10  20  36  55  81 110 140 182 224 266 319
#     4  10  20  37  55  79 110 142 181 223 269 319
#     4   9  19  36  56  78 109 141 175 223 269 318
#     4  10  20  36  56  80 108 142 181 221 271 321
#     4  10  21  35  57  80 108 147 181 221 270 316
#
# _framework density 21.181433999999999
#
# number of rings (size 3 to 8) (size 9 to 14) (size 15 to 20)
#    0.000    2.333    0.000    2.000    0.000    4.667 
#    0.000   16.667    0.000    0.000    0.000    0.000 
#    0.000    0.000    0.000    0.000    0.000    0.000 
#
# Total GULP energy -66946.239373 kJ/mol
# GULP energy per Si atom -5578.853281 kJ/mol
# Density = 2.113322 g / cm^3
# Si number density = 21.181434 Si / 1000 Ang^3
#
#
#
# Elastic Constant Matrix: (Units=GPa)
#
#
# Indices 1 2 3 4 5 6 
#
# 1 114.7046 40.8184 13.8875 -14.8770 4.0138 -19.0843
# 2 40.8184 76.9770 0.9421 -11.2940 3.8398 -16.9432
# 3 13.8875 0.9421 51.7564 -10.9287 -2.4138 -14.0802
# 4 -14.8770 -11.2940 -10.9287 16.6838 -0.4717 11.4037
# 5 4.0138 3.8398 -2.4138 -0.4717 25.4685 -13.9611
# 6 -19.0843 -16.9432 -14.0802 11.4037 -13.9611 30.4434
#
#
#
# Elastic Compliance Matrix: (Units=1/GPa)
#
#
# Indices 1 2 3 4 5 6 
#
# 1 0.011624 -0.005014 -0.001490 0.004550 0.000026 0.002115
# 2 -0.005014 0.018068 0.004589 0.004868 0.003399 0.008771
# 3 -0.001490 0.004589 0.026131 0.008762 0.010547 0.015260
# 4 0.004550 0.004868 0.008762 0.096148 -0.017783 -0.034557
# 5 0.000026 0.003399 0.010547 -0.017783 0.062501 0.042110
# 6 0.002115 0.008771 0.015260 -0.034557 0.042110 0.078368
#
#
# Mechanical properties :
#
#
# Convention : Reuss Voigt Hill
#
# Bulk Modulus (GPa) = 19.23348 39.41488 29.32418
# Shear Modulus (GPa) = 15.92346 27.03850 21.48098
#
# Velocity S-wave (km/s) = 2.74481 3.57672 3.18801
# Velocity P-wave (km/s) = 4.37554 5.97543 5.23694
#
# Compressibility (1/GPa) = 0.05199267
#
# Stress axis : x y z
#
# Youngs Moduli (GPa) = 86.03120 55.34512 38.26847
#
# Poissons Ratio (x) = 0.27748 0.05704
# Poissons Ratio (y) = 0.43134 -0.17561
# Poissons Ratio (z) = 0.12822 -0.25397
#
# Static dielectric constant tensor:
#      x y z
#    x 1.791360 -0.002520 0.033590 
#    y -0.002520 1.769150 -0.003500 
#    z 0.033590 -0.003500 1.816240 
# 
# From -- ./inp_files/322339.got.cif
#   From: 2010.05.17/outbox.cif.g08.bks.cpg/sg2_162_cif.got.tgz:322339.got - 2010.06.03 11:33:40.
