data_PCOD9096136
_publ_section_title
;
Structure prediction by ZEFSAII (Michael W. Deem and Ramdas Pophale) SiO2 
 PCOD9096136
Probable space group: P -1
;
_chemical_formula_sum "Si O2"
_cell_formula_units_Z 16
_cell_length_a 15.939793
_cell_length_b 16.361326
_cell_length_c 5.567875
_cell_angle_alpha 58.991188
_cell_angle_beta 74.701508
_cell_angle_gamma 42.237535
_cell_volume 818.997851
_symmetry_space_group_name_H-M "P -1"
_symmetry_group_IT_number 2
_symmetry_cell_setting 'triclinic'
loop_
_space_group_symop_operation_xyz
x,y,z
-x,-y,-z
loop_
_atom_site_type_symbol
_atom_site_label
_atom_site_fract_x
_atom_site_fract_y
_atom_site_fract_z
Si Si1 0.224561 0.105076 0.494783
Si Si2 0.412451 0.426902 0.103934
Si Si3 0.586797 0.058265 0.764867
Si Si4 0.402484 0.620803 0.583196
Si Si5 0.611254 0.182835 0.938944
Si Si6 0.648322 0.837641 0.405799
Si Si7 0.039948 0.580204 0.828717
Si Si8 0.189846 0.469282 0.379762
O O1 0.300915 0.142968 0.438083
O O2 0.080379 0.253999 0.376920
O O3 0.277905 0.025191 0.323912
O O4 0.278100 0.978561 0.816347
O O5 0.513068 0.394454 0.256765
O O6 0.307692 0.446540 0.283247
O O7 0.341159 0.574825 0.809162
O O8 0.503132 0.297875 0.041237
O O9 0.541553 0.178458 0.789237
O O10 0.481283 0.119554 0.549204
O O11 0.614949 0.943544 0.075214
O O12 0.500000 0.500000 0.500000
O O13 0.331587 0.764157 0.286788
O O14 0.756276 0.680837 0.468190
O O15 0.128758 0.522646 0.611362
O O16 0.099968 0.556095 0.081325
O O17 0.000000 0.500000 0.000000
#
# Coordination Sequence:
#
# PCOD9096136 Si02
#       8
#     2   2   2   2   2   2   2   2
#     4  11  22  37  56  82 123 162 221 253 311 369
#     4  10  22  39  62 101 123 159 199 261 328 384
#     4  10  21  34  57  88 123 156 206 255 329 374
#     4   9  19  37  65  94 130 151 193 253 336 397
#     4  10  20  35  62  92 124 159 195 259 322 389
#     4  10  21  34  57  84 120 159 202 269 313 369
#     4  12  27  44  63  86 125 183 225 263 303 353
#     4  12  26  41  67  89 129 168 224 263 307 371
#
# _framework density 19.536072000000001
#
# number of rings (size 3 to 8) (size 9 to 14) (size 15 to 20)
#    0.000    1.500    1.250    3.750    8.750    1.000 
#    0.000    0.000    0.000    1.500    0.000    0.000 
#    0.000    0.000    0.000    0.000    0.000    0.000 
#
# Total GULP energy -89137.081337 kJ/mol
# GULP energy per Si atom -5571.067584 kJ/mol
# Density = 1.949161 g / cm^3
# Si number density = 19.536072 Si / 1000 Ang^3
#
#
#
# Elastic Constant Matrix: (Units=GPa)
#
#
# Indices 1 2 3 4 5 6 
#
# 1 47.7290 37.1584 34.6330 -4.1714 -3.9662 9.2085
# 2 37.1584 121.7922 50.8589 -4.8756 0.7920 5.7753
# 3 34.6330 50.8589 89.4976 -4.6917 -29.5526 7.8996
# 4 -4.1714 -4.8756 -4.6917 41.1028 9.2939 -2.4916
# 5 -3.9662 0.7920 -29.5526 9.2939 27.6506 -1.5181
# 6 9.2085 5.7753 7.8996 -2.4916 -1.5181 24.2017
#
#
#
# Elastic Compliance Matrix: (Units=1/GPa)
#
#
# Indices 1 2 3 4 5 6 
#
# 1 0.035580 -0.004276 -0.014294 0.003624 -0.011720 -0.008214
# 2 -0.004276 0.014208 -0.010864 0.003169 -0.013628 0.001254
# 3 -0.014294 -0.010864 0.035351 -0.007515 0.038467 -0.001869
# 4 0.003624 0.003169 -0.007515 0.028180 -0.016957 0.002155
# 5 -0.011720 -0.013628 0.038467 -0.016957 0.081607 -0.001471
# 6 -0.008214 0.001254 -0.001869 0.002155 -0.001471 0.044885
#
#
# Mechanical properties :
#
#
# Convention : Reuss Voigt Hill
#
# Bulk Modulus (GPa) = 38.06213 56.03549 47.04881
# Shear Modulus (GPa) = 16.26366 27.68226 21.97296
#
# Velocity S-wave (km/s) = 2.88843 3.76837 3.35735
# Velocity P-wave (km/s) = 5.53618 6.90503 6.25815
#
# Compressibility (1/GPa) = 0.02627283
#
# Stress axis : x y z
#
# Youngs Moduli (GPa) = 28.10604 70.38406 28.28745
#
# Poissons Ratio (x) = 0.30093 0.40433
# Poissons Ratio (y) = 0.12017 0.30731
# Poissons Ratio (z) = 0.40174 0.76464
#
# Static dielectric constant tensor:
#      x y z
#    x 1.714120 0.018000 0.002510 
#    y 0.018000 1.686260 0.002060 
#    z 0.002510 0.002060 1.791010 
# 
# From -- ./inp_files/78091.got.cif
#   From: 2010.05.17/outbox.cif.g08.bks.cpg/sg2_40_cif.got.tgz:78091.got - 2010.06.03 11:33:40.
