data_PCOD9096984
_publ_section_title
;
Structure prediction by ZEFSAII (Michael W. Deem and Ramdas Pophale) SiO2 
 PCOD9096984
Probable space group: P -1
;
_chemical_formula_sum "Si O2"
_cell_formula_units_Z 13
_cell_length_a 11.668410
_cell_length_b 12.386774
_cell_length_c 5.005629
_cell_angle_alpha 74.762050
_cell_angle_beta 98.526747
_cell_angle_gamma 60.692651
_cell_volume 574.785234
_symmetry_space_group_name_H-M "P -1"
_symmetry_group_IT_number 2
_symmetry_cell_setting 'triclinic'
loop_
_space_group_symop_operation_xyz
x,y,z
-x,-y,-z
loop_
_atom_site_type_symbol
_atom_site_label
_atom_site_fract_x
_atom_site_fract_y
_atom_site_fract_z
Si Si1 0.356984 0.287112 0.072373
Si Si2 0.934295 0.469803 0.252719
Si Si3 0.991652 0.823996 0.612971
Si Si4 0.288630 0.097828 0.388773
Si Si5 0.199522 0.889844 0.831698
Si Si6 0.390765 0.836790 0.419357
Si Si7 0.500000 0.000000 0.000000
O O1 0.277507 0.231648 0.235063
O O2 0.463963 0.280041 0.332154
O O3 0.234071 0.432922 0.846953
O O4 0.439260 0.166523 0.963710
O O5 0.972590 0.318252 0.381009
O O6 0.000000 0.500000 0.500000
O O7 0.000000 0.500000 0.000000
O O8 0.118325 0.818176 0.802533
O O9 0.861800 0.871537 0.732812
O O10 0.921477 0.949941 0.298422
O O11 0.357423 0.053629 0.729746
O O12 0.397883 0.972909 0.309463
O O13 0.287305 0.870090 0.609617
O O14 0.310101 0.830638 0.146520
#
# Coordination Sequence:
#
# PCOD9096984 Si02
#       7
#     2   2   2   2   2   2   1
#     4  11  24  38  64  98 133 175 217 276 340 393
#     4  12  27  44  66 100 142 178 212 269 346 408
#     4  10  23  44  66  94 138 172 228 266 331 399
#     4  10  21  34  63  94 130 165 215 281 331 386
#     4  10  24  42  67  96 126 180 224 279 314 381
#     4  10  23  38  65  95 128 165 229 274 325 379
#     4  10  20  36  58  96 128 170 210 272 332 384
#
# _framework density 22.617145000000001
#
# number of rings (size 3 to 8) (size 9 to 14) (size 15 to 20)
#    0.000    1.538    1.538    2.769   15.077    6.769 
#    0.000    1.538    0.000    0.000    0.000    0.000 
#    0.000    0.000    0.000    0.000    0.000    0.000 
#
# Total GULP energy -72381.468312 kJ/mol
# GULP energy per Si atom -5567.805255 kJ/mol
# Density = 2.256567 g / cm^3
# Si number density = 22.617145 Si / 1000 Ang^3
#
#
#
# Elastic Constant Matrix: (Units=GPa)
#
#
# Indices 1 2 3 4 5 6 
#
# 1 106.8175 36.8037 34.8050 5.9960 46.0820 15.0292
# 2 36.8037 123.4772 45.5076 -8.3595 14.8824 4.4753
# 3 34.8050 45.5076 123.2660 27.0937 23.9533 4.5421
# 4 5.9960 -8.3595 27.0937 30.4235 -0.5958 10.7145
# 5 46.0820 14.8824 23.9533 -0.5958 40.3504 3.0187
# 6 15.0292 4.4753 4.5421 10.7145 3.0187 35.9738
#
#
#
# Elastic Compliance Matrix: (Units=1/GPa)
#
#
# Indices 1 2 3 4 5 6 
#
# 1 0.021577 -0.004308 0.001467 -0.005421 -0.023625 -0.005067
# 2 -0.004308 0.012007 -0.006405 0.010823 0.004640 -0.002498
# 3 0.001467 -0.006405 0.015534 -0.017545 -0.009109 0.004213
# 4 -0.005421 0.010823 -0.017545 0.058263 0.014630 -0.015447
# 5 -0.023625 0.004640 -0.009109 0.014630 0.055569 0.001423
# 6 -0.005067 -0.002498 0.004213 -0.015447 0.001423 0.034175
#
#
# Mechanical properties :
#
#
# Convention : Reuss Voigt Hill
#
# Bulk Modulus (GPa) = 32.65101 65.31036 48.98068
# Shear Modulus (GPa) = 22.14087 37.11251 29.62669
#
# Velocity S-wave (km/s) = 3.13220 4.05520 3.62321
# Velocity P-wave (km/s) = 5.24868 7.13200 6.26155
#
# Compressibility (1/GPa) = 0.03062693
#
# Stress axis : x y z
#
# Youngs Moduli (GPa) = 46.34483 83.28317 64.37475
#
# Poissons Ratio (x) = 0.35877 -0.09444
# Poissons Ratio (y) = 0.19965 0.41232
# Poissons Ratio (z) = -0.06799 0.53342
#
# Static dielectric constant tensor:
#      x y z
#    x 1.978710 -0.050210 -0.110310 
#    y -0.050210 1.894600 0.027070 
#    z -0.110310 0.027070 1.885040 
# 
# From -- ./inp_files/64373.got.cif
#   From: 2010.05.17/outbox.cif.g08.bks.cpg/sg2_33_cif.got.tgz:64373.got - 2010.06.03 11:33:40.
