data_PCOD9096048
_publ_section_title
;
Structure prediction by ZEFSAII (Michael W. Deem and Ramdas Pophale) SiO2 
 PCOD9096048
Probable space group: P -1
;
_chemical_formula_sum "Si O2"
_cell_formula_units_Z 14
_cell_length_a 5.142432
_cell_length_b 11.861466
_cell_length_c 11.916192
_cell_angle_alpha 126.990564
_cell_angle_beta 102.723911
_cell_angle_gamma 64.580305
_cell_volume 523.625888
_symmetry_space_group_name_H-M "P -1"
_symmetry_group_IT_number 2
_symmetry_cell_setting 'triclinic'
loop_
_space_group_symop_operation_xyz
x,y,z
-x,-y,-z
loop_
_atom_site_type_symbol
_atom_site_label
_atom_site_fract_x
_atom_site_fract_y
_atom_site_fract_z
Si Si1 0.960421 0.702660 0.514917
Si Si2 0.439879 0.516146 0.161286
Si Si3 0.427299 0.740144 0.141259
Si Si4 0.910281 0.586778 0.763597
Si Si5 0.223342 0.105074 0.608679
Si Si6 0.661093 0.116612 0.325395
Si Si7 0.096780 0.095804 0.976715
O O1 0.042212 0.521629 0.404844
O O2 0.934142 0.763580 0.419032
O O3 0.656630 0.791256 0.600889
O O4 0.195435 0.763006 0.623522
O O5 0.305276 0.691002 0.213207
O O6 0.775563 0.481446 0.189198
O O7 0.330100 0.453882 0.219244
O O8 0.387015 0.415984 0.997042
O O9 0.632909 0.823034 0.241924
O O10 0.177290 0.828130 0.085536
O O11 0.836635 0.767309 0.876082
O O12 0.500000 0.000000 0.500000
O O13 0.147289 0.987396 0.613524
O O14 0.673074 0.012470 0.155501
O O15 0.000000 0.000000 0.000000
#
# Coordination Sequence:
#
# PCOD9096048 Si02
#       7
#     2   2   2   2   2   2   2
#     4  11  23  41  68 102 140 175 222 271 352 415
#     4  10  22  38  65 101 136 169 212 285 341 405
#     4  10  21  39  64  99 137 173 223 274 342 400
#     4  11  23  43  71 101 137 173 227 278 343 405
#     4  10  20  35  61  98 137 174 206 264 347 417
#     4  11  24  43  64  98 143 182 220 276 338 412
#     4  11  26  47  70  98 136 187 239 283 330 394
#
# _framework density 26.736646
#
# number of rings (size 3 to 8) (size 9 to 14) (size 15 to 20)
#    0.000    1.429    1.429    3.857    4.000    6.286 
#    0.000   12.857    0.000    0.000    0.000    0.000 
#    0.000    0.000    0.000    0.000    0.000    0.000 
#
# Total GULP energy -78335.359887 kJ/mol
# GULP energy per Si atom -5595.382849 kJ/mol
# Density = 2.667579 g / cm^3
# Si number density = 26.736646 Si / 1000 Ang^3
#
#
#
# Elastic Constant Matrix: (Units=GPa)
#
#
# Indices 1 2 3 4 5 6 
#
# 1 56.0339 -17.6500 7.5958 1.9301 1.9008 -22.9535
# 2 -17.6500 37.1553 48.9426 -18.9005 14.6766 -53.2851
# 3 7.5958 48.9426 137.0836 31.4884 -23.3993 16.9377
# 4 1.9301 -18.9005 31.4884 49.8174 17.6893 -4.6282
# 5 1.9008 14.6766 -23.3993 17.6893 36.2876 10.6376
# 6 -22.9535 -53.2851 16.9377 -4.6282 10.6376 -10.3673
#
#
#
# Elastic Compliance Matrix: (Units=1/GPa)
#
#
# Indices 1 2 3 4 5 6 
#
# 1 0.015780 -0.003820 0.003121 -0.006312 0.006130 -0.001097
# 2 -0.003820 0.004858 0.000593 -0.000476 0.002570 -0.012692
# 3 0.003121 0.000593 0.007727 -0.005453 0.004415 0.009627
# 4 -0.006312 -0.000476 -0.005453 0.026095 -0.011148 -0.015576
# 5 0.006130 0.002570 0.004415 -0.011148 0.029794 0.015978
# 6 -0.001097 -0.012692 0.009627 -0.015576 0.015978 0.010281
#
#
# Mechanical properties :
#
#
# Convention : Reuss Voigt Hill
#
# Bulk Modulus (GPa) = 35.51918 34.22774 34.87346
# Shear Modulus (GPa) = 48.01636 27.90652 37.96144
#
# Velocity S-wave (km/s) = 4.24240 3.23423 3.77215
# Velocity P-wave (km/s) = 6.10827 5.17461 5.66072
#
# Compressibility (1/GPa) = 0.02815380
#
# Stress axis : x y z
#
# Youngs Moduli (GPa) = 63.37083 205.83927 129.42303
#
# Poissons Ratio (x) = 0.78634 -0.40395
# Poissons Ratio (y) = 0.24209 -0.07681
# Poissons Ratio (z) = -0.19779 -0.12216
#
# Static dielectric constant tensor:
#      x y z
#    x 2.132610 -0.019310 -0.090230 
#    y -0.019310 2.200240 -0.007420 
#    z -0.090230 -0.007420 2.156390 
# 
# From -- ./inp_files/363418.got.cif
#   From: 2010.05.17/outbox.cif.g08.bks.cpg/sg2_182_cif.got.tgz:363418.got - 2010.06.03 11:33:40.
