data_PCOD9096403
_publ_section_title
;
Structure prediction by ZEFSAII (Michael W. Deem and Ramdas Pophale) SiO2 
 PCOD9096403
Probable space group: P -1
;
_chemical_formula_sum "Si O2"
_cell_formula_units_Z 14
_cell_length_a 8.204710
_cell_length_b 7.547469
_cell_length_c 12.951172
_cell_angle_alpha 85.087749
_cell_angle_beta 89.962570
_cell_angle_gamma 52.865502
_cell_volume 635.704883
_symmetry_space_group_name_H-M "P -1"
_symmetry_group_IT_number 2
_symmetry_cell_setting 'triclinic'
loop_
_space_group_symop_operation_xyz
x,y,z
-x,-y,-z
loop_
_atom_site_type_symbol
_atom_site_label
_atom_site_fract_x
_atom_site_fract_y
_atom_site_fract_z
Si Si1 0.562120 0.146372 0.590449
Si Si2 0.193640 0.528883 0.891715
Si Si3 0.236577 0.800114 0.038474
Si Si4 0.425506 0.202750 0.263260
Si Si5 0.191385 0.322152 0.441110
Si Si6 0.260078 0.169864 0.061171
Si Si7 0.478324 0.558682 0.250262
O O1 0.389075 0.279760 0.498152
O O2 0.592150 0.297843 0.652840
O O3 0.487978 0.031310 0.670476
O O4 0.761989 0.920926 0.551940
O O5 0.288601 0.615373 0.964316
O O6 0.324733 0.464812 0.792216
O O7 0.951348 0.726893 0.880299
O O8 0.209895 0.327781 0.956971
O O9 0.297821 0.687360 0.157353
O O10 0.338722 0.927737 0.034210
O O11 0.000000 0.000000 0.000000
O O12 0.210492 0.368949 0.319210
O O13 0.396072 0.176781 0.145723
O O14 0.539129 0.312875 0.272428
O O15 0.000000 0.500000 0.500000
#
# Coordination Sequence:
#
# PCOD9096403 Si02
#       7
#     2   2   2   2   2   2   2
#     4   9  22  41  64  91 123 152 202 253 304 373
#     4  10  23  35  57  85 121 162 209 239 299 348
#     4  10  20  36  54  80 123 162 203 246 284 345
#     4  10  21  38  63  88 121 156 204 249 307 359
#     4   9  20  44  69  86 121 157 194 255 313 369
#     4  10  20  39  57  82 121 167 199 251 288 360
#     4  12  22  37  61  91 123 161 199 254 297 358
#
# _framework density 22.022798000000002
#
# number of rings (size 3 to 8) (size 9 to 14) (size 15 to 20)
#    0.857    1.143    2.857    0.429    2.000    2.286 
#    0.000    3.571    0.000    0.000    0.000    0.000 
#    0.000    0.000    0.000    0.000    0.000    0.000 
#
# Total GULP energy -78015.743871 kJ/mol
# GULP energy per Si atom -5572.553134 kJ/mol
# Density = 2.197267 g / cm^3
# Si number density = 22.022798 Si / 1000 Ang^3
#
#
#
# Elastic Constant Matrix: (Units=GPa)
#
#
# Indices 1 2 3 4 5 6 
#
# 1 47.6899 23.7398 10.1276 14.2964 -8.1112 -2.5168
# 2 23.7398 80.8789 18.1438 21.9397 6.4054 23.7682
# 3 10.1276 18.1438 67.0722 23.8462 6.2907 7.0388
# 4 14.2964 21.9397 23.8462 40.3536 9.4440 1.6121
# 5 -8.1112 6.4054 6.2907 9.4440 29.5991 9.1433
# 6 -2.5168 23.7682 7.0388 1.6121 9.1433 51.0679
#
#
#
# Elastic Compliance Matrix: (Units=1/GPa)
#
#
# Indices 1 2 3 4 5 6 
#
# 1 0.030042 -0.008319 -0.000712 -0.008610 0.011817 0.003606
# 2 -0.008319 0.019459 -0.000595 -0.006570 -0.001517 -0.008906
# 3 -0.000712 -0.000595 0.019192 -0.010657 -0.000112 -0.002047
# 4 -0.008610 -0.006570 -0.010657 0.040589 -0.013226 0.005189
# 5 0.011817 -0.001517 -0.000112 -0.013226 0.043467 -0.006061
# 6 0.003606 -0.008906 -0.002047 0.005189 -0.006061 0.025108
#
#
# Mechanical properties :
#
#
# Convention : Reuss Voigt Hill
#
# Bulk Modulus (GPa) = 20.22568 33.29594 26.76081
# Shear Modulus (GPa) = 23.40950 33.77944 28.59447
#
# Velocity S-wave (km/s) = 3.26385 3.92068 3.60725
# Velocity P-wave (km/s) = 4.83814 5.97053 5.43391
#
# Compressibility (1/GPa) = 0.04944209
#
# Stress axis : x y z
#
# Youngs Moduli (GPa) = 33.28681 51.39068 52.10464
#
# Poissons Ratio (x) = 0.42749 0.03709
# Poissons Ratio (y) = 0.27690 0.03101
# Poissons Ratio (z) = 0.02369 0.03058
#
# Static dielectric constant tensor:
#      x y z
#    x 1.869310 -0.012350 -0.021140 
#    y -0.012350 1.854580 -0.004130 
#    z -0.021140 -0.004130 1.812650 
# 
# From -- ./inp_files/379220.got.cif
#   From: 2010.05.17/outbox.cif.g08.bks.cpg/sg2_190_cif.got.tgz:379220.got - 2010.06.03 11:33:40.
