data_PCOD9096887
_publ_section_title
;
Structure prediction by ZEFSAII (Michael W. Deem and Ramdas Pophale) SiO2 
 PCOD9096887
Probable space group: P -1
;
_chemical_formula_sum "Si O2"
_cell_formula_units_Z 16
_cell_length_a 11.393048
_cell_length_b 8.723749
_cell_length_c 15.512422
_cell_angle_alpha 76.634720
_cell_angle_beta 145.592807
_cell_angle_gamma 114.781637
_cell_volume 770.976191
_symmetry_space_group_name_H-M "P -1"
_symmetry_group_IT_number 2
_symmetry_cell_setting 'triclinic'
loop_
_space_group_symop_operation_xyz
x,y,z
-x,-y,-z
loop_
_atom_site_type_symbol
_atom_site_label
_atom_site_fract_x
_atom_site_fract_y
_atom_site_fract_z
Si Si1 0.011218 0.660247 0.302868
Si Si2 0.078469 0.006641 0.397216
Si Si3 0.566008 0.414083 0.364340
Si Si4 0.975166 0.431688 0.864665
Si Si5 0.303040 0.984978 0.719263
Si Si6 0.725481 0.663826 0.647692
Si Si7 0.762618 0.394890 0.314662
Si Si8 0.374921 0.674481 0.189392
O O1 0.065094 0.842980 0.355604
O O2 0.217575 0.601739 0.456785
O O3 0.989855 0.658296 0.187744
O O4 0.789397 0.523024 0.235478
O O5 0.203132 0.007721 0.562653
O O6 0.202802 0.174863 0.392402
O O7 0.835895 0.992969 0.286514
O O8 0.349137 0.303612 0.306300
O O9 0.572473 0.361107 0.276461
O O10 0.572000 0.607145 0.338132
O O11 0.919464 0.593333 0.781308
O O12 0.755977 0.314570 0.804688
O O13 0.192972 0.513305 0.047049
O O14 0.272669 0.788637 0.721760
O O15 0.543536 0.150789 0.838693
O O16 0.500000 0.500000 0.500000
O O17 0.000000 0.500000 0.500000
#
# Coordination Sequence:
#
# PCOD9096887 Si02
#       8
#     2   2   2   2   2   2   2   2
#     4  11  21  37  61  91 120 155 204 254 294 348
#     4  11  23  35  60  95 120 153 204 259 296 351
#     4  10  20  36  58  86 120 153 203 240 302 354
#     4  10  22  42  62  88 127 158 201 248 302 364
#     4  11  22  36  60  88 127 157 203 248 303 364
#     4  11  21  36  60  89 116 156 199 252 299 349
#     4  10  20  37  56  91 124 157 196 257 304 346
#     4  10  23  40  63  89 121 169 196 240 314 364
#
# _framework density 20.75291
#
# number of rings (size 3 to 8) (size 9 to 14) (size 15 to 20)
#    0.000    1.500    3.750    3.000    7.000    1.500 
#    0.000    6.250    0.000    4.500    0.000    0.000 
#    0.000    0.000    0.000    0.000    0.000    0.000 
#
# Total GULP energy -89264.104799 kJ/mol
# GULP energy per Si atom -5579.006550 kJ/mol
# Density = 2.070568 g / cm^3
# Si number density = 20.752910 Si / 1000 Ang^3
#
#
#
# Elastic Constant Matrix: (Units=GPa)
#
#
# Indices 1 2 3 4 5 6 
#
# 1 153.3887 45.7107 32.2465 11.1540 -27.3941 1.5569
# 2 45.7107 124.0707 21.6133 8.6887 5.6447 16.3986
# 3 32.2465 21.6133 30.6634 3.1635 -8.9002 -4.2638
# 4 11.1540 8.6887 3.1635 15.4895 4.2289 -1.3680
# 5 -27.3941 5.6447 -8.9002 4.2289 16.5784 0.5621
# 6 1.5569 16.3986 -4.2638 -1.3680 0.5621 31.7890
#
#
#
# Elastic Compliance Matrix: (Units=1/GPa)
#
#
# Indices 1 2 3 4 5 6 
#
# 1 0.014888 -0.005624 -0.001398 -0.015301 0.029640 0.000802
# 2 -0.005624 0.013834 -0.011310 0.003562 -0.020718 -0.007858
# 3 -0.001398 -0.011310 0.054704 -0.011904 0.033533 0.012135
# 4 -0.015301 0.003562 -0.011904 0.091589 -0.056327 0.002252
# 5 0.029640 -0.020718 0.033533 -0.056327 0.148427 0.008685
# 6 0.000802 -0.007858 0.012135 0.002252 0.008685 0.037043
#
#
# Mechanical properties :
#
#
# Convention : Reuss Voigt Hill
#
# Bulk Modulus (GPa) = 21.38602 56.36264 38.87433
# Shear Modulus (GPa) = 12.11428 26.67487 19.39457
#
# Velocity S-wave (km/s) = 2.41869 3.58907 3.06035
# Velocity P-wave (km/s) = 4.25764 6.66282 5.59109
#
# Compressibility (1/GPa) = 0.04675952
#
# Stress axis : x y z
#
# Youngs Moduli (GPa) = 67.17033 72.28544 18.28036
#
# Poissons Ratio (x) = 0.40655 0.02556
# Poissons Ratio (y) = 0.37779 0.20675
# Poissons Ratio (z) = 0.09393 0.81755
#
# Static dielectric constant tensor:
#      x y z
#    x 1.784390 0.008210 0.017810 
#    y 0.008210 1.726980 -0.004550 
#    z 0.017810 -0.004550 1.814040 
# 
# From -- ./inp_files/514342.got.cif
#   From: 2010.05.17/outbox.cif.g08.bks.cpg/sg2_258_cif.got.tgz:514342.got - 2010.06.03 11:33:40.
