data_PCOD9096995
_publ_section_title
;
Structure prediction by ZEFSAII (Michael W. Deem and Ramdas Pophale) SiO2 
 PCOD9096995
Probable space group: P -1
;
_chemical_formula_sum "Si O2"
_cell_formula_units_Z 16
_cell_length_a 8.632443
_cell_length_b 8.337764
_cell_length_c 14.760513
_cell_angle_alpha 70.788692
_cell_angle_beta 53.438063
_cell_angle_gamma 73.572065
_cell_volume 800.513546
_symmetry_space_group_name_H-M "P -1"
_symmetry_group_IT_number 2
_symmetry_cell_setting 'triclinic'
loop_
_space_group_symop_operation_xyz
x,y,z
-x,-y,-z
loop_
_atom_site_type_symbol
_atom_site_label
_atom_site_fract_x
_atom_site_fract_y
_atom_site_fract_z
Si Si1 0.068621 0.983175 0.377027
Si Si2 0.604277 0.300370 0.718659
Si Si3 0.706593 0.891112 0.454061
Si Si4 0.316484 0.824254 0.090712
Si Si5 0.180012 0.402851 0.399009
Si Si6 0.925882 0.495681 0.787348
Si Si7 0.355988 0.381080 0.624322
Si Si8 0.714776 0.826653 0.868262
O O1 0.223024 0.100354 0.263209
O O2 0.184194 0.797100 0.358703
O O3 0.000000 0.000000 0.500000
O O4 0.882091 0.007454 0.371794
O O5 0.569608 0.240630 0.843630
O O6 0.631575 0.498299 0.672398
O O7 0.466151 0.276013 0.687629
O O8 0.753973 0.782691 0.549337
O O9 0.714561 0.750047 0.399495
O O10 0.500000 0.000000 0.500000
O O11 0.164495 0.687807 0.147205
O O12 0.238561 0.022043 0.105621
O O13 0.484965 0.820317 0.958538
O O14 0.120087 0.429156 0.311243
O O15 0.000000 0.500000 0.500000
O O16 0.824159 0.634503 0.868039
O O17 0.158712 0.478669 0.715605
O O18 0.500000 0.500000 0.500000
#
# Coordination Sequence:
#
# PCOD9096995 Si02
#       8
#     2   2   2   2   2   2   2   2
#     4  11  22  36  60  92 123 160 205 255 322 385
#     4  10  20  36  59  80 122 163 203 253 311 371
#     4  12  24  35  56  88 132 163 202 258 317 384
#     4   9  21  43  62  90 118 162 219 269 316 372
#     4  11  18  37  56  83 122 166 200 252 316 380
#     4  11  22  37  66  88 119 170 218 259 319 380
#     4  12  23  36  55  92 128 163 206 255 317 380
#     4  10  21  37  67  90 119 159 215 270 316 377
#
# _framework density 19.987171
#
# number of rings (size 3 to 8) (size 9 to 14) (size 15 to 20)
#    0.000    1.250    3.750    3.375    3.500    1.000 
#    0.000    0.625    0.000   15.000    0.000    0.000 
#    0.000    0.000    0.000    0.000    0.000    0.000 
#
# Total GULP energy -89138.574886 kJ/mol
# GULP energy per Si atom -5571.160930 kJ/mol
# Density = 1.994168 g / cm^3
# Si number density = 19.987171 Si / 1000 Ang^3
#
#
#
# Elastic Constant Matrix: (Units=GPa)
#
#
# Indices 1 2 3 4 5 6 
#
# 1 91.5018 16.8041 31.7572 1.0061 -9.2988 -6.5379
# 2 16.8041 101.1862 26.8964 11.6802 -20.4428 5.3091
# 3 31.7572 26.8964 106.8936 3.8102 -25.6917 7.6871
# 4 1.0061 11.6802 3.8102 32.7485 -4.0993 -3.2957
# 5 -9.2988 -20.4428 -25.6917 -4.0993 23.3355 5.9727
# 6 -6.5379 5.3091 7.6871 -3.2957 5.9727 27.2531
#
#
#
# Elastic Compliance Matrix: (Units=1/GPa)
#
#
# Indices 1 2 3 4 5 6 
#
# 1 0.012917 -0.001892 -0.004400 0.001012 -0.002556 0.005391
# 2 -0.001892 0.013371 0.000942 -0.003859 0.013020 -0.006644
# 3 -0.004400 0.000942 0.015651 -0.000670 0.018703 -0.009834
# 4 0.001012 -0.003859 -0.000670 0.032550 0.000733 0.004959
# 5 -0.002556 0.013020 0.018703 0.000733 0.080617 -0.026004
# 6 0.005391 -0.006644 -0.009834 0.004959 -0.026004 0.048353
#
#
# Mechanical properties :
#
#
# Convention : Reuss Voigt Hill
#
# Bulk Modulus (GPa) = 32.00859 50.05524 41.03191
# Shear Modulus (GPa) = 22.26456 31.60903 26.93679
#
# Velocity S-wave (km/s) = 3.34120 3.98108 3.67509
# Velocity P-wave (km/s) = 5.56185 6.79927 6.21145
#
# Compressibility (1/GPa) = 0.03124162
#
# Stress axis : x y z
#
# Youngs Moduli (GPa) = 77.41442 74.78879 63.89167
#
# Poissons Ratio (x) = 0.14149 0.28111
# Poissons Ratio (y) = 0.14645 -0.06021
# Poissons Ratio (z) = 0.34060 -0.07048
#
# Static dielectric constant tensor:
#      x y z
#    x 1.683240 0.056520 -0.073590 
#    y 0.056520 1.830750 -0.050470 
#    z -0.073590 -0.050470 1.725260 
# 
# From -- ./inp_files/179918.got.cif
#   From: 2010.05.17/outbox.cif.g08.bks.cpg/sg2_90_cif.got.tgz:179918.got - 2010.06.03 11:33:40.
