data_PCOD9096953
_publ_section_title
;
Structure prediction by ZEFSAII (Michael W. Deem and Ramdas Pophale) SiO2 
 PCOD9096953
Probable space group: P -1
;
_chemical_formula_sum "Si O2"
_cell_formula_units_Z 16
_cell_length_a 10.553181
_cell_length_b 13.490558
_cell_length_c 7.797455
_cell_angle_alpha 50.974070
_cell_angle_beta 119.370254
_cell_angle_gamma 93.844503
_cell_volume 701.996793
_symmetry_space_group_name_H-M "P -1"
_symmetry_group_IT_number 2
_symmetry_cell_setting 'triclinic'
loop_
_space_group_symop_operation_xyz
x,y,z
-x,-y,-z
loop_
_atom_site_type_symbol
_atom_site_label
_atom_site_fract_x
_atom_site_fract_y
_atom_site_fract_z
Si Si1 0.751232 0.491618 0.119286
Si Si2 0.086756 0.496311 0.315249
Si Si3 0.334038 0.864908 0.771188
Si Si4 0.882476 0.176625 0.600960
Si Si5 0.348147 0.568066 0.213488
Si Si6 0.908227 0.900626 0.498716
Si Si7 0.689431 0.735637 0.070813
Si Si8 0.954205 0.782037 0.027769
O O1 0.783367 0.337839 0.367761
O O2 0.688027 0.611284 0.083213
O O3 0.918081 0.493340 0.156958
O O4 0.629611 0.510305 0.865938
O O5 0.198707 0.546512 0.218028
O O6 0.200320 0.347412 0.611781
O O7 0.034669 0.617841 0.290677
O O8 0.230320 0.888964 0.499817
O O9 0.267686 0.995109 0.710409
O O10 0.315559 0.728413 0.988594
O O11 0.515419 0.825549 0.902664
O O12 0.022583 0.156903 0.577124
O O13 0.952973 0.144079 0.875899
O O14 0.500000 0.500000 0.500000
O O15 0.942826 0.801511 0.794337
O O16 0.000000 0.000000 0.500000
O O17 0.781732 0.817998 0.946597
#
# Coordination Sequence:
#
# PCOD9096953 Si02
#       8
#     2   2   2   2   2   2   2   2
#     4  10  20  36  58  90 120 154 198 248 301 361
#     4  11  19  37  60  90 121 152 199 247 302 364
#     4  10  23  40  56  85 128 156 195 252 301 351
#     4  10  20  39  65  89 115 161 206 246 293 360
#     4  11  22  35  58  89 121 159 194 247 308 357
#     4  10  23  42  61  86 121 160 208 249 288 356
#     4  11  21  38  60  89 125 152 192 252 308 362
#     4  11  21  39  66  89 115 162 206 243 300 357
#
# _framework density 22.792128000000002
#
# number of rings (size 3 to 8) (size 9 to 14) (size 15 to 20)
#    0.000    1.500    3.750    3.375    0.000    6.500 
#    0.000    1.875    0.000    0.000    0.000    0.000 
#    0.000    0.000    0.000    0.000    0.000    0.000 
#
# Total GULP energy -89269.854144 kJ/mol
# GULP energy per Si atom -5579.365884 kJ/mol
# Density = 2.274025 g / cm^3
# Si number density = 22.792128 Si / 1000 Ang^3
#
#
#
# Elastic Constant Matrix: (Units=GPa)
#
#
# Indices 1 2 3 4 5 6 
#
# 1 76.3879 -20.4906 26.2362 -9.0929 15.6820 -6.9763
# 2 -20.4906 47.7012 21.1237 4.5698 11.9649 -3.9673
# 3 26.2362 21.1237 95.0944 7.8892 16.3931 -11.8473
# 4 -9.0929 4.5698 7.8892 36.0037 0.7206 0.9546
# 5 15.6820 11.9649 16.3931 0.7206 38.5288 -12.9949
# 6 -6.9763 -3.9673 -11.8473 0.9546 -12.9949 27.4346
#
#
#
# Elastic Compliance Matrix: (Units=1/GPa)
#
#
# Indices 1 2 3 4 5 6 
#
# 1 0.023280 0.015991 -0.008668 0.006001 -0.011213 -0.001031
# 2 0.015991 0.035512 -0.010328 0.002120 -0.013814 -0.001876
# 3 -0.008668 -0.010328 0.015822 -0.004479 0.001425 0.003965
# 4 0.006001 0.002120 -0.004479 0.030116 -0.002554 -0.002359
# 5 -0.011213 -0.013814 0.001425 -0.002554 0.039098 0.014375
# 6 -0.001031 -0.001876 0.003965 -0.002359 0.014375 0.044520
#
#
# Mechanical properties :
#
#
# Convention : Reuss Voigt Hill
#
# Bulk Modulus (GPa) = 14.57692 30.32468 22.45080
# Shear Modulus (GPa) = 23.01728 33.21436 28.11582
#
# Velocity S-wave (km/s) = 3.18131 3.82157 3.51604
# Velocity P-wave (km/s) = 4.46136 5.72768 5.13371
#
# Compressibility (1/GPa) = 0.06860160
#
# Stress axis : x y z
#
# Youngs Moduli (GPa) = 42.95581 28.15917 63.20465
#
# Poissons Ratio (x) = -0.45028 0.54787
# Poissons Ratio (y) = -0.68689 0.65280
# Poissons Ratio (z) = 0.37235 0.29084
#
# Static dielectric constant tensor:
#      x y z
#    x 1.910790 -0.037440 -0.058820 
#    y -0.037440 1.867380 0.010180 
#    z -0.058820 0.010180 1.979310 
# 
# From -- ./inp_files/207857.got.cif
#   From: 2010.05.17/outbox.cif.g08.bks.cpg/sg2_104_cif.got.tgz:207857.got - 2010.06.03 11:33:40.
