data_PCOD9096546
_publ_section_title
;
Structure prediction by ZEFSAII (Michael W. Deem and Ramdas Pophale) SiO2 
 PCOD9096546
Probable space group: P -1
;
_chemical_formula_sum "Si O2"
_cell_formula_units_Z 16
_cell_length_a 12.935146
_cell_length_b 8.932501
_cell_length_c 12.273646
_cell_angle_alpha 99.636497
_cell_angle_beta 130.053878
_cell_angle_gamma 118.484633
_cell_volume 676.662466
_symmetry_space_group_name_H-M "P -1"
_symmetry_group_IT_number 2
_symmetry_cell_setting 'triclinic'
loop_
_space_group_symop_operation_xyz
x,y,z
-x,-y,-z
loop_
_atom_site_type_symbol
_atom_site_label
_atom_site_fract_x
_atom_site_fract_y
_atom_site_fract_z
Si Si1 0.751983 0.204139 0.169040
Si Si2 0.883059 0.599799 0.407889
Si Si3 0.625030 0.970524 0.441180
Si Si4 0.183984 0.611934 0.223032
Si Si5 0.258169 0.255994 0.563825
Si Si6 0.343596 0.270978 0.231234
Si Si7 0.508064 0.882137 0.776920
Si Si8 0.912132 0.785804 0.777054
O O1 0.856553 0.464354 0.269534
O O2 0.894882 0.242487 0.360693
O O3 0.717090 0.081797 0.018937
O O4 0.500000 0.000000 0.000000
O O5 0.816448 0.718887 0.375283
O O6 0.692198 0.364920 0.326209
O O7 0.399938 0.747859 0.323508
O O8 0.747483 0.929257 0.475369
O O9 0.558656 0.014324 0.299074
O O10 0.761746 0.195948 0.641740
O O11 0.110990 0.405423 0.220098
O O12 0.000000 0.500000 0.000000
O O13 0.497832 0.506105 0.716723
O O14 0.114933 0.209207 0.367675
O O15 0.283348 0.296408 0.305831
O O16 0.439075 0.184223 0.295176
O O17 0.121069 0.052547 0.992691
#
# Coordination Sequence:
#
# PCOD9096546 Si02
#       8
#     2   2   2   2   2   2   2   2
#     4   9  18  37  64  88 108 138 183 239 283 345
#     4   9  19  36  63  88 108 142 188 232 289 341
#     4  11  25  36  54  82 118 155 194 237 286 336
#     4  11  24  39  54  76 115 162 202 239 281 330
#     4  11  22  37  57  84 118 149 193 242 280 336
#     4  10  21  34  56  81 108 152 198 239 276 328
#     4  10  20  36  56  83 116 148 189 232 284 339
#     4  11  22  35  56  78 112 157 199 237 283 324
#
# _framework density 23.645468000000001
#
# number of rings (size 3 to 8) (size 9 to 14) (size 15 to 20)
#    0.000    1.750    1.250    3.375    7.000    1.000 
#    0.000    0.625    0.000    6.750    0.000    0.000 
#    0.000    0.000    0.000    0.000    0.000    0.000 
#
# Total GULP energy -89387.471785 kJ/mol
# GULP energy per Si atom -5586.716987 kJ/mol
# Density = 2.359165 g / cm^3
# Si number density = 23.645468 Si / 1000 Ang^3
#
#
#
# Elastic Constant Matrix: (Units=GPa)
#
#
# Indices 1 2 3 4 5 6 
#
# 1 98.9486 -1.5678 -9.0471 5.2065 11.6068 -34.3383
# 2 -1.5678 61.1670 1.4574 -4.9528 3.2262 -22.2864
# 3 -9.0471 1.4574 128.9927 7.9004 4.5493 -1.7121
# 4 5.2065 -4.9528 7.9004 23.6678 -1.3295 4.2408
# 5 11.6068 3.2262 4.5493 -1.3295 23.3215 5.5211
# 6 -34.3383 -22.2864 -1.7121 4.2408 5.5211 43.4464
#
#
#
# Elastic Compliance Matrix: (Units=1/GPa)
#
#
# Indices 1 2 3 4 5 6 
#
# 1 0.023069 0.010823 0.003201 -0.009970 -0.020684 0.027512
# 2 0.010823 0.025960 0.001479 -0.002611 -0.015122 0.024105
# 3 0.003201 0.001479 0.008456 -0.004320 -0.004795 0.004653
# 4 -0.009970 -0.002611 -0.004320 0.048879 0.012686 -0.015773
# 5 -0.020684 -0.015122 -0.004795 0.012686 0.064921 -0.033782
# 6 0.027512 0.024105 0.004653 -0.015773 -0.033782 0.063143
#
#
# Mechanical properties :
#
#
# Convention : Reuss Voigt Hill
#
# Bulk Modulus (GPa) = 11.30066 30.08814 20.69440
# Shear Modulus (GPa) = 21.46674 37.97152 29.71913
#
# Velocity S-wave (km/s) = 3.01634 4.01168 3.54907
# Velocity P-wave (km/s) = 4.11347 5.84896 5.05624
#
# Compressibility (1/GPa) = 0.08849037
#
# Stress axis : x y z
#
# Youngs Moduli (GPa) = 43.34817 38.52104 118.26422
#
# Poissons Ratio (x) = -0.41691 -0.37857
# Poissons Ratio (y) = -0.46916 -0.17491
# Poissons Ratio (z) = -0.13876 -0.05697
#
# Static dielectric constant tensor:
#      x y z
#    x 2.071920 -0.039900 -0.005110 
#    y -0.039900 1.900070 0.033710 
#    z -0.005110 0.033710 1.890480 
# 
# From -- ./inp_files/313700.got.cif
#   From: 2010.05.17/outbox.cif.g08.bks.cpg/sg2_157_cif.got.tgz:313700.got - 2010.06.03 11:33:40.
