data_PCOD9096608
_publ_section_title
;
Structure prediction by ZEFSAII (Michael W. Deem and Ramdas Pophale) SiO2 
 PCOD9096608
Probable space group: P -1
;
_chemical_formula_sum "Si O2"
_cell_formula_units_Z 16
_cell_length_a 16.023866
_cell_length_b 10.702383
_cell_length_c 9.130515
_cell_angle_alpha 73.817595
_cell_angle_beta 60.390747
_cell_angle_gamma 126.827079
_cell_volume 614.183498
_symmetry_space_group_name_H-M "P -1"
_symmetry_group_IT_number 2
_symmetry_cell_setting 'triclinic'
loop_
_space_group_symop_operation_xyz
x,y,z
-x,-y,-z
loop_
_atom_site_type_symbol
_atom_site_label
_atom_site_fract_x
_atom_site_fract_y
_atom_site_fract_z
Si Si1 0.691065 0.686401 0.594414
Si Si2 0.881360 0.117150 0.456498
Si Si3 0.317101 0.529978 0.877364
Si Si4 0.363143 0.591067 0.485806
Si Si5 0.026463 0.539154 0.288194
Si Si6 0.533190 0.052594 0.278062
Si Si7 0.905563 0.982647 0.755417
Si Si8 0.100842 0.914526 0.975340
O O1 0.565182 0.421006 0.702761
O O2 0.685812 0.796405 0.685527
O O3 0.881004 0.830915 0.450665
O O4 0.759008 0.866027 0.346352
O O5 0.865205 0.252724 0.438504
O O6 0.937067 0.133331 0.564626
O O7 0.092969 0.334422 0.112917
O O8 0.419578 0.633956 0.593954
O O9 0.449783 0.771186 0.797805
O O10 0.250032 0.311952 0.068759
O O11 0.119870 0.284696 0.793878
O O12 0.406347 0.798974 0.371996
O O13 0.000000 0.500000 0.500000
O O14 0.054130 0.709276 0.125199
O O15 0.241989 0.728690 0.018132
O O16 0.500000 0.000000 0.500000
O O17 0.813323 0.924779 0.002895
#
# Coordination Sequence:
#
# PCOD9096608 Si02
#       8
#     2   2   2   2   2   2   2   2
#     4  10  18  31  55  88 114 146 200 252 285 333
#     4  10  19  31  53  84 113 150 199 236 285 343
#     4   9  15  30  53  81 112 143 191 239 277 340
#     4  10  17  34  57  84 117 145 194 252 289 335
#     4  11  23  40  59  84 125 159 195 238 298 363
#     4   9  21  38  59  85 120 157 197 239 291 359
#     4  10  16  30  55  83 114 146 198 243 282 343
#     4  11  19  33  60  87 114 152 197 247 294 337
#
# _framework density 26.050847999999998
#
# number of rings (size 3 to 8) (size 9 to 14) (size 15 to 20)
#    0.000    2.000    5.000    2.250    0.000    0.500 
#    0.000    1.250    0.000    0.750    0.000    0.000 
#    0.000    0.000    0.000    0.000    0.000    0.000 
#
# Total GULP energy -89140.256126 kJ/mol
# GULP energy per Si atom -5571.266008 kJ/mol
# Density = 2.599155 g / cm^3
# Si number density = 26.050848 Si / 1000 Ang^3
#
#
#
# Elastic Constant Matrix: (Units=GPa)
#
#
# Indices 1 2 3 4 5 6 
#
# 1 82.2018 32.1963 8.7981 -8.4901 21.7589 -10.3566
# 2 32.1963 188.9066 19.5164 -31.7198 6.5584 -30.2833
# 3 8.7981 19.5164 40.1882 4.5101 12.3175 6.0249
# 4 -8.4901 -31.7198 4.5101 53.0960 0.2198 12.0700
# 5 21.7589 6.5584 12.3175 0.2198 34.4267 -18.4501
# 6 -10.3566 -30.2833 6.0249 12.0700 -18.4501 42.5250
#
#
#
# Elastic Compliance Matrix: (Units=1/GPa)
#
#
# Indices 1 2 3 4 5 6 
#
# 1 0.016111 -0.003014 0.002436 0.001688 -0.013004 -0.004689
# 2 -0.003014 0.008160 -0.007192 0.003051 0.007436 0.008456
# 3 0.002436 -0.007192 0.038710 -0.002541 -0.024734 -0.020023
# 4 0.001688 0.003051 -0.002541 0.022270 -0.003506 -0.004899
# 5 -0.013004 0.007436 -0.024734 -0.003506 0.062898 0.033918
# 6 -0.004689 0.008456 -0.020023 -0.004899 0.033918 0.047339
#
#
# Mechanical properties :
#
#
# Convention : Reuss Voigt Hill
#
# Bulk Modulus (GPa) = 21.07939 48.03536 34.55738
# Shear Modulus (GPa) = 22.04166 42.72859 32.38513
#
# Velocity S-wave (km/s) = 2.91194 4.05433 3.52966
# Velocity P-wave (km/s) = 4.40625 6.35578 5.46859
#
# Compressibility (1/GPa) = 0.04743970
#
# Stress axis : x y z
#
# Youngs Moduli (GPa) = 62.07050 122.54715 25.83296
#
# Poissons Ratio (x) = 0.36939 -0.06292
# Poissons Ratio (y) = 0.18710 0.18580
# Poissons Ratio (z) = -0.15119 0.88139
#
# Static dielectric constant tensor:
#      x y z
#    x 2.016230 -0.081430 -0.048550 
#    y -0.081430 2.187450 -0.047770 
#    z -0.048550 -0.047770 2.151000 
# 
# From -- ./inp_files/333119.got.cif
#   From: 2010.05.17/outbox.cif.g08.bks.cpg/sg2_167_cif.got.tgz:333119.got - 2010.06.03 11:33:40.
