data_PCOD9096682
_publ_section_title
;
Structure prediction by ZEFSAII (Michael W. Deem and Ramdas Pophale) SiO2 
 PCOD9096682
Probable space group: P -1
;
_chemical_formula_sum "Si O2"
_cell_formula_units_Z 15
_cell_length_a 5.177242
_cell_length_b 7.722466
_cell_length_c 19.876181
_cell_angle_alpha 92.535517
_cell_angle_beta 91.000019
_cell_angle_gamma 42.281338
_cell_volume 533.970712
_symmetry_space_group_name_H-M "P -1"
_symmetry_group_IT_number 2
_symmetry_cell_setting 'triclinic'
loop_
_space_group_symop_operation_xyz
x,y,z
-x,-y,-z
loop_
_atom_site_type_symbol
_atom_site_label
_atom_site_fract_x
_atom_site_fract_y
_atom_site_fract_z
Si Si1 0.623880 0.537935 0.652684
Si Si2 0.511537 0.788353 0.315149
Si Si3 0.362826 0.901745 0.458117
Si Si4 0.533656 0.257642 0.955340
Si Si5 0.500000 0.500000 0.500000
Si Si6 0.622289 0.567808 0.187860
Si Si7 0.637133 0.046354 0.077833
Si Si8 0.539126 0.738439 0.781495
O O1 0.489973 0.416400 0.674163
O O2 0.591733 0.555463 0.573121
O O3 0.421307 0.783582 0.703390
O O4 0.072629 0.335944 0.670803
O O5 0.269379 0.983632 0.381042
O O6 0.425128 0.822657 0.235264
O O7 0.642279 0.600609 0.459969
O O8 0.500000 0.000000 0.500000
O O9 0.000000 0.000000 0.500000
O O10 0.329109 0.433501 0.891708
O O11 0.557903 0.041977 0.932030
O O12 0.414539 0.297672 0.033963
O O13 0.936681 0.158301 0.954486
O O14 0.430666 0.477579 0.199076
O O15 0.054999 0.366881 0.214211
O O16 0.699368 0.060216 0.156119
#
# Coordination Sequence:
#
# PCOD9096682 Si02
#       8
#     2   2   2   2   1   2   2   2
#     4   9  19  35  59  81 110 154 188 227 310 343
#     4   9  19  37  56  80 117 147 180 249 287 345
#     4  11  23  39  60  89 118 154 205 247 300 367
#     4  10  21  37  55  81 112 160 181 225 302 345
#     4  10  22  42  62  84 124 162 192 258 306 362
#     4  10  20  36  59  82 110 151 192 230 304 337
#     4  10  21  37  55  79 121 145 188 239 280 344
#     4  10  20  36  57  85 112 143 194 250 275 347
#
# _framework density 28.091426999999999
#
# number of rings (size 3 to 8) (size 9 to 14) (size 15 to 20)
#    0.000    2.133    0.000    3.200    0.000    5.867 
#    4.800    0.000    0.000    0.000    0.000    0.000 
#    0.000    0.000    0.000    0.000    0.000    0.000 
#
# Total GULP energy -83574.144437 kJ/mol
# GULP energy per Si atom -5571.609629 kJ/mol
# Density = 2.802749 g / cm^3
# Si number density = 28.091427 Si / 1000 Ang^3
#
#
#
# Elastic Constant Matrix: (Units=GPa)
#
#
# Indices 1 2 3 4 5 6 
#
# 1 181.8492 41.3414 49.7622 0.3985 7.1058 13.6332
# 2 41.3414 48.0592 18.9183 -3.6204 7.8124 19.7329
# 3 49.7622 18.9183 182.3377 -7.8940 26.0040 7.0867
# 4 0.3985 -3.6204 -7.8940 29.5207 -0.8334 1.2194
# 5 7.1058 7.8124 26.0040 -0.8334 63.1303 6.8553
# 6 13.6332 19.7329 7.0867 1.2194 6.8553 23.0906
#
#
#
# Elastic Compliance Matrix: (Units=1/GPa)
#
#
# Indices 1 2 3 4 5 6 
#
# 1 0.007246 -0.006511 -0.001483 -0.001352 0.000399 0.001695
# 2 -0.006511 0.039515 -0.000836 0.005929 -0.000495 -0.029834
# 3 -0.001483 -0.000836 0.006369 0.001544 -0.002360 0.000255
# 4 -0.001352 0.005929 0.001544 0.035304 -0.000035 -0.006596
# 5 0.000399 -0.000495 -0.002360 -0.000035 0.017286 -0.004219
# 6 0.001695 -0.029834 0.000255 -0.006596 -0.004219 0.069325
#
#
# Mechanical properties :
#
#
# Convention : Reuss Voigt Hill
#
# Bulk Modulus (GPa) = 28.19416 70.25443 49.22430
# Shear Modulus (GPa) = 24.44637 43.29661 33.87149
#
# Velocity S-wave (km/s) = 2.95319 3.93017 3.47617
# Velocity P-wave (km/s) = 4.65691 6.75710 5.80281
#
# Compressibility (1/GPa) = 0.03546834
#
# Stress axis : x y z
#
# Youngs Moduli (GPa) = 138.01609 25.30708 157.00052
#
# Poissons Ratio (x) = 0.16479 0.23285
# Poissons Ratio (y) = 0.89869 0.13125
# Poissons Ratio (z) = 0.20470 0.02116
#
# Static dielectric constant tensor:
#      x y z
#    x 2.078130 -0.130290 -0.043580 
#    y -0.130290 2.386540 0.057620 
#    z -0.043580 0.057620 2.349690 
# 
# From -- ./inp_files/548168.got.cif
#   From: 2010.05.17/outbox.cif.g08.bks.cpg/sg2_275_cif.got.tgz:548168.got - 2010.06.03 11:33:40.
