data_PCOD9096483
_publ_section_title
;
Structure prediction by ZEFSAII (Michael W. Deem and Ramdas Pophale) SiO2 
 PCOD9096483
Probable space group: P -1
;
_chemical_formula_sum "Si O2"
_cell_formula_units_Z 16
_cell_length_a 12.123290
_cell_length_b 21.051578
_cell_length_c 12.284056
_cell_angle_alpha 45.529272
_cell_angle_beta 113.915631
_cell_angle_gamma 149.980678
_cell_volume 924.629466
_symmetry_space_group_name_H-M "P -1"
_symmetry_group_IT_number 2
_symmetry_cell_setting 'triclinic'
loop_
_space_group_symop_operation_xyz
x,y,z
-x,-y,-z
loop_
_atom_site_type_symbol
_atom_site_label
_atom_site_fract_x
_atom_site_fract_y
_atom_site_fract_z
Si Si1 0.757272 0.610504 0.432824
Si Si2 0.817899 0.964548 0.432018
Si Si3 0.518496 0.874947 0.598538
Si Si4 0.087653 0.731226 0.599120
Si Si5 0.649621 0.716847 0.499381
Si Si6 0.348971 0.616572 0.999871
Si Si7 0.303786 0.393244 0.148282
Si Si8 0.927535 0.017529 0.851795
O O1 0.500000 0.500000 0.500000
O O2 0.634197 0.480698 0.436058
O O3 0.870287 0.620389 0.558235
O O4 0.000571 0.838808 0.242639
O O5 0.016379 0.178027 0.242550
O O6 0.620079 0.870223 0.557687
O O7 0.676206 0.829282 0.433870
O O8 0.000000 0.000000 0.500000
O O9 0.324080 0.824199 0.537663
O O10 0.362708 0.713417 0.817219
O O11 0.766391 0.088893 0.499536
O O12 0.914895 0.563791 0.817882
O O13 0.668384 0.650541 0.678477
O O14 0.886254 0.867669 0.321240
O O15 0.623753 0.801081 0.956728
O O16 0.346478 0.522943 0.043363
O O17 0.500000 0.500000 0.000000
O O18 0.000000 0.000000 0.000000
#
# Coordination Sequence:
#
# PCOD9096483 Si02
#       8
#     2   2   2   2   2   2   2   2
#     4  10  20  36  58  83 119 155 196 249 300 349
#     4  10  20  36  58  83 119 155 196 249 300 349
#     4  11  23  40  59  87 123 162 204 252 303 363
#     4  11  23  40  59  87 123 162 204 252 303 363
#     4  10  20  36  55  86 125 160 196 254 306 350
#     4  12  19  34  58  86 118 158 201 244 307 356
#     4  11  20  32  55  91 123 158 197 248 304 362
#     4  11  20  32  55  91 123 158 197 248 304 362
#
# _framework density 17.304228999999999
#
# number of rings (size 3 to 8) (size 9 to 14) (size 15 to 20)
#    0.000    1.250    2.500    7.875    1.750    0.000 
#    0.000    0.625    0.000    0.000    0.000    3.500 
#    0.000    0.000    0.000    0.000    0.000    0.000 
#
# Total GULP energy -89155.399512 kJ/mol
# GULP energy per Si atom -5572.212470 kJ/mol
# Density = 1.726484 g / cm^3
# Si number density = 17.304229 Si / 1000 Ang^3
#
#
#
# Elastic Constant Matrix: (Units=GPa)
#
#
# Indices 1 2 3 4 5 6 
#
# 1 85.3575 61.4394 19.5765 -3.1273 -4.8314 -1.7613
# 2 61.4394 115.3283 31.9419 -12.4329 17.6403 -22.7080
# 3 19.5765 31.9419 102.7322 -7.3149 -1.6749 -6.0890
# 4 -3.1273 -12.4329 -7.3149 34.7664 -10.2434 13.7966
# 5 -4.8314 17.6403 -1.6749 -10.2434 19.4627 -1.6664
# 6 -1.7613 -22.7080 -6.0890 13.7966 -1.6664 27.2483
#
#
#
# Elastic Compliance Matrix: (Units=1/GPa)
#
#
# Indices 1 2 3 4 5 6 
#
# 1 0.034080 -0.028656 0.002636 0.015979 0.040784 -0.026685
# 2 -0.028656 0.038064 -0.006430 -0.018568 -0.048956 0.034840
# 3 0.002636 -0.006430 0.011477 0.005035 0.009728 -0.004578
# 4 0.015979 -0.018568 0.005035 0.052956 0.045905 -0.037322
# 5 0.040784 -0.048956 0.009728 0.045905 0.126464 -0.051497
# 6 -0.026685 0.034840 -0.004578 -0.037322 -0.051497 0.078734
#
#
# Mechanical properties :
#
#
# Convention : Reuss Voigt Hill
#
# Bulk Modulus (GPa) = 53.41082 58.81484 56.11283
# Shear Modulus (GPa) = 12.10911 28.99283 20.55097
#
# Velocity S-wave (km/s) = 2.64820 4.09770 3.44994
# Velocity P-wave (km/s) = 6.34692 7.51337 6.95464
#
# Compressibility (1/GPa) = 0.01872280
#
# Stress axis : x y z
#
# Youngs Moduli (GPa) = 29.34268 26.27161 87.13411
#
# Poissons Ratio (x) = 0.75283 -0.22973
# Poissons Ratio (y) = 0.84084 0.56024
# Poissons Ratio (z) = -0.07736 0.16892
#
# Static dielectric constant tensor:
#      x y z
#    x 1.650050 0.015620 -0.007350 
#    y 0.015620 1.629670 0.015100 
#    z -0.007350 0.015100 1.649090 
# 
# From -- ./inp_files/425723.got.cif
#   From: 2010.05.17/outbox.cif.g08.bks.cpg/sg2_213_cif.got.tgz:425723.got - 2010.06.03 11:33:40.
