data_PCOD9096256
_publ_section_title
;
Structure prediction by ZEFSAII (Michael W. Deem and Ramdas Pophale) SiO2 
 PCOD9096256
Probable space group: P -1
;
_chemical_formula_sum "Si O2"
_cell_formula_units_Z 16
_cell_length_a 18.628933
_cell_length_b 15.828860
_cell_length_c 9.400726
_cell_angle_alpha 63.755663
_cell_angle_beta 101.839653
_cell_angle_gamma 157.766424
_cell_volume 751.528413
_symmetry_space_group_name_H-M "P -1"
_symmetry_group_IT_number 2
_symmetry_cell_setting 'triclinic'
loop_
_space_group_symop_operation_xyz
x,y,z
-x,-y,-z
loop_
_atom_site_type_symbol
_atom_site_label
_atom_site_fract_x
_atom_site_fract_y
_atom_site_fract_z
Si Si1 0.273522 0.761326 0.001744
Si Si2 0.179678 0.266655 0.673260
Si Si3 0.324112 0.159594 0.598340
Si Si4 0.837232 0.572245 0.920070
Si Si5 0.374906 0.623801 0.739397
Si Si6 0.637020 0.573690 0.956390
Si Si7 0.612296 0.447332 0.748228
Si Si8 0.229848 0.844620 0.667848
O O1 0.049084 0.516420 0.190626
O O2 0.174191 0.551210 0.027537
O O3 0.318941 0.899302 0.804417
O O4 0.500000 0.000000 0.000000
O O5 0.415819 0.486595 0.610290
O O6 0.243080 0.427658 0.688786
O O7 0.195046 0.315934 0.477577
O O8 0.915290 0.911539 0.862368
O O9 0.378623 0.182187 0.759223
O O10 0.262725 0.996975 0.593037
O O11 0.081847 0.918759 0.704259
O O12 0.797988 0.542115 0.091784
O O13 0.632855 0.374656 0.893718
O O14 0.590772 0.955191 0.536474
O O15 0.470948 0.647721 0.841035
O O16 0.635379 0.552668 0.802750
O O17 0.500000 0.500000 0.000000
#
# Coordination Sequence:
#
# PCOD9096256 Si02
#       8
#     2   2   2   2   2   2   2   2
#     4  10  20  35  64  89 109 151 195 230 279 354
#     4   9  20  37  58  78 114 155 200 236 274 342
#     4   8  18  35  59  79 112 157 191 232 280 331
#     4  10  20  36  61  87 117 151 191 235 294 339
#     4  10  22  40  56  84 122 152 187 242 299 340
#     4  11  23  37  56  85 120 151 198 247 290 331
#     4   9  20  38  56  83 115 152 201 236 276 340
#     4   9  19  39  56  86 121 146 186 239 280 348
#
# _framework density 21.289946
#
# number of rings (size 3 to 8) (size 9 to 14) (size 15 to 20)
#    0.750    1.750    0.000    1.500    1.750    3.500 
#    0.000    3.750    0.000    0.000    0.000    0.000 
#    0.000    0.000    0.000    0.000    0.000    0.000 
#
# Total GULP energy -89069.282912 kJ/mol
# GULP energy per Si atom -5566.830182 kJ/mol
# Density = 2.124149 g / cm^3
# Si number density = 21.289946 Si / 1000 Ang^3
#
#
#
# Elastic Constant Matrix: (Units=GPa)
#
#
# Indices 1 2 3 4 5 6 
#
# 1 53.6197 2.0096 25.6246 -1.7622 -15.6210 -0.0608
# 2 2.0096 70.3395 33.4515 -4.4253 -11.1291 15.9304
# 3 25.6246 33.4515 107.2847 -7.2791 -11.5723 7.1345
# 4 -1.7622 -4.4253 -7.2791 29.2640 -3.8494 -8.5702
# 5 -15.6210 -11.1291 -11.5723 -3.8494 27.7230 4.2914
# 6 -0.0608 15.9304 7.1345 -8.5702 4.2914 27.3998
#
#
#
# Elastic Compliance Matrix: (Units=1/GPa)
#
#
# Indices 1 2 3 4 5 6 
#
# 1 0.025618 0.005226 -0.005802 0.001908 0.014872 -0.003203
# 2 0.005226 0.021508 -0.005928 -0.000184 0.011051 -0.012738
# 3 -0.005802 -0.005928 0.012619 0.002111 -0.000219 0.000842
# 4 0.001908 -0.000184 0.002111 0.038677 0.005583 0.010785
# 5 0.014872 0.011051 -0.000219 0.005583 0.051531 -0.012659
# 6 -0.003203 -0.012738 0.000842 0.010785 -0.012659 0.049032
#
#
# Mechanical properties :
#
#
# Convention : Reuss Voigt Hill
#
# Bulk Modulus (GPa) = 21.39603 39.26836 30.33220
# Shear Modulus (GPa) = 21.97111 28.22123 25.09617
#
# Velocity S-wave (km/s) = 3.21595 3.64478 3.43706
# Velocity P-wave (km/s) = 4.88482 6.01641 5.47990
#
# Compressibility (1/GPa) = 0.04673764
#
# Stress axis : x y z
#
# Youngs Moduli (GPa) = 39.03467 46.49352 79.24788
#
# Poissons Ratio (x) = -0.24296 0.45976
# Poissons Ratio (y) = -0.20398 0.46977
# Poissons Ratio (z) = 0.22646 0.27561
#
# Static dielectric constant tensor:
#      x y z
#    x 1.812610 -0.004740 -0.012750 
#    y -0.004740 1.787170 -0.038560 
#    z -0.012750 -0.038560 1.820690 
# 
# From -- ./inp_files/348471.got.cif
#   From: 2010.05.17/outbox.cif.g08.bks.cpg/sg2_175_cif.got.tgz:348471.got - 2010.06.03 11:33:40.
