data_PCOD9096989
_publ_section_title
;
Structure prediction by ZEFSAII (Michael W. Deem and Ramdas Pophale) SiO2 
 PCOD9096989
Probable space group: P -1
;
_chemical_formula_sum "Si O2"
_cell_formula_units_Z 14
_cell_length_a 12.484380
_cell_length_b 14.359121
_cell_length_c 22.077280
_cell_angle_alpha 152.382812
_cell_angle_beta 160.377141
_cell_angle_gamma 36.270185
_cell_volume 605.802233
_symmetry_space_group_name_H-M "P -1"
_symmetry_group_IT_number 2
_symmetry_cell_setting 'triclinic'
loop_
_space_group_symop_operation_xyz
x,y,z
-x,-y,-z
loop_
_atom_site_type_symbol
_atom_site_label
_atom_site_fract_x
_atom_site_fract_y
_atom_site_fract_z
Si Si1 0.116352 0.344849 0.882304
Si Si2 0.707825 0.180696 0.254038
Si Si3 0.611774 0.344130 0.517712
Si Si4 0.822508 0.908091 0.760140
Si Si5 0.417021 0.985590 0.777532
Si Si6 0.669093 0.556371 0.380771
Si Si7 0.335522 0.011686 0.485294
O O1 0.305446 0.195811 0.858122
O O2 0.886874 0.434496 0.764840
O O3 0.894556 0.194717 0.726976
O O4 0.375974 0.510921 0.151120
O O5 0.582122 0.382481 0.285015
O O6 0.650182 0.144186 0.272303
O O7 0.083654 0.167349 0.434794
O O8 0.500000 0.000000 0.000000
O O9 0.500000 0.500000 0.500000
O O10 0.321162 0.226005 0.336584
O O11 0.738356 0.160412 0.443284
O O12 0.762704 0.765629 0.586587
O O13 0.601466 0.070689 0.714759
O O14 0.199777 0.979915 0.010313
O O15 0.000000 0.500000 0.500000
O O16 0.500000 0.000000 0.500000
#
# Coordination Sequence:
#
# PCOD9096989 Si02
#       7
#     2   2   2   2   2   2   2
#     4  10  23  41  68  93 126 177 210 259 324 380
#     4  11  20  38  63  93 127 169 212 257 320 383
#     4  11  25  46  63  92 128 169 223 268 316 370
#     4  11  24  40  65  97 130 169 208 270 326 374
#     4  11  21  44  69  87 129 174 216 260 316 390
#     4  12  21  40  65  97 136 161 212 262 326 390
#     4  10  20  36  58  97 131 157 207 252 325 381
#
# _framework density 23.109853999999999
#
# number of rings (size 3 to 8) (size 9 to 14) (size 15 to 20)
#    0.000    1.143    4.286    3.429    0.000    2.286 
#    7.714    0.714    0.000    0.000    0.000    0.000 
#    0.000    0.000    0.000    0.000    0.000    0.000 
#
# Total GULP energy -78218.943737 kJ/mol
# GULP energy per Si atom -5587.067410 kJ/mol
# Density = 2.305725 g / cm^3
# Si number density = 23.109854 Si / 1000 Ang^3
#
#
#
# Elastic Constant Matrix: (Units=GPa)
#
#
# Indices 1 2 3 4 5 6 
#
# 1 136.1640 24.3053 37.7047 -17.8354 -2.6973 5.8765
# 2 24.3053 88.3393 25.3828 -23.1210 -14.6462 17.1760
# 3 37.7047 25.3828 106.9875 -26.9293 -12.4634 3.4670
# 4 -17.8354 -23.1210 -26.9293 39.2953 -7.3997 -8.2721
# 5 -2.6973 -14.6462 -12.4634 -7.3997 35.0672 -0.9148
# 6 5.8765 17.1760 3.4670 -8.2721 -0.9148 39.2314
#
#
#
# Elastic Compliance Matrix: (Units=1/GPa)
#
#
# Indices 1 2 3 4 5 6 
#
# 1 0.008406 -0.001343 -0.002379 0.001257 -0.000500 -0.000208
# 2 -0.001343 0.016657 0.000242 0.010031 0.008931 -0.004790
# 3 -0.002379 0.000242 0.013321 0.009730 0.006739 0.001282
# 4 0.001257 0.010031 0.009730 0.042587 0.016833 0.003932
# 5 -0.000500 0.008931 0.006739 0.016833 0.038156 0.000008
# 6 -0.000208 -0.004790 0.001282 0.003932 0.000008 0.028334
#
#
# Mechanical properties :
#
#
# Convention : Reuss Voigt Hill
#
# Bulk Modulus (GPa) = 31.82275 56.25295 44.03785
# Shear Modulus (GPa) = 30.32219 38.99196 34.65708
#
# Velocity S-wave (km/s) = 3.62621 4.11206 3.87675
# Velocity P-wave (km/s) = 5.59755 6.85126 6.25589
#
# Compressibility (1/GPa) = 0.03142406
#
# Stress axis : x y z
#
# Youngs Moduli (GPa) = 118.95884 60.03328 75.07197
#
# Poissons Ratio (x) = 0.08061 0.17860
# Poissons Ratio (y) = 0.15973 -0.01815
# Poissons Ratio (z) = 0.28301 -0.01451
#
# Static dielectric constant tensor:
#      x y z
#    x 1.052620 -1.376500 -0.822430 
#    y -1.376500 -0.203500 -1.431780 
#    z -0.822430 -1.431780 1.031500 
# 
# From -- ./inp_files/240935.got.cif
#   From: 2010.05.17/outbox.cif.g08.bks.cpg/sg2_121_cif.got.tgz:240935.got - 2010.06.03 11:33:40.
