data_PCOD9096512
_publ_section_title
;
Structure prediction by ZEFSAII (Michael W. Deem and Ramdas Pophale) SiO2 
 PCOD9096512
Probable space group: P -1
;
_chemical_formula_sum "Si O2"
_cell_formula_units_Z 16
_cell_length_a 5.396303
_cell_length_b 22.182069
_cell_length_c 10.108498
_cell_angle_alpha 131.811194
_cell_angle_beta 89.822086
_cell_angle_gamma 61.035097
_cell_volume 683.413315
_symmetry_space_group_name_H-M "P -1"
_symmetry_group_IT_number 2
_symmetry_cell_setting 'triclinic'
loop_
_space_group_symop_operation_xyz
x,y,z
-x,-y,-z
loop_
_atom_site_type_symbol
_atom_site_label
_atom_site_fract_x
_atom_site_fract_y
_atom_site_fract_z
Si Si1 0.516451 0.524545 0.886527
Si Si2 0.182299 0.162626 0.321622
Si Si3 0.605314 0.200712 0.508945
Si Si4 0.929356 0.031909 0.701697
Si Si5 0.341157 0.075647 0.900332
Si Si6 0.286831 0.606000 0.559622
Si Si7 0.264554 0.368333 0.298070
Si Si8 0.778880 0.643245 0.019159
O O1 0.648835 0.432824 0.646371
O O2 0.500000 0.500000 0.000000
O O3 0.749393 0.553404 0.918683
O O4 0.132170 0.611666 0.974517
O O5 0.328883 0.217494 0.444803
O O6 0.819943 0.221169 0.461597
O O7 0.412891 0.047838 0.228858
O O8 0.218176 0.138689 0.131106
O O9 0.443752 0.269590 0.742198
O O10 0.852190 0.078438 0.377547
O O11 0.559630 0.089576 0.830901
O O12 0.000000 0.000000 0.500000
O O13 0.063057 0.090398 0.835345
O O14 0.500000 0.500000 0.500000
O O15 0.422789 0.664284 0.677349
O O16 0.918247 0.666313 0.685439
O O17 0.000000 0.500000 0.500000
O O18 0.339778 0.330235 0.092224
#
# Coordination Sequence:
#
# PCOD9096512 Si02
#       8
#     2   2   2   2   2   2   2   2
#     4  12  23  35  55  83 107 135 179 234 281 323
#     4   9  17  33  51  81 102 134 190 221 255 313
#     4  10  21  33  54  79 111 141 176 228 272 323
#     4  10  19  33  53  84 114 140 179 226 267 311
#     4   9  17  30  55  78 102 142 185 223 251 308
#     4  10  16  32  53  76  97 127 177 226 246 311
#     4  10  16  30  55  77  95 128 186 223 243 314
#     4  12  21  36  55  80 108 143 176 228 286 327
#
# _framework density 23.411895000000001
#
# number of rings (size 3 to 8) (size 9 to 14) (size 15 to 20)
#    0.000    1.750    5.000    2.250    0.000    3.000 
#    0.000    0.000    0.000    9.000    0.000    0.000 
#    0.000    0.000    0.000    0.000    0.000    0.000 
#
# Total GULP energy -89476.537368 kJ/mol
# GULP energy per Si atom -5592.283585 kJ/mol
# Density = 2.335861 g / cm^3
# Si number density = 23.411895 Si / 1000 Ang^3
#
#
#
# Elastic Constant Matrix: (Units=GPa)
#
#
# Indices 1 2 3 4 5 6 
#
# 1 197.8252 14.5794 71.5702 -21.8255 -1.3929 -3.6676
# 2 14.5794 58.4301 10.9167 -6.6682 -0.9398 1.9130
# 3 71.5702 10.9167 173.0939 -45.5212 -0.6464 -5.0323
# 4 -21.8255 -6.6682 -45.5212 37.4651 3.6186 -3.9739
# 5 -1.3929 -0.9398 -0.6464 3.6186 38.3213 -14.5922
# 6 -3.6676 1.9130 -5.0323 -3.9739 -14.5922 15.2899
#
#
#
# Elastic Compliance Matrix: (Units=1/GPa)
#
#
# Indices 1 2 3 4 5 6 
#
# 1 0.006045 -0.001058 -0.002158 0.000829 0.000775 0.001827
# 2 -0.001058 0.017734 -0.000231 0.002041 -0.000893 -0.002871
# 3 -0.002158 -0.000231 0.009889 0.011331 0.001865 0.007491
# 4 0.000829 0.002041 0.011331 0.042891 0.002929 0.017616
# 5 0.000775 -0.000893 0.001865 0.002929 0.041617 0.041391
# 6 0.001827 -0.002871 0.007491 0.017616 0.041391 0.112746
#
#
# Mechanical properties :
#
#
# Convention : Reuss Voigt Hill
#
# Bulk Modulus (GPa) = 37.35084 69.27576 53.31330
# Shear Modulus (GPa) = 20.26412 40.36747 30.31580
#
# Velocity S-wave (km/s) = 2.94521 4.15689 3.60236
# Velocity P-wave (km/s) = 5.24920 7.25905 6.33435
#
# Compressibility (1/GPa) = 0.02677316
#
# Stress axis : x y z
#
# Youngs Moduli (GPa) = 165.43543 56.38854 101.12269
#
# Poissons Ratio (x) = 0.05964 0.21827
# Poissons Ratio (y) = 0.17498 0.02337
# Poissons Ratio (z) = 0.35709 0.01303
#
# Static dielectric constant tensor:
#      x y z
#    x 1.896610 0.001440 -0.017640 
#    y 0.001440 1.948360 -0.002140 
#    z -0.017640 -0.002140 1.857570 
# 
# From -- ./inp_files/51019.got.cif
#   From: 2010.05.17/outbox.cif.g08.bks.cpg/sg2_26_cif.got.tgz:51019.got - 2010.06.03 11:33:40.
