data_PCOD9096697
_publ_section_title
;
Structure prediction by ZEFSAII (Michael W. Deem and Ramdas Pophale) SiO2 
 PCOD9096697
Probable space group: P -1
;
_chemical_formula_sum "Si O2"
_cell_formula_units_Z 16
_cell_length_a 8.870365
_cell_length_b 18.179767
_cell_length_c 21.018124
_cell_angle_alpha 25.045081
_cell_angle_beta 41.512575
_cell_angle_gamma 57.571790
_cell_volume 819.885699
_symmetry_space_group_name_H-M "P -1"
_symmetry_group_IT_number 2
_symmetry_cell_setting 'triclinic'
loop_
_space_group_symop_operation_xyz
x,y,z
-x,-y,-z
loop_
_atom_site_type_symbol
_atom_site_label
_atom_site_fract_x
_atom_site_fract_y
_atom_site_fract_z
Si Si1 0.210209 0.073108 0.791689
Si Si2 0.702539 0.277536 0.944561
Si Si3 0.608684 0.315442 0.370193
Si Si4 0.880070 0.687225 0.791624
Si Si5 0.199487 0.271509 0.066400
Si Si6 0.673452 0.979247 0.407467
Si Si7 0.585315 0.281965 0.121578
Si Si8 0.212620 0.313819 0.725883
O O1 0.365199 0.219459 0.570389
O O2 0.205793 0.205696 0.747023
O O3 0.367644 0.955491 0.849503
O O4 0.915540 0.873931 0.035454
O O5 0.481601 0.289889 0.965509
O O6 0.696325 0.348425 0.962978
O O7 0.997507 0.385598 0.739201
O O8 0.819468 0.244364 0.373591
O O9 0.478592 0.242267 0.399152
O O10 0.776501 0.554969 0.123813
O O11 0.867853 0.697505 0.864067
O O12 0.727457 0.794750 0.725946
O O13 0.708206 0.461647 0.993342
O O14 0.962634 0.063183 0.277625
O O15 0.662066 0.118220 0.246168
O O16 0.500000 0.000000 0.500000
O O17 0.500000 0.500000 0.500000
#
# Coordination Sequence:
#
# PCOD9096697 Si02
#       8
#     2   2   2   2   2   2   2   2
#     4   9  21  38  62  92 110 145 200 241 294 356
#     4   9  20  41  61  88 117 150 202 241 293 359
#     4  12  22  36  60  87 120 158 199 243 291 350
#     4  10  21  36  57  81 123 164 200 238 280 341
#     4  11  23  40  56  85 130 162 190 245 294 338
#     4  12  22  35  56  81 120 164 206 234 290 339
#     4  10  20  36  57  86 114 159 208 235 282 349
#     4   9  19  40  67  87 114 146 192 250 304 351
#
# _framework density 19.514914999999998
#
# number of rings (size 3 to 8) (size 9 to 14) (size 15 to 20)
#    0.750    1.000    3.750    1.125    1.750    2.500 
#    2.250    0.625    0.000    1.500    0.000    0.000 
#    0.000    0.000    0.000    0.000    0.000    0.000 
#
# Total GULP energy -89114.403705 kJ/mol
# GULP energy per Si atom -5569.650232 kJ/mol
# Density = 1.947050 g / cm^3
# Si number density = 19.514915 Si / 1000 Ang^3
#
#
#
# Elastic Constant Matrix: (Units=GPa)
#
#
# Indices 1 2 3 4 5 6 
#
# 1 72.2968 14.9169 27.4890 12.1303 -24.3732 -6.5276
# 2 14.9169 55.9667 13.5885 16.4453 -15.2173 -0.5609
# 3 27.4890 13.5885 85.7792 18.2267 -30.3036 6.2183
# 4 12.1303 16.4453 18.2267 32.4972 -0.3341 -1.8337
# 5 -24.3732 -15.2173 -30.3036 -0.3341 35.5645 0.1937
# 6 -6.5276 -0.5609 6.2183 -1.8337 0.1937 20.9518
#
#
#
# Elastic Compliance Matrix: (Units=1/GPa)
#
#
# Indices 1 2 3 4 5 6 
#
# 1 0.020186 0.000492 -0.000839 -0.006848 0.013234 0.005830
# 2 0.000492 0.025181 0.004509 -0.015416 0.014820 -0.001997
# 3 -0.000839 0.004509 0.021935 -0.014523 0.019952 -0.008106
# 4 -0.006848 -0.015416 -0.014523 0.049392 -0.023235 0.006302
# 5 0.013234 0.014820 0.019952 -0.023235 0.060332 -0.003993
# 6 0.005830 -0.001997 -0.008106 0.006302 -0.003993 0.052486
#
#
# Mechanical properties :
#
#
# Convention : Reuss Voigt Hill
#
# Bulk Modulus (GPa) = 13.22280 36.22572 24.72426
# Shear Modulus (GPa) = 20.29254 28.33927 24.31590
#
# Velocity S-wave (km/s) = 3.22817 3.81489 3.53373
# Velocity P-wave (km/s) = 4.54810 6.16505 5.41724
#
# Compressibility (1/GPa) = 0.07562695
#
# Stress axis : x y z
#
# Youngs Moduli (GPa) = 49.53890 39.71211 45.59019
#
# Poissons Ratio (x) = -0.01956 0.03826
# Poissons Ratio (y) = -0.02440 -0.20558
# Poissons Ratio (z) = 0.04158 -0.17907
#
# Static dielectric constant tensor:
#      x y z
#    x 1.721250 0.000530 0.037140 
#    y 0.000530 1.701210 -0.004510 
#    z 0.037140 -0.004510 1.733620 
# 
# From -- ./inp_files/493476.got.cif
#   From: 2010.05.17/outbox.cif.g08.bks.cpg/sg2_247_cif.got.tgz:493476.got - 2010.06.03 11:33:40.
