data_PCOD9096446
_publ_section_title
;
Structure prediction by ZEFSAII (Michael W. Deem and Ramdas Pophale) SiO2 
 PCOD9096446
Probable space group: P -1
;
_chemical_formula_sum "Si O2"
_cell_formula_units_Z 16
_cell_length_a 15.119744
_cell_length_b 8.631983
_cell_length_c 14.669693
_cell_angle_alpha 151.081192
_cell_angle_beta 110.330887
_cell_angle_gamma 64.733730
_cell_volume 835.767443
_symmetry_space_group_name_H-M "P -1"
_symmetry_group_IT_number 2
_symmetry_cell_setting 'triclinic'
loop_
_space_group_symop_operation_xyz
x,y,z
-x,-y,-z
loop_
_atom_site_type_symbol
_atom_site_label
_atom_site_fract_x
_atom_site_fract_y
_atom_site_fract_z
Si Si1 0.389903 0.615995 0.554113
Si Si2 0.816191 0.459943 0.027052
Si Si3 0.257662 0.127552 0.279571
Si Si4 0.816231 0.617484 0.810249
Si Si5 0.287580 0.024116 0.888089
Si Si6 0.021709 0.030421 0.916569
Si Si7 0.227347 0.031187 0.570319
Si Si8 0.813031 0.538633 0.392427
O O1 0.500000 0.500000 0.500000
O O2 0.347630 0.297131 0.395852
O O3 0.374970 0.848612 0.759673
O O4 0.321385 0.827711 0.558158
O O5 0.790814 0.745263 0.089733
O O6 0.818696 0.645725 0.218944
O O7 0.920306 0.196702 0.915832
O O8 0.733080 0.258718 0.895448
O O9 0.209222 0.194463 0.197663
O O10 0.188354 0.327438 0.437177
O O11 0.836894 0.228818 0.597742
O O12 0.721097 0.734169 0.903219
O O13 0.906986 0.726835 0.940327
O O14 0.252293 0.721104 0.760644
O O15 0.081654 0.674721 0.715122
O O16 0.000000 0.000000 0.000000
O O17 0.237438 0.167995 0.543984
#
# Coordination Sequence:
#
# PCOD9096446 Si02
#       8
#     2   2   2   2   2   2   2   2
#     4   9  20  40  63  87 108 136 182 231 278 343
#     4  11  20  36  56  81 113 152 185 230 271 322
#     4  10  20  36  58  80 114 148 181 226 286 321
#     4  10  20  36  55  80 113 153 183 226 272 323
#     4   9  20  37  58  80 114 147 181 227 284 322
#     4  11  20  36  55  81 114 146 197 228 262 322
#     4  10  20  36  58  80 113 150 180 226 285 321
#     4  10  20  36  55  81 113 151 183 228 272 325
#
# _framework density 19.144081
#
# number of rings (size 3 to 8) (size 9 to 14) (size 15 to 20)
#    0.000    2.000    2.500    2.250    0.000    3.000 
#    0.000    7.500    0.000    0.000    0.000    0.000 
#    0.000    0.000    0.000    0.000    0.000    0.000 
#
# Total GULP energy -89102.504627 kJ/mol
# GULP energy per Si atom -5568.906539 kJ/mol
# Density = 1.910051 g / cm^3
# Si number density = 19.144081 Si / 1000 Ang^3
#
#
#
# Elastic Constant Matrix: (Units=GPa)
#
#
# Indices 1 2 3 4 5 6 
#
# 1 94.8520 24.8360 42.0315 4.9390 -13.6399 3.7572
# 2 24.8360 57.2656 -1.5823 2.3307 -8.0071 14.8065
# 3 42.0315 -1.5823 91.6645 -6.7090 -6.7591 -3.7080
# 4 4.9390 2.3307 -6.7090 31.6731 14.1851 -2.1142
# 5 -13.6399 -8.0071 -6.7591 14.1851 36.5104 -1.9769
# 6 3.7572 14.8065 -3.7080 -2.1142 -1.9769 19.5148
#
#
#
# Elastic Compliance Matrix: (Units=1/GPa)
#
#
# Indices 1 2 3 4 5 6 
#
# 1 0.016944 -0.006479 -0.007915 -0.006516 0.005978 0.000049
# 2 -0.006479 0.025592 0.002758 -0.003262 0.004018 -0.017592
# 3 -0.007915 0.002758 0.014959 0.004996 -0.001379 0.002675
# 4 -0.006516 -0.003262 0.004996 0.042615 -0.018379 0.007434
# 5 0.005978 0.004018 -0.001379 -0.018379 0.037244 -0.002680
# 6 0.000049 -0.017592 0.002675 0.007434 -0.002680 0.065624
#
#
# Mechanical properties :
#
#
# Convention : Reuss Voigt Hill
#
# Bulk Modulus (GPa) = 29.22043 41.59474 35.40758
# Shear Modulus (GPa) = 21.03887 29.43944 25.23915
#
# Velocity S-wave (km/s) = 3.31868 3.92571 3.63489
# Velocity P-wave (km/s) = 5.47553 6.50559 6.01265
#
# Compressibility (1/GPa) = 0.03422264
#
# Stress axis : x y z
#
# Youngs Moduli (GPa) = 59.01944 39.07510 66.85147
#
# Poissons Ratio (x) = 0.25316 0.52914
# Poissons Ratio (y) = 0.38237 -0.18440
# Poissons Ratio (z) = 0.46715 -0.10778
#
# Static dielectric constant tensor:
#      x y z
#    x 1.680110 0.030750 -0.002060 
#    y 0.030750 1.652690 -0.017480 
#    z -0.002060 -0.017480 1.724690 
# 
# From -- ./inp_files/197153.got.cif
#   From: 2010.05.17/outbox.cif.g08.bks.cpg/sg2_99_cif.got.tgz:197153.got - 2010.06.03 11:33:40.
