data_PCOD9096572
_publ_section_title
;
Structure prediction by ZEFSAII (Michael W. Deem and Ramdas Pophale) SiO2 
 PCOD9096572
Probable space group: P -1
;
_chemical_formula_sum "Si O2"
_cell_formula_units_Z 16
_cell_length_a 11.993824
_cell_length_b 11.220948
_cell_length_c 8.688641
_cell_angle_alpha 129.143688
_cell_angle_beta 106.640826
_cell_angle_gamma 64.330070
_cell_volume 817.249829
_symmetry_space_group_name_H-M "P -1"
_symmetry_group_IT_number 2
_symmetry_cell_setting 'triclinic'
loop_
_space_group_symop_operation_xyz
x,y,z
-x,-y,-z
loop_
_atom_site_type_symbol
_atom_site_label
_atom_site_fract_x
_atom_site_fract_y
_atom_site_fract_z
Si Si1 0.957178 0.067803 0.868802
Si Si2 0.491216 0.898331 0.066271
Si Si3 0.295575 0.300976 0.781912
Si Si4 0.081877 0.608567 0.063186
Si Si5 0.519312 0.830629 0.513416
Si Si6 0.150586 0.817981 0.520156
Si Si7 0.414966 0.684162 0.638105
Si Si8 0.755326 0.002121 0.560848
O O1 0.965879 0.243729 0.962188
O O2 0.819590 0.064693 0.775794
O O3 0.044330 0.932486 0.677831
O O4 0.000000 0.000000 0.000000
O O5 0.619653 0.794567 0.118161
O O6 0.425768 0.041105 0.278682
O O7 0.431898 0.769181 0.873180
O O8 0.500000 0.000000 0.000000
O O9 0.386941 0.291274 0.666160
O O10 0.215245 0.190938 0.603190
O O11 0.208593 0.478430 0.941940
O O12 0.107585 0.700153 0.297893
O O13 0.000000 0.500000 0.000000
O O14 0.467559 0.760687 0.579911
O O15 0.393111 0.922132 0.446374
O O16 0.271177 0.716009 0.580484
O O17 0.193731 0.934817 0.518964
O O18 0.500000 0.500000 0.500000
#
# Coordination Sequence:
#
# PCOD9096572 Si02
#       8
#     2   2   2   2   2   2   2   2
#     4  11  24  41  61  88 115 153 202 250 297 346
#     4   9  18  33  55  84 116 151 186 224 281 351
#     4  11  20  36  61  89 115 151 198 247 289 340
#     4  11  23  42  64  85 113 157 204 246 292 354
#     4   9  20  35  56  85 116 152 192 232 288 351
#     4  10  21  39  60  81 116 163 197 226 291 372
#     4  10  20  36  56  85 120 151 187 238 291 346
#     4   9  18  38  60  81 117 160 193 229 287 366
#
# _framework density 19.577857000000002
#
# number of rings (size 3 to 8) (size 9 to 14) (size 15 to 20)
#    0.000    2.000    0.000    6.000    0.000    3.000 
#    0.000   15.000    0.000    0.000    0.000    0.000 
#    0.000    0.000    0.000    0.000    0.000    0.000 
#
# Total GULP energy -89147.358655 kJ/mol
# GULP energy per Si atom -5571.709916 kJ/mol
# Density = 1.953330 g / cm^3
# Si number density = 19.577857 Si / 1000 Ang^3
#
#
#
# Elastic Constant Matrix: (Units=GPa)
#
#
# Indices 1 2 3 4 5 6 
#
# 1 66.0523 20.3840 52.6632 1.1483 -7.3228 -2.7626
# 2 20.3840 98.5647 54.3408 2.6985 -1.3978 -4.9210
# 3 52.6632 54.3408 107.9534 0.9742 -14.5309 -1.4818
# 4 1.1483 2.6985 0.9742 38.6929 -7.6138 -5.6407
# 5 -7.3228 -1.3978 -14.5309 -7.6138 37.7073 8.0623
# 6 -2.7626 -4.9210 -1.4818 -5.6407 8.0623 28.4273
#
#
#
# Elastic Compliance Matrix: (Units=1/GPa)
#
#
# Indices 1 2 3 4 5 6 
#
# 1 0.025257 0.002389 -0.013599 -0.000398 -0.000822 0.002313
# 2 0.002389 0.014736 -0.008978 -0.001082 -0.003318 0.003041
# 3 -0.013599 -0.008978 0.021187 0.001228 0.006137 -0.003268
# 4 -0.000398 -0.001082 0.001228 0.027461 0.005078 0.003847
# 5 -0.000822 -0.003318 0.006137 0.005078 0.031387 -0.008229
# 6 0.002313 0.003041 -0.003268 0.003847 -0.008229 0.038855
#
#
# Mechanical properties :
#
#
# Convention : Reuss Voigt Hill
#
# Bulk Modulus (GPa) = 48.06951 58.59405 53.33178
# Shear Modulus (GPa) = 24.24888 30.64432 27.44660
#
# Velocity S-wave (km/s) = 3.52317 3.96062 3.74829
# Velocity P-wave (km/s) = 6.41534 7.13506 6.78475
#
# Compressibility (1/GPa) = 0.02080321
#
# Stress axis : x y z
#
# Youngs Moduli (GPa) = 39.59234 67.86181 47.19903
#
# Poissons Ratio (x) = -0.16211 0.64187
# Poissons Ratio (y) = -0.09458 0.42376
# Poissons Ratio (z) = 0.53842 0.60927
#
# Static dielectric constant tensor:
#      x y z
#    x 0.814080 -1.387600 0.040190 
#    y -1.387600 -0.433580 0.022420 
#    z 0.040190 0.022420 1.691320 
# 
# From -- ./inp_files/260719.got.cif
#   From: 2010.05.17/outbox.cif.g08.bks.cpg/sg2_131_cif.got.tgz:260719.got - 2010.06.03 11:33:40.
