data_PCOD9096488
_publ_section_title
;
Structure prediction by ZEFSAII (Michael W. Deem and Ramdas Pophale) SiO2 
 PCOD9096488
Probable space group: P -1
;
_chemical_formula_sum "Si O2"
_cell_formula_units_Z 14
_cell_length_a 6.678868
_cell_length_b 20.254922
_cell_length_c 9.963801
_cell_angle_alpha 137.354814
_cell_angle_beta 48.303364
_cell_angle_gamma 127.438478
_cell_volume 662.811762
_symmetry_space_group_name_H-M "P -1"
_symmetry_group_IT_number 2
_symmetry_cell_setting 'triclinic'
loop_
_space_group_symop_operation_xyz
x,y,z
-x,-y,-z
loop_
_atom_site_type_symbol
_atom_site_label
_atom_site_fract_x
_atom_site_fract_y
_atom_site_fract_z
Si Si1 0.038502 0.104001 0.462630
Si Si2 0.069251 0.893860 0.773551
Si Si3 0.085443 0.618408 0.653780
Si Si4 0.426514 0.756288 0.485172
Si Si5 0.480363 0.755757 0.870490
Si Si6 0.620639 0.741570 0.085037
Si Si7 0.857355 0.091251 0.822383
O O1 0.857276 0.102847 0.411305
O O2 0.263424 0.206958 0.540861
O O3 0.872738 0.076954 0.633352
O O4 0.193705 0.013998 0.239838
O O5 0.803071 0.801408 0.772308
O O6 0.302046 0.855134 0.689984
O O7 0.000000 0.000000 0.000000
O O8 0.000000 0.500000 0.500000
O O9 0.238340 0.671786 0.532959
O O10 0.309690 0.654425 0.726627
O O11 0.814687 0.662432 0.865074
O O12 0.448259 0.723525 0.272287
O O13 0.453762 0.747129 0.030859
O O14 0.351933 0.837875 0.972641
O O15 0.846140 0.846362 0.164448
#
# Coordination Sequence:
#
# PCOD9096488 Si02
#       7
#     2   2   2   2   2   2   2
#     4  10  20  36  55  88 124 168 203 245 294 364
#     4  12  23  33  61  95 128 164 205 238 300 371
#     4  11  25  45  67  90 118 159 211 264 315 360
#     4  11  23  42  63  89 128 165 204 252 305 368
#     4  11  21  39  61  88 126 160 199 257 302 358
#     4  10  22  42  64  91 125 158 205 257 307 366
#     4   9  20  35  58  85 126 165 205 241 299 361
#
# _framework density 21.122135
#
# number of rings (size 3 to 8) (size 9 to 14) (size 15 to 20)
#    0.000    1.429    2.857    2.571    2.000    2.286 
#    0.000    6.429    0.000    0.000    0.000    0.000 
#    0.000    0.000    0.000    0.000    0.000    0.000 
#
# Total GULP energy -78185.254660 kJ/mol
# GULP energy per Si atom -5584.661047 kJ/mol
# Density = 2.107406 g / cm^3
# Si number density = 21.122135 Si / 1000 Ang^3
#
#
#
# Elastic Constant Matrix: (Units=GPa)
#
#
# Indices 1 2 3 4 5 6 
#
# 1 90.8837 28.9559 21.1498 -1.2436 28.5364 -7.7688
# 2 28.9559 90.7186 44.8854 9.6028 16.0241 -12.9999
# 3 21.1498 44.8854 78.4871 1.2011 20.4360 -7.4466
# 4 -1.2436 9.6028 1.2011 34.7087 -2.7288 6.5973
# 5 28.5364 16.0241 20.4360 -2.7288 37.3857 -7.0126
# 6 -7.7688 -12.9999 -7.4466 6.5973 -7.0126 22.6810
#
#
#
# Elastic Compliance Matrix: (Units=1/GPa)
#
#
# Indices 1 2 3 4 5 6 
#
# 1 0.015231 -0.003327 0.000509 0.000615 -0.010419 0.000077
# 2 -0.003327 0.018210 -0.008787 -0.006414 0.000660 0.008483
# 3 0.000509 -0.008787 0.019409 0.001423 -0.007348 -0.001176
# 4 0.000615 -0.006414 0.001423 0.032985 0.001643 -0.012085
# 5 -0.010419 0.000660 -0.007348 0.001643 0.039717 0.006199
# 6 0.000077 0.008483 -0.001176 -0.012085 0.006199 0.054024
#
#
# Mechanical properties :
#
#
# Convention : Reuss Voigt Hill
#
# Bulk Modulus (GPa) = 33.73724 50.00795 41.87260
# Shear Modulus (GPa) = 23.51113 29.96164 26.73638
#
# Velocity S-wave (km/s) = 3.33994 3.77038 3.56167
# Velocity P-wave (km/s) = 5.55704 6.53310 6.06474
#
# Compressibility (1/GPa) = 0.02964083
#
# Stress axis : x y z
#
# Youngs Moduli (GPa) = 65.65573 54.91395 51.52340
#
# Poissons Ratio (x) = 0.18270 -0.02623
# Poissons Ratio (y) = 0.21844 0.45271
# Poissons Ratio (z) = -0.03343 0.48250
#
# Static dielectric constant tensor:
#      x y z
#    x 1.802390 -0.002850 -0.005990 
#    y -0.002850 1.739700 -0.020690 
#    z -0.005990 -0.020690 1.851980 
# 
# From -- ./inp_files/27477.got.cif
#   From: 2010.05.17/outbox.cif.g08.bks.cpg/sg2_14_cif.got.tgz:27477.got - 2010.06.03 11:33:40.
