data_PCOD9096128
_publ_section_title
;
Structure prediction by ZEFSAII (Michael W. Deem and Ramdas Pophale) SiO2 
 PCOD9096128
Probable space group: P -1
;
_chemical_formula_sum "Si O2"
_cell_formula_units_Z 16
_cell_length_a 12.455384
_cell_length_b 9.969022
_cell_length_c 9.606689
_cell_angle_alpha 49.188304
_cell_angle_beta 132.617950
_cell_angle_gamma 117.166791
_cell_volume 664.158571
_symmetry_space_group_name_H-M "P -1"
_symmetry_group_IT_number 2
_symmetry_cell_setting 'triclinic'
loop_
_space_group_symop_operation_xyz
x,y,z
-x,-y,-z
loop_
_atom_site_type_symbol
_atom_site_label
_atom_site_fract_x
_atom_site_fract_y
_atom_site_fract_z
Si Si1 0.663575 0.971542 0.117821
Si Si2 0.645755 0.753848 0.962375
Si Si3 0.919446 0.848906 0.942468
Si Si4 0.098784 0.139551 0.400079
Si Si5 0.664952 0.338911 0.345100
Si Si6 0.166545 0.547387 0.334209
Si Si7 0.928831 0.394671 0.376674
Si Si8 0.822748 0.353618 0.015045
O O1 0.747395 0.864927 0.383987
O O2 0.735890 0.168443 0.046432
O O3 0.668029 0.873173 0.039289
O O4 0.500000 0.000000 0.000000
O O5 0.773852 0.797584 0.935588
O O6 0.481974 0.768455 0.747614
O O7 0.655130 0.544839 0.148392
O O8 0.884622 0.907834 0.715485
O O9 0.034172 0.687339 0.141929
O O10 0.000000 0.000000 0.000000
O O11 0.990406 0.302399 0.176891
O O12 0.000000 0.000000 0.500000
O O13 0.702814 0.363902 0.522973
O O14 0.810195 0.274170 0.438126
O O15 0.088144 0.374517 0.456072
O O16 0.218302 0.530953 0.232178
O O17 0.825644 0.425313 0.126388
O O18 0.000000 0.500000 0.500000
#
# Coordination Sequence:
#
# PCOD9096128 Si02
#       8
#     2   2   2   2   2   2   2   2
#     4  11  24  41  62  87 122 170 209 258 318 373
#     4  11  23  42  63  90 132 166 214 258 311 376
#     4  11  22  39  65  95 126 162 209 263 311 372
#     4   9  21  38  59  89 123 157 201 251 313 367
#     4  10  23  40  62  94 126 169 208 253 313 375
#     4  10  21  38  61  94 123 162 209 256 314 367
#     4  10  20  35  62  91 120 160 207 252 307 368
#     4  10  21  39  61  92 124 156 208 263 312 371
#
# _framework density 24.090633
#
# number of rings (size 3 to 8) (size 9 to 14) (size 15 to 20)
#    0.000    1.750    1.250    3.375    3.500    6.000 
#    0.000    1.875    0.000    3.750    0.000    0.000 
#    0.000    0.000    0.000    0.000    0.000    0.000 
#
# Total GULP energy -89113.653970 kJ/mol
# GULP energy per Si atom -5569.603373 kJ/mol
# Density = 2.403580 g / cm^3
# Si number density = 24.090633 Si / 1000 Ang^3
#
#
#
# Elastic Constant Matrix: (Units=GPa)
#
#
# Indices 1 2 3 4 5 6 
#
# 1 126.6009 52.3965 77.9628 30.3382 -15.5043 -6.7056
# 2 52.3965 126.6672 44.3445 34.5161 -0.4550 6.5516
# 3 77.9628 44.3445 145.9188 50.7035 -17.3558 1.5372
# 4 30.3382 34.5161 50.7035 58.1346 -12.3320 2.2681
# 5 -15.5043 -0.4550 -17.3558 -12.3320 54.3165 14.4147
# 6 -6.7056 6.5516 1.5372 2.2681 14.4147 38.2107
#
#
#
# Elastic Compliance Matrix: (Units=1/GPa)
#
#
# Indices 1 2 3 4 5 6 
#
# 1 0.013328 -0.003707 -0.006136 0.000762 0.001270 0.002697
# 2 -0.003707 0.010766 0.000260 -0.004957 -0.001581 -0.001616
# 3 -0.006136 0.000260 0.012962 -0.007988 0.000988 -0.001542
# 4 0.000762 -0.004957 -0.007988 0.027738 0.004458 -0.002023
# 5 0.001270 -0.001581 0.000988 0.004458 0.022267 -0.008210
# 6 0.002697 -0.001616 -0.001542 -0.002023 -0.008210 0.030200
#
#
# Mechanical properties :
#
#
# Convention : Reuss Voigt Hill
#
# Bulk Modulus (GPa) = 55.90177 83.17719 69.53948
# Shear Modulus (GPa) = 35.11477 45.09790 40.10633
#
# Velocity S-wave (km/s) = 3.82201 4.33137 4.08464
# Velocity P-wave (km/s) = 6.53698 7.72114 7.15361
#
# Compressibility (1/GPa) = 0.01788852
#
# Stress axis : x y z
#
# Youngs Moduli (GPa) = 75.03045 92.88746 77.14945
#
# Poissons Ratio (x) = 0.34438 0.47342
# Poissons Ratio (y) = 0.27817 -0.02009
# Poissons Ratio (z) = 0.46042 -0.02419
#
# Static dielectric constant tensor:
#      x y z
#    x 1.484480 -0.814770 0.201600 
#    y -0.814770 1.125060 0.377370 
#    z 0.201600 0.377370 1.913860 
# 
# From -- ./inp_files/262172.got.cif
#   From: 2010.05.17/outbox.cif.g08.bks.cpg/sg2_132_cif.got.tgz:262172.got - 2010.06.03 11:33:40.
