data_PCOD9096061
_publ_section_title
;
Structure prediction by ZEFSAII (Michael W. Deem and Ramdas Pophale) SiO2 
 PCOD9096061
Probable space group: P -1
;
_chemical_formula_sum "Si O2"
_cell_formula_units_Z 16
_cell_length_a 6.291449
_cell_length_b 22.886573
_cell_length_c 17.822239
_cell_angle_alpha 22.523160
_cell_angle_beta 55.261038
_cell_angle_gamma 54.929781
_cell_volume 798.264648
_symmetry_space_group_name_H-M "P -1"
_symmetry_group_IT_number 2
_symmetry_cell_setting 'triclinic'
loop_
_space_group_symop_operation_xyz
x,y,z
-x,-y,-z
loop_
_atom_site_type_symbol
_atom_site_label
_atom_site_fract_x
_atom_site_fract_y
_atom_site_fract_z
Si Si1 0.102740 0.365401 0.890893
Si Si2 0.892637 0.803121 0.464991
Si Si3 0.437896 0.456478 0.147973
Si Si4 0.958001 0.255726 0.815016
Si Si5 0.193134 0.065912 0.125384
Si Si6 0.096168 0.445742 0.426917
Si Si7 0.664515 0.456152 0.251814
Si Si8 0.221810 0.023509 0.866432
O O1 0.297182 0.393546 0.885568
O O2 0.812381 0.421737 0.916635
O O3 0.110574 0.487438 0.675059
O O4 0.143454 0.198212 0.042242
O O5 0.641310 0.716929 0.630455
O O6 0.891059 0.849015 0.323115
O O7 0.121644 0.673721 0.601869
O O8 0.964235 0.959222 0.302991
O O9 0.669874 0.468765 0.146033
O O10 0.500000 0.500000 0.000000
O O11 0.038365 0.309828 0.653283
O O12 0.882326 0.410493 0.693131
O O13 0.172573 0.152601 0.945822
O O14 0.740561 0.146607 0.978728
O O15 0.480605 0.963940 0.187914
O O16 0.380825 0.410280 0.376594
O O17 0.000000 0.000000 0.000000
#
# Coordination Sequence:
#
# PCOD9096061 Si02
#       8
#     2   2   2   2   2   2   2   2
#     4   9  20  36  60  86 115 153 192 238 300 348
#     4  10  23  38  58  86 118 159 194 238 292 346
#     4  10  22  42  67  93 113 139 190 249 303 363
#     4   9  20  32  50  78 112 156 201 237 283 329
#     4  10  21  39  54  81 122 163 197 238 283 341
#     4   9  18  33  52  78 113 150 198 245 278 336
#     4  10  20  35  62  82 115 149 188 244 296 340
#     4  11  24  33  53  81 122 163 204 237 274 334
#
# _framework density 20.043479000000001
#
# number of rings (size 3 to 8) (size 9 to 14) (size 15 to 20)
#    0.000    2.250    0.000    1.500    8.750    4.000 
#    0.000    4.375    0.000    3.750    0.000    0.000 
#    0.000    0.000    0.000    0.000    0.000    0.000 
#
# Total GULP energy -89091.538404 kJ/mol
# GULP energy per Si atom -5568.221150 kJ/mol
# Density = 1.999786 g / cm^3
# Si number density = 20.043479 Si / 1000 Ang^3
#
#
#
# Elastic Constant Matrix: (Units=GPa)
#
#
# Indices 1 2 3 4 5 6 
#
# 1 96.0247 35.5874 37.9175 2.1310 -2.2361 28.8088
# 2 35.5874 76.2811 47.4151 7.5435 5.5367 23.1850
# 3 37.9175 47.4151 101.4262 5.8807 -1.8730 28.4135
# 4 2.1310 7.5435 5.8807 33.5680 12.2881 2.7516
# 5 -2.2361 5.5367 -1.8730 12.2881 28.4046 -4.6654
# 6 28.8088 23.1850 28.4135 2.7516 -4.6654 34.4119
#
#
#
# Elastic Compliance Matrix: (Units=1/GPa)
#
#
# Indices 1 2 3 4 5 6 
#
# 1 0.014965 -0.003334 -0.001540 0.000867 -0.000143 -0.009099
# 2 -0.003334 0.021533 -0.007024 -0.000776 -0.005675 -0.006624
# 3 -0.001540 -0.007024 0.015662 -0.001148 0.001695 -0.006589
# 4 0.000867 -0.000776 -0.001148 0.036454 -0.016347 -0.004386
# 5 -0.000143 -0.005675 0.001695 -0.016347 0.045121 0.009968
# 6 -0.009099 -0.006624 -0.006589 -0.004386 0.009968 0.048283
#
#
# Mechanical properties :
#
#
# Convention : Reuss Voigt Hill
#
# Bulk Modulus (GPa) = 35.25523 57.28581 46.27052
# Shear Modulus (GPa) = 23.22661 29.46437 26.34549
#
# Velocity S-wave (km/s) = 3.40782 3.83825 3.62942
# Velocity P-wave (km/s) = 5.75430 6.94879 6.37956
#
# Compressibility (1/GPa) = 0.02836459
#
# Stress axis : x y z
#
# Youngs Moduli (GPa) = 66.82245 46.44043 63.84750
#
# Poissons Ratio (x) = 0.15485 0.09831
# Poissons Ratio (y) = 0.22281 0.44846
# Poissons Ratio (z) = 0.10289 0.32619
#
# Static dielectric constant tensor:
#      x y z
#    x 1.765790 0.045940 -0.011960 
#    y 0.045940 1.764630 -0.038460 
#    z -0.011960 -0.038460 1.728470 
# 
# From -- ./inp_files/38462.got.cif
#   From: 2010.05.17/outbox.cif.g08.bks.cpg/sg2_20_cif.got.tgz:38462.got - 2010.06.03 11:33:40.
