data_PCOD9096431
_publ_section_title
;
Structure prediction by ZEFSAII (Michael W. Deem and Ramdas Pophale) SiO2 
 PCOD9096431
Probable space group: P -1
;
_chemical_formula_sum "Si O2"
_cell_formula_units_Z 16
_cell_length_a 19.914048
_cell_length_b 8.177545
_cell_length_c 16.610596
_cell_angle_alpha 113.649208
_cell_angle_beta 19.238233
_cell_angle_gamma 122.554358
_cell_volume 693.354048
_symmetry_space_group_name_H-M "P -1"
_symmetry_group_IT_number 2
_symmetry_cell_setting 'triclinic'
loop_
_space_group_symop_operation_xyz
x,y,z
-x,-y,-z
loop_
_atom_site_type_symbol
_atom_site_label
_atom_site_fract_x
_atom_site_fract_y
_atom_site_fract_z
Si Si1 0.228598 0.514311 0.405978
Si Si2 0.240279 0.917960 0.179751
Si Si3 0.741724 0.801255 0.914225
Si Si4 0.649011 0.022760 0.209687
Si Si5 0.766074 0.153867 0.637418
Si Si6 0.793399 0.478111 0.169658
Si Si7 0.902652 0.891925 0.175984
Si Si8 0.155041 0.746922 0.680018
O O1 0.233146 0.634595 0.342941
O O2 0.169799 0.628861 0.564306
O O3 0.004497 0.281692 0.613297
O O4 0.495484 0.573042 0.140811
O O5 0.238741 0.893156 0.272074
O O6 0.231306 0.109782 0.188982
O O7 0.505440 0.968044 0.862996
O O8 0.982620 0.812817 0.670069
O O9 0.700423 0.952927 0.050645
O O10 0.639212 0.232454 0.274172
O O11 0.387911 0.825364 0.488745
O O12 0.864451 0.059757 0.028898
O O13 0.727109 0.639707 0.316520
O O14 0.000000 0.500000 0.000000
O O15 0.920725 0.596320 0.966044
O O16 0.816200 0.037082 0.339549
O O17 0.000000 0.000000 0.000000
#
# Coordination Sequence:
#
# PCOD9096431 Si02
#       8
#     2   2   2   2   2   2   2   2
#     4  10  21  36  56  82 112 149 189 229 278 334
#     4  10  21  37  57  83 115 148 185 232 280 328
#     4  10  21  36  56  82 112 149 189 229 278 334
#     4  10  20  36  55  76 108 143 178 227 277 324
#     4  10  21  37  57  83 115 148 185 232 280 328
#     4   9  19  34  53  78 104 135 178 220 267 328
#     4   9  19  34  53  78 104 135 178 220 267 328
#     4  10  20  36  55  76 108 143 178 227 277 324
#
# _framework density 23.076232000000001
#
# number of rings (size 3 to 8) (size 9 to 14) (size 15 to 20)
#    0.000    2.250    0.000    2.250    0.000    6.500 
#    0.000    5.000    0.000    0.000    0.000    0.000 
#    0.000    0.000    0.000    0.000    0.000    0.000 
#
# Total GULP energy -89181.334080 kJ/mol
# GULP energy per Si atom -5573.833380 kJ/mol
# Density = 2.302371 g / cm^3
# Si number density = 23.076232 Si / 1000 Ang^3
#
#
#
# Elastic Constant Matrix: (Units=GPa)
#
#
# Indices 1 2 3 4 5 6 
#
# 1 23.9359 -33.5782 26.2209 1.0167 -30.5743 -8.6602
# 2 -33.5782 37.1350 53.8703 -8.3147 -30.6607 0.8191
# 3 26.2209 53.8703 115.6276 -17.5030 -23.1922 15.6647
# 4 1.0167 -8.3147 -17.5030 37.8684 8.9677 -2.4723
# 5 -30.5743 -30.6607 -23.1922 8.9677 28.8493 -8.9715
# 6 -8.6602 0.8191 15.6647 -2.4723 -8.9715 19.9437
#
#
#
# Elastic Compliance Matrix: (Units=1/GPa)
#
#
# Indices 1 2 3 4 5 6 
#
# 1 0.002082 -0.013206 0.004673 0.001266 -0.010589 -0.006831
# 2 -0.013206 0.005416 -0.000012 0.003871 -0.012967 -0.011300
# 3 0.004673 -0.000012 0.010432 0.001662 0.012739 -0.000227
# 4 0.001266 0.003871 0.001662 0.028462 -0.001444 0.001964
# 5 -0.010589 -0.012967 0.012739 -0.001444 0.018506 -0.005925
# 6 -0.006831 -0.011300 -0.000227 0.001964 -0.005925 0.045396
#
#
# Mechanical properties :
#
#
# Convention : Reuss Voigt Hill
#
# Bulk Modulus (GPa) = 1190.28590 29.96938 610.12764
# Shear Modulus (GPa) = 39.16576 26.01133 32.58855
#
# Velocity S-wave (km/s) = 4.12422 3.36101 3.76202
# Velocity P-wave (km/s) = 23.22939 5.29879 16.84758
#
# Compressibility (1/GPa) = 0.00084013
#
# Stress axis : x y z
#
# Youngs Moduli (GPa) = 480.29204 184.65510 95.85977
#
# Poissons Ratio (x) = 2.43850 -0.44800
# Poissons Ratio (y) = 6.34259 0.00119
# Poissons Ratio (z) = -2.24463 0.00230
#
# Static dielectric constant tensor:
#      x y z
#    x 1.836990 0.010820 -0.004440 
#    y 0.010820 1.907110 0.033770 
#    z -0.004440 0.033770 1.932990 
# 
# From -- ./inp_files/112198.got.cif
#   From: 2010.05.17/outbox.cif.g08.bks.cpg/sg2_57_cif.got.tgz:112198.got - 2010.06.03 11:33:40.
