data_PCOD9096217
_publ_section_title
;
Structure prediction by ZEFSAII (Michael W. Deem and Ramdas Pophale) SiO2 
 PCOD9096217
Probable space group: P -1
;
_chemical_formula_sum "Si O2"
_cell_formula_units_Z 14
_cell_length_a 9.019056
_cell_length_b 12.414288
_cell_length_c 11.672340
_cell_angle_alpha 35.373096
_cell_angle_beta 118.096019
_cell_angle_gamma 132.387925
_cell_volume 549.233905
_symmetry_space_group_name_H-M "P -1"
_symmetry_group_IT_number 2
_symmetry_cell_setting 'triclinic'
loop_
_space_group_symop_operation_xyz
x,y,z
-x,-y,-z
loop_
_atom_site_type_symbol
_atom_site_label
_atom_site_fract_x
_atom_site_fract_y
_atom_site_fract_z
Si Si1 0.559481 0.859548 0.400436
Si Si2 0.197893 0.020520 0.201676
Si Si3 0.758911 0.897255 0.128197
Si Si4 0.677788 0.550361 0.677242
Si Si5 0.773185 0.377036 0.348415
Si Si6 0.208150 0.694282 0.230081
Si Si7 0.356325 0.663093 0.912185
O O1 0.710027 0.791433 0.473703
O O2 0.438543 0.696616 0.607067
O O3 0.376325 0.764062 0.326010
O O4 0.637675 0.114252 0.238915
O O5 0.411938 0.250319 0.113375
O O6 0.216993 0.833609 0.431837
O O7 0.218616 0.042242 0.051990
O O8 0.972833 0.954277 0.200134
O O9 0.558586 0.643301 0.278777
O O10 0.726181 0.080846 0.010833
O O11 0.804447 0.495375 0.688618
O O12 0.710483 0.497397 0.863913
O O13 0.773625 0.423478 0.174822
O O14 0.982449 0.591644 0.287226
#
# Coordination Sequence:
#
# PCOD9096217 Si02
#       7
#     2   2   2   2   2   2   2
#     4  11  22  41  69  90 119 164 208 260 309 352
#     4   9  18  36  62  90 119 153 206 254 306 350
#     4  10  20  35  63  93 124 157 201 260 311 351
#     4  11  24  41  64  91 129 161 210 248 307 375
#     4  11  23  40  63  93 127 158 209 256 304 368
#     4  12  23  39  63  96 126 163 201 259 310 360
#     4  10  23  44  63  89 129 164 203 254 307 367
#
# _framework density 25.490048999999999
#
# number of rings (size 3 to 8) (size 9 to 14) (size 15 to 20)
#    0.000    1.429    4.286    3.857    6.000    1.143 
#    2.571    0.714    0.000    0.000    0.000    0.000 
#    0.000    0.000    0.000    0.000    0.000    0.000 
#
# Total GULP energy -78336.277347 kJ/mol
# GULP energy per Si atom -5595.448382 kJ/mol
# Density = 2.543203 g / cm^3
# Si number density = 25.490049 Si / 1000 Ang^3
#
#
#
# Elastic Constant Matrix: (Units=GPa)
#
#
# Indices 1 2 3 4 5 6 
#
# 1 73.5468 0.3707 10.1482 2.7827 14.2313 -6.6770
# 2 0.3707 54.4818 19.6277 17.3694 4.9200 -2.8870
# 3 10.1482 19.6277 103.6243 1.2149 15.4203 -12.6546
# 4 2.7827 17.3694 1.2149 26.4599 -5.2799 -1.4997
# 5 14.2313 4.9200 15.4203 -5.2799 40.2105 -2.7095
# 6 -6.6770 -2.8870 -12.6546 -1.4997 -2.7095 20.8823
#
#
#
# Elastic Compliance Matrix: (Units=1/GPa)
#
#
# Indices 1 2 3 4 5 6 
#
# 1 0.015251 0.002018 -0.000517 -0.003823 -0.005691 0.003830
# 2 0.002018 0.026036 -0.004253 -0.018050 -0.004655 -0.000233
# 3 -0.000517 -0.004253 0.011686 0.002035 -0.003102 0.006072
# 4 -0.003823 -0.018050 0.002035 0.052046 0.009785 0.002523
# 5 -0.005691 -0.004655 -0.003102 0.009785 0.029944 0.000245
# 6 0.003830 -0.000233 0.006072 0.002523 0.000245 0.052972
#
#
# Mechanical properties :
#
#
# Convention : Reuss Voigt Hill
#
# Bulk Modulus (GPa) = 21.06625 32.43846 26.75235
# Shear Modulus (GPa) = 23.89358 30.94429 27.41893
#
# Velocity S-wave (km/s) = 3.06497 3.48799 3.28330
# Velocity P-wave (km/s) = 4.56156 5.38285 4.98913
#
# Compressibility (1/GPa) = 0.04746929
#
# Stress axis : x y z
#
# Youngs Moduli (GPa) = 65.56796 38.40864 85.57477
#
# Poissons Ratio (x) = -0.07751 0.04420
# Poissons Ratio (y) = -0.13232 0.36398
# Poissons Ratio (z) = 0.03387 0.16336
#
# Static dielectric constant tensor:
#      x y z
#    x 2.112570 -0.066530 -0.017090 
#    y -0.066530 1.964520 -0.029350 
#    z -0.017090 -0.029350 2.025630 
# 
# From -- ./inp_files/234191.got.cif
#   From: 2010.05.17/outbox.cif.g08.bks.cpg/sg2_118_cif.got.tgz:234191.got - 2010.06.03 11:33:40.
