data_PCOD9096885
_publ_section_title
;
Structure prediction by ZEFSAII (Michael W. Deem and Ramdas Pophale) SiO2 
 PCOD9096885
Probable space group: P -1
;
_chemical_formula_sum "Si O2"
_cell_formula_units_Z 16
_cell_length_a 15.469086
_cell_length_b 14.811238
_cell_length_c 15.445069
_cell_angle_alpha 151.678758
_cell_angle_beta 35.876157
_cell_angle_gamma 153.345183
_cell_volume 748.522320
_symmetry_space_group_name_H-M "P -1"
_symmetry_group_IT_number 2
_symmetry_cell_setting 'triclinic'
loop_
_space_group_symop_operation_xyz
x,y,z
-x,-y,-z
loop_
_atom_site_type_symbol
_atom_site_label
_atom_site_fract_x
_atom_site_fract_y
_atom_site_fract_z
Si Si1 0.226995 0.885247 0.638527
Si Si2 0.105380 0.192646 0.498016
Si Si3 0.982873 0.259143 0.488763
Si Si4 0.576000 0.806347 0.849113
Si Si5 0.635800 0.407360 0.774262
Si Si6 0.023909 0.301322 0.146916
Si Si7 0.792743 0.375143 0.106159
Si Si8 0.728429 0.762158 0.852092
O O1 0.257416 0.683948 0.435805
O O2 0.068740 0.797750 0.765364
O O3 0.168049 0.896281 0.598588
O O4 0.421197 0.146460 0.733683
O O5 0.955877 0.114399 0.475336
O O6 0.289399 0.227260 0.343313
O O7 0.175199 0.452541 0.696645
O O8 0.000000 0.000000 0.500000
O O9 0.997345 0.497017 0.694314
O O10 0.182762 0.342159 0.359963
O O11 0.359509 0.653568 0.860399
O O12 0.583195 0.746158 0.891911
O O13 0.688765 0.099299 0.992362
O O14 0.646393 0.600210 0.868330
O O15 0.749991 0.541743 0.884135
O O16 0.905452 0.055382 0.976965
O O17 0.000000 0.500000 0.000000
#
# Coordination Sequence:
#
# PCOD9096885 Si02
#       8
#     2   2   2   2   2   2   2   2
#     4  10  20  37  60  84 121 165 198 247 303 360
#     4  11  22  40  68  95 123 169 210 260 323 376
#     4  10  21  39  60  86 124 159 204 255 306 363
#     4  10  24  42  64  95 127 163 213 258 319 377
#     4  10  20  36  58  86 119 162 204 244 297 360
#     4  11  20  39  61  84 125 164 198 246 311 352
#     4  11  22  44  67  89 125 166 204 266 319 377
#     4  11  21  38  61  91 120 159 204 254 300 368
#
# _framework density 21.375447999999999
#
# number of rings (size 3 to 8) (size 9 to 14) (size 15 to 20)
#    0.000    1.500    3.750    2.250    0.000    1.500 
#    0.000    3.750    0.000    0.000    0.000    0.000 
#    0.000    0.000    0.000    0.000    0.000    0.000 
#
# Total GULP energy -89384.626657 kJ/mol
# GULP energy per Si atom -5586.539166 kJ/mol
# Density = 2.132680 g / cm^3
# Si number density = 21.375448 Si / 1000 Ang^3
#
#
#
# Elastic Constant Matrix: (Units=GPa)
#
#
# Indices 1 2 3 4 5 6 
#
# 1 174.3747 40.0711 30.1711 -3.5652 -6.2115 5.2165
# 2 40.0711 53.2593 2.0643 1.9242 -3.7202 15.2246
# 3 30.1711 2.0643 85.4398 -7.5147 -13.2497 4.9272
# 4 -3.5652 1.9242 -7.5147 13.4227 5.6400 1.1674
# 5 -6.2115 -3.7202 -13.2497 5.6400 20.8046 -2.1476
# 6 5.2165 15.2246 4.9272 1.1674 -2.1476 29.9906
#
#
#
# Elastic Compliance Matrix: (Units=1/GPa)
#
#
# Indices 1 2 3 4 5 6 
#
# 1 0.007589 -0.006352 -0.002631 0.001572 -0.000743 0.002222
# 2 -0.006352 0.027632 0.002606 -0.005074 0.004757 -0.012812
# 3 -0.002631 0.002606 0.014230 0.004052 0.007352 -0.002834
# 4 0.001572 -0.005074 0.004052 0.087404 -0.021896 -0.003334
# 5 -0.000743 0.004757 0.007352 -0.021896 0.059480 0.001618
# 6 0.002222 -0.012812 -0.002834 -0.003334 0.001618 0.040173
#
#
# Mechanical properties :
#
#
# Convention : Reuss Voigt Hill
#
# Bulk Modulus (GPa) = 27.25066 50.85409 39.05237
# Shear Modulus (GPa) = 19.12080 28.89474 24.00777
#
# Velocity S-wave (km/s) = 2.99410 3.68063 3.35497
# Velocity P-wave (km/s) = 4.97284 6.47343 5.77211
#
# Compressibility (1/GPa) = 0.03669636
#
# Stress axis : x y z
#
# Youngs Moduli (GPa) = 131.77166 36.18988 70.27223
#
# Poissons Ratio (x) = 0.22987 0.18492
# Poissons Ratio (y) = 0.83697 -0.18310
# Poissons Ratio (z) = 0.34675 -0.09430
#
# Static dielectric constant tensor:
#      x y z
#    x 1.807880 -0.003650 -0.008830 
#    y -0.003650 1.757810 -0.020900 
#    z -0.008830 -0.020900 1.796990 
# 
# From -- ./inp_files/534522.got.cif
#   From: 2010.05.17/outbox.cif.g08.bks.cpg/sg2_268_cif.got.tgz:534522.got - 2010.06.03 11:33:40.
