data_PCOD9096094
_publ_section_title
;
Structure prediction by ZEFSAII (Michael W. Deem and Ramdas Pophale) SiO2 
 PCOD9096094
Probable space group: P -1
;
_chemical_formula_sum "Si O2"
_cell_formula_units_Z 16
_cell_length_a 11.238118
_cell_length_b 5.245314
_cell_length_c 12.482350
_cell_angle_alpha 80.371715
_cell_angle_beta 101.863424
_cell_angle_gamma 114.407052
_cell_volume 652.931647
_symmetry_space_group_name_H-M "P -1"
_symmetry_group_IT_number 2
_symmetry_cell_setting 'triclinic'
loop_
_space_group_symop_operation_xyz
x,y,z
-x,-y,-z
loop_
_atom_site_type_symbol
_atom_site_label
_atom_site_fract_x
_atom_site_fract_y
_atom_site_fract_z
Si Si1 0.077665 0.529915 0.780005
Si Si2 0.644571 0.335636 0.157648
Si Si3 0.631108 0.010808 0.885842
Si Si4 0.364462 0.425588 0.258267
Si Si5 0.074516 0.799994 0.050051
Si Si6 0.358784 0.227108 0.699829
Si Si7 0.890767 0.682656 0.425513
Si Si8 0.901740 0.770230 0.646481
O O1 0.208764 0.575596 0.869046
O O2 0.121433 0.499943 0.669743
O O3 0.952938 0.273564 0.823354
O O4 0.018853 0.767421 0.746313
O O5 0.643378 0.604553 0.202359
O O6 0.509703 0.193053 0.075171
O O7 0.636621 0.071677 0.250440
O O8 0.638375 0.321079 0.836490
O O9 0.771442 0.056556 0.960236
O O10 0.630026 0.832734 0.790628
O O11 0.500959 0.573796 0.338231
O O12 0.233683 0.318086 0.311591
O O13 0.000000 0.500000 0.000000
O O14 0.000000 0.000000 0.000000
O O15 0.230321 0.213534 0.613736
O O16 0.883168 0.571236 0.552439
O O17 0.034697 0.926783 0.416461
#
# Coordination Sequence:
#
# PCOD9096094 Si02
#       8
#     2   2   2   2   2   2   2   2
#     4  11  22  41  63  85 127 161 202 251 311 353
#     4   9  19  35  64  85 113 166 197 241 302 361
#     4  10  20  41  62  88 123 156 203 244 304 359
#     4  10  20  35  62  87 121 170 196 246 298 351
#     4  12  27  42  66  96 120 154 203 254 307 369
#     4   9  18  35  54  87 122 159 209 239 289 351
#     4  10  22  36  59  89 126 163 207 250 292 364
#     4  11  21  35  59  92 122 166 207 245 302 356
#
# _framework density 24.504861999999999
#
# number of rings (size 3 to 8) (size 9 to 14) (size 15 to 20)
#    0.000    1.750    2.500    1.875    1.750    0.500 
#    0.000    1.250    0.000    6.000    0.000    0.000 
#    0.000    0.000    0.000    0.000    0.000    0.000 
#
# Total GULP energy -89299.552039 kJ/mol
# GULP energy per Si atom -5581.222002 kJ/mol
# Density = 2.444909 g / cm^3
# Si number density = 24.504862 Si / 1000 Ang^3
#
#
#
# Elastic Constant Matrix: (Units=GPa)
#
#
# Indices 1 2 3 4 5 6 
#
# 1 146.1590 38.9304 21.4260 4.5734 15.5811 18.5387
# 2 38.9304 94.6600 15.1160 15.2045 2.9336 0.5691
# 3 21.4260 15.1160 41.1988 11.2324 -4.2996 -4.6242
# 4 4.5734 15.2045 11.2324 21.4473 -1.0378 7.7000
# 5 15.5811 2.9336 -4.2996 -1.0378 39.6499 2.1197
# 6 18.5387 0.5691 -4.6242 7.7000 2.1197 56.3336
#
#
#
# Elastic Compliance Matrix: (Units=1/GPa)
#
#
# Indices 1 2 3 4 5 6 
#
# 1 0.009391 -0.003581 -0.005720 0.004804 -0.003704 -0.004041
# 2 -0.003581 0.013603 -0.000254 -0.009583 -0.000002 0.002330
# 3 -0.005720 -0.000254 0.033702 -0.018516 0.005063 0.006992
# 4 0.004804 -0.009583 -0.018516 0.066378 -0.000805 -0.012047
# 5 -0.003704 -0.000002 0.005063 -0.000805 0.027166 0.000722
# 6 -0.004041 0.002330 0.006992 -0.012047 0.000722 0.021251
#
#
# Mechanical properties :
#
#
# Convention : Reuss Voigt Hill
#
# Bulk Modulus (GPa) = 26.60642 48.10695 37.35668
# Shear Modulus (GPa) = 24.61464 37.25584 30.93524
#
# Velocity S-wave (km/s) = 3.17279 3.90339 3.55690
# Velocity P-wave (km/s) = 4.92984 6.32372 5.66978
#
# Compressibility (1/GPa) = 0.03758491
#
# Stress axis : x y z
#
# Youngs Moduli (GPa) = 106.47984 73.51310 29.67204
#
# Poissons Ratio (x) = 0.26328 0.16972
# Poissons Ratio (y) = 0.38135 0.00755
# Poissons Ratio (z) = 0.60905 0.01869
#
# Static dielectric constant tensor:
#      x y z
#    x 2.038280 -0.018820 0.046290 
#    y -0.018820 2.024020 0.069180 
#    z 0.046290 0.069180 2.026040 
# 
# From -- ./inp_files/82845.got.cif
#   From: 2010.05.17/outbox.cif.g08.bks.cpg/sg2_42_cif.got.tgz:82845.got - 2010.06.03 11:33:40.
