data_PCOD9096361
_publ_section_title
;
Structure prediction by ZEFSAII (Michael W. Deem and Ramdas Pophale) SiO2 
 PCOD9096361
Probable space group: P -1
;
_chemical_formula_sum "Si O2"
_cell_formula_units_Z 16
_cell_length_a 7.647174
_cell_length_b 7.752133
_cell_length_c 13.963148
_cell_angle_alpha 81.212481
_cell_angle_beta 53.639482
_cell_angle_gamma 86.654799
_cell_volume 658.234028
_symmetry_space_group_name_H-M "P -1"
_symmetry_group_IT_number 2
_symmetry_cell_setting 'triclinic'
loop_
_space_group_symop_operation_xyz
x,y,z
-x,-y,-z
loop_
_atom_site_type_symbol
_atom_site_label
_atom_site_fract_x
_atom_site_fract_y
_atom_site_fract_z
Si Si1 0.145332 0.671321 0.959305
Si Si2 0.270573 0.267438 0.428217
Si Si3 0.410934 0.502947 0.207473
Si Si4 0.736487 0.112412 0.276752
Si Si5 0.032667 0.967557 0.338050
Si Si6 0.413245 0.817461 0.333909
Si Si7 0.054069 0.665433 0.199184
Si Si8 0.746099 0.446599 0.440925
O O1 0.385840 0.598221 0.886433
O O2 0.147647 0.810051 0.861589
O O3 0.062057 0.733168 0.083255
O O4 0.000000 0.500000 0.000000
O O5 0.255714 0.355015 0.322161
O O6 0.525498 0.225427 0.362196
O O7 0.131467 0.099735 0.520325
O O8 0.177842 0.412248 0.515789
O O9 0.460767 0.655385 0.259303
O O10 0.284833 0.586865 0.155406
O O11 0.909270 0.114370 0.306892
O O12 0.620022 0.923990 0.302846
O O13 0.272677 0.955112 0.307062
O O14 0.033917 0.822708 0.265877
O O15 0.277522 0.730194 0.473770
O O16 0.878158 0.510872 0.298062
O O17 0.500000 0.500000 0.500000
#
# Coordination Sequence:
#
# PCOD9096361 Si02
#       8
#     2   2   2   2   2   2   2   2
#     4  11  26  44  63  88 121 168 215 262 310 367
#     4   9  19  37  60  92 131 160 201 256 311 368
#     4   9  20  41  66  91 123 162 212 260 302 376
#     4  11  24  42  61  89 131 167 205 261 309 373
#     4  10  21  39  63  96 128 164 204 252 317 383
#     4  10  21  40  66  97 127 162 202 257 323 368
#     4  10  21  40  65  93 122 166 212 255 309 365
#     4  10  20  35  69  98 126 163 209 256 308 377
#
# _framework density 24.307466000000002
#
# number of rings (size 3 to 8) (size 9 to 14) (size 15 to 20)
#    0.000    2.000    0.000    3.000    7.000    4.000 
#    6.750    1.250    0.000    0.000    0.000    0.000 
#    0.000    0.000    0.000    0.000    0.000    0.000 
#
# Total GULP energy -89381.487063 kJ/mol
# GULP energy per Si atom -5586.342941 kJ/mol
# Density = 2.425214 g / cm^3
# Si number density = 24.307466 Si / 1000 Ang^3
#
#
#
# Elastic Constant Matrix: (Units=GPa)
#
#
# Indices 1 2 3 4 5 6 
#
# 1 92.6852 4.4109 19.8077 -1.8034 11.1584 -18.8047
# 2 4.4109 81.8904 26.8918 -5.4585 15.1999 5.2874
# 3 19.8077 26.8918 151.8277 -6.5561 15.5604 12.7031
# 4 -1.8034 -5.4585 -6.5561 33.1830 -1.2384 4.7078
# 5 11.1584 15.1999 15.5604 -1.2384 28.4797 -2.3227
# 6 -18.8047 5.2874 12.7031 4.7078 -2.3227 37.1566
#
#
#
# Elastic Compliance Matrix: (Units=1/GPa)
#
#
# Indices 1 2 3 4 5 6 
#
# 1 0.013075 0.000089 -0.001995 -0.000818 -0.003531 0.007169
# 2 0.000089 0.014276 -0.001565 0.002092 -0.006883 -0.002147
# 3 -0.001995 -0.001565 0.007812 0.001615 -0.002895 -0.003843
# 4 -0.000818 0.002092 0.001615 0.031479 -0.000742 -0.005298
# 5 -0.003531 -0.006883 -0.002895 -0.000742 0.041956 0.002899
# 6 0.007169 -0.002147 -0.003843 -0.005298 0.002899 0.033013
#
#
# Mechanical properties :
#
#
# Convention : Reuss Voigt Hill
#
# Bulk Modulus (GPa) = 35.43401 47.62489 41.52945
# Shear Modulus (GPa) = 31.65371 38.11672 34.88522
#
# Velocity S-wave (km/s) = 3.61255 3.96423 3.79247
# Velocity P-wave (km/s) = 5.65771 6.37093 6.02488
#
# Compressibility (1/GPa) = 0.02822147
#
# Stress axis : x y z
#
# Youngs Moduli (GPa) = 76.48139 70.04668 128.01238
#
# Poissons Ratio (x) = -0.00622 0.25536
# Poissons Ratio (y) = -0.00679 0.20031
# Poissons Ratio (z) = 0.15256 0.10961
#
# Static dielectric constant tensor:
#      x y z
#    x 2.174270 -0.001140 -0.141020 
#    y -0.001140 2.087270 0.041740 
#    z -0.141020 0.041740 2.014340 
# 
# From -- ./inp_files/392757.got.cif
#   From: 2010.05.17/outbox.cif.g08.bks.cpg/sg2_197_cif.got.tgz:392757.got - 2010.06.03 11:33:40.
