data_PCOD9096154
_publ_section_title
;
Structure prediction by ZEFSAII (Michael W. Deem and Ramdas Pophale) SiO2 
 PCOD9096154
Probable space group: P -1
;
_chemical_formula_sum "Si O2"
_cell_formula_units_Z 16
_cell_length_a 14.898305
_cell_length_b 17.978913
_cell_length_c 23.325240
_cell_angle_alpha 158.647981
_cell_angle_beta 161.031826
_cell_angle_gamma 28.688811
_cell_volume 739.075747
_symmetry_space_group_name_H-M "P -1"
_symmetry_group_IT_number 2
_symmetry_cell_setting 'triclinic'
loop_
_space_group_symop_operation_xyz
x,y,z
-x,-y,-z
loop_
_atom_site_type_symbol
_atom_site_label
_atom_site_fract_x
_atom_site_fract_y
_atom_site_fract_z
Si Si1 0.495047 0.976650 0.309015
Si Si2 0.438230 0.332479 0.683609
Si Si3 0.937285 0.628932 0.325898
Si Si4 0.471125 0.237010 0.167439
Si Si5 0.841273 0.048870 0.793841
Si Si6 0.214477 0.377854 0.225863
Si Si7 0.519749 0.585767 0.361916
Si Si8 0.837826 0.356361 0.177678
O O1 0.742396 0.820233 0.346034
O O2 0.337770 0.969005 0.269579
O O3 0.593305 0.211121 0.529965
O O4 0.275104 0.876266 0.059832
O O5 0.667915 0.190651 0.748010
O O6 0.532634 0.410216 0.734355
O O7 0.351198 0.510594 0.800500
O O8 0.169200 0.178621 0.401591
O O9 0.822304 0.454532 0.174989
O O10 0.233142 0.694397 0.577875
O O11 0.991396 0.534974 0.228407
O O12 0.245585 0.297143 0.122018
O O13 0.424596 0.377653 0.185207
O O14 0.500000 0.000000 0.000000
O O15 0.133207 0.169816 0.062536
O O16 0.500000 0.500000 0.500000
O O17 0.849809 0.617352 0.593822
#
# Coordination Sequence:
#
# PCOD9096154 Si02
#       8
#     2   2   2   2   2   2   2   2
#     4  11  20  38  64  95 123 159 195 265 321 355
#     4  10  21  35  58  95 128 156 197 257 322 367
#     4  10  20  37  63  92 121 153 212 249 303 370
#     4  10  24  43  64  84 117 172 213 250 296 365
#     4  10  20  35  62  95 124 159 203 257 311 367
#     4  10  21  39  60  89 119 161 218 251 289 362
#     4  10  24  39  55  92 129 158 206 250 310 369
#     4  11  19  35  59  92 129 157 191 244 320 377
#
# _framework density 21.64866
#
# number of rings (size 3 to 8) (size 9 to 14) (size 15 to 20)
#    0.000    1.750    2.500    1.875    3.500    0.000 
#    0.000    4.375    0.000    0.000    0.000    0.000 
#    0.000    0.000    0.000    0.000    0.000    0.000 
#
# Total GULP energy -89330.632436 kJ/mol
# GULP energy per Si atom -5583.164527 kJ/mol
# Density = 2.159939 g / cm^3
# Si number density = 21.648660 Si / 1000 Ang^3
#
#
#
# Elastic Constant Matrix: (Units=GPa)
#
#
# Indices 1 2 3 4 5 6 
#
# 1 121.2313 53.6845 34.3734 31.7119 -11.3620 -15.9457
# 2 53.6845 89.1260 15.5577 27.3162 0.2579 -4.6561
# 3 34.3734 15.5577 80.7639 28.9042 2.9252 -5.8796
# 4 31.7119 27.3162 28.9042 39.1033 -2.8000 4.4569
# 5 -11.3620 0.2579 2.9252 -2.8000 23.0036 4.9855
# 6 -15.9457 -4.6561 -5.8796 4.4569 4.9855 25.5187
#
#
#
# Elastic Compliance Matrix: (Units=1/GPa)
#
#
# Indices 1 2 3 4 5 6 
#
# 1 0.014866 -0.006171 -0.002475 -0.006413 0.005281 0.007681
# 2 -0.006171 0.017822 0.003500 -0.010806 -0.005703 0.003204
# 3 -0.002475 0.003500 0.019396 -0.016198 -0.007398 0.007835
# 4 -0.006413 -0.010806 -0.016198 0.053411 0.010067 -0.021006
# 5 0.005281 -0.005703 -0.007398 0.010067 0.050718 -0.011112
# 6 0.007681 0.003204 0.007835 -0.021006 -0.011112 0.052216
#
#
# Mechanical properties :
#
#
# Convention : Reuss Voigt Hill
#
# Bulk Modulus (GPa) = 23.92763 55.37248 39.65006
# Shear Modulus (GPa) = 21.49132 30.02550 25.75841
#
# Velocity S-wave (km/s) = 3.15418 3.72821 3.45315
# Velocity P-wave (km/s) = 4.93375 6.64576 5.85269
#
# Compressibility (1/GPa) = 0.04179268
#
# Stress axis : x y z
#
# Youngs Moduli (GPa) = 67.26807 56.11074 51.55606
#
# Poissons Ratio (x) = 0.34625 0.12762
# Poissons Ratio (y) = 0.41510 -0.18047
# Poissons Ratio (z) = 0.16651 -0.19641
#
# Static dielectric constant tensor:
#      x y z
#    x 1.785510 0.014730 -0.007160 
#    y 0.014730 1.794080 -0.023280 
#    z -0.007160 -0.023280 1.893440 
# 
# From -- ./inp_files/185972.got.cif
#   From: 2010.05.17/outbox.cif.g08.bks.cpg/sg2_93_cif.got.tgz:185972.got - 2010.06.03 11:33:40.
