data_PCOD9096487
_publ_section_title
;
Structure prediction by ZEFSAII (Michael W. Deem and Ramdas Pophale) SiO2 
 PCOD9096487
Probable space group: P -1
;
_chemical_formula_sum "Si O2"
_cell_formula_units_Z 16
_cell_length_a 10.848645
_cell_length_b 16.621008
_cell_length_c 10.946509
_cell_angle_alpha 64.487273
_cell_angle_beta 67.138235
_cell_angle_gamma 20.768434
_cell_volume 631.030878
_symmetry_space_group_name_H-M "P -1"
_symmetry_group_IT_number 2
_symmetry_cell_setting 'triclinic'
loop_
_space_group_symop_operation_xyz
x,y,z
-x,-y,-z
loop_
_atom_site_type_symbol
_atom_site_label
_atom_site_fract_x
_atom_site_fract_y
_atom_site_fract_z
Si Si1 0.657862 0.926617 0.278833
Si Si2 0.173623 0.299658 0.432084
Si Si3 0.851003 0.216152 0.812965
Si Si4 0.158237 0.419405 0.827610
Si Si5 0.722888 0.538370 0.012485
Si Si6 0.269813 0.057218 0.135737
Si Si7 0.734241 0.284438 0.358427
Si Si8 0.783800 0.064989 0.379932
O O1 0.891316 0.722668 0.413275
O O2 0.510956 0.963848 0.197384
O O3 0.867496 0.884892 0.185122
O O4 0.344860 0.142790 0.352601
O O5 0.841863 0.548408 0.333147
O O6 0.470294 0.187393 0.427374
O O7 0.649935 0.279033 0.947670
O O8 0.556903 0.459944 0.702843
O O9 0.045518 0.038957 0.751627
O O10 0.179691 0.485357 0.873577
O O11 0.478581 0.157059 0.902815
O O12 0.812659 0.570683 0.878021
O O13 0.993633 0.295147 0.028807
O O14 0.043718 0.130822 0.256127
O O15 0.904103 0.159239 0.505283
O O16 0.642594 0.246933 0.356828
#
# Coordination Sequence:
#
# PCOD9096487 Si02
#       8
#     2   2   2   2   2   2   2   2
#     4  10  21  38  60  95 123 156 193 241 313 358
#     4  10  21  38  61  89 128 158 190 249 298 365
#     4  10  22  37  61  82 122 157 193 243 299 346
#     4  11  23  39  68  85 117 163 205 245 299 344
#     4  10  23  44  61  89 116 157 213 250 283 353
#     4  11  21  39  64  89 120 156 200 252 295 356
#     4  10  21  35  57  87 120 154 194 243 291 361
#     4  10  20  36  55  88 122 154 194 239 299 355
#
# _framework density 25.355336000000001
#
# number of rings (size 3 to 8) (size 9 to 14) (size 15 to 20)
#    0.000    1.750    2.500    1.500    1.750    3.500 
#    0.000    3.125    2.750    0.000    0.000    0.000 
#    0.000    0.000    0.000    0.000    0.000    0.000 
#
# Total GULP energy -89607.295909 kJ/mol
# GULP energy per Si atom -5600.455994 kJ/mol
# Density = 2.529763 g / cm^3
# Si number density = 25.355336 Si / 1000 Ang^3
#
#
#
# Elastic Constant Matrix: (Units=GPa)
#
#
# Indices 1 2 3 4 5 6 
#
# 1 73.9614 20.8452 18.7843 6.6644 -8.1993 7.0305
# 2 20.8452 110.9891 20.7704 -5.2140 -1.1293 6.9307
# 3 18.7843 20.7704 71.4727 -1.9619 -16.3943 -8.2859
# 4 6.6644 -5.2140 -1.9619 33.5793 -7.1069 -9.7546
# 5 -8.1993 -1.1293 -16.3943 -7.1069 29.2375 9.7804
# 6 7.0305 6.9307 -8.2859 -9.7546 9.7804 24.2325
#
#
#
# Elastic Compliance Matrix: (Units=1/GPa)
#
#
# Indices 1 2 3 4 5 6 
#
# 1 0.017125 -0.002036 -0.004259 -0.005960 0.004213 -0.009942
# 2 -0.002036 0.010125 -0.002843 0.000900 -0.000671 -0.002644
# 3 -0.004259 -0.002843 0.018788 0.005350 0.008066 0.007372
# 4 -0.005960 0.000900 0.005350 0.037192 0.004961 0.016270
# 5 0.004213 -0.000671 0.008066 0.004961 0.046059 -0.014865
# 6 -0.009942 -0.002644 0.007372 0.016270 -0.014865 0.059978
#
#
# Mechanical properties :
#
#
# Convention : Reuss Voigt Hill
#
# Bulk Modulus (GPa) = 36.01932 41.91367 38.96649
# Shear Modulus (GPa) = 23.06305 30.47807 26.77056
#
# Velocity S-wave (km/s) = 3.01922 3.47080 3.25286
# Velocity P-wave (km/s) = 5.13721 5.71212 5.43228
#
# Compressibility (1/GPa) = 0.02776288
#
# Stress axis : x y z
#
# Youngs Moduli (GPa) = 58.39372 98.76708 53.22421
#
# Poissons Ratio (x) = 0.20105 0.22669
# Poissons Ratio (y) = 0.11886 0.15132
# Poissons Ratio (z) = 0.24871 0.28080
#
# Static dielectric constant tensor:
#      x y z
#    x 1.939260 0.001970 -0.031840 
#    y 0.001970 2.038050 -0.032190 
#    z -0.031840 -0.032190 1.968680 
# 
# From -- ./inp_files/238954.got.cif
#   From: 2010.05.17/outbox.cif.g08.bks.cpg/sg2_120_cif.got.tgz:238954.got - 2010.06.03 11:33:40.
