data_PCOD9096397
_publ_section_title
;
Structure prediction by ZEFSAII (Michael W. Deem and Ramdas Pophale) SiO2 
 PCOD9096397
Probable space group: P -1
;
_chemical_formula_sum "Si O2"
_cell_formula_units_Z 14
_cell_length_a 12.179892
_cell_length_b 12.212394
_cell_length_c 5.025835
_cell_angle_alpha 99.429320
_cell_angle_beta 103.179769
_cell_angle_gamma 86.167126
_cell_volume 717.706294
_symmetry_space_group_name_H-M "P -1"
_symmetry_group_IT_number 2
_symmetry_cell_setting 'triclinic'
loop_
_space_group_symop_operation_xyz
x,y,z
-x,-y,-z
loop_
_atom_site_type_symbol
_atom_site_label
_atom_site_fract_x
_atom_site_fract_y
_atom_site_fract_z
Si Si1 0.185849 0.982816 0.491742
Si Si2 0.536391 0.703094 0.941717
Si Si3 0.169093 0.762305 0.129474
Si Si4 0.435476 0.051896 0.740270
Si Si5 0.716487 0.348239 0.348948
Si Si6 0.597998 0.571393 0.448621
Si Si7 0.008355 0.891510 0.778122
O O1 0.306741 0.016245 0.667110
O O2 0.113421 0.094893 0.422050
O O3 0.208445 0.889715 0.237816
O O4 0.105014 0.917065 0.624702
O O5 0.558525 0.817163 0.150547
O O6 0.555820 0.615001 0.156568
O O7 0.409162 0.702779 0.750256
O O8 0.613758 0.668027 0.715634
O O9 0.201808 0.702439 0.398742
O O10 0.233629 0.689140 0.918699
O O11 0.044834 0.788274 0.943873
O O12 0.500000 0.000000 0.500000
O O13 0.500000 0.000000 0.000000
O O14 0.698355 0.480309 0.427712
O O15 0.500000 0.500000 0.500000
O O16 0.000000 0.000000 0.000000
#
# Coordination Sequence:
#
# PCOD9096397 Si02
#       7
#     2   2   2   2   2   2   2
#     4  10  21  39  56  84 121 155 195 232 281 348
#     4  11  21  37  52  79 115 157 193 223 282 355
#     4  11  19  32  53  86 110 139 181 242 292 325
#     4  12  26  39  57  88 124 165 187 224 282 358
#     4  11  19  31  55  80 112 143 183 247 286 328
#     4  10  20  36  54  76 108 153 198 237 282 336
#     4   9  20  36  60  80 116 151 198 244 281 329
#
# _framework density 19.506585000000001
#
# number of rings (size 3 to 8) (size 9 to 14) (size 15 to 20)
#    0.000    1.429    1.429    6.857    4.000    0.000 
#    0.000    0.000    0.000    0.000    0.000    6.000 
#    0.000    0.000    0.000    0.000    0.000    0.000 
#
# Total GULP energy -77959.781132 kJ/mol
# GULP energy per Si atom -5568.555795 kJ/mol
# Density = 1.946219 g / cm^3
# Si number density = 19.506585 Si / 1000 Ang^3
#
#
#
# Elastic Constant Matrix: (Units=GPa)
#
#
# Indices 1 2 3 4 5 6 
#
# 1 76.1417 24.9193 38.4190 -0.3033 12.4477 -22.6565
# 2 24.9193 95.2101 39.6069 2.0164 2.2997 -25.4012
# 3 38.4190 39.6069 128.5826 -1.2275 -7.0613 -14.1022
# 4 -0.3033 2.0164 -1.2275 51.2323 -20.0619 -2.5864
# 5 12.4477 2.2997 -7.0613 -20.0619 34.2516 2.9626
# 6 -22.6565 -25.4012 -14.1022 -2.5864 2.9626 20.7895
#
#
#
# Elastic Compliance Matrix: (Units=1/GPa)
#
#
# Indices 1 2 3 4 5 6 
#
# 1 0.028368 0.005427 -0.007446 -0.005752 -0.018556 0.034424
# 2 0.005427 0.018204 -0.004877 -0.002621 -0.007954 0.025655
# 3 -0.007446 -0.004877 0.011169 0.003095 0.007773 -0.007220
# 4 -0.005752 -0.002621 0.003095 0.026844 0.019213 -0.006770
# 5 -0.018556 -0.007954 0.007773 0.019213 0.051896 -0.029673
# 6 0.034424 0.025655 -0.007220 -0.006770 -0.029673 0.115452
#
#
# Mechanical properties :
#
#
# Convention : Reuss Voigt Hill
#
# Bulk Modulus (GPa) = 22.75393 56.20275 39.47834
# Shear Modulus (GPa) = 17.83327 34.38729 26.11028
#
# Velocity S-wave (km/s) = 3.02688 4.20319 3.66257
# Velocity P-wave (km/s) = 4.88939 7.24089 6.17805
#
# Compressibility (1/GPa) = 0.04394844
#
# Stress axis : x y z
#
# Youngs Moduli (GPa) = 35.25062 54.93387 89.53591
#
# Poissons Ratio (x) = -0.29812 0.66671
# Poissons Ratio (y) = -0.19130 0.43665
# Poissons Ratio (z) = 0.26248 0.26790
#
# Static dielectric constant tensor:
#      x y z
#    x 1.701920 -0.003470 0.021480 
#    y -0.003470 1.668790 -0.025510 
#    z 0.021480 -0.025510 1.780530 
# 
# From -- ./inp_files/64711.got.cif
#   From: 2010.05.17/outbox.cif.g08.bks.cpg/sg2_33_cif.got.tgz:64711.got - 2010.06.03 11:33:40.
