data_PCOD9096423
_publ_section_title
;
Structure prediction by ZEFSAII (Michael W. Deem and Ramdas Pophale) SiO2 
 PCOD9096423
Probable space group: P -1
;
_chemical_formula_sum "Si O2"
_cell_formula_units_Z 16
_cell_length_a 8.835536
_cell_length_b 14.030134
_cell_length_c 12.882257
_cell_angle_alpha 139.997644
_cell_angle_beta 102.115994
_cell_angle_gamma 55.037638
_cell_volume 757.586253
_symmetry_space_group_name_H-M "P -1"
_symmetry_group_IT_number 2
_symmetry_cell_setting 'triclinic'
loop_
_space_group_symop_operation_xyz
x,y,z
-x,-y,-z
loop_
_atom_site_type_symbol
_atom_site_label
_atom_site_fract_x
_atom_site_fract_y
_atom_site_fract_z
Si Si1 0.217620 0.437282 0.677255
Si Si2 0.953067 0.475657 0.858597
Si Si3 0.567481 0.645883 0.700848
Si Si4 0.386087 0.828950 0.611281
Si Si5 0.152161 0.765464 0.825536
Si Si6 0.082203 0.766771 0.480413
Si Si7 0.585074 0.878102 0.050096
Si Si8 0.863775 0.795486 0.649601
O O1 0.458308 0.257029 0.535415
O O2 0.174407 0.637846 0.817979
O O3 0.120250 0.384823 0.534864
O O4 0.115474 0.447989 0.778335
O O5 0.956802 0.297405 0.684774
O O6 0.725114 0.675259 0.964607
O O7 0.000000 0.500000 0.000000
O O8 0.518687 0.669781 0.591387
O O9 0.367880 0.702393 0.774288
O O10 0.756339 0.437185 0.601298
O O11 0.593922 0.799841 0.871277
O O12 0.192251 0.854814 0.570435
O O13 0.323366 0.020345 0.819180
O O14 0.045598 0.728929 0.694572
O O15 0.000000 0.000000 0.000000
O O16 0.882639 0.882474 0.620534
O O17 0.351415 0.036711 0.186452
#
# Coordination Sequence:
#
# PCOD9096423 Si02
#       8
#     2   2   2   2   2   2   2   2
#     4  10  23  38  58  85 120 157 201 235 287 347
#     4  10  24  47  65  78 108 155 205 258 303 337
#     4  11  20  34  54  90 131 167 181 221 283 358
#     4  11  20  36  59  92 127 152 190 231 289 357
#     4  12  21  31  56  92 131 160 192 221 280 351
#     4  10  20  37  62  85 119 159 196 236 289 351
#     4  10  23  37  58  87 118 156 200 242 283 346
#     4  10  20  36  54  89 123 161 188 232 285 354
#
# _framework density 21.119706999999998
#
# number of rings (size 3 to 8) (size 9 to 14) (size 15 to 20)
#    0.000    1.500    3.750    1.875    1.750    5.000 
#    0.000    6.875    0.000    0.000    0.000    0.000 
#    0.000    0.000    0.000    0.000    0.000    0.000 
#
# Total GULP energy -89252.025478 kJ/mol
# GULP energy per Si atom -5578.251592 kJ/mol
# Density = 2.107164 g / cm^3
# Si number density = 21.119707 Si / 1000 Ang^3
#
#
#
# Elastic Constant Matrix: (Units=GPa)
#
#
# Indices 1 2 3 4 5 6 
#
# 1 115.6151 4.4984 47.6523 -6.9776 13.0799 5.5846
# 2 4.4984 15.7507 20.2042 -13.9154 -1.2536 -2.4068
# 3 47.6523 20.2042 104.9175 -15.8010 6.9645 8.0141
# 4 -6.9776 -13.9154 -15.8010 34.7527 -1.4239 6.4221
# 5 13.0799 -1.2536 6.9645 -1.4239 42.4307 3.5107
# 6 5.5846 -2.4068 8.0141 6.4221 3.5107 15.8018
#
#
#
# Elastic Compliance Matrix: (Units=1/GPa)
#
#
# Indices 1 2 3 4 5 6 
#
# 1 0.011156 0.005437 -0.005648 0.001850 -0.002248 -0.000503
# 2 0.005437 0.128838 -0.022420 0.040682 0.006253 0.011149
# 3 -0.005648 -0.022420 0.017128 -0.000578 -0.000953 -0.009659
# 4 0.001850 0.040682 -0.000578 0.047989 0.003533 -0.014453
# 5 -0.002248 0.006253 -0.000953 0.003533 0.025116 -0.004786
# 6 -0.000503 0.011149 -0.009659 -0.014453 -0.004786 0.076995
#
#
# Mechanical properties :
#
#
# Convention : Reuss Voigt Hill
#
# Bulk Modulus (GPa) = 8.93968 42.33256 25.63612
# Shear Modulus (GPa) = 12.82807 29.52561 21.17684
#
# Velocity S-wave (km/s) = 2.46722 3.74306 3.16999
# Velocity P-wave (km/s) = 3.51543 6.22642 5.05601
#
# Compressibility (1/GPa) = 0.11186082
#
# Stress axis : x y z
#
# Youngs Moduli (GPa) = 89.63942 7.76167 58.38429
#
# Poissons Ratio (x) = -0.04220 0.32973
# Poissons Ratio (y) = -0.48737 1.30897
# Poissons Ratio (z) = 0.50625 0.17402
#
# Static dielectric constant tensor:
#      x y z
#    x 1.819920 0.040490 0.018200 
#    y 0.040490 1.784750 0.035310 
#    z 0.018200 0.035310 1.836790 
# 
# From -- ./inp_files/176129.got.cif
#   From: 2010.05.17/outbox.cif.g08.bks.cpg/sg2_89_cif.got.tgz:176129.got - 2010.06.03 11:33:40.
