data_PCOD9096731
_publ_section_title
;
Structure prediction by ZEFSAII (Michael W. Deem and Ramdas Pophale) SiO2 
 PCOD9096731
Probable space group: P -1
;
_chemical_formula_sum "Si O2"
_cell_formula_units_Z 16
_cell_length_a 11.486471
_cell_length_b 8.915709
_cell_length_c 13.509848
_cell_angle_alpha 61.685482
_cell_angle_beta 108.960220
_cell_angle_gamma 143.980832
_cell_volume 711.637147
_symmetry_space_group_name_H-M "P -1"
_symmetry_group_IT_number 2
_symmetry_cell_setting 'triclinic'
loop_
_space_group_symop_operation_xyz
x,y,z
-x,-y,-z
loop_
_atom_site_type_symbol
_atom_site_label
_atom_site_fract_x
_atom_site_fract_y
_atom_site_fract_z
Si Si1 0.888709 0.089724 0.244598
Si Si2 0.487162 0.652964 0.376253
Si Si3 0.323884 0.951325 0.524491
Si Si4 0.974045 0.498831 0.273609
Si Si5 0.356469 0.094290 0.275020
Si Si6 0.759710 0.575356 0.114048
Si Si7 0.114786 0.163952 0.135442
Si Si8 0.896750 0.933261 0.594246
O O1 0.968389 0.308958 0.279823
O O2 0.024785 0.238401 0.138122
O O3 0.931924 0.934991 0.324919
O O4 0.654117 0.848416 0.275950
O O5 0.500000 0.500000 0.500000
O O6 0.281652 0.397389 0.345112
O O7 0.525141 0.842339 0.408038
O O8 0.163591 0.645042 0.619828
O O9 0.413221 0.056966 0.405503
O O10 0.182623 0.965072 0.468460
O O11 0.864892 0.505788 0.165440
O O12 0.192390 0.799509 0.267598
O O13 0.552222 0.337105 0.188680
O O14 0.242096 0.155093 0.232492
O O15 0.745539 0.630936 0.982147
O O16 0.919320 0.863428 0.127571
O O17 0.000000 0.000000 0.500000
#
# Coordination Sequence:
#
# PCOD9096731 Si02
#       8
#     2   2   2   2   2   2   2   2
#     4  11  21  37  62  86 118 155 198 244 293 344
#     4   9  19  30  50  89 123 145 188 237 290 346
#     4  10  20  36  57  89 120 155 194 229 296 355
#     4  10  23  40  55  91 126 155 186 238 306 355
#     4  11  22  40  64  85 121 157 199 238 295 356
#     4  10  24  43  60  86 119 154 200 249 293 345
#     4  10  23  42  66  86 109 156 208 252 287 335
#     4  11  18  33  55  87 124 153 189 245 285 341
#
# _framework density 22.483369
#
# number of rings (size 3 to 8) (size 9 to 14) (size 15 to 20)
#    0.000    1.750    5.000    0.750    3.500    3.000 
#    0.000    0.625    0.000    0.000    0.000    0.000 
#    0.000    0.000    0.000    0.000    0.000    0.000 
#
# Total GULP energy -89082.435335 kJ/mol
# GULP energy per Si atom -5567.652208 kJ/mol
# Density = 2.243220 g / cm^3
# Si number density = 22.483369 Si / 1000 Ang^3
#
#
#
# Elastic Constant Matrix: (Units=GPa)
#
#
# Indices 1 2 3 4 5 6 
#
# 1 62.9507 22.6283 17.5757 -5.3898 -21.2571 -5.2680
# 2 22.6283 67.7832 36.8132 -19.6822 -20.7426 9.2565
# 3 17.5757 36.8132 103.1930 -7.0936 -18.8052 3.7029
# 4 -5.3898 -19.6822 -7.0936 31.8029 11.4993 -6.3309
# 5 -21.2571 -20.7426 -18.8052 11.4993 46.8288 -1.3588
# 6 -5.2680 9.2565 3.7029 -6.3309 -1.3588 22.0222
#
#
#
# Elastic Compliance Matrix: (Units=1/GPa)
#
#
# Indices 1 2 3 4 5 6 
#
# 1 0.021187 -0.006011 -0.000503 -0.001342 0.007307 0.007745
# 2 -0.006011 0.025332 -0.006446 0.010557 0.003085 -0.007776
# 3 -0.000503 -0.006446 0.012365 -0.002185 0.002420 0.000031
# 4 -0.001342 0.010557 -0.002185 0.041077 -0.006694 0.007005
# 5 0.007307 0.003085 0.002420 -0.006694 0.028650 -0.000112
# 6 0.007745 -0.007776 0.000031 0.007005 -0.000112 0.052531
#
#
# Mechanical properties :
#
#
# Convention : Reuss Voigt Hill
#
# Bulk Modulus (GPa) = 30.33529 43.10683 36.72106
# Shear Modulus (GPa) = 22.93023 30.59143 26.76083
#
# Velocity S-wave (km/s) = 3.19701 3.69267 3.45374
# Velocity P-wave (km/s) = 5.21052 6.11518 5.68088
#
# Compressibility (1/GPa) = 0.03296491
#
# Stress axis : x y z
#
# Youngs Moduli (GPa) = 47.19799 39.47531 80.87064
#
# Poissons Ratio (x) = 0.23729 0.04065
# Poissons Ratio (y) = 0.28372 0.52131
# Poissons Ratio (z) = 0.02373 0.25447
#
# Static dielectric constant tensor:
#      x y z
#    x 2.221880 -0.082840 -1.123370 
#    y -0.082840 1.852300 0.266460 
#    z -1.123370 0.266460 6.184970 
# 
# From -- ./inp_files/514116.got.cif
#   From: 2010.05.17/outbox.cif.g08.bks.cpg/sg2_258_cif.got.tgz:514116.got - 2010.06.03 11:33:40.
