data_PCOD9096964
_publ_section_title
;
Structure prediction by ZEFSAII (Michael W. Deem and Ramdas Pophale) SiO2 
 PCOD9096964
Probable space group: P -1
;
_chemical_formula_sum "Si O2"
_cell_formula_units_Z 16
_cell_length_a 5.067672
_cell_length_b 14.170198
_cell_length_c 11.935794
_cell_angle_alpha 96.797743
_cell_angle_beta 83.131183
_cell_angle_gamma 52.402760
_cell_volume 653.981265
_symmetry_space_group_name_H-M "P -1"
_symmetry_group_IT_number 2
_symmetry_cell_setting 'triclinic'
loop_
_space_group_symop_operation_xyz
x,y,z
-x,-y,-z
loop_
_atom_site_type_symbol
_atom_site_label
_atom_site_fract_x
_atom_site_fract_y
_atom_site_fract_z
Si Si1 0.669468 0.066445 0.263810
Si Si2 0.673923 0.528270 0.904778
Si Si3 0.451286 0.632997 0.465587
Si Si4 0.405656 0.289359 0.908789
Si Si5 0.665429 0.012261 0.883585
Si Si6 0.409594 0.910536 0.494435
Si Si7 0.756868 0.181974 0.671924
Si Si8 0.757358 0.515001 0.644862
O O1 0.920052 0.064043 0.161832
O O2 0.949263 0.943074 0.301047
O O3 0.426795 0.044691 0.214438
O O4 0.498586 0.151810 0.395935
O O5 0.603200 0.537965 0.778720
O O6 0.057642 0.405052 0.887102
O O7 0.500000 0.500000 0.000000
O O8 0.586266 0.655111 0.968078
O O9 0.214973 0.761938 0.432277
O O10 0.517377 0.633271 0.593561
O O11 0.269428 0.576481 0.435192
O O12 0.842038 0.545422 0.382155
O O13 0.484381 0.158454 0.900458
O O14 0.657949 0.268371 0.795310
O O15 0.500000 0.000000 0.000000
O O16 0.533865 0.825523 0.364510
O O17 0.500000 0.000000 0.500000
O O18 0.000000 0.000000 0.500000
#
# Coordination Sequence:
#
# PCOD9096964 Si02
#       8
#     2   2   2   2   2   2   2   2
#     4  10  22  39  65  92 126 163 216 269 321 386
#     4  11  23  39  64  92 133 167 219 274 309 382
#     4  10  21  38  61  89 117 163 200 256 312 381
#     4  10  23  39  61  96 119 173 217 264 322 380
#     4  11  24  44  66  92 131 176 215 267 323 392
#     4  10  20  36  58  91 123 153 195 267 319 365
#     4  10  20  38  65  90 122 158 220 254 321 383
#     4  10  22  39  59  84 128 157 203 252 321 365
#
# _framework density 24.465534000000002
#
# number of rings (size 3 to 8) (size 9 to 14) (size 15 to 20)
#    0.000    1.750    1.250    3.375    7.000    2.000 
#    2.250    0.000    0.000    0.000    0.000    0.000 
#    0.000    0.000    0.000    0.000    0.000    0.000 
#
# Total GULP energy -89071.166137 kJ/mol
# GULP energy per Si atom -5566.947884 kJ/mol
# Density = 2.440985 g / cm^3
# Si number density = 24.465534 Si / 1000 Ang^3
#
#
#
# Elastic Constant Matrix: (Units=GPa)
#
#
# Indices 1 2 3 4 5 6 
#
# 1 85.9982 11.0266 2.9228 4.5736 -0.9943 19.8025
# 2 11.0266 79.3668 25.7265 -13.3780 4.5362 21.6159
# 3 2.9228 25.7265 140.5141 -21.1983 -3.4877 3.4486
# 4 4.5736 -13.3780 -21.1983 34.0123 4.6769 -2.5865
# 5 -0.9943 4.5362 -3.4877 4.6769 36.4368 -4.2375
# 6 19.8025 21.6159 3.4486 -2.5865 -4.2375 28.4936
#
#
#
# Elastic Compliance Matrix: (Units=1/GPa)
#
#
# Indices 1 2 3 4 5 6 
#
# 1 0.014143 0.000701 -0.000587 -0.002712 -0.000646 -0.010632
# 2 0.000701 0.018329 -0.002350 0.005223 -0.004827 -0.014351
# 3 -0.000587 -0.002350 0.008182 0.004285 0.000707 0.001694
# 4 -0.002712 0.005223 0.004285 0.035147 -0.004840 -0.000126
# 5 -0.000646 -0.004827 0.000707 -0.004840 0.029647 0.007995
# 6 -0.010632 -0.014351 0.001694 -0.000126 0.007995 0.054344
#
#
# Mechanical properties :
#
#
# Convention : Reuss Voigt Hill
#
# Bulk Modulus (GPa) = 27.63817 42.80342 35.22079
# Shear Modulus (GPa) = 28.35686 37.53542 32.94614
#
# Velocity S-wave (km/s) = 3.40818 3.92116 3.67363
# Velocity P-wave (km/s) = 5.17773 6.16717 5.69398
#
# Compressibility (1/GPa) = 0.03618185
#
# Stress axis : x y z
#
# Youngs Moduli (GPa) = 70.70546 54.55853 122.22448
#
# Poissons Ratio (x) = -0.03823 0.07170
# Poissons Ratio (y) = -0.04955 0.28724
# Poissons Ratio (z) = 0.04148 0.12822
#
# Static dielectric constant tensor:
#      x y z
#    x 1.981750 0.079520 0.064690 
#    y 0.079520 2.186960 0.142420 
#    z 0.064690 0.142420 1.936870 
# 
# From -- ./inp_files/367816.got.cif
#   From: 2010.05.17/outbox.cif.g08.bks.cpg/sg2_184_cif.got.tgz:367816.got - 2010.06.03 11:33:40.
