data_PCOD9096018
_publ_section_title
;
Structure prediction by ZEFSAII (Michael W. Deem and Ramdas Pophale) SiO2 
 PCOD9096018
Probable space group: P -1
;
_chemical_formula_sum "Si O2"
_cell_formula_units_Z 14
_cell_length_a 10.292830
_cell_length_b 8.976623
_cell_length_c 7.393000
_cell_angle_alpha 110.545983
_cell_angle_beta 101.579395
_cell_angle_gamma 113.713615
_cell_volume 537.045566
_symmetry_space_group_name_H-M "P -1"
_symmetry_group_IT_number 2
_symmetry_cell_setting 'triclinic'
loop_
_space_group_symop_operation_xyz
x,y,z
-x,-y,-z
loop_
_atom_site_type_symbol
_atom_site_label
_atom_site_fract_x
_atom_site_fract_y
_atom_site_fract_z
Si Si1 0.548985 0.130946 0.792422
Si Si2 0.734815 0.643152 0.729798
Si Si3 0.049619 0.086276 0.845937
Si Si4 0.771814 0.324149 0.220772
Si Si5 0.876228 0.284568 0.878580
Si Si6 0.453720 0.223451 0.476767
Si Si7 0.988453 0.713538 0.550200
O O1 0.706486 0.238821 0.757733
O O2 0.429730 0.157295 0.651155
O O3 0.514728 0.921772 0.684654
O O4 0.599477 0.227716 0.045382
O O5 0.594390 0.433947 0.597456
O O6 0.685241 0.765914 0.649792
O O7 0.877146 0.646888 0.669704
O O8 0.786264 0.731370 0.980521
O O9 0.941358 0.160586 0.774067
O O10 0.042451 0.928192 0.652217
O O11 0.000000 0.000000 0.000000
O O12 0.863725 0.546693 0.315779
O O13 0.856059 0.299348 0.407903
O O14 0.834124 0.231933 0.055372
O O15 0.000000 0.500000 0.000000
#
# Coordination Sequence:
#
# PCOD9096018 Si02
#       7
#     2   2   2   2   2   2   2
#     4   9  18  32  48  71 102 127 163 203 245 293
#     4  10  18  30  50  77  98 126 174 206 232 293
#     4  10  16  30  53  77  96 124 167 208 247 291
#     4   9  19  32  52  76 103 128 158 209 265 293
#     4  10  18  31  54  76  99 125 163 213 253 288
#     4  10  19  30  50  74  96 134 172 202 234 282
#     4  10  18  32  53  77 101 131 159 208 263 297
#
# _framework density 26.068549999999998
#
# number of rings (size 3 to 8) (size 9 to 14) (size 15 to 20)
#    0.857    1.429    2.857    3.429    0.000    0.000 
#    0.000    2.143    0.000    0.000    0.000    0.000 
#    0.000    0.000    0.000    0.000    0.000    0.000 
#
# Total GULP energy -77948.821118 kJ/mol
# GULP energy per Si atom -5567.772937 kJ/mol
# Density = 2.600922 g / cm^3
# Si number density = 26.068550 Si / 1000 Ang^3
#
#
#
# Elastic Constant Matrix: (Units=GPa)
#
#
# Indices 1 2 3 4 5 6 
#
# 1 32.2628 19.2814 10.7492 -4.0840 -2.2917 -9.9715
# 2 19.2814 116.5157 41.5612 10.6507 2.5711 -27.1455
# 3 10.7492 41.5612 161.8729 31.0345 0.3147 -10.4690
# 4 -4.0840 10.6507 31.0345 55.6029 -7.0130 6.7451
# 5 -2.2917 2.5711 0.3147 -7.0130 34.1557 -0.2559
# 6 -9.9715 -27.1455 -10.4690 6.7451 -0.2559 39.4975
#
#
#
# Elastic Compliance Matrix: (Units=1/GPa)
#
#
# Indices 1 2 3 4 5 6 
#
# 1 0.036792 -0.004853 -0.001766 0.004524 0.003814 0.004738
# 2 -0.004853 0.011921 -0.001765 -0.002714 -0.001712 0.006952
# 3 -0.001766 -0.001765 0.007647 -0.004311 -0.000933 0.001098
# 4 0.004524 -0.002714 -0.004311 0.022581 0.005141 -0.005689
# 5 0.003814 -0.001712 -0.000933 0.005141 0.030718 -0.001140
# 6 0.004738 0.006952 0.001098 -0.005689 -0.001140 0.032547
#
#
# Mechanical properties :
#
#
# Convention : Reuss Voigt Hill
#
# Bulk Modulus (GPa) = 25.25682 50.42611 37.84146
# Shear Modulus (GPa) = 29.04088 41.78853 35.41471
#
# Velocity S-wave (km/s) = 3.34131 4.00812 3.68981
# Velocity P-wave (km/s) = 4.95938 6.38794 5.71844
#
# Compressibility (1/GPa) = 0.03959327
#
# Stress axis : x y z
#
# Youngs Moduli (GPa) = 27.18010 83.88744 130.76228
#
# Poissons Ratio (x) = 0.40707 0.23087
# Poissons Ratio (y) = 0.13189 0.23082
# Poissons Ratio (z) = 0.04799 0.14808
#
# Static dielectric constant tensor:
#      x y z
#    x 2.104500 0.077450 0.055980 
#    y 0.077450 2.137750 -0.086940 
#    z 0.055980 -0.086940 2.246540 
# 
# From -- ./inp_files/443485.got.cif
#   From: 2010.05.17/outbox.cif.g08.bks.cpg/sg2_222_cif.got.tgz:443485.got - 2010.06.03 11:33:40.
