data_PCOD9096264
_publ_section_title
;
Structure prediction by ZEFSAII (Michael W. Deem and Ramdas Pophale) SiO2 
 PCOD9096264
Probable space group: P -1
;
_chemical_formula_sum "Si O2"
_cell_formula_units_Z 14
_cell_length_a 29.963550
_cell_length_b 9.097546
_cell_length_c 24.619720
_cell_angle_alpha 146.375725
_cell_angle_beta 170.810190
_cell_angle_gamma 33.811312
_cell_volume 590.516216
_symmetry_space_group_name_H-M "P -1"
_symmetry_group_IT_number 2
_symmetry_cell_setting 'triclinic'
loop_
_space_group_symop_operation_xyz
x,y,z
-x,-y,-z
loop_
_atom_site_type_symbol
_atom_site_label
_atom_site_fract_x
_atom_site_fract_y
_atom_site_fract_z
Si Si1 0.483305 0.369034 0.381228
Si Si2 0.900526 0.221345 0.672805
Si Si3 0.392800 0.567023 0.217170
Si Si4 0.538151 0.648211 0.146765
Si Si5 0.016142 0.994328 0.178032
Si Si6 0.241238 0.247102 0.717956
Si Si7 0.052206 0.062396 0.645496
O O1 0.500000 0.500000 0.500000
O O2 0.495360 0.546482 0.396320
O O3 0.752635 0.150860 0.629507
O O4 0.169501 0.273994 0.976718
O O5 0.644592 0.452193 0.444065
O O6 0.014365 0.176705 0.857344
O O7 0.781144 0.961103 0.422555
O O8 0.262666 0.863175 0.138605
O O9 0.156487 0.356294 0.864026
O O10 0.829331 0.761884 0.537532
O O11 0.500000 0.500000 0.000000
O O12 0.500722 0.425731 0.079268
O O13 0.309566 0.900114 0.939191
O O14 0.000000 0.500000 0.500000
O O15 0.197663 0.070461 0.664112
O O16 0.000000 0.000000 0.500000
#
# Coordination Sequence:
#
# PCOD9096264 Si02
#       7
#     2   2   2   2   2   2   2
#     4  11  25  49  74  97 132 175 227 288 343 404
#     4  11  22  46  68  96 136 178 224 279 346 403
#     4  11  24  43  67 102 137 174 226 282 336 405
#     4  11  18  37  60  92 134 183 221 265 325 397
#     4  11  24  43  70 100 140 176 223 282 335 405
#     4  10  20  35  64  91 134 186 225 263 333 396
#     4  11  21  37  58  96 141 179 227 275 321 398
#
# _framework density 23.708069999999999
#
# number of rings (size 3 to 8) (size 9 to 14) (size 15 to 20)
#    0.000    1.143    5.714    1.714    2.000    4.000 
#    2.571    3.571    0.000    0.000    0.000    0.000 
#    0.000    0.000    0.000    0.000    0.000    0.000 
#
# Total GULP energy -78122.194173 kJ/mol
# GULP energy per Si atom -5580.156727 kJ/mol
# Density = 2.365411 g / cm^3
# Si number density = 23.708070 Si / 1000 Ang^3
#
#
#
# Elastic Constant Matrix: (Units=GPa)
#
#
# Indices 1 2 3 4 5 6 
#
# 1 146.3867 47.6273 23.6804 -15.8423 6.1576 -9.7270
# 2 47.6273 92.9085 42.2030 -34.8026 14.0820 9.6456
# 3 23.6804 42.2030 69.6158 -15.2787 4.4592 -5.4204
# 4 -15.8423 -34.8026 -15.2787 45.6821 -6.6867 2.3316
# 5 6.1576 14.0820 4.4592 -6.6867 44.6545 2.5476
# 6 -9.7270 9.6456 -5.4204 2.3316 2.5476 41.8810
#
#
#
# Elastic Compliance Matrix: (Units=1/GPa)
#
#
# Indices 1 2 3 4 5 6 
#
# 1 0.008613 -0.005344 0.000313 -0.001134 0.000107 0.003328
# 2 -0.005344 0.024901 -0.010795 0.013447 -0.003516 -0.008908
# 3 0.000313 -0.010795 0.020881 -0.001287 0.000782 0.005286
# 4 -0.001134 0.013447 -0.001287 0.031747 0.001104 -0.005361
# 5 0.000107 -0.003516 0.000782 0.001104 0.023608 -0.000562
# 6 0.003328 -0.008908 0.005286 -0.005361 -0.000562 0.027719
#
#
# Mechanical properties :
#
#
# Convention : Reuss Voigt Hill
#
# Bulk Modulus (GPa) = 43.96761 59.54804 51.75783
# Shear Modulus (GPa) = 28.29631 39.47023 33.88327
#
# Velocity S-wave (km/s) = 3.45850 4.08468 3.78456
# Velocity P-wave (km/s) = 5.87656 6.88606 6.40124
#
# Compressibility (1/GPa) = 0.02274401
#
# Stress axis : x y z
#
# Youngs Moduli (GPa) = 116.10035 40.15858 47.88983
#
# Poissons Ratio (x) = 0.21461 -0.01501
# Poissons Ratio (y) = 0.62046 0.51698
# Poissons Ratio (z) = -0.03639 0.43352
#
# Static dielectric constant tensor:
#      x y z
#    x 1.914820 0.005470 0.057780 
#    y 0.005470 1.954060 -0.058940 
#    z 0.057780 -0.058940 1.993100 
# 
# From -- ./inp_files/614486.got.cif
#   From: 2010.05.17/outbox.cif.g08.bks.cpg/sg2_308_cif.got.tgz:614486.got - 2010.06.03 11:33:40.
