data_PCOD9096997
_publ_section_title
;
Structure prediction by ZEFSAII (Michael W. Deem and Ramdas Pophale) SiO2 
 PCOD9096997
Probable space group: P -1
;
_chemical_formula_sum "Si O2"
_cell_formula_units_Z 16
_cell_length_a 6.105024
_cell_length_b 25.097926
_cell_length_c 9.535941
_cell_angle_alpha 144.651754
_cell_angle_beta 131.092724
_cell_angle_gamma 57.921685
_cell_volume 637.036936
_symmetry_space_group_name_H-M "P -1"
_symmetry_group_IT_number 2
_symmetry_cell_setting 'triclinic'
loop_
_space_group_symop_operation_xyz
x,y,z
-x,-y,-z
loop_
_atom_site_type_symbol
_atom_site_label
_atom_site_fract_x
_atom_site_fract_y
_atom_site_fract_z
Si Si1 0.140158 0.702910 0.080925
Si Si2 0.902163 0.069897 0.727671
Si Si3 0.305490 0.003685 0.263602
Si Si4 0.803704 0.567070 0.459983
Si Si5 0.957821 0.297347 0.644940
Si Si6 0.400441 0.153055 0.411704
Si Si7 0.314123 0.434974 0.927392
Si Si8 0.554623 0.828340 0.844606
O O1 0.922870 0.660690 0.783098
O O2 0.314134 0.793031 0.293660
O O3 0.405109 0.634096 0.091944
O O4 0.980120 0.716407 0.192452
O O5 0.555112 0.070115 0.580536
O O6 0.946950 0.014338 0.771462
O O7 0.000000 0.000000 0.500000
O O8 0.098768 0.159690 0.988678
O O9 0.272944 0.063888 0.241791
O O10 0.429442 0.904740 0.059357
O O11 0.817060 0.564482 0.286611
O O12 0.000000 0.500000 0.500000
O O13 0.474402 0.527912 0.249057
O O14 0.142085 0.225787 0.476870
O O15 0.080499 0.394681 0.851915
O O16 0.622519 0.266526 0.416145
O O17 0.505997 0.138652 0.267998
#
# Coordination Sequence:
#
# PCOD9096997 Si02
#       8
#     2   2   2   2   2   2   2   2
#     4   9  20  39  56  90 127 158 198 249 300 361
#     4   9  20  36  52  78 113 145 197 250 299 355
#     4  10  20  37  58  81 110 157 205 252 303 349
#     4   9  18  39  68  91 121 156 197 247 296 356
#     4  10  21  37  58  85 125 158 198 243 307 365
#     4  10  21  37  57  82 117 151 203 250 298 359
#     4   9  19  39  65  90 121 160 196 245 300 360
#     4  10  20  36  59  81 111 156 199 257 300 353
#
# _framework density 25.11628
#
# number of rings (size 3 to 8) (size 9 to 14) (size 15 to 20)
#    0.000    2.500    0.000    1.125    0.000    6.500 
#   13.500    9.375    2.750    0.000    0.000    0.000 
#    0.000    0.000    0.000    0.000    0.000    0.000 
#
# Total GULP energy -89137.769549 kJ/mol
# GULP energy per Si atom -5571.110597 kJ/mol
# Density = 2.505911 g / cm^3
# Si number density = 25.116280 Si / 1000 Ang^3
#
#
#
# Elastic Constant Matrix: (Units=GPa)
#
#
# Indices 1 2 3 4 5 6 
#
# 1 122.1455 41.6694 66.2455 -0.6121 13.6637 43.8243
# 2 41.6694 94.0654 61.2999 -9.8686 13.3690 35.4503
# 3 66.2455 61.2999 205.6817 -21.4385 26.0389 32.0325
# 4 -0.6121 -9.8686 -21.4385 49.9630 10.2736 16.3929
# 5 13.6637 13.3690 26.0389 10.2736 48.2177 12.2522
# 6 43.8243 35.4503 32.0325 16.3929 12.2522 44.0080
#
#
#
# Elastic Compliance Matrix: (Units=1/GPa)
#
#
# Indices 1 2 3 4 5 6 
#
# 1 0.014596 0.001453 -0.002106 0.004851 -0.000403 -0.015867
# 2 0.001453 0.019783 -0.002190 0.009560 -0.001974 -0.018801
# 3 -0.002106 -0.002190 0.007329 0.004011 -0.003072 -0.002112
# 4 0.004851 0.009560 0.004011 0.033632 -0.006723 -0.026108
# 5 -0.000403 -0.001974 -0.003072 -0.006723 0.024516 -0.000093
# 6 -0.015867 -0.018801 -0.002112 -0.026108 -0.000093 0.064957
#
#
# Mechanical properties :
#
#
# Convention : Reuss Voigt Hill
#
# Bulk Modulus (GPa) = 27.76086 84.48024 56.12055
# Shear Modulus (GPa) = 27.39629 45.28291 36.33960
#
# Velocity S-wave (km/s) = 3.30628 4.25070 3.80788
# Velocity P-wave (km/s) = 5.06480 7.60263 6.45957
#
# Compressibility (1/GPa) = 0.03602194
#
# Stress axis : x y z
#
# Youngs Moduli (GPa) = 68.51211 50.54777 136.45023
#
# Poissons Ratio (x) = -0.07344 0.28740
# Poissons Ratio (y) = -0.09954 0.29876
# Poissons Ratio (z) = 0.14430 0.11068
#
# Static dielectric constant tensor:
#      x y z
#    x 1.990910 -0.078660 -0.001160 
#    y -0.078660 2.292070 -0.086620 
#    z -0.001160 -0.086620 2.156580 
# 
# From -- ./inp_files/143303.got.cif
#   From: 2010.05.17/outbox.cif.g08.bks.cpg/sg2_72_cif.got.tgz:143303.got - 2010.06.03 11:33:40.
