data_PCOD9096865
_publ_section_title
;
Structure prediction by ZEFSAII (Michael W. Deem and Ramdas Pophale) SiO2 
 PCOD9096865
Probable space group: P -1
;
_chemical_formula_sum "Si O2"
_cell_formula_units_Z 16
_cell_length_a 11.045060
_cell_length_b 11.658188
_cell_length_c 11.988764
_cell_angle_alpha 84.518596
_cell_angle_beta 91.555703
_cell_angle_gamma 155.302525
_cell_volume 635.431450
_symmetry_space_group_name_H-M "P -1"
_symmetry_group_IT_number 2
_symmetry_cell_setting 'triclinic'
loop_
_space_group_symop_operation_xyz
x,y,z
-x,-y,-z
loop_
_atom_site_type_symbol
_atom_site_label
_atom_site_fract_x
_atom_site_fract_y
_atom_site_fract_z
Si Si1 0.236309 0.717469 0.888205
Si Si2 0.838937 0.101133 0.109030
Si Si3 0.376559 0.044092 0.427370
Si Si4 0.006998 0.216112 0.357632
Si Si5 0.554711 0.407230 0.258443
Si Si6 0.030738 0.432729 0.690987
Si Si7 0.385046 0.326608 0.616009
Si Si8 0.464860 0.681747 0.963720
O O1 0.350968 0.945537 0.885328
O O2 0.069756 0.555589 0.781005
O O3 0.467929 0.815682 0.901791
O O4 0.000000 0.500000 0.000000
O O5 0.937933 0.172774 0.231077
O O6 0.132036 0.369135 0.018753
O O7 0.653831 0.844489 0.065044
O O8 0.354866 0.152728 0.357537
O O9 0.723056 0.326964 0.418812
O O10 0.189815 0.885522 0.549190
O O11 0.263312 0.852589 0.352994
O O12 0.347533 0.528830 0.363738
O O13 0.905792 0.995032 0.388940
O O14 0.848347 0.582572 0.250857
O O15 0.629740 0.595254 0.292058
O O16 0.439996 0.313371 0.138319
O O17 0.500000 0.500000 0.500000
#
# Coordination Sequence:
#
# PCOD9096865 Si02
#       8
#     2   2   2   2   2   2   2   2
#     4   9  20  37  65  91 117 158 208 245 286 357
#     4  11  24  42  59  89 126 166 190 247 307 353
#     4  10  20  36  58  85 122 152 188 255 299 342
#     4  12  25  41  60  90 129 156 201 245 304 366
#     4   9  22  34  64  87 119 145 208 253 297 331
#     4   9  20  34  57  90 119 142 198 249 300 335
#     4  12  23  40  65  93 115 159 209 249 294 355
#     4  10  22  39  65  88 119 157 209 244 293 357
#
# _framework density 25.179742000000001
#
# number of rings (size 3 to 8) (size 9 to 14) (size 15 to 20)
#    0.750    1.000    1.250    3.000    7.000    2.000 
#    0.000    5.000    0.000    0.000    0.000    0.000 
#    0.000    0.000    0.000    0.000    0.000    0.000 
#
# Total GULP energy -89460.346201 kJ/mol
# GULP energy per Si atom -5591.271638 kJ/mol
# Density = 2.512243 g / cm^3
# Si number density = 25.179742 Si / 1000 Ang^3
#
#
#
# Elastic Constant Matrix: (Units=GPa)
#
#
# Indices 1 2 3 4 5 6 
#
# 1 27.1308 6.4417 16.9658 -0.7001 -13.0174 -4.4854
# 2 6.4417 78.8803 0.0667 18.9630 -8.1335 8.7663
# 3 16.9658 0.0667 124.9287 9.1156 -21.0166 -3.3301
# 4 -0.7001 18.9630 9.1156 34.2984 -5.8223 -8.8497
# 5 -13.0174 -8.1335 -21.0166 -5.8223 34.0830 10.5169
# 6 -4.4854 8.7663 -3.3301 -8.8497 10.5169 27.5974
#
#
#
# Elastic Compliance Matrix: (Units=1/GPa)
#
#
# Indices 1 2 3 4 5 6 
#
# 1 0.049360 -0.005673 -0.004863 0.009614 0.013985 0.006991
# 2 -0.005673 0.018262 0.002269 -0.013196 0.005249 -0.012681
# 3 -0.004863 0.002269 0.009717 -0.003990 0.005092 -0.003558
# 4 0.009614 -0.013196 -0.003990 0.042548 -0.000573 0.019135
# 5 0.013985 0.005249 0.005092 -0.000573 0.043808 -0.015658
# 6 0.006991 -0.012681 -0.003558 0.019135 -0.015658 0.053074
#
#
# Mechanical properties :
#
#
# Convention : Reuss Voigt Hill
#
# Bulk Modulus (GPa) = 16.44630 30.87646 23.66138
# Shear Modulus (GPa) = 19.71835 33.02680 26.37257
#
# Velocity S-wave (km/s) = 2.80143 3.62559 3.23982
# Velocity P-wave (km/s) = 4.12429 5.46036 4.83866
#
# Compressibility (1/GPa) = 0.06080396
#
# Stress axis : x y z
#
# Youngs Moduli (GPa) = 20.25919 54.75948 102.91627
#
# Poissons Ratio (x) = 0.31066 0.50046
# Poissons Ratio (y) = 0.11493 -0.23347
# Poissons Ratio (z) = 0.09852 -0.12422
#
# Static dielectric constant tensor:
#      x y z
#    x 2.043590 -0.026080 0.039860 
#    y -0.026080 1.945860 -0.023370 
#    z 0.039860 -0.023370 2.001290 
# 
# From -- ./inp_files/428281.got.cif
#   From: 2010.05.17/outbox.cif.g08.bks.cpg/sg2_215_cif.got.tgz:428281.got - 2010.06.03 11:33:40.
