data_PCOD9096517
_publ_section_title
;
Structure prediction by ZEFSAII (Michael W. Deem and Ramdas Pophale) SiO2 
 PCOD9096517
Probable space group: P -1
;
_chemical_formula_sum "Si O2"
_cell_formula_units_Z 16
_cell_length_a 13.968645
_cell_length_b 18.073163
_cell_length_c 6.601178
_cell_angle_alpha 126.619642
_cell_angle_beta 107.095828
_cell_angle_gamma 39.088633
_cell_volume 794.940298
_symmetry_space_group_name_H-M "P -1"
_symmetry_group_IT_number 2
_symmetry_cell_setting 'triclinic'
loop_
_space_group_symop_operation_xyz
x,y,z
-x,-y,-z
loop_
_atom_site_type_symbol
_atom_site_label
_atom_site_fract_x
_atom_site_fract_y
_atom_site_fract_z
Si Si1 0.547704 0.739966 0.880424
Si Si2 0.338390 0.172627 0.640154
Si Si3 0.333187 0.659942 0.248726
Si Si4 0.046738 0.400330 0.056970
Si Si5 0.234798 0.888089 0.848146
Si Si6 0.878821 0.181011 0.006447
Si Si7 0.760380 0.651562 0.525536
Si Si8 0.346079 0.542114 0.435918
O O1 0.354524 0.879827 0.987786
O O2 0.612423 0.711842 0.648002
O O3 0.599228 0.601220 0.754365
O O4 0.624687 0.757174 0.109553
O O5 0.296167 0.228746 0.473091
O O6 0.500000 0.000000 0.500000
O O7 0.183703 0.240245 0.771569
O O8 0.336688 0.751277 0.531316
O O9 0.278619 0.620414 0.305141
O O10 0.500000 0.500000 0.000000
O O11 0.201044 0.774782 0.186532
O O12 0.137984 0.381307 0.274444
O O13 0.875768 0.500414 0.219111
O O14 0.000000 0.500000 0.000000
O O15 0.180905 0.858199 0.946336
O O16 0.070532 0.043667 0.904319
O O17 0.792808 0.334222 0.289689
O O18 0.500000 0.500000 0.500000
#
# Coordination Sequence:
#
# PCOD9096517 Si02
#       8
#     2   2   2   2   2   2   2   2
#     4  11  21  37  58  86 118 154 205 245 286 355
#     4  10  22  39  61  89 119 154 194 242 305 360
#     4  11  18  32  59  80 108 156 202 236 290 349
#     4   8  16  36  62  86 114 147 187 239 300 355
#     4  10  21  36  53  82 119 154 196 248 292 337
#     4  10  20  36  56  80 115 158 199 244 296 345
#     4   9  19  36  62  88 112 152 193 244 296 353
#     4  11  20  38  56  84 114 154 199 245 288 341
#
# _framework density 20.127296999999999
#
# number of rings (size 3 to 8) (size 9 to 14) (size 15 to 20)
#    0.000    2.000    3.750    0.375    0.000    5.000 
#    0.000    8.750    0.000    1.500    0.000    0.000 
#    0.000    0.000    0.000    0.000    0.000    0.000 
#
# Total GULP energy -89094.421872 kJ/mol
# GULP energy per Si atom -5568.401367 kJ/mol
# Density = 2.008149 g / cm^3
# Si number density = 20.127297 Si / 1000 Ang^3
#
#
#
# Elastic Constant Matrix: (Units=GPa)
#
#
# Indices 1 2 3 4 5 6 
#
# 1 39.0607 13.9982 12.3781 -0.9478 -3.8289 -6.3959
# 2 13.9982 127.7648 34.5614 -9.4909 -0.9126 -10.8572
# 3 12.3781 34.5614 63.2286 -7.4041 -7.1396 4.6875
# 4 -0.9478 -9.4909 -7.4041 42.5782 -0.8757 -5.8213
# 5 -3.8289 -0.9126 -7.1396 -0.8757 18.3471 5.3733
# 6 -6.3959 -10.8572 4.6875 -5.8213 5.3733 25.3711
#
#
#
# Elastic Compliance Matrix: (Units=1/GPa)
#
#
# Indices 1 2 3 4 5 6 
#
# 1 0.029133 -0.001004 -0.005471 0.000560 0.001673 0.007700
# 2 -0.001004 0.010268 -0.006106 0.002021 -0.003899 0.006559
# 3 -0.005471 -0.006106 0.022260 0.001233 0.010199 -0.009982
# 4 0.000560 0.002021 0.001233 0.025056 -0.000020 0.006532
# 5 0.001673 -0.003899 0.010199 -0.000020 0.063484 -0.016581
# 6 0.007700 0.006559 -0.009982 0.006532 -0.016581 0.051017
#
#
# Mechanical properties :
#
#
# Convention : Reuss Voigt Hill
#
# Bulk Modulus (GPa) = 27.39737 39.10327 33.25032
# Shear Modulus (GPa) = 20.96024 28.53371 24.74698
#
# Velocity S-wave (km/s) = 3.23055 3.76927 3.51026
# Velocity P-wave (km/s) = 5.24946 6.19785 5.74327
#
# Compressibility (1/GPa) = 0.03649986
#
# Stress axis : x y z
#
# Youngs Moduli (GPa) = 34.32540 97.38747 44.92299
#
# Poissons Ratio (x) = 0.09779 0.24576
# Poissons Ratio (y) = 0.03447 0.27430
# Poissons Ratio (z) = 0.18778 0.59465
#
# Static dielectric constant tensor:
#      x y z
#    x 1.752480 -0.031150 -0.004530 
#    y -0.031150 1.757740 0.004970 
#    z -0.004530 0.004970 1.789710 
# 
# From -- ./inp_files/99444.got.cif
#   From: 2010.05.17/outbox.cif.g08.bks.cpg/sg2_50_cif.got.tgz:99444.got - 2010.06.03 11:33:40.
