data_PCOD9096909
_publ_section_title
;
Structure prediction by ZEFSAII (Michael W. Deem and Ramdas Pophale) SiO2 
 PCOD9096909
Probable space group: P -1
;
_chemical_formula_sum "Si O2"
_cell_formula_units_Z 14
_cell_length_a 13.539345
_cell_length_b 5.828794
_cell_length_c 16.597969
_cell_angle_alpha 55.273685
_cell_angle_beta 151.532661
_cell_angle_gamma 124.746608
_cell_volume 505.092157
_symmetry_space_group_name_H-M "P -1"
_symmetry_group_IT_number 2
_symmetry_cell_setting 'triclinic'
loop_
_space_group_symop_operation_xyz
x,y,z
-x,-y,-z
loop_
_atom_site_type_symbol
_atom_site_label
_atom_site_fract_x
_atom_site_fract_y
_atom_site_fract_z
Si Si1 0.487185 0.413876 0.101498
Si Si2 0.210045 0.817686 0.052430
Si Si3 0.917181 0.377580 0.169846
Si Si4 0.624074 0.042503 0.463229
Si Si5 0.186801 0.995645 0.225282
Si Si6 0.292307 0.080319 0.785124
Si Si7 0.626694 0.687524 0.375802
O O1 0.706069 0.595672 0.251615
O O2 0.500000 0.500000 0.000000
O O3 0.308304 0.524986 0.003328
O O4 0.390381 0.091947 0.112449
O O5 0.094878 0.782472 0.890525
O O6 0.369111 0.598061 0.219935
O O7 0.013370 0.845884 0.962748
O O8 0.082421 0.664237 0.229405
O O9 0.897822 0.156595 0.274201
O O10 0.369603 0.999859 0.290141
O O11 0.687913 0.860211 0.469675
O O12 0.696296 0.918405 0.623044
O O13 0.691183 0.385635 0.454536
O O14 0.307374 0.107034 0.695058
O O15 0.500000 0.000000 0.000000
#
# Coordination Sequence:
#
# PCOD9096909 Si02
#       7
#     2   2   2   2   2   2   2
#     4  10  16  30  56  97 138 175 215 266 334 410
#     4  11  21  38  69 104 137 173 235 286 348 407
#     4  10  20  36  66 103 127 181 235 275 334 428
#     4  11  29  51  70  97 142 190 239 287 353 420
#     4  10  27  48  72  91 135 198 233 283 354 428
#     4  10  18  37  65 101 144 180 214 277 356 426
#     4  12  25  44  72 110 139 177 233 299 344 404
#
# _framework density 27.717713
#
# number of rings (size 3 to 8) (size 9 to 14) (size 15 to 20)
#    0.000    1.429    4.286    1.714    6.000    2.286 
#    0.000    1.429    0.000    0.000    0.000    0.000 
#    0.000    0.000    0.000    0.000    0.000    0.000 
#
# Total GULP energy -78066.966472 kJ/mol
# GULP energy per Si atom -5576.211891 kJ/mol
# Density = 2.765463 g / cm^3
# Si number density = 27.717713 Si / 1000 Ang^3
#
#
#
# Elastic Constant Matrix: (Units=GPa)
#
#
# Indices 1 2 3 4 5 6 
#
# 1 153.2817 48.7168 31.9641 -0.7457 -23.8917 -10.4402
# 2 48.7168 111.5949 17.1971 15.3834 -11.5314 6.5742
# 3 31.9641 17.1971 76.1917 -8.2059 -16.0706 8.2881
# 4 -0.7457 15.3834 -8.2059 30.7805 -6.6827 -3.1406
# 5 -23.8917 -11.5314 -16.0706 -6.6827 53.1386 -4.8628
# 6 -10.4402 6.5742 8.2881 -3.1406 -4.8628 42.9131
#
#
#
# Elastic Compliance Matrix: (Units=1/GPa)
#
#
# Indices 1 2 3 4 5 6 
#
# 1 0.008994 -0.003807 -0.002382 0.002558 0.003165 0.003777
# 2 -0.003807 0.011944 -0.001688 -0.006992 -0.000787 -0.003031
# 3 -0.002382 -0.001688 0.016235 0.005708 0.003954 -0.002591
# 4 0.002558 -0.006992 0.005708 0.039455 0.006709 0.004239
# 5 0.003165 -0.000787 0.003954 0.006709 0.022399 0.003156
# 6 0.003777 -0.003031 -0.002591 0.004239 0.003156 0.025854
#
#
# Mechanical properties :
#
#
# Convention : Reuss Voigt Hill
#
# Bulk Modulus (GPa) = 46.68619 59.64713 53.16666
# Shear Modulus (GPa) = 33.83514 41.57914 37.70714
#
# Velocity S-wave (km/s) = 3.49765 3.87730 3.69236
# Velocity P-wave (km/s) = 5.76120 6.45065 6.11565
#
# Compressibility (1/GPa) = 0.02141961
#
# Stress axis : x y z
#
# Youngs Moduli (GPa) = 111.19049 83.72230 61.59379
#
# Poissons Ratio (x) = 0.31876 0.14669
# Poissons Ratio (y) = 0.42334 0.10397
# Poissons Ratio (z) = 0.26480 0.14132
#
# Static dielectric constant tensor:
#      x y z
#    x 2.272750 -0.480250 0.137060 
#    y -0.480250 3.295940 -0.428790 
#    z 0.137060 -0.428790 2.430800 
# 
# From -- ./inp_files/571510.got.cif
#   From: 2010.05.17/outbox.cif.g08.bks.cpg/sg2_286_cif.got.tgz:571510.got - 2010.06.03 11:33:40.
