data_PCOD9096379
_publ_section_title
;
Structure prediction by ZEFSAII (Michael W. Deem and Ramdas Pophale) SiO2 
 PCOD9096379
Probable space group: P -1
;
_chemical_formula_sum "Si O2"
_cell_formula_units_Z 16
_cell_length_a 20.216923
_cell_length_b 16.284593
_cell_length_c 24.802357
_cell_angle_alpha 24.708978
_cell_angle_beta 167.291492
_cell_angle_gamma 152.267391
_cell_volume 750.839744
_symmetry_space_group_name_H-M "P -1"
_symmetry_group_IT_number 2
_symmetry_cell_setting 'triclinic'
loop_
_space_group_symop_operation_xyz
x,y,z
-x,-y,-z
loop_
_atom_site_type_symbol
_atom_site_label
_atom_site_fract_x
_atom_site_fract_y
_atom_site_fract_z
Si Si1 0.921744 0.705751 0.787567
Si Si2 0.883449 0.797217 0.421022
Si Si3 0.104012 0.489204 0.856168
Si Si4 0.215908 0.801884 0.851307
Si Si5 0.769502 0.156021 0.850668
Si Si6 0.571753 0.219023 0.220815
Si Si7 0.959227 0.969159 0.223026
Si Si8 0.672941 0.589821 0.185977
O O1 0.563310 0.740193 0.471185
O O2 0.045285 0.873379 0.826225
O O3 0.092114 0.719963 0.858213
O O4 0.000000 0.500000 0.000000
O O5 0.900848 0.588509 0.588886
O O6 0.160724 0.818170 0.588431
O O7 0.896470 0.972231 0.370711
O O8 0.575435 0.812606 0.134507
O O9 0.121450 0.653040 0.819015
O O10 0.971371 0.293095 0.892327
O O11 0.429870 0.473919 0.096406
O O12 0.684697 0.945886 0.883885
O O13 0.937258 0.101647 0.072458
O O14 0.750110 0.169074 0.447964
O O15 0.411202 0.392083 0.954807
O O16 0.697516 0.809410 0.100633
O O17 0.000000 0.500000 0.500000
#
# Coordination Sequence:
#
# PCOD9096379 Si02
#       8
#     2   2   2   2   2   2   2   2
#     4  11  22  36  56  87 126 164 199 230 281 353
#     4  10  20  36  52  80 116 155 198 235 280 346
#     4  11  23  36  57  84 120 148 193 251 292 342
#     4  11  21  33  54  84 116 159 197 228 286 345
#     4  10  21  37  54  86 118 160 194 232 289 348
#     4   9  19  41  61  83 115 157 193 237 294 354
#     4  10  20  39  62  80 120 158 192 240 287 349
#     4  10  23  42  66  89 109 148 203 255 303 347
#
# _framework density 21.309474000000002
#
# number of rings (size 3 to 8) (size 9 to 14) (size 15 to 20)
#    0.000    1.750    2.500    2.625    1.750    4.500 
#    0.000    2.500    0.000    3.750    0.000    0.000 
#    0.000    0.000    0.000    0.000    0.000    0.000 
#
# Total GULP energy -89182.567141 kJ/mol
# GULP energy per Si atom -5573.910446 kJ/mol
# Density = 2.126097 g / cm^3
# Si number density = 21.309474 Si / 1000 Ang^3
#
#
#
# Elastic Constant Matrix: (Units=GPa)
#
#
# Indices 1 2 3 4 5 6 
#
# 1 55.0400 97.1113 54.6642 -33.9498 -37.6437 15.3277
# 2 97.1113 39.1256 3.7416 64.6508 3.3104 51.1947
# 3 54.6642 3.7416 95.6170 15.0768 -9.7379 31.0366
# 4 -33.9498 64.6508 15.0768 -14.4493 -6.3319 -9.6602
# 5 -37.6437 3.3104 -9.7379 -6.3319 29.5114 0.9364
# 6 15.3277 51.1947 31.0366 -9.6602 0.9364 40.5514
#
#
#
# Elastic Compliance Matrix: (Units=1/GPa)
#
#
# Indices 1 2 3 4 5 6 
#
# 1 0.017095 0.004677 -0.000148 -0.016320 0.018257 -0.016563
# 2 0.004677 0.004907 -0.002129 0.008741 0.006729 -0.004406
# 3 -0.000148 -0.002129 0.012188 0.004917 0.005303 -0.005536
# 4 -0.016320 0.008741 0.004917 0.022107 -0.015336 -0.003009
# 5 0.018257 0.006729 0.005303 -0.015336 0.055651 -0.024392
# 6 -0.016563 -0.004406 -0.005536 -0.003009 -0.024392 0.040567
#
#
# Mechanical properties :
#
#
# Convention : Reuss Voigt Hill
#
# Bulk Modulus (GPa) = 25.64640 55.64632 40.64636
# Shear Modulus (GPa) = 31.11182 13.40707 22.25945
#
# Velocity S-wave (km/s) = 3.82514 2.51103 3.23550
# Velocity P-wave (km/s) = 5.61874 5.88023 5.75097
#
# Compressibility (1/GPa) = 0.03899182
#
# Stress axis : x y z
#
# Youngs Moduli (GPa) = 58.49605 203.80564 82.04933
#
# Poissons Ratio (x) = -0.95326 0.01210
# Poissons Ratio (y) = -0.27360 0.17466
# Poissons Ratio (z) = 0.00863 0.43383
#
# Static dielectric constant tensor:
#      x y z
#    x 1.801210 -0.056380 -0.006020 
#    y -0.056380 1.823130 -0.064170 
#    z -0.006020 -0.064170 1.825650 
# 
# From -- ./inp_files/624210.got.cif
#   From: 2010.05.17/outbox.cif.g08.bks.cpg/sg2_313_cif.got.tgz:624210.got - 2010.06.03 11:33:40.
