data_PCOD9096656
_publ_section_title
;
Structure prediction by ZEFSAII (Michael W. Deem and Ramdas Pophale) SiO2 
 PCOD9096656
Probable space group: P -1
;
_chemical_formula_sum "Si O2"
_cell_formula_units_Z 16
_cell_length_a 20.291284
_cell_length_b 22.898830
_cell_length_c 28.232780
_cell_angle_alpha 9.772875
_cell_angle_beta 19.384778
_cell_angle_gamma 19.841385
_cell_volume 724.815951
_symmetry_space_group_name_H-M "P -1"
_symmetry_group_IT_number 2
_symmetry_cell_setting 'triclinic'
loop_
_space_group_symop_operation_xyz
x,y,z
-x,-y,-z
loop_
_atom_site_type_symbol
_atom_site_label
_atom_site_fract_x
_atom_site_fract_y
_atom_site_fract_z
Si Si1 0.925793 0.496941 0.909709
Si Si2 0.728971 0.897620 0.110563
Si Si3 0.651675 0.887957 0.276837
Si Si4 0.828193 0.343943 0.995098
Si Si5 0.580510 0.591458 0.821321
Si Si6 0.043170 0.286651 0.480302
Si Si7 0.298397 0.728525 0.431195
Si Si8 0.396676 0.357120 0.904720
O O1 0.813737 0.518176 0.917540
O O2 0.106927 0.703697 0.614158
O O3 0.775328 0.597901 0.974490
O O4 0.022391 0.085966 0.180686
O O5 0.634814 0.981949 0.158010
O O6 0.734656 0.488210 0.420215
O O7 0.961602 0.939014 0.920487
O O8 0.594736 0.130840 0.976496
O O9 0.464576 0.711242 0.560209
O O10 0.859891 0.597829 0.370725
O O11 0.657132 0.229431 0.030862
O O12 0.623293 0.221564 0.216901
O O13 0.872415 0.602649 0.715865
O O14 0.500000 0.500000 0.000000
O O15 0.770953 0.760951 0.570416
O O16 0.500000 0.500000 0.500000
O O17 0.331061 0.126001 0.091245
#
# Coordination Sequence:
#
# PCOD9096656 Si02
#       8
#     2   2   2   2   2   2   2   2
#     4  11  21  37  59  83 114 148 184 229 277 326
#     4   9  20  37  58  82 113 149 185 229 275 327
#     4  11  21  37  59  82 113 149 185 226 279 332
#     4   9  19  36  56  79 111 145 184 229 273 322
#     4  10  20  36  57  83 113 144 185 232 276 329
#     4  10  21  37  58  81 111 150 187 229 277 326
#     4   9  19  37  58  82 112 145 185 229 274 328
#     4  11  21  35  58  85 113 148 185 226 278 330
#
# _framework density 22.074570000000001
#
# number of rings (size 3 to 8) (size 9 to 14) (size 15 to 20)
#    0.000    2.000    0.000    5.250    0.000    1.000 
#    0.000    6.250    0.000   27.000    0.000    0.000 
#    0.000    0.000    0.000    0.000    0.000    0.000 
#
# Total GULP energy -89335.001015 kJ/mol
# GULP energy per Si atom -5583.437563 kJ/mol
# Density = 2.202433 g / cm^3
# Si number density = 22.074570 Si / 1000 Ang^3
#
#
#
# Elastic Constant Matrix: (Units=GPa)
#
#
# Indices 1 2 3 4 5 6 
#
# 1 69.2706 20.1614 13.5540 5.8616 -5.0646 18.1450
# 2 20.1614 102.0159 12.1967 7.2334 -6.3696 5.5764
# 3 13.5540 12.1967 61.2041 12.7555 -7.0641 0.0901
# 4 5.8616 7.2334 12.7555 33.9343 0.9900 -8.2766
# 5 -5.0646 -6.3696 -7.0641 0.9900 22.6630 1.6589
# 6 18.1450 5.5764 0.0901 -8.2766 1.6589 40.0973
#
#
#
# Elastic Compliance Matrix: (Units=1/GPa)
#
#
# Indices 1 2 3 4 5 6 
#
# 1 0.018577 -0.002377 -0.002350 -0.004137 0.003596 -0.009074
# 2 -0.002377 0.010707 -0.000965 -0.001791 0.002320 -0.000877
# 3 -0.002350 -0.000965 0.019115 -0.006853 0.005497 -0.000487
# 4 -0.004137 -0.001791 -0.006853 0.035688 -0.005836 0.009744
# 5 0.003596 0.002320 0.005497 -0.005836 0.047926 -0.005150
# 6 -0.009074 -0.000877 -0.000487 0.009744 -0.005150 0.031393
#
#
# Mechanical properties :
#
#
# Convention : Reuss Voigt Hill
#
# Bulk Modulus (GPa) = 27.01530 36.03495 31.52513
# Shear Modulus (GPa) = 26.71974 31.77750 29.24862
#
# Velocity S-wave (km/s) = 3.48290 3.79826 3.64399
# Velocity P-wave (km/s) = 5.33281 5.96618 5.65837
#
# Compressibility (1/GPa) = 0.03701606
#
# Stress axis : x y z
#
# Youngs Moduli (GPa) = 53.82873 93.39486 52.31553
#
# Poissons Ratio (x) = 0.22197 0.12293
# Poissons Ratio (y) = 0.12793 0.05049
# Poissons Ratio (z) = 0.12649 0.09014
#
# Static dielectric constant tensor:
#      x y z
#    x 1.811860 -0.015820 0.027120 
#    y -0.015820 1.829690 0.000310 
#    z 0.027120 0.000310 1.833110 
# 
# From -- ./inp_files/390223.got.cif
#   From: 2010.05.17/outbox.cif.g08.bks.cpg/sg2_196_cif.got.tgz:390223.got - 2010.06.03 11:33:40.
