data_PCOD9096118
_publ_section_title
;
Structure prediction by ZEFSAII (Michael W. Deem and Ramdas Pophale) SiO2 
 PCOD9096118
Probable space group: P -1
;
_chemical_formula_sum "Si O2"
_cell_formula_units_Z 16
_cell_length_a 20.174040
_cell_length_b 8.368264
_cell_length_c 8.837544
_cell_angle_alpha 65.310909
_cell_angle_beta 117.912587
_cell_angle_gamma 149.052823
_cell_volume 677.551257
_symmetry_space_group_name_H-M "P -1"
_symmetry_group_IT_number 2
_symmetry_cell_setting 'triclinic'
loop_
_space_group_symop_operation_xyz
x,y,z
-x,-y,-z
loop_
_atom_site_type_symbol
_atom_site_label
_atom_site_fract_x
_atom_site_fract_y
_atom_site_fract_z
Si Si1 0.258137 0.364128 0.473285
Si Si2 0.910028 0.252168 0.636369
Si Si3 0.632688 0.233305 0.848747
Si Si4 0.465993 0.495424 0.704141
Si Si5 0.086952 0.320447 0.893930
Si Si6 0.195046 0.376430 0.695179
Si Si7 0.398520 0.554767 0.004174
Si Si8 0.331306 0.983060 0.535059
O O1 0.335838 0.652391 0.335633
O O2 0.363192 0.451061 0.647239
O O3 0.158953 0.251528 0.536575
O O4 0.182094 0.085374 0.389881
O O5 0.000000 0.500000 0.500000
O O6 0.011680 0.358711 0.818062
O O7 0.808127 0.205296 0.595913
O O8 0.514765 0.873563 0.906670
O O9 0.767162 0.407283 0.988862
O O10 0.605534 0.358224 0.868859
O O11 0.373232 0.165849 0.659655
O O12 0.558132 0.758218 0.570323
O O13 0.562977 0.574357 0.885704
O O14 0.100678 0.298578 0.739151
O O15 0.000000 0.000000 0.000000
O O16 0.256423 0.332371 0.871383
O O17 0.313129 0.744892 0.644751
#
# Coordination Sequence:
#
# PCOD9096118 Si02
#       8
#     2   2   2   2   2   2   2   2
#     4  11  24  40  61  91 125 159 197 249 311 362
#     4  11  22  40  65  90 116 160 208 250 292 356
#     4  10  20  37  61  91 119 161 206 247 287 362
#     4  10  20  35  62  90 123 157 205 248 294 352
#     4  11  22  40  65  90 116 160 208 250 292 356
#     4  11  24  40  61  91 125 159 197 249 311 362
#     4  10  20  35  62  90 123 157 205 248 294 352
#     4  10  20  37  61  91 119 161 206 247 287 362
#
# _framework density 23.614449
#
# number of rings (size 3 to 8) (size 9 to 14) (size 15 to 20)
#    0.000    1.500    2.500    5.250    3.500    3.000 
#    0.000    0.000    0.000    1.500    0.000    0.000 
#    0.000    0.000    0.000    0.000    0.000    0.000 
#
# Total GULP energy -89445.278190 kJ/mol
# GULP energy per Si atom -5590.329887 kJ/mol
# Density = 2.356070 g / cm^3
# Si number density = 23.614449 Si / 1000 Ang^3
#
#
#
# Elastic Constant Matrix: (Units=GPa)
#
#
# Indices 1 2 3 4 5 6 
#
# 1 68.4640 -5.4505 31.9142 14.2867 14.9006 17.4488
# 2 -5.4505 44.3320 4.7108 -3.8884 7.1676 10.5810
# 3 31.9142 4.7108 79.0370 -7.0164 21.2634 -3.0621
# 4 14.2867 -3.8884 -7.0164 36.7008 11.1230 5.9733
# 5 14.9006 7.1676 21.2634 11.1230 49.8616 12.5883
# 6 17.4488 10.5810 -3.0621 5.9733 12.5883 25.5476
#
#
#
# Elastic Compliance Matrix: (Units=1/GPa)
#
#
# Indices 1 2 3 4 5 6 
#
# 1 0.031926 0.010535 -0.017342 -0.011860 0.006187 -0.028523
# 2 0.010535 0.029523 -0.006894 0.000909 0.000583 -0.020749
# 3 -0.017342 -0.006894 0.025224 0.011154 -0.012434 0.021242
# 4 -0.011860 0.000909 0.011154 0.036452 -0.010976 0.005946
# 5 0.006187 0.000583 -0.012434 -0.010976 0.030528 -0.018433
# 6 -0.028523 -0.020749 0.021242 0.005946 -0.018433 0.077455
#
#
# Mechanical properties :
#
#
# Convention : Reuss Voigt Hill
#
# Bulk Modulus (GPa) = 16.87123 28.24242 22.55683
# Shear Modulus (GPa) = 17.96848 33.13258 25.55053
#
# Velocity S-wave (km/s) = 2.76145 3.74981 3.29293
# Velocity P-wave (km/s) = 4.16263 5.54382 4.90211
#
# Compressibility (1/GPa) = 0.05927250
#
# Stress axis : x y z
#
# Youngs Moduli (GPa) = 31.32206 33.87241 39.64498
#
# Poissons Ratio (x) = -0.35685 0.68751
# Poissons Ratio (y) = -0.32998 0.27330
# Poissons Ratio (z) = 0.54318 0.23350
#
# Static dielectric constant tensor:
#      x y z
#    x 1.910530 -0.010280 0.005910 
#    y -0.010280 1.867510 0.051250 
#    z 0.005910 0.051250 1.939920 
# 
# From -- ./inp_files/343441.got.cif
#   From: 2010.05.17/outbox.cif.g08.bks.cpg/sg2_172_cif.got.tgz:343441.got - 2010.06.03 11:33:40.
