data_PCOD9096040
_publ_section_title
;
Structure prediction by ZEFSAII (Michael W. Deem and Ramdas Pophale) SiO2 
 PCOD9096040
Probable space group: P -1
;
_chemical_formula_sum "Si O2"
_cell_formula_units_Z 16
_cell_length_a 8.163598
_cell_length_b 13.701161
_cell_length_c 12.820365
_cell_angle_alpha 60.792648
_cell_angle_beta 85.842644
_cell_angle_gamma 43.638850
_cell_volume 764.297814
_symmetry_space_group_name_H-M "P -1"
_symmetry_group_IT_number 2
_symmetry_cell_setting 'triclinic'
loop_
_space_group_symop_operation_xyz
x,y,z
-x,-y,-z
loop_
_atom_site_type_symbol
_atom_site_label
_atom_site_fract_x
_atom_site_fract_y
_atom_site_fract_z
Si Si1 0.785496 0.839012 0.700291
Si Si2 0.580396 0.301460 0.178756
Si Si3 0.365889 0.227057 0.082436
Si Si4 0.014234 0.461960 0.639523
Si Si5 0.766174 0.890069 0.108392
Si Si6 0.536541 0.163591 0.424513
Si Si7 0.722291 0.559756 0.188171
Si Si8 0.768346 0.292140 0.969481
O O1 0.763458 0.809591 0.835685
O O2 0.573670 0.872459 0.631521
O O3 0.074956 0.647589 0.744414
O O4 0.707699 0.005671 0.585311
O O5 0.398878 0.310609 0.118129
O O6 0.678869 0.180550 0.338146
O O7 0.393074 0.504773 0.115254
O O8 0.788327 0.232785 0.117234
O O9 0.654887 0.033793 0.126498
O O10 0.205089 0.368731 0.920651
O O11 0.103212 0.287759 0.749884
O O12 0.227577 0.429451 0.702788
O O13 0.000000 0.500000 0.500000
O O14 0.727536 0.641235 0.612762
O O15 0.967865 0.832847 0.044867
O O16 0.500000 0.000000 0.000000
O O17 0.429646 0.680716 0.102853
#
# Coordination Sequence:
#
# PCOD9096040 Si02
#       8
#     2   2   2   2   2   2   2   2
#     4   9  18  32  61  93 119 162 213 257 317 375
#     4   9  19  38  64  88 123 171 205 259 324 373
#     4  10  20  35  61  96 127 162 212 265 313 372
#     4  11  22  40  63  90 131 175 215 261 322 378
#     4  12  24  40  65  96 129 168 218 262 315 390
#     4   9  17  35  60  88 122 164 212 263 306 379
#     4  10  21  38  62  92 131 168 215 269 320 368
#     4  10  22  40  64  93 132 168 208 268 325 378
#
# _framework density 20.934248
#
# number of rings (size 3 to 8) (size 9 to 14) (size 15 to 20)
#    0.000    2.000    2.500    1.125    0.000    7.000 
#    0.000    1.250    2.750    0.000    0.000    0.000 
#    0.000    0.000    0.000    0.000    0.000    0.000 
#
# Total GULP energy -89365.751293 kJ/mol
# GULP energy per Si atom -5585.359456 kJ/mol
# Density = 2.088660 g / cm^3
# Si number density = 20.934248 Si / 1000 Ang^3
#
#
#
# Elastic Constant Matrix: (Units=GPa)
#
#
# Indices 1 2 3 4 5 6 
#
# 1 81.0522 43.6212 47.9699 8.4276 -12.6601 -14.7243
# 2 43.6212 81.1787 36.8603 2.1131 -9.2953 5.8283
# 3 47.9699 36.8603 152.2087 1.7035 -28.2909 2.3450
# 4 8.4276 2.1131 1.7035 40.1497 6.2664 -6.6114
# 5 -12.6601 -9.2953 -28.2909 6.2664 30.8392 1.7783
# 6 -14.7243 5.8283 2.3450 -6.6114 1.7783 32.7324
#
#
#
# Elastic Compliance Matrix: (Units=1/GPa)
#
#
# Indices 1 2 3 4 5 6 
#
# 1 0.024099 -0.011466 -0.004616 -0.002493 0.001982 0.012602
# 2 -0.011466 0.019589 -0.000811 -0.000173 0.000989 -0.008677
# 3 -0.004616 -0.000811 0.009593 -0.001025 0.007055 -0.003210
# 4 -0.002493 -0.000173 -0.001025 0.027534 -0.007898 0.004973
# 5 0.001982 0.000989 0.007055 -0.007898 0.041825 -0.003657
# 6 0.012602 -0.008677 -0.003210 0.004973 -0.003657 0.039198
#
#
# Mechanical properties :
#
#
# Convention : Reuss Voigt Hill
#
# Bulk Modulus (GPa) = 51.29582 63.48251 57.38917
# Shear Modulus (GPa) = 24.73753 33.14347 28.94050
#
# Velocity S-wave (km/s) = 3.44128 3.98328 3.72216
# Velocity P-wave (km/s) = 6.35188 7.17955 6.77836
#
# Compressibility (1/GPa) = 0.01949477
#
# Stress axis : x y z
#
# Youngs Moduli (GPa) = 41.49574 51.04983 104.24131
#
# Poissons Ratio (x) = 0.58536 0.48117
# Poissons Ratio (y) = 0.47581 0.08450
# Poissons Ratio (z) = 0.19154 0.04138
#
# Static dielectric constant tensor:
#      x y z
#    x 1.787970 0.017030 -0.012350 
#    y 0.017030 1.750450 0.033930 
#    z -0.012350 0.033930 1.781040 
# 
# From -- ./inp_files/320708.got.cif
#   From: 2010.05.17/outbox.cif.g08.bks.cpg/sg2_161_cif.got.tgz:320708.got - 2010.06.03 11:33:40.
