data_PCOD9096336
_publ_section_title
;
Structure prediction by ZEFSAII (Michael W. Deem and Ramdas Pophale) SiO2 
 PCOD9096336
Probable space group: P -1
;
_chemical_formula_sum "Si O2"
_cell_formula_units_Z 14
_cell_length_a 12.123915
_cell_length_b 15.334941
_cell_length_c 8.393786
_cell_angle_alpha 89.827070
_cell_angle_beta 98.539495
_cell_angle_gamma 28.357413
_cell_volume 702.687919
_symmetry_space_group_name_H-M "P -1"
_symmetry_group_IT_number 2
_symmetry_cell_setting 'triclinic'
loop_
_space_group_symop_operation_xyz
x,y,z
-x,-y,-z
loop_
_atom_site_type_symbol
_atom_site_label
_atom_site_fract_x
_atom_site_fract_y
_atom_site_fract_z
Si Si1 0.662827 0.606810 0.693273
Si Si2 0.066164 0.227702 0.934706
Si Si3 0.358162 0.692396 0.143713
Si Si4 0.870457 0.273780 0.172782
Si Si5 0.447440 0.811454 0.987536
Si Si6 0.822288 0.090185 0.600046
Si Si7 0.888262 0.615421 0.138609
O O1 0.449910 0.739016 0.523382
O O2 0.877496 0.527261 0.698143
O O3 0.540083 0.723428 0.831575
O O4 0.817393 0.413015 0.777293
O O5 0.991964 0.269810 0.104305
O O6 0.229720 0.031998 0.928612
O O7 0.200854 0.225047 0.926440
O O8 0.638183 0.465001 0.226115
O O9 0.371501 0.776191 0.057727
O O10 0.207921 0.816142 0.269896
O O11 0.233898 0.711994 0.995450
O O12 0.059823 0.080576 0.305267
O O13 0.667064 0.706155 0.132350
O O14 0.000000 0.000000 0.500000
O O15 0.000000 0.500000 0.000000
#
# Coordination Sequence:
#
# PCOD9096336 Si02
#       7
#     2   2   2   2   2   2   2
#     4   9  22  38  57  95 122 152 199 254 304 349
#     4  10  20  35  67  90 116 158 206 245 299 354
#     4  11  24  40  64  89 121 165 206 255 295 367
#     4  11  23  42  64  87 122 162 212 245 303 367
#     4  11  18  38  68  89 117 162 210 246 292 362
#     4  12  26  40  58  90 128 163 200 253 315 359
#     4   8  17  36  63  90 122 152 205 250 292 354
#
# _framework density 19.923497000000001
#
# number of rings (size 3 to 8) (size 9 to 14) (size 15 to 20)
#    0.857    0.857    2.857    1.714    4.000    1.714 
#    0.000    0.714    0.000    4.286    0.000    0.000 
#    0.000    0.000    0.000    0.000    0.000    0.000 
#
# Total GULP energy -78064.774987 kJ/mol
# GULP energy per Si atom -5576.055356 kJ/mol
# Density = 1.987815 g / cm^3
# Si number density = 19.923497 Si / 1000 Ang^3
#
#
#
# Elastic Constant Matrix: (Units=GPa)
#
#
# Indices 1 2 3 4 5 6 
#
# 1 39.1156 -7.6465 -3.1458 11.4563 15.4762 4.4455
# 2 -7.6465 129.5080 22.6951 -6.1667 8.1388 14.0387
# 3 -3.1458 22.6951 48.4142 -12.7086 7.6712 1.8677
# 4 11.4563 -6.1667 -12.7086 37.0699 -9.6387 -3.7113
# 5 15.4762 8.1388 7.6712 -9.6387 14.8682 -2.2645
# 6 4.4455 14.0387 1.8677 -3.7113 -2.2645 24.8546
#
#
#
# Elastic Compliance Matrix: (Units=1/GPa)
#
#
# Indices 1 2 3 4 5 6 
#
# 1 -0.926347 -0.166894 -0.074533 0.709780 1.633428 0.520360
# 2 -0.166894 -0.020843 -0.017163 0.126260 0.289256 0.088120
# 3 -0.074533 -0.017163 0.019107 0.063393 0.124674 0.042414
# 4 0.709780 0.126260 0.063393 -0.508576 -1.229880 -0.391025
# 5 1.633428 0.289256 0.124674 -1.229880 -2.790433 -0.902786
# 6 0.520360 0.088120 0.042414 -0.391025 -0.902786 -0.246438
#
#
# Mechanical properties :
#
#
# Convention : Reuss Voigt Hill
#
# Bulk Modulus (GPa) = -0.69192 26.76039 13.03423
# Shear Modulus (GPa) = -1.12661 29.03421 13.95380
#
# Velocity S-wave (km/s) = -0.75279 3.82158 2.64932
# Velocity P-wave (km/s) = 1.05054 5.73876 3.98934
#
# Compressibility (1/GPa) = -1.44526332
#
# Stress axis : x y z
#
# Youngs Moduli (GPa) = -1.07951 -47.97781 52.33604
#
# Poissons Ratio (x) = -8.00722 3.90077
# Poissons Ratio (y) = -0.18016 0.89825
# Poissons Ratio (z) = -0.08046 -0.82345
#
# Static dielectric constant tensor:
#      x y z
#    x 1.749810 -0.030790 0.024010 
#    y -0.030790 1.722340 -0.008540 
#    z 0.024010 -0.008540 1.699520 
# 
# From -- ./inp_files/273165.got.cif
#   From: 2010.05.17/outbox.cif.g08.bks.cpg/sg2_137_cif.got.tgz:273165.got - 2010.06.03 11:33:40.
