data_PCOD9096784
_publ_section_title
;
Structure prediction by ZEFSAII (Michael W. Deem and Ramdas Pophale) SiO2 
 PCOD9096784
Probable space group: P -1
;
_chemical_formula_sum "Si O2"
_cell_formula_units_Z 16
_cell_length_a 23.191751
_cell_length_b 11.928175
_cell_length_c 23.126564
_cell_angle_alpha 34.421703
_cell_angle_beta 162.542076
_cell_angle_gamma 153.373439
_cell_volume 841.507055
_symmetry_space_group_name_H-M "P -1"
_symmetry_group_IT_number 2
_symmetry_cell_setting 'triclinic'
loop_
_space_group_symop_operation_xyz
x,y,z
-x,-y,-z
loop_
_atom_site_type_symbol
_atom_site_label
_atom_site_fract_x
_atom_site_fract_y
_atom_site_fract_z
Si Si1 0.019145 0.704868 0.102616
Si Si2 0.808346 0.834139 0.207325
Si Si3 0.048423 0.262701 0.418155
Si Si4 0.125426 0.750664 0.623399
Si Si5 0.300285 0.835934 0.979442
Si Si6 0.001860 0.890709 0.129257
Si Si7 0.229042 0.388432 0.852842
Si Si8 0.446410 0.751648 0.523348
O O1 0.778284 0.437774 0.963046
O O2 0.967209 0.720426 0.114254
O O3 0.228149 0.676124 0.304551
O O4 0.114686 0.973594 0.055496
O O5 0.847058 0.802437 0.191243
O O6 0.006929 0.848702 0.430598
O O7 0.799324 0.060712 0.116254
O O8 0.528111 0.578519 0.063293
O O9 0.313329 0.497612 0.543424
O O10 0.032932 0.369520 0.418318
O O11 0.833693 0.191996 0.197699
O O12 0.000000 0.000000 0.500000
O O13 0.142993 0.558175 0.686486
O O14 0.404025 0.966022 0.821332
O O15 0.893432 0.745086 0.146772
O O16 0.294587 0.131918 0.306734
O O17 0.500000 0.000000 0.500000
#
# Coordination Sequence:
#
# PCOD9096784 Si02
#       8
#     2   2   2   2   2   2   2   2
#     4   9  20  35  56  83 116 148 179 233 288 343
#     4  10  22  39  57  83 115 146 191 250 286 329
#     4  11  21  34  57  91 122 150 181 240 295 343
#     4  11  21  36  59  84 113 155 186 232 296 347
#     4  10  21  37  55  85 121 147 189 233 290 345
#     4  10  20  36  58  82 109 152 190 229 282 346
#     4  10  22  39  59  83 111 147 199 243 282 337
#     4   9  19  35  51  80 118 148 186 226 278 346
#
# _framework density 19.013506
#
# number of rings (size 3 to 8) (size 9 to 14) (size 15 to 20)
#    0.000    2.000    1.250    3.000    1.750    5.000 
#    0.000    0.625    0.000    5.250    0.000    0.000 
#    0.000    0.000    0.000    0.000    0.000    0.000 
#
# Total GULP energy -89133.953339 kJ/mol
# GULP energy per Si atom -5570.872084 kJ/mol
# Density = 1.897023 g / cm^3
# Si number density = 19.013506 Si / 1000 Ang^3
#
#
#
# Elastic Constant Matrix: (Units=GPa)
#
#
# Indices 1 2 3 4 5 6 
#
# 1 65.8632 28.3569 16.8629 4.9201 1.9044 -9.4269
# 2 28.3569 91.5077 20.0015 -1.4892 3.1316 -0.3232
# 3 16.8629 20.0015 60.3857 -6.0159 4.6752 0.1911
# 4 4.9201 -1.4892 -6.0159 23.0475 -1.7914 4.1222
# 5 1.9044 3.1316 4.6752 -1.7914 21.3993 2.4643
# 6 -9.4269 -0.3232 0.1911 4.1222 2.4643 22.4750
#
#
#
# Elastic Compliance Matrix: (Units=1/GPa)
#
#
# Indices 1 2 3 4 5 6 
#
# 1 0.020892 -0.005474 -0.004709 -0.008052 -0.001902 0.010410
# 2 -0.005474 0.013237 -0.002642 0.001719 -0.000459 -0.002348
# 3 -0.004709 -0.002642 0.019588 0.006291 -0.002596 -0.003049
# 4 -0.008052 0.001719 0.006291 0.049557 0.004738 -0.013015
# 5 -0.001902 -0.000459 -0.002596 0.004738 0.048736 -0.006995
# 6 0.010410 -0.002348 -0.003049 -0.013015 -0.006995 0.052006
#
#
# Mechanical properties :
#
#
# Convention : Reuss Voigt Hill
#
# Bulk Modulus (GPa) = 35.62859 38.68879 37.15869
# Shear Modulus (GPa) = 20.91866 23.55337 22.23601
#
# Velocity S-wave (km/s) = 3.32052 3.52344 3.42348
# Velocity P-wave (km/s) = 5.78623 6.07824 5.93403
#
# Compressibility (1/GPa) = 0.02806735
#
# Stress axis : x y z
#
# Youngs Moduli (GPa) = 47.86563 75.54496 51.05287
#
# Poissons Ratio (x) = 0.41353 0.24040
# Poissons Ratio (y) = 0.26202 0.13487
# Poissons Ratio (z) = 0.22539 0.19957
#
# Static dielectric constant tensor:
#      x y z
#    x 1.642960 -0.004530 0.003590 
#    y -0.004530 1.717180 0.019180 
#    z 0.003590 0.019180 1.758940 
# 
# From -- ./inp_files/438481.got.cif
#   From: 2010.05.17/outbox.cif.g08.bks.cpg/sg2_220_cif.got.tgz:438481.got - 2010.06.03 11:33:40.
