data_PCOD9096194
_publ_section_title
;
Structure prediction by ZEFSAII (Michael W. Deem and Ramdas Pophale) SiO2 
 PCOD9096194
Probable space group: P -1
;
_chemical_formula_sum "Si O2"
_cell_formula_units_Z 14
_cell_length_a 11.318194
_cell_length_b 9.400326
_cell_length_c 11.549362
_cell_angle_alpha 44.752322
_cell_angle_beta 46.387699
_cell_angle_gamma 45.359376
_cell_volume 569.172260
_symmetry_space_group_name_H-M "P -1"
_symmetry_group_IT_number 2
_symmetry_cell_setting 'triclinic'
loop_
_space_group_symop_operation_xyz
x,y,z
-x,-y,-z
loop_
_atom_site_type_symbol
_atom_site_label
_atom_site_fract_x
_atom_site_fract_y
_atom_site_fract_z
Si Si1 0.728479 0.126519 0.199400
Si Si2 0.278941 0.456212 0.603911
Si Si3 0.329499 0.431512 0.307455
Si Si4 0.151977 0.156474 0.488605
Si Si5 0.029592 0.262657 0.913720
Si Si6 0.204378 0.894913 0.189151
Si Si7 0.617215 0.143677 0.680380
O O1 0.520214 0.251653 0.239171
O O2 0.748022 0.028414 0.372696
O O3 0.851957 0.912048 0.164194
O O4 0.826285 0.292954 0.028130
O O5 0.331478 0.412856 0.457790
O O6 0.081947 0.467591 0.749682
O O7 0.417167 0.249310 0.704978
O O8 0.307244 0.668766 0.504807
O O9 0.174294 0.373434 0.392256
O O10 0.295425 0.686043 0.161983
O O11 0.954590 0.160518 0.614665
O O12 0.259749 0.072925 0.346726
O O13 0.106654 0.126011 0.057964
O O14 0.349062 0.891937 0.185757
#
# Coordination Sequence:
#
# PCOD9096194 Si02
#       7
#     2   2   2   2   2   2   2
#     4  10  20  35  63  89 116 152 199 244 291 346
#     4  10  20  38  65  89 112 158 204 242 281 352
#     4  11  20  38  66  91 111 154 209 243 283 343
#     4  11  19  37  64  91 112 155 202 250 279 344
#     4  10  21  39  59  88 126 152 188 245 307 342
#     4  10  24  37  57  88 131 152 186 246 304 349
#     4  10  21  37  63  88 118 154 205 238 284 355
#
# _framework density 24.597121999999999
#
# number of rings (size 3 to 8) (size 9 to 14) (size 15 to 20)
#    0.000    1.714    2.857    2.143    0.000    1.143 
#    0.000    2.857    6.286    0.000    0.000    0.000 
#    0.000    0.000    0.000    0.000    0.000    0.000 
#
# Total GULP energy -78365.667553 kJ/mol
# GULP energy per Si atom -5597.547682 kJ/mol
# Density = 2.454114 g / cm^3
# Si number density = 24.597122 Si / 1000 Ang^3
#
#
#
# Elastic Constant Matrix: (Units=GPa)
#
#
# Indices 1 2 3 4 5 6 
#
# 1 109.4562 15.5606 19.4119 4.6513 -5.5662 2.4726
# 2 15.5606 57.9599 -6.7946 8.8931 -4.9925 2.6109
# 3 19.4119 -6.7946 66.5450 -5.1687 -13.7023 5.2382
# 4 4.6513 8.8931 -5.1687 11.8156 -0.1427 -1.8455
# 5 -5.5662 -4.9925 -13.7023 -0.1427 41.4033 0.1395
# 6 2.4726 2.6109 5.2382 -1.8455 0.1395 41.6869
#
#
#
# Elastic Compliance Matrix: (Units=1/GPa)
#
#
# Indices 1 2 3 4 5 6 
#
# 1 0.010295 -0.002623 -0.003569 -0.003666 -0.000126 -0.000160
# 2 -0.002623 0.020715 0.002589 -0.013716 0.002962 -0.002084
# 3 -0.003569 0.002589 0.018263 0.007213 0.005908 -0.001946
# 4 -0.003666 -0.013716 0.007213 0.100282 0.000570 0.004608
# 5 -0.000126 0.002962 0.005908 0.000570 0.026453 -0.000984
# 6 -0.000160 -0.002084 -0.001946 0.004608 -0.000984 0.024580
#
#
# Mechanical properties :
#
#
# Convention : Reuss Voigt Hill
#
# Bulk Modulus (GPa) = 23.77259 32.25742 28.01500
# Shear Modulus (GPa) = 22.54116 32.70005 27.62061
#
# Velocity S-wave (km/s) = 3.03052 3.65008 3.35464
# Velocity P-wave (km/s) = 4.68307 5.55940 5.13995
#
# Compressibility (1/GPa) = 0.04206525
#
# Stress axis : x y z
#
# Youngs Moduli (GPa) = 97.13454 48.27512 54.75627
#
# Poissons Ratio (x) = 0.12665 0.19543
# Poissons Ratio (y) = 0.25483 -0.14176
# Poissons Ratio (z) = 0.34668 -0.12498
#
# Static dielectric constant tensor:
#      x y z
#    x 1.931520 -0.008320 0.033940 
#    y -0.008320 1.914930 -0.045220 
#    z 0.033940 -0.045220 1.975690 
# 
# From -- ./inp_files/149185.got.cif
#   From: 2010.05.17/outbox.cif.g08.bks.cpg/sg2_75_cif.got.tgz:149185.got - 2010.06.03 11:33:40.
