data_PCOD9096604
_publ_section_title
;
Structure prediction by ZEFSAII (Michael W. Deem and Ramdas Pophale) SiO2 
 PCOD9096604
Probable space group: P -1
;
_chemical_formula_sum "Si O2"
_cell_formula_units_Z 16
_cell_length_a 10.677541
_cell_length_b 11.293782
_cell_length_c 11.663700
_cell_angle_alpha 46.152443
_cell_angle_beta 82.306624
_cell_angle_gamma 117.149174
_cell_volume 643.527811
_symmetry_space_group_name_H-M "P -1"
_symmetry_group_IT_number 2
_symmetry_cell_setting 'triclinic'
loop_
_space_group_symop_operation_xyz
x,y,z
-x,-y,-z
loop_
_atom_site_type_symbol
_atom_site_label
_atom_site_fract_x
_atom_site_fract_y
_atom_site_fract_z
Si Si1 0.897212 0.782112 0.561415
Si Si2 0.742025 0.931384 0.359867
Si Si3 0.288729 0.147658 0.158391
Si Si4 0.380781 0.174486 0.865091
Si Si5 0.018959 0.686592 0.133284
Si Si6 0.664743 0.499557 0.427565
Si Si7 0.262259 0.778765 0.677158
Si Si8 0.327503 0.555512 0.979346
O O1 0.766451 0.772959 0.507492
O O2 0.764075 0.536163 0.821105
O O3 0.000000 0.000000 0.500000
O O4 0.065973 0.878169 0.396142
O O5 0.518655 0.736580 0.474003
O O6 0.782481 0.089853 0.354562
O O7 0.901129 0.133425 0.107940
O O8 0.438402 0.203270 0.187630
O O9 0.352858 0.179558 0.999165
O O10 0.302698 0.357161 0.047654
O O11 0.592134 0.359006 0.654039
O O12 0.324360 0.292053 0.729332
O O13 0.225767 0.877399 0.047618
O O14 0.870979 0.638365 0.265320
O O15 0.877783 0.404721 0.288734
O O16 0.225549 0.599611 0.895513
O O17 0.500000 0.000000 0.500000
#
# Coordination Sequence:
#
# PCOD9096604 Si02
#       8
#     2   2   2   2   2   2   2   2
#     4  10  21  36  61  92 128 156 203 256 311 371
#     4  11  23  39  63  96 127 162 208 258 312 373
#     4  10  21  39  64  91 126 160 205 256 317 362
#     4  10  21  34  60  91 126 161 207 259 308 372
#     4  11  22  38  58  91 130 162 206 258 313 367
#     4  10  20  36  56  92 127 163 205 255 315 363
#     4  12  25  41  66  93 128 168 206 260 313 366
#     4  10  23  40  62  93 127 161 206 257 308 374
#
# _framework density 24.862952
#
# number of rings (size 3 to 8) (size 9 to 14) (size 15 to 20)
#    0.000    1.500    1.250    4.500    5.250    3.000 
#    0.000    0.000    0.000    3.750    0.000    0.000 
#    0.000    0.000    0.000    0.000    0.000    0.000 
#
# Total GULP energy -89470.768388 kJ/mol
# GULP energy per Si atom -5591.923024 kJ/mol
# Density = 2.480636 g / cm^3
# Si number density = 24.862952 Si / 1000 Ang^3
#
#
#
# Elastic Constant Matrix: (Units=GPa)
#
#
# Indices 1 2 3 4 5 6 
#
# 1 51.5211 1.9045 21.4627 0.9158 -5.0261 6.6787
# 2 1.9045 120.5442 45.5289 -7.1765 -7.0898 -4.4027
# 3 21.4627 45.5289 116.5605 9.2723 -35.2624 -2.3028
# 4 0.9158 -7.1765 9.2723 49.7982 -2.3390 -2.2425
# 5 -5.0261 -7.0898 -35.2624 -2.3390 34.1825 5.1309
# 6 6.6787 -4.4027 -2.3028 -2.2425 5.1309 23.1805
#
#
#
# Elastic Compliance Matrix: (Units=1/GPa)
#
#
# Indices 1 2 3 4 5 6 
#
# 1 0.022183 0.001250 -0.004888 0.000366 -0.000523 -0.006489
# 2 0.001250 0.010360 -0.005475 0.002420 -0.003460 0.002064
# 3 -0.004888 -0.005475 0.016401 -0.003118 0.015099 -0.001646
# 4 0.000366 0.002420 -0.003118 0.021039 -0.001586 0.002431
# 5 -0.000523 -0.003460 0.015099 -0.001586 0.045307 -0.009188
# 6 -0.006489 0.002064 -0.001646 0.002431 -0.009188 0.047507
#
#
# Mechanical properties :
#
#
# Convention : Reuss Voigt Hill
#
# Bulk Modulus (GPa) = 32.55509 47.37977 39.96743
# Shear Modulus (GPa) = 26.14211 36.08088 31.11150
#
# Velocity S-wave (km/s) = 3.24612 3.81358 3.54124
# Velocity P-wave (km/s) = 5.21268 6.20395 5.72979
#
# Compressibility (1/GPa) = 0.03071716
#
# Stress axis : x y z
#
# Youngs Moduli (GPa) = 45.07891 96.52667 60.97131
#
# Poissons Ratio (x) = -0.12064 0.29805
# Poissons Ratio (y) = -0.05634 0.33382
# Poissons Ratio (z) = 0.22036 0.52849
#
# Static dielectric constant tensor:
#      x y z
#    x 1.942820 0.001740 -0.008370 
#    y 0.001740 2.015320 -0.035260 
#    z -0.008370 -0.035260 2.045810 
# 
# From -- ./inp_files/427580.got.cif
#   From: 2010.05.17/outbox.cif.g08.bks.cpg/sg2_214_cif.got.tgz:427580.got - 2010.06.03 11:33:40.
