data_PCOD9096388
_publ_section_title
;
Structure prediction by ZEFSAII (Michael W. Deem and Ramdas Pophale) SiO2 
 PCOD9096388
Probable space group: P -1
;
_chemical_formula_sum "Si O2"
_cell_formula_units_Z 16
_cell_length_a 5.852651
_cell_length_b 17.833720
_cell_length_c 11.151310
_cell_angle_alpha 126.520450
_cell_angle_beta 98.187510
_cell_angle_gamma 59.883125
_cell_volume 788.412475
_symmetry_space_group_name_H-M "P -1"
_symmetry_group_IT_number 2
_symmetry_cell_setting 'triclinic'
loop_
_space_group_symop_operation_xyz
x,y,z
-x,-y,-z
loop_
_atom_site_type_symbol
_atom_site_label
_atom_site_fract_x
_atom_site_fract_y
_atom_site_fract_z
Si Si1 0.740709 0.877528 0.414088
Si Si2 0.182984 0.866061 0.877077
Si Si3 0.427030 0.635735 0.220084
Si Si4 0.072455 0.575603 0.002266
Si Si5 0.059076 0.073379 0.749544
Si Si6 0.679142 0.885711 0.976560
Si Si7 0.472651 0.245349 0.865686
Si Si8 0.825173 0.166805 0.434175
O O1 0.952582 0.875501 0.331898
O O2 0.617805 0.809044 0.293139
O O3 0.881953 0.851213 0.527295
O O4 0.500000 0.000000 0.500000
O O5 0.486681 0.834900 0.910601
O O6 0.217075 0.829355 0.706417
O O7 0.983782 0.830279 0.889165
O O8 0.000000 0.000000 0.000000
O O9 0.676451 0.512017 0.142879
O O10 0.467598 0.675194 0.130896
O O11 0.377470 0.723240 0.401980
O O12 0.169034 0.626902 0.161535
O O13 0.000000 0.500000 0.000000
O O14 0.808098 0.672867 0.008838
O O15 0.752609 0.147838 0.848635
O O16 0.154230 0.946250 0.630896
O O17 0.266972 0.088035 0.860080
O O18 0.500000 0.000000 0.000000
#
# Coordination Sequence:
#
# PCOD9096388 Si02
#       8
#     2   2   2   2   2   2   2   2
#     4  12  24  31  51  86 121 156 182 229 300 359
#     4  10  22  40  55  79 111 162 206 245 279 336
#     4  10  20  36  53  84 113 150 190 234 289 351
#     4   9  19  36  56  74 116 149 190 232 282 362
#     4  12  23  35  54  82 123 155 194 238 286 357
#     4  10  22  39  57  76 113 160 209 242 279 333
#     4  11  20  35  52  83 118 153 187 229 294 353
#     4  12  21  36  55  83 119 153 191 241 289 353
#
# _framework density 20.293945000000001
#
# number of rings (size 3 to 8) (size 9 to 14) (size 15 to 20)
#    0.000    1.250    6.250    1.125    5.250    1.000 
#    0.000    0.000    0.000    0.000    0.000    1.750 
#    0.000    0.000    0.000    0.000    0.000    0.000 
#
# Total GULP energy -89117.866476 kJ/mol
# GULP energy per Si atom -5569.866655 kJ/mol
# Density = 2.024776 g / cm^3
# Si number density = 20.293945 Si / 1000 Ang^3
#
#
#
# Elastic Constant Matrix: (Units=GPa)
#
#
# Indices 1 2 3 4 5 6 
#
# 1 116.0908 24.8438 38.0492 -3.0124 17.8145 -17.4885
# 2 24.8438 44.5274 42.9127 8.0753 3.3467 -25.3032
# 3 38.0492 42.9127 117.0300 -3.6097 8.1383 -19.9491
# 4 -3.0124 8.0753 -3.6097 34.5127 -10.2772 -3.0341
# 5 17.8145 3.3467 8.1383 -10.2772 40.2955 5.2431
# 6 -17.4885 -25.3032 -19.9491 -3.0341 5.2431 45.8853
#
#
#
# Elastic Compliance Matrix: (Units=1/GPa)
#
#
# Indices 1 2 3 4 5 6 
#
# 1 0.010827 -0.002615 -0.001833 0.000252 -0.004449 0.002413
# 2 -0.002615 0.054472 -0.015311 -0.014680 -0.006909 0.022204
# 3 -0.001833 -0.015311 0.014403 0.004927 0.000774 -0.002643
# 4 0.000252 -0.014680 0.004927 0.035445 0.009755 -0.004628
# 5 -0.004449 -0.006909 0.000774 0.009755 0.030735 -0.008036
# 6 0.002413 0.022204 -0.002643 -0.004628 -0.008036 0.034421
#
#
# Mechanical properties :
#
#
# Convention : Reuss Voigt Hill
#
# Bulk Modulus (GPa) = 24.88539 54.36217 39.62378
# Shear Modulus (GPa) = 21.43949 35.59487 28.51718
#
# Velocity S-wave (km/s) = 3.25383 4.19258 3.75267
# Velocity P-wave (km/s) = 5.13864 7.09102 6.19226
#
# Compressibility (1/GPa) = 0.04018421
#
# Stress axis : x y z
#
# Youngs Moduli (GPa) = 92.36209 18.35800 69.43116
#
# Poissons Ratio (x) = 0.04800 0.12726
# Poissons Ratio (y) = 0.24150 1.06308
# Poissons Ratio (z) = 0.16929 0.28108
#
# Static dielectric constant tensor:
#      x y z
#    x 1.981730 -0.094970 -0.038090 
#    y -0.094970 2.080870 -0.117860 
#    z -0.038090 -0.117860 1.808540 
# 
# From -- ./inp_files/70697.got.cif
#   From: 2010.05.17/outbox.cif.g08.bks.cpg/sg2_36_cif.got.tgz:70697.got - 2010.06.03 11:33:40.
