data_PCOD9096798
_publ_section_title
;
Structure prediction by ZEFSAII (Michael W. Deem and Ramdas Pophale) SiO2 
 PCOD9096798
Probable space group: P -1
;
_chemical_formula_sum "Si O2"
_cell_formula_units_Z 16
_cell_length_a 17.980706
_cell_length_b 8.174849
_cell_length_c 5.289735
_cell_angle_alpha 119.943862
_cell_angle_beta 76.451500
_cell_angle_gamma 110.752746
_cell_volume 628.449654
_symmetry_space_group_name_H-M "P -1"
_symmetry_group_IT_number 2
_symmetry_cell_setting 'triclinic'
loop_
_space_group_symop_operation_xyz
x,y,z
-x,-y,-z
loop_
_atom_site_type_symbol
_atom_site_label
_atom_site_fract_x
_atom_site_fract_y
_atom_site_fract_z
Si Si1 0.835994 0.825186 0.904627
Si Si2 0.601935 0.032445 0.208879
Si Si3 0.689086 0.628075 0.190761
Si Si4 0.799548 0.415826 0.152188
Si Si5 0.055684 0.387841 0.123832
Si Si6 0.258858 0.008363 0.252377
Si Si7 0.108002 0.755333 0.679843
Si Si8 0.566091 0.245841 0.891499
O O1 0.756277 0.671253 0.953389
O O2 0.859259 0.015113 0.217269
O O3 0.908090 0.729869 0.787393
O O4 0.813141 0.913042 0.732536
O O5 0.528475 0.835661 0.139477
O O6 0.604307 0.157793 0.557770
O O7 0.682396 0.984721 0.027679
O O8 0.582833 0.150733 0.070538
O O9 0.690525 0.837584 0.468244
O O10 0.727580 0.512032 0.278815
O O11 0.606590 0.478534 0.057863
O O12 0.879718 0.576151 0.121644
O O13 0.773473 0.223290 0.841076
O O14 0.823156 0.326423 0.319597
O O15 0.065139 0.608948 0.382979
O O16 0.963545 0.276289 0.079712
#
# Coordination Sequence:
#
# PCOD9096798 Si02
#       8
#     2   2   2   2   2   2   2   2
#     4  10  23  36  55  88 126 156 212 272 327 384
#     4  10  23  44  70  98 134 176 219 271 329 389
#     4  11  23  38  63  93 126 170 217 269 327 392
#     4  10  21  38  57  88 124 162 210 272 325 388
#     4  10  20  36  58  82 116 163 211 263 324 388
#     4  11  23  38  63  93 126 170 217 269 327 392
#     4  10  20  36  58  82 116 163 211 263 324 388
#     4  10  23  44  70  98 134 176 219 271 329 389
#
# _framework density 25.459477
#
# number of rings (size 3 to 8) (size 9 to 14) (size 15 to 20)
#    0.000    1.750    1.250    2.250    3.500    4.500 
#    0.000    0.625    0.000   12.000    0.000    0.000 
#    0.000    0.000    0.000    0.000    0.000    0.000 
#
# Total GULP energy -89502.756431 kJ/mol
# GULP energy per Si atom -5593.922277 kJ/mol
# Density = 2.540153 g / cm^3
# Si number density = 25.459477 Si / 1000 Ang^3
#
#
#
# Elastic Constant Matrix: (Units=GPa)
#
#
# Indices 1 2 3 4 5 6 
#
# 1 63.0148 39.4308 5.3148 0.3275 -1.0273 5.1412
# 2 39.4308 107.5133 43.3150 16.3846 13.6455 15.9171
# 3 5.3148 43.3150 95.9531 10.3532 12.7246 -1.8527
# 4 0.3275 16.3846 10.3532 44.1293 3.8986 2.8621
# 5 -1.0273 13.6455 12.7246 3.8986 25.7853 7.8770
# 6 5.1412 15.9171 -1.8527 2.8621 7.8770 44.2936
#
#
#
# Elastic Compliance Matrix: (Units=1/GPa)
#
#
# Indices 1 2 3 4 5 6 
#
# 1 0.021996 -0.010047 0.002440 0.002581 0.004543 0.000185
# 2 -0.010047 0.017381 -0.006314 -0.004219 -0.004542 -0.004263
# 3 0.002440 -0.006314 0.013857 -0.000763 -0.004318 0.003383
# 4 0.002581 -0.004219 -0.000763 0.024483 -0.000918 -0.000234
# 5 0.004543 -0.004542 -0.004318 -0.000918 0.045825 -0.007166
# 6 0.000185 -0.004263 0.003383 -0.000234 -0.007166 0.025518
#
#
# Mechanical properties :
#
#
# Convention : Reuss Voigt Hill
#
# Bulk Modulus (GPa) = 39.38496 49.17805 44.28150
# Shear Modulus (GPa) = 26.97354 34.73636 30.85495
#
# Velocity S-wave (km/s) = 3.25848 3.69776 3.48505
# Velocity P-wave (km/s) = 5.44612 6.13101 5.79869
#
# Compressibility (1/GPa) = 0.02539040
#
# Stress axis : x y z
#
# Youngs Moduli (GPa) = 45.46262 57.53551 72.16509
#
# Poissons Ratio (x) = 0.57808 -0.17607
# Poissons Ratio (y) = 0.45678 0.45566
# Poissons Ratio (z) = -0.11092 0.36329
#
# Static dielectric constant tensor:
#      x y z
#    x 2.015890 -0.023590 0.013450 
#    y -0.023590 2.046570 -0.050680 
#    z 0.013450 -0.050680 2.094090 
# 
# From -- ./inp_files/117516.got.cif
#   From: 2010.05.17/outbox.cif.g08.bks.cpg/sg2_59_cif.got.tgz:117516.got - 2010.06.03 11:33:40.
