data_PCOD9096516
_publ_section_title
;
Structure prediction by ZEFSAII (Michael W. Deem and Ramdas Pophale) SiO2 
 PCOD9096516
Probable space group: P -1
;
_chemical_formula_sum "Si O2"
_cell_formula_units_Z 16
_cell_length_a 24.301769
_cell_length_b 18.000681
_cell_length_c 11.382605
_cell_angle_alpha 147.321888
_cell_angle_beta 34.457119
_cell_angle_gamma 158.527392
_cell_volume 962.435547
_symmetry_space_group_name_H-M "P -1"
_symmetry_group_IT_number 2
_symmetry_cell_setting 'triclinic'
loop_
_space_group_symop_operation_xyz
x,y,z
-x,-y,-z
loop_
_atom_site_type_symbol
_atom_site_label
_atom_site_fract_x
_atom_site_fract_y
_atom_site_fract_z
Si Si1 0.834925 0.472598 0.285493
Si Si2 0.409381 0.723352 0.202804
Si Si3 0.673966 0.045946 0.690506
Si Si4 0.031119 0.495698 0.130315
Si Si5 0.316474 0.444767 0.207614
Si Si6 0.728171 0.134260 0.323683
Si Si7 0.658492 0.836521 0.236957
Si Si8 0.452316 0.026784 0.934962
O O1 0.789965 0.567682 0.548401
O O2 0.968611 0.549029 0.227595
O O3 0.685584 0.207745 0.199393
O O4 0.889560 0.528182 0.127960
O O5 0.335958 0.522054 0.142456
O O6 0.298590 0.734722 0.425342
O O7 0.458508 0.776602 0.050584
O O8 0.572527 0.927060 0.251839
O O9 0.840711 0.298808 0.738339
O O10 0.563131 0.029313 0.793505
O O11 0.668024 0.896075 0.433458
O O12 0.617112 0.975497 0.831486
O O13 0.881889 0.280499 0.174008
O O14 0.482040 0.635156 0.234921
O O15 0.270419 0.235014 0.006462
O O16 0.733087 0.041071 0.303163
#
# Coordination Sequence:
#
# PCOD9096516 Si02
#       8
#     2   2   2   2   2   2   2   2
#     4  10  17  33  52  77 103 132 175 208 248 300
#     4  10  16  30  55  77  95 130 180 214 238 290
#     4  10  20  31  49  80 110 131 160 211 266 297
#     4  10  20  29  52  81 105 130 165 216 256 296
#     4  10  19  33  56  75  99 137 176 209 246 301
#     4  10  17  31  52  78 102 128 174 214 246 294
#     4  10  20  34  51  77 106 134 168 211 256 302
#     4  10  17  32  54  76 103 132 170 215 249 294
#
# _framework density 16.624490000000002
#
# number of rings (size 3 to 8) (size 9 to 14) (size 15 to 20)
#    0.000    2.000    5.000    0.750    0.000    0.500 
#    0.000    1.875    0.000    0.000    0.000    0.000 
#    0.000    0.000    0.000    0.000    0.000    0.000 
#
# Total GULP energy -89108.768258 kJ/mol
# GULP energy per Si atom -5569.298016 kJ/mol
# Density = 1.658665 g / cm^3
# Si number density = 16.624490 Si / 1000 Ang^3
#
#
#
# Elastic Constant Matrix: (Units=GPa)
#
#
# Indices 1 2 3 4 5 6 
#
# 1 51.0779 10.4901 31.0599 1.9036 1.5518 -7.4816
# 2 10.4901 42.5213 21.5967 -12.4863 -2.9117 -1.8925
# 3 31.0599 21.5967 112.2168 -6.6183 3.1095 -9.6579
# 4 1.9036 -12.4863 -6.6183 19.1268 -0.0400 3.0814
# 5 1.5518 -2.9117 3.1095 -0.0400 19.6164 -1.5362
# 6 -7.4816 -1.8925 -9.6579 3.0814 -1.5362 22.2763
#
#
#
# Elastic Compliance Matrix: (Units=1/GPa)
#
#
# Indices 1 2 3 4 5 6 
#
# 1 0.025818 -0.005980 -0.005935 -0.009629 -0.001475 0.006820
# 2 -0.005980 0.033663 -0.004003 0.021760 0.005875 -0.003489
# 3 -0.005935 -0.004003 0.011675 0.001630 -0.001786 0.002380
# 4 -0.009629 0.021760 0.001630 0.069644 0.003084 -0.010099
# 5 -0.001475 0.005875 -0.001786 0.003084 0.052445 0.002420
# 6 0.006820 -0.003489 0.002380 -0.010099 0.002420 0.049480
#
#
# Mechanical properties :
#
#
# Convention : Reuss Voigt Hill
#
# Bulk Modulus (GPa) = 25.43269 36.90104 31.16687
# Shear Modulus (GPa) = 17.38117 21.71519 19.54818
#
# Velocity S-wave (km/s) = 3.23695 3.61808 3.43281
# Velocity P-wave (km/s) = 5.41313 6.30072 5.87371
#
# Compressibility (1/GPa) = 0.03931947
#
# Stress axis : x y z
#
# Youngs Moduli (GPa) = 38.73312 29.70625 85.65339
#
# Poissons Ratio (x) = 0.17763 0.50837
# Poissons Ratio (y) = 0.23161 0.34289
# Poissons Ratio (z) = 0.22989 0.11892
#
# Static dielectric constant tensor:
#      x y z
#    x 1.582430 -0.012100 0.026590 
#    y -0.012100 1.561840 -0.020680 
#    z 0.026590 -0.020680 1.565600 
# 
# From -- ./inp_files/251898.got.cif
#   From: 2010.05.17/outbox.cif.g08.bks.cpg/sg2_126_cif.got.tgz:251898.got - 2010.06.03 11:33:40.
