data_PCOD9096667
_publ_section_title
;
Structure prediction by ZEFSAII (Michael W. Deem and Ramdas Pophale) SiO2 
 PCOD9096667
Probable space group: P -1
;
_chemical_formula_sum "Si O2"
_cell_formula_units_Z 14
_cell_length_a 8.152249
_cell_length_b 14.358690
_cell_length_c 15.020782
_cell_angle_alpha 152.144738
_cell_angle_beta 56.403309
_cell_angle_gamma 123.391519
_cell_volume 675.803969
_symmetry_space_group_name_H-M "P -1"
_symmetry_group_IT_number 2
_symmetry_cell_setting 'triclinic'
loop_
_space_group_symop_operation_xyz
x,y,z
-x,-y,-z
loop_
_atom_site_type_symbol
_atom_site_label
_atom_site_fract_x
_atom_site_fract_y
_atom_site_fract_z
Si Si1 0.259871 0.027774 0.030674
Si Si2 0.689217 0.007744 0.816619
Si Si3 0.443310 0.372916 0.781371
Si Si4 0.355816 0.781650 0.244378
Si Si5 0.549358 0.179870 0.426855
Si Si6 0.991484 0.260483 0.804726
Si Si7 0.938677 0.278269 0.290071
O O1 0.131937 0.172389 0.141593
O O2 0.229652 0.060179 0.172003
O O3 0.487759 0.084016 0.977276
O O4 0.174047 0.794652 0.831028
O O5 0.850841 0.161627 0.843653
O O6 0.601489 0.840381 0.628655
O O7 0.589167 0.275473 0.721218
O O8 0.528343 0.370479 0.654832
O O9 0.221572 0.239546 0.732169
O O10 0.415946 0.593076 0.010511
O O11 0.129059 0.805941 0.306515
O O12 0.486962 0.983699 0.340452
O O13 0.769308 0.178240 0.324562
O O14 0.000000 0.500000 0.000000
O O15 0.000000 0.500000 0.500000
#
# Coordination Sequence:
#
# PCOD9096667 Si02
#       7
#     2   2   2   2   2   2   2
#     4   9  20  41  62  81 117 154 191 254 290 344
#     4   9  19  38  61  84 113 157 198 236 302 346
#     4  10  20  36  57  83 121 155 188 242 286 345
#     4   9  20  37  54  82 118 155 197 228 289 351
#     4  10  21  37  57  84 116 150 189 240 289 348
#     4   9  19  35  55  87 118 150 198 233 287 357
#     4  10  22  39  58  89 114 149 200 241 299 351
#
# _framework density 20.716066000000001
#
# number of rings (size 3 to 8) (size 9 to 14) (size 15 to 20)
#    0.000    2.571    0.000    0.429    2.000    8.000 
#    7.714    9.286    0.000    0.000    0.000    0.000 
#    0.000    0.000    0.000    0.000    0.000    0.000 
#
# Total GULP energy -77943.814680 kJ/mol
# GULP energy per Si atom -5567.415334 kJ/mol
# Density = 2.066892 g / cm^3
# Si number density = 20.716066 Si / 1000 Ang^3
#
#
#
# Elastic Constant Matrix: (Units=GPa)
#
#
# Indices 1 2 3 4 5 6 
#
# 1 61.8926 10.1888 9.1718 -11.8923 -2.4363 -2.6471
# 2 10.1888 38.4903 5.0542 -9.1785 0.0574 6.8692
# 3 9.1718 5.0542 74.6229 -4.8731 27.3378 -6.2942
# 4 -11.8923 -9.1785 -4.8731 32.8618 -1.4321 7.8117
# 5 -2.4363 0.0574 27.3378 -1.4321 20.3665 -10.5618
# 6 -2.6471 6.8692 -6.2942 7.8117 -10.5618 25.9383
#
#
#
# Elastic Compliance Matrix: (Units=1/GPa)
#
#
# Indices 1 2 3 4 5 6 
#
# 1 0.019555 -0.004541 -0.006883 0.003890 0.015275 0.006576
# 2 -0.004541 0.032544 0.001453 0.011073 -0.010222 -0.016226
# 3 -0.006883 0.001453 0.031984 0.004108 -0.051533 -0.015547
# 4 0.003890 0.011073 0.004108 0.039347 -0.011734 -0.018167
# 5 0.015275 -0.010222 -0.051533 -0.011734 0.148147 0.055619
# 6 0.006576 -0.016226 -0.015547 -0.018167 0.055619 0.067867
#
#
# Mechanical properties :
#
#
# Convention : Reuss Voigt Hill
#
# Bulk Modulus (GPa) = 15.59099 24.87061 20.23080
# Shear Modulus (GPa) = 13.13142 25.87272 19.50207
#
# Velocity S-wave (km/s) = 2.52042 3.53784 3.07155
# Velocity P-wave (km/s) = 4.00155 5.35910 4.72929
#
# Compressibility (1/GPa) = 0.06413962
#
# Stress axis : x y z
#
# Youngs Moduli (GPa) = 51.13898 30.72804 31.26555
#
# Poissons Ratio (x) = 0.13955 0.21520
# Poissons Ratio (y) = 0.23224 -0.04543
# Poissons Ratio (z) = 0.35199 -0.04465
#
# Static dielectric constant tensor:
#      x y z
#    x 1.808010 0.016120 0.044260 
#    y 0.016120 1.721050 -0.024890 
#    z 0.044260 -0.024890 1.845680 
# 
# From -- ./inp_files/251370.got.cif
#   From: 2010.05.17/outbox.cif.g08.bks.cpg/sg2_126_cif.got.tgz:251370.got - 2010.06.03 11:33:40.
