data_PCOD9096959
_publ_section_title
;
Structure prediction by ZEFSAII (Michael W. Deem and Ramdas Pophale) SiO2 
 PCOD9096959
Probable space group: P -1
;
_chemical_formula_sum "Si O2"
_cell_formula_units_Z 16
_cell_length_a 5.842501
_cell_length_b 14.781494
_cell_length_c 16.688566
_cell_angle_alpha 35.873845
_cell_angle_beta 64.908832
_cell_angle_gamma 45.724742
_cell_volume 569.218272
_symmetry_space_group_name_H-M "P -1"
_symmetry_group_IT_number 2
_symmetry_cell_setting 'triclinic'
loop_
_space_group_symop_operation_xyz
x,y,z
-x,-y,-z
loop_
_atom_site_type_symbol
_atom_site_label
_atom_site_fract_x
_atom_site_fract_y
_atom_site_fract_z
Si Si1 0.587811 0.496436 0.368422
Si Si2 0.318328 0.351760 0.616353
Si Si3 0.665921 0.243617 0.082429
Si Si4 0.819100 0.924823 0.185492
Si Si5 0.697925 0.827131 0.023508
Si Si6 0.838620 0.453805 0.196405
Si Si7 0.141567 0.957584 0.640238
Si Si8 0.594858 0.032414 0.567401
O O1 0.586395 0.353259 0.533065
O O2 0.781962 0.551689 0.349394
O O3 0.641536 0.445238 0.303873
O O4 0.205942 0.724598 0.267309
O O5 0.394820 0.141673 0.754301
O O6 0.000000 0.500000 0.500000
O O7 0.708257 0.223589 0.186357
O O8 0.002158 0.177297 0.040967
O O9 0.696314 0.049265 0.195817
O O10 0.351984 0.435655 0.939225
O O11 0.648417 0.101100 0.018509
O O12 0.912793 0.582621 0.141108
O O13 0.500000 0.000000 0.000000
O O14 0.157159 0.217306 0.298093
O O15 0.229150 0.099170 0.556391
O O16 0.758810 0.057235 0.600827
O O17 0.334077 0.884344 0.578708
#
# Coordination Sequence:
#
# PCOD9096959 Si02
#       8
#     2   2   2   2   2   2   2   2
#     4  10  20  38  57  91 136 174 229 280 344 409
#     4   9  19  34  56  86 124 177 222 286 333 399
#     4  11  25  41  67  99 133 188 228 283 352 425
#     4  10  20  36  58  90 127 178 225 276 337 409
#     4  11  23  40  61  95 142 184 228 277 334 412
#     4  11  25  40  66 102 133 185 229 283 355 419
#     4  10  25  51  77 103 141 176 237 300 373 421
#     4  10  25  50  76 107 136 181 230 312 360 425
#
# _framework density 28.108727999999999
#
# number of rings (size 3 to 8) (size 9 to 14) (size 15 to 20)
#    0.000    1.750    0.000    3.000    5.250    8.000 
#    4.500    0.000    0.000    0.000    0.000    0.000 
#    0.000    0.000    0.000    0.000    0.000    0.000 
#
# Total GULP energy -89165.686605 kJ/mol
# GULP energy per Si atom -5572.855413 kJ/mol
# Density = 2.804475 g / cm^3
# Si number density = 28.108728 Si / 1000 Ang^3
#
#
#
# Elastic Constant Matrix: (Units=GPa)
#
#
# Indices 1 2 3 4 5 6 
#
# 1 148.3120 40.8289 49.0488 9.9082 4.7254 20.1671
# 2 40.8289 114.9295 27.7966 11.4623 7.3875 22.7421
# 3 49.0488 27.7966 79.1638 22.0416 28.2032 12.5078
# 4 9.9082 11.4623 22.0416 46.4186 6.0258 -3.7270
# 5 4.7254 7.3875 28.2032 6.0258 48.0748 -4.1761
# 6 20.1671 22.7421 12.5078 -3.7270 -4.1761 51.2236
#
#
#
# Elastic Compliance Matrix: (Units=1/GPa)
#
#
# Indices 1 2 3 4 5 6 
#
# 1 0.009298 -0.001879 -0.006218 0.000986 0.002812 -0.001007
# 2 -0.001879 0.010663 -0.001103 -0.001906 -0.000910 -0.003938
# 3 -0.006218 -0.001103 0.024740 -0.008841 -0.013043 -0.004810
# 4 0.000986 -0.001906 -0.008841 0.026052 0.002527 0.004719
# 5 0.002812 -0.000910 -0.013043 0.002527 0.028432 0.004984
# 6 -0.001007 -0.003938 -0.004810 0.004719 0.004984 0.023591
#
#
# Mechanical properties :
#
#
# Convention : Reuss Voigt Hill
#
# Bulk Modulus (GPa) = 38.02053 64.19486 51.10769
# Shear Modulus (GPa) = 33.34590 44.12547 38.73568
#
# Velocity S-wave (km/s) = 3.44803 3.96639 3.71626
# Velocity P-wave (km/s) = 5.42287 6.62298 6.05274
#
# Compressibility (1/GPa) = 0.02630158
#
# Stress axis : x y z
#
# Youngs Moduli (GPa) = 107.55367 93.78162 40.41997
#
# Poissons Ratio (x) = 0.17621 0.25134
# Poissons Ratio (y) = 0.20209 0.04457
# Poissons Ratio (z) = 0.66878 0.10341
#
# Static dielectric constant tensor:
#      x y z
#    x 2.423690 0.005740 0.095050 
#    y 0.005740 2.219890 0.039830 
#    z 0.095050 0.039830 2.670550 
# 
# From -- ./inp_files/550065.got.cif
#   From: 2010.05.17/outbox.cif.g08.bks.cpg/sg2_276_cif.got.tgz:550065.got - 2010.06.03 11:33:40.
