data_PCOD9096996
_publ_section_title
;
Structure prediction by ZEFSAII (Michael W. Deem and Ramdas Pophale) SiO2 
 PCOD9096996
Probable space group: P -1
;
_chemical_formula_sum "Si O2"
_cell_formula_units_Z 16
_cell_length_a 7.394712
_cell_length_b 12.571542
_cell_length_c 15.497696
_cell_angle_alpha 37.527946
_cell_angle_beta 111.792444
_cell_angle_gamma 86.508538
_cell_volume 634.027042
_symmetry_space_group_name_H-M "P -1"
_symmetry_group_IT_number 2
_symmetry_cell_setting 'triclinic'
loop_
_space_group_symop_operation_xyz
x,y,z
-x,-y,-z
loop_
_atom_site_type_symbol
_atom_site_label
_atom_site_fract_x
_atom_site_fract_y
_atom_site_fract_z
Si Si1 0.984781 0.088361 0.048387
Si Si2 0.965045 0.733500 0.893146
Si Si3 0.462115 0.497891 0.854155
Si Si4 0.192190 0.589538 0.579650
Si Si5 0.136197 0.469686 0.336834
Si Si6 0.006785 0.652772 0.772531
Si Si7 0.673744 0.028571 0.138029
Si Si8 0.502088 0.743534 0.303864
O O1 0.091480 0.086346 0.163263
O O2 0.210107 0.869681 0.179729
O O3 0.758192 0.086039 0.030753
O O4 0.908443 0.317239 0.849218
O O5 0.868064 0.812693 0.727745
O O6 0.270660 0.563103 0.048443
O O7 0.895629 0.586825 0.016378
O O8 0.353452 0.595967 0.676425
O O9 0.236653 0.644512 0.787148
O O10 0.526465 0.254074 0.022289
O O11 0.342021 0.461619 0.602367
O O12 0.098092 0.461575 0.689905
O O13 0.933097 0.829056 0.357785
O O14 0.368186 0.342658 0.524109
O O15 0.144507 0.322309 0.355476
O O16 0.530650 0.930223 0.162823
#
# Coordination Sequence:
#
# PCOD9096996 Si02
#       8
#     2   2   2   2   2   2   2   2
#     4  10  22  37  58  85 112 147 192 231 275 334
#     4   9  18  34  56  84 111 139 184 232 272 329
#     4  10  20  36  59  81 111 148 182 228 281 326
#     4  10  22  38  58  83 113 152 191 227 278 337
#     4   9  19  37  59  83 113 149 187 232 278 330
#     4   9  17  33  59  83 107 145 184 221 279 337
#     4  10  21  37  57  82 113 146 188 234 274 326
#     4  11  22  40  58  78 117 155 184 231 283 325
#
# _framework density 25.235517000000002
#
# number of rings (size 3 to 8) (size 9 to 14) (size 15 to 20)
#    0.000    2.250    0.000    4.125    0.000    6.500 
#    0.000   10.625    0.000   45.750    0.000    0.000 
#    0.000    0.000    0.000    0.000    0.000    0.000 
#
# Total GULP energy -89577.104477 kJ/mol
# GULP energy per Si atom -5598.569030 kJ/mol
# Density = 2.517808 g / cm^3
# Si number density = 25.235517 Si / 1000 Ang^3
#
#
#
# Elastic Constant Matrix: (Units=GPa)
#
#
# Indices 1 2 3 4 5 6 
#
# 1 106.3267 12.5622 14.8721 11.9882 -9.7424 -6.2446
# 2 12.5622 97.0397 22.2534 25.2631 0.2220 -6.3937
# 3 14.8721 22.2534 80.2313 17.7378 6.1785 -7.2405
# 4 11.9882 25.2631 17.7378 32.0099 4.4905 -3.6002
# 5 -9.7424 0.2220 6.1785 4.4905 39.7558 6.8808
# 6 -6.2446 -6.3937 -7.2405 -3.6002 6.8808 36.8489
#
#
#
# Elastic Compliance Matrix: (Units=1/GPa)
#
#
# Indices 1 2 3 4 5 6 
#
# 1 0.010294 -0.000118 -0.001304 -0.003397 0.003010 0.000574
# 2 -0.000118 0.013223 -0.001531 -0.009601 0.001075 0.000835
# 3 -0.001304 -0.001531 0.014829 -0.005935 -0.002341 0.002284
# 4 -0.003397 -0.009601 -0.005935 0.044319 -0.005190 0.001891
# 5 0.003010 0.001075 -0.002341 -0.005190 0.027780 -0.005458
# 6 0.000574 0.000835 0.002284 0.001891 -0.005458 0.029033
#
#
# Mechanical properties :
#
#
# Convention : Reuss Voigt Hill
#
# Bulk Modulus (GPa) = 30.82653 42.55257 36.68955
# Shear Modulus (GPa) = 32.01068 37.31692 34.66380
#
# Velocity S-wave (km/s) = 3.56543 3.84962 3.71025
# Velocity P-wave (km/s) = 5.40294 6.05460 5.73803
#
# Compressibility (1/GPa) = 0.03243960
#
# Stress axis : x y z
#
# Youngs Moduli (GPa) = 97.14475 75.62378 67.43572
#
# Poissons Ratio (x) = 0.00894 0.08796
# Poissons Ratio (y) = 0.01148 0.10322
# Poissons Ratio (z) = 0.12672 0.11576
#
# Static dielectric constant tensor:
#      x y z
#    x 1.984890 -0.002820 -0.004410 
#    y -0.002820 2.036350 0.089390 
#    z -0.004410 0.089390 1.998110 
# 
# From -- ./inp_files/505275.got.cif
#   From: 2010.05.17/outbox.cif.g08.bks.cpg/sg2_253_cif.got.tgz:505275.got - 2010.06.03 11:33:40.
