data_PCOD9096788
_publ_section_title
;
Structure prediction by ZEFSAII (Michael W. Deem and Ramdas Pophale) SiO2 
 PCOD9096788
Probable space group: P -1
;
_chemical_formula_sum "Si O2"
_cell_formula_units_Z 16
_cell_length_a 21.455849
_cell_length_b 12.478003
_cell_length_c 12.442786
_cell_angle_alpha 139.717359
_cell_angle_beta 30.407085
_cell_angle_gamma 149.745178
_cell_volume 847.436475
_symmetry_space_group_name_H-M "P -1"
_symmetry_group_IT_number 2
_symmetry_cell_setting 'triclinic'
loop_
_space_group_symop_operation_xyz
x,y,z
-x,-y,-z
loop_
_atom_site_type_symbol
_atom_site_label
_atom_site_fract_x
_atom_site_fract_y
_atom_site_fract_z
Si Si1 0.715023 0.770571 0.095534
Si Si2 0.336363 0.776200 0.105552
Si Si3 0.570620 0.908051 0.257002
Si Si4 0.959654 0.781795 0.100167
Si Si5 0.921094 0.256228 0.904020
Si Si6 0.292241 0.607191 0.273390
Si Si7 0.341626 0.404273 0.724592
Si Si8 0.038785 0.599042 0.275972
O O1 0.602842 0.788333 0.202119
O O2 0.670657 0.721517 0.248774
O O3 0.716434 0.587278 0.905778
O O4 0.888165 0.996380 0.001871
O O5 0.314621 0.743906 0.241153
O O6 0.184800 0.735305 0.245439
O O7 0.340706 0.592212 0.912881
O O8 0.500000 0.000000 0.000000
O O9 0.441476 0.752022 0.240791
O O10 0.500000 0.000000 0.500000
O O11 0.739929 0.094589 0.092311
O O12 0.804398 0.733613 0.245921
O O13 0.981141 0.790792 0.204158
O O14 0.962733 0.593300 0.910626
O O15 0.932751 0.257939 0.759614
O O16 0.000000 0.500000 0.000000
O O17 0.129355 0.509322 0.502047
O O18 0.500000 0.500000 0.500000
#
# Coordination Sequence:
#
# PCOD9096788 Si02
#       8
#     2   2   2   2   2   2   2   2
#     4  10  22  38  55  81 116 147 184 235 283 333
#     4  10  22  38  56  82 117 151 190 236 279 332
#     4  11  22  38  61  84 109 150 190 229 282 342
#     4   9  19  37  56  79 110 148 189 228 273 335
#     4   9  18  34  56  83 108 137 187 238 270 317
#     4  11  22  37  56  84 115 148 186 234 289 333
#     4  10  22  36  56  83 113 149 189 233 281 328
#     4  10  20  36  58  82 111 150 191 231 277 336
#
# _framework density 18.880472000000001
#
# number of rings (size 3 to 8) (size 9 to 14) (size 15 to 20)
#    0.000    2.000    0.000    4.125    0.000    7.000 
#    0.000    2.500    0.000    0.000    0.000    0.000 
#    0.000    0.000    0.000    0.000    0.000    0.000 
#
# Total GULP energy -89319.294358 kJ/mol
# GULP energy per Si atom -5582.455897 kJ/mol
# Density = 1.883750 g / cm^3
# Si number density = 18.880472 Si / 1000 Ang^3
#
#
#
# Elastic Constant Matrix: (Units=GPa)
#
#
# Indices 1 2 3 4 5 6 
#
# 1 228.6489 83.7490 80.7434 -47.6835 2.4681 -2.5288
# 2 83.7490 92.3206 19.4610 -33.0044 2.9759 -0.8137
# 3 80.7434 19.4610 77.2081 -31.1081 2.7520 -4.9929
# 4 -47.6835 -33.0044 -31.1081 31.2132 -2.1935 0.9938
# 5 2.4681 2.9759 2.7520 -2.1935 17.1703 -13.0838
# 6 -2.5288 -0.8137 -4.9929 0.9938 -13.0838 38.6124
#
#
#
# Elastic Compliance Matrix: (Units=1/GPa)
#
#
# Indices 1 2 3 4 5 6 
#
# 1 0.010296 -0.008291 -0.009859 -0.002789 0.000869 -0.000409
# 2 -0.008291 0.025376 0.013401 0.027405 -0.001451 0.000528
# 3 -0.009859 0.013401 0.032899 0.031817 0.000306 0.003176
# 4 -0.002789 0.027405 0.031817 0.088681 0.004822 0.003861
# 5 0.000869 -0.001451 0.000306 0.004822 0.079387 0.026842
# 6 -0.000409 0.000528 0.003176 0.003861 0.026842 0.035290
#
#
# Mechanical properties :
#
#
# Convention : Reuss Voigt Hill
#
# Bulk Modulus (GPa) = 16.92775 85.12050 51.02413
# Shear Modulus (GPa) = 16.60486 31.68078 24.14282
#
# Velocity S-wave (km/s) = 2.96881 4.10074 3.57980
# Velocity P-wave (km/s) = 4.55379 8.22212 6.64606
#
# Compressibility (1/GPa) = 0.05907459
#
# Stress axis : x y z
#
# Youngs Moduli (GPa) = 97.12280 39.40698 30.39641
#
# Poissons Ratio (x) = 0.32671 0.29968
# Poissons Ratio (y) = 0.80521 -0.40736
# Poissons Ratio (z) = 0.95754 -0.52811
#
# Static dielectric constant tensor:
#      x y z
#    x 1.685650 -0.005080 0.007990 
#    y -0.005080 1.633010 0.018690 
#    z 0.007990 0.018690 1.614990 
# 
# From -- ./inp_files/176380.got.cif
#   From: 2010.05.17/outbox.cif.g08.bks.cpg/sg2_89_cif.got.tgz:176380.got - 2010.06.03 11:33:40.
