data_PCOD9096016
_publ_section_title
;
Structure prediction by ZEFSAII (Michael W. Deem and Ramdas Pophale) SiO2 
 PCOD9096016
Probable space group: P -1
;
_chemical_formula_sum "Si O2"
_cell_formula_units_Z 16
_cell_length_a 9.592694
_cell_length_b 10.987752
_cell_length_c 7.758369
_cell_angle_alpha 113.839747
_cell_angle_beta 115.690259
_cell_angle_gamma 101.638955
_cell_volume 599.423637
_symmetry_space_group_name_H-M "P -1"
_symmetry_group_IT_number 2
_symmetry_cell_setting 'triclinic'
loop_
_space_group_symop_operation_xyz
x,y,z
-x,-y,-z
loop_
_atom_site_type_symbol
_atom_site_label
_atom_site_fract_x
_atom_site_fract_y
_atom_site_fract_z
Si Si1 0.039649 0.544769 0.247218
Si Si2 0.390248 0.669603 0.340436
Si Si3 0.344342 0.112801 0.141738
Si Si4 0.847664 0.646985 0.616542
Si Si5 0.164437 0.268995 0.685869
Si Si6 0.524190 0.597172 0.851290
Si Si7 0.342786 0.891948 0.232305
Si Si8 0.968866 0.870777 0.107829
O O1 0.245837 0.654890 0.397378
O O2 0.019413 0.419089 0.302802
O O3 0.920484 0.619465 0.275227
O O4 0.000000 0.500000 0.000000
O O5 0.574046 0.787908 0.585151
O O6 0.394079 0.512872 0.231920
O O7 0.341130 0.733722 0.178932
O O8 0.426611 0.241328 0.115814
O O9 0.136910 0.043277 0.967547
O O10 0.379626 0.969975 0.109512
O O11 0.877183 0.770801 0.557763
O O12 0.674081 0.508401 0.370598
O O13 0.853595 0.720129 0.847031
O O14 0.371499 0.347657 0.879444
O O15 0.074085 0.153952 0.726040
O O16 0.500000 0.000000 0.500000
O O17 0.164287 0.893821 0.200122
#
# Coordination Sequence:
#
# PCOD9096016 Si02
#       8
#     2   2   2   2   2   2   2   2
#     4  12  19  35  57  87 128 166 204 256 316 367
#     4  11  18  34  60  91 123 163 206 260 311 366
#     4  10  20  35  61  93 121 168 210 252 315 378
#     4  12  23  38  62  95 131 167 209 265 317 375
#     4  11  24  36  60  99 128 167 210 261 321 375
#     4  11  21  37  61  96 133 161 212 264 313 374
#     4  10  22  37  62  95 121 164 221 254 314 387
#     4  11  21  40  65  88 125 164 214 265 311 373
#
# _framework density 26.692308000000001
#
# number of rings (size 3 to 8) (size 9 to 14) (size 15 to 20)
#    0.000    1.000    6.250    2.250    0.000    0.000 
#    0.000    0.000    0.000    7.500    0.000    0.000 
#    0.000    0.000    0.000    0.000    0.000    0.000 
#
# Total GULP energy -89208.447318 kJ/mol
# GULP energy per Si atom -5575.527957 kJ/mol
# Density = 2.663155 g / cm^3
# Si number density = 26.692308 Si / 1000 Ang^3
#
#
#
# Elastic Constant Matrix: (Units=GPa)
#
#
# Indices 1 2 3 4 5 6 
#
# 1 69.5876 24.5773 41.8656 -4.7571 23.5323 9.7858
# 2 24.5773 113.7835 75.9381 -33.1314 7.3802 -1.7851
# 3 41.8656 75.9381 188.4320 -18.7008 35.0553 4.9295
# 4 -4.7571 -33.1314 -18.7008 65.4722 -4.7926 19.6954
# 5 23.5323 7.3802 35.0553 -4.7926 45.3402 -4.4753
# 6 9.7858 -1.7851 4.9295 19.6954 -4.4753 33.1444
#
#
#
# Elastic Compliance Matrix: (Units=1/GPa)
#
#
# Indices 1 2 3 4 5 6 
#
# 1 0.020750 -0.002622 -0.001321 0.001589 -0.009979 -0.008363
# 2 -0.002622 0.014402 -0.005277 0.006097 0.003663 -0.000794
# 3 -0.001321 -0.005277 0.008779 -0.000091 -0.005438 -0.001880
# 4 0.001589 0.006097 -0.000091 0.022482 -0.000711 -0.013583
# 5 -0.009979 0.003663 -0.005438 -0.000711 0.031622 0.008645
# 6 -0.008363 -0.000794 -0.001880 -0.013583 0.008645 0.042116
#
#
# Mechanical properties :
#
#
# Convention : Reuss Voigt Hill
#
# Bulk Modulus (GPa) = 39.22782 72.95167 56.08975
# Shear Modulus (GPa) = 29.92443 44.08616 37.00529
#
# Velocity S-wave (km/s) = 3.35190 4.06845 3.72743
# Velocity P-wave (km/s) = 5.45055 7.03275 6.29159
#
# Compressibility (1/GPa) = 0.02549211
#
# Stress axis : x y z
#
# Youngs Moduli (GPa) = 48.19197 69.43394 113.91019
#
# Poissons Ratio (x) = 0.18205 0.15043
# Poissons Ratio (y) = 0.12636 0.60111
# Poissons Ratio (z) = 0.06364 0.36641
#
# Static dielectric constant tensor:
#      x y z
#    x 2.243800 0.083200 -0.046950 
#    y 0.083200 2.308940 -0.001030 
#    z -0.046950 -0.001030 2.089690 
# 
# From -- ./inp_files/258276.got.cif
#   From: 2010.05.17/outbox.cif.g08.bks.cpg/sg2_130_cif.got.tgz:258276.got - 2010.06.03 11:33:40.
