data_PCOD9096112
_publ_section_title
;
Structure prediction by ZEFSAII (Michael W. Deem and Ramdas Pophale) SiO2 
 PCOD9096112
Probable space group: P -1
;
_chemical_formula_sum "Si O2"
_cell_formula_units_Z 16
_cell_length_a 11.916309
_cell_length_b 17.881484
_cell_length_c 9.034462
_cell_angle_alpha 68.027980
_cell_angle_beta 102.584020
_cell_angle_gamma 153.066929
_cell_volume 777.347758
_symmetry_space_group_name_H-M "P -1"
_symmetry_group_IT_number 2
_symmetry_cell_setting 'triclinic'
loop_
_space_group_symop_operation_xyz
x,y,z
-x,-y,-z
loop_
_atom_site_type_symbol
_atom_site_label
_atom_site_fract_x
_atom_site_fract_y
_atom_site_fract_z
Si Si1 0.395813 0.600938 0.411125
Si Si2 0.082207 0.216762 0.171551
Si Si3 0.808223 0.881728 0.891309
Si Si4 0.934431 0.880570 0.472003
Si Si5 0.283184 0.494431 0.128303
Si Si6 0.524113 0.871656 0.175169
Si Si7 0.902892 0.363370 0.981904
Si Si8 0.965467 0.391188 0.644833
O O1 0.636761 0.705001 0.471862
O O2 0.322020 0.514138 0.299644
O O3 0.482378 0.749426 0.291898
O O4 0.151942 0.450974 0.561982
O O5 0.159553 0.182317 0.140482
O O6 0.015544 0.158482 0.368693
O O7 0.294441 0.418878 0.096325
O O8 0.820784 0.078307 0.117022
O O9 0.512168 0.697394 0.991515
O O10 0.897920 0.007627 0.711292
O O11 0.000000 0.000000 0.000000
O O12 0.000000 0.000000 0.500000
O O13 0.000970 0.351168 0.115794
O O14 0.344653 0.811125 0.280878
O O15 0.390716 0.807853 0.027017
O O16 0.041615 0.443063 0.801582
O O17 0.000000 0.500000 0.000000
O O18 0.000000 0.500000 0.500000
#
# Coordination Sequence:
#
# PCOD9096112 Si02
#       8
#     2   2   2   2   2   2   2   2
#     4  11  18  39  58  87 117 159 210 250 295 364
#     4  11  24  40  59  93 126 159 199 256 315 359
#     4  11  22  42  63  89 119 164 208 252 297 367
#     4  10  21  36  65  83 114 161 206 241 301 365
#     4  12  24  38  61  91 130 157 198 263 309 356
#     4   9  18  36  60  84 119 152 209 250 291 358
#     4  10  20  35  62  90 115 165 209 243 300 365
#     4   8  18  31  59  84 113 150 202 256 288 342
#
# _framework density 20.582808
#
# number of rings (size 3 to 8) (size 9 to 14) (size 15 to 20)
#    0.750    1.000    5.000    0.375    3.500    1.000 
#    0.000    0.625    0.000    0.000    0.000    0.000 
#    0.000    0.000    0.000    0.000    0.000    0.000 
#
# Total GULP energy -89097.164146 kJ/mol
# GULP energy per Si atom -5568.572759 kJ/mol
# Density = 2.053596 g / cm^3
# Si number density = 20.582808 Si / 1000 Ang^3
#
#
#
# Elastic Constant Matrix: (Units=GPa)
#
#
# Indices 1 2 3 4 5 6 
#
# 1 45.6448 29.1756 4.6981 10.6695 -16.5570 -0.1642
# 2 29.1756 94.7632 32.9571 23.4268 -0.7112 12.7682
# 3 4.6981 32.9571 49.9414 24.0700 -9.4122 10.5201
# 4 10.6695 23.4268 24.0700 36.1290 7.2776 2.9005
# 5 -16.5570 -0.7112 -9.4122 7.2776 30.1520 3.1781
# 6 -0.1642 12.7682 10.5201 2.9005 3.1781 30.5182
#
#
#
# Elastic Compliance Matrix: (Units=1/GPa)
#
#
# Indices 1 2 3 4 5 6 
#
# 1 0.062786 -0.021766 0.041856 -0.043493 0.058256 -0.006917
# 2 -0.021766 0.021999 -0.021201 0.010485 -0.020490 -0.000876
# 3 0.041856 -0.021201 0.073428 -0.058518 0.061326 -0.017041
# 4 -0.043493 0.010485 -0.058518 0.084419 -0.063772 0.014169
# 5 0.058256 -0.020490 0.061326 -0.063772 0.100968 -0.016708
# 6 -0.006917 -0.000876 -0.017041 0.014169 -0.016708 0.039364
#
#
# Mechanical properties :
#
#
# Convention : Reuss Voigt Hill
#
# Bulk Modulus (GPa) = 6.41059 36.00122 21.20591
# Shear Modulus (GPa) = 11.43685 27.59442 19.51563
#
# Velocity S-wave (km/s) = 2.35978 3.66547 3.08255
# Velocity P-wave (km/s) = 3.24747 5.95341 4.79526
#
# Compressibility (1/GPa) = 0.15599177
#
# Stress axis : x y z
#
# Youngs Moduli (GPa) = 15.92712 45.45588 13.61875
#
# Poissons Ratio (x) = 0.98939 -0.57003
# Poissons Ratio (y) = 0.34667 0.28873
# Poissons Ratio (z) = -0.66665 0.96370
#
# Static dielectric constant tensor:
#      x y z
#    x 1.827980 0.049380 0.027870 
#    y 0.049380 1.523790 -0.018610 
#    z 0.027870 -0.018610 1.762480 
# 
# From -- ./inp_files/279312.got.cif
#   From: 2010.05.17/outbox.cif.g08.bks.cpg/sg2_140_cif.got.tgz:279312.got - 2010.06.03 11:33:40.
