data_PCOD9096672
_publ_section_title
;
Structure prediction by ZEFSAII (Michael W. Deem and Ramdas Pophale) SiO2 
 PCOD9096672
Probable space group: P -1
;
_chemical_formula_sum "Si O2"
_cell_formula_units_Z 16
_cell_length_a 5.517442
_cell_length_b 10.906336
_cell_length_c 23.569071
_cell_angle_alpha 141.438436
_cell_angle_beta 60.588204
_cell_angle_gamma 122.924519
_cell_volume 736.150429
_symmetry_space_group_name_H-M "P -1"
_symmetry_group_IT_number 2
_symmetry_cell_setting 'triclinic'
loop_
_space_group_symop_operation_xyz
x,y,z
-x,-y,-z
loop_
_atom_site_type_symbol
_atom_site_label
_atom_site_fract_x
_atom_site_fract_y
_atom_site_fract_z
Si Si1 0.629046 0.653378 0.616265
Si Si2 0.421319 0.747786 0.467951
Si Si3 0.047381 0.538198 0.350431
Si Si4 0.072879 0.325698 0.697355
Si Si5 0.933798 0.985806 0.911516
Si Si6 0.598017 0.930824 0.630057
Si Si7 0.997812 0.886221 0.748368
Si Si8 0.249704 0.765284 0.885451
O O1 0.733476 0.459472 0.552302
O O2 0.666553 0.730389 0.575836
O O3 0.770352 0.854803 0.711498
O O4 0.294471 0.559416 0.637182
O O5 0.176188 0.740089 0.446893
O O6 0.683228 0.730822 0.390279
O O7 0.530417 0.911220 0.563685
O O8 0.121201 0.599894 0.300162
O O9 0.138604 0.341331 0.289379
O O10 0.199313 0.524787 0.793227
O O11 0.869981 0.128202 0.679978
O O12 0.589325 0.864661 0.898516
O O13 0.034946 0.031358 0.851172
O O14 0.130782 0.864561 0.879419
O O15 0.932596 0.177431 0.021070
O O16 0.306257 0.926653 0.696258
#
# Coordination Sequence:
#
# PCOD9096672 Si02
#       8
#     2   2   2   2   2   2   2   2
#     4   9  20  36  55  78 110 151 199 247 289 353
#     4  10  21  37  58  79 109 158 210 253 289 352
#     4   9  18  34  58  77 105 146 197 249 292 342
#     4  11  22  37  56  83 121 154 195 252 308 362
#     4  10  20  38  68  96 120 151 207 256 306 357
#     4  11  24  36  52  84 120 159 198 242 310 367
#     4  10  20  36  57  84 114 154 196 250 297 358
#     4  10  21  38  66  98 119 154 203 259 304 364
#
# _framework density 21.734687000000001
#
# number of rings (size 3 to 8) (size 9 to 14) (size 15 to 20)
#    0.000    2.000    1.250    3.000    1.750    8.000 
#    0.000    0.625    0.000    0.750    0.000    0.000 
#    0.000    0.000    0.000    0.000    0.000    0.000 
#
# Total GULP energy -89135.377231 kJ/mol
# GULP energy per Si atom -5570.961077 kJ/mol
# Density = 2.168522 g / cm^3
# Si number density = 21.734687 Si / 1000 Ang^3
#
#
#
# Elastic Constant Matrix: (Units=GPa)
#
#
# Indices 1 2 3 4 5 6 
#
# 1 64.3850 21.1842 11.9816 -2.3806 21.2627 9.9074
# 2 21.1842 104.1656 41.4082 5.5629 0.7957 6.1678
# 3 11.9816 41.4082 130.9866 -16.8195 15.7290 19.2272
# 4 -2.3806 5.5629 -16.8195 24.4271 0.9178 0.2691
# 5 21.2627 0.7957 15.7290 0.9178 30.9017 -3.6860
# 6 9.9074 6.1678 19.2272 0.2691 -3.6860 20.6062
#
#
#
# Elastic Compliance Matrix: (Units=1/GPa)
#
#
# Indices 1 2 3 4 5 6 
#
# 1 0.030589 -0.008598 0.008684 0.012276 -0.028655 -0.025522
# 2 -0.008598 0.014283 -0.007612 -0.009837 0.010791 0.009020
# 3 0.008684 -0.007612 0.016072 0.014498 -0.016786 -0.020085
# 4 0.012276 -0.009837 0.014498 0.055326 -0.019689 -0.020730
# 5 -0.028655 0.010791 -0.016786 -0.019689 0.065483 0.038181
# 6 -0.025522 0.009020 -0.020085 -0.020730 0.038181 0.083942
#
#
# Mechanical properties :
#
#
# Convention : Reuss Voigt Hill
#
# Bulk Modulus (GPa) = 21.79049 49.85391 35.82220
# Shear Modulus (GPa) = 16.88936 30.18455 23.53696
#
# Velocity S-wave (km/s) = 2.79062 3.73067 3.29435
# Velocity P-wave (km/s) = 4.52005 6.44550 5.56666
#
# Compressibility (1/GPa) = 0.04589158
#
# Stress axis : x y z
#
# Youngs Moduli (GPa) = 32.69150 70.01143 62.22053
#
# Poissons Ratio (x) = 0.60198 -0.54031
# Poissons Ratio (y) = 0.28109 0.47360
# Poissons Ratio (z) = -0.28388 0.53291
#
# Static dielectric constant tensor:
#      x y z
#    x 2.021560 -0.056940 -0.007340 
#    y -0.056940 1.758690 0.015970 
#    z -0.007340 0.015970 1.907340 
# 
# From -- ./inp_files/43318.got.cif
#   From: 2010.05.17/outbox.cif.g08.bks.cpg/sg2_22_cif.got.tgz:43318.got - 2010.06.03 11:33:40.
