data_PCOD9096081
_publ_section_title
;
Structure prediction by ZEFSAII (Michael W. Deem and Ramdas Pophale) SiO2 
 PCOD9096081
Probable space group: P -1
;
_chemical_formula_sum "Si O2"
_cell_formula_units_Z 12
_cell_length_a 7.592003
_cell_length_b 9.203806
_cell_length_c 13.426084
_cell_angle_alpha 109.118182
_cell_angle_beta 35.932207
_cell_angle_gamma 105.489654
_cell_volume 520.165847
_symmetry_space_group_name_H-M "P -1"
_symmetry_group_IT_number 2
_symmetry_cell_setting 'triclinic'
loop_
_space_group_symop_operation_xyz
x,y,z
-x,-y,-z
loop_
_atom_site_type_symbol
_atom_site_label
_atom_site_fract_x
_atom_site_fract_y
_atom_site_fract_z
Si Si1 0.780111 0.394577 0.318696
Si Si2 0.134173 0.134333 0.401178
Si Si3 0.319535 0.874230 0.987048
Si Si4 0.206545 0.924806 0.664240
Si Si5 0.861705 0.436894 0.647437
Si Si6 0.294902 0.523383 0.999058
O O1 0.500000 0.500000 0.500000
O O2 0.720644 0.216706 0.327653
O O3 0.026662 0.439682 0.297638
O O4 0.964162 0.449942 0.148823
O O5 0.969900 0.132675 0.367759
O O6 0.031751 0.278327 0.546711
O O7 0.483069 0.135051 0.206820
O O8 0.000000 0.000000 0.500000
O O9 0.296304 0.703684 0.008576
O O10 0.991725 0.951166 0.156368
O O11 0.500000 0.000000 0.000000
O O12 0.500000 0.000000 0.500000
O O13 0.503355 0.429906 0.805787
O O14 0.000000 0.500000 0.500000
O O15 0.500000 0.500000 0.000000
#
# Coordination Sequence:
#
# PCOD9096081 Si02
#       6
#     2   2   2   2   2   2
#     4  11  24  40  64  88 117 162 200 243 298 355
#     4  11  24  37  64  91 118 158 196 247 297 345
#     4  10  20  37  58  87 120 157 198 239 293 358
#     4  11  24  42  60  87 125 158 197 245 297 359
#     4  11  20  41  62  89 120 150 205 247 289 347
#     4  10  20  35  62  86 116 159 200 240 288 358
#
# _framework density 23.069568
#
# number of rings (size 3 to 8) (size 9 to 14) (size 15 to 20)
#    0.000    1.333    3.333    4.000   14.000    0.000 
#    0.000    3.333    0.000    0.000    0.000    0.000 
#    0.000    0.000    0.000    0.000    0.000    0.000 
#
# Total GULP energy -66875.817645 kJ/mol
# GULP energy per Si atom -5572.984804 kJ/mol
# Density = 2.301706 g / cm^3
# Si number density = 23.069568 Si / 1000 Ang^3
#
#
#
# Elastic Constant Matrix: (Units=GPa)
#
#
# Indices 1 2 3 4 5 6 
#
# 1 41.3852 4.7951 7.7193 -6.4656 -1.1819 -6.0180
# 2 4.7951 214.4080 106.7882 -12.2860 -9.8910 -36.5806
# 3 7.7193 106.7882 255.9060 -18.1583 -34.9581 -25.1284
# 4 -6.4656 -12.2860 -18.1583 43.9090 -4.0468 -0.5205
# 5 -1.1819 -9.8910 -34.9581 -4.0468 27.3707 2.1995
# 6 -6.0180 -36.5806 -25.1284 -0.5205 2.1995 29.0985
#
#
#
# Elastic Compliance Matrix: (Units=1/GPa)
#
#
# Indices 1 2 3 4 5 6 
#
# 1 0.025688 0.000804 0.000019 0.004233 0.001544 0.006300
# 2 0.000804 0.007025 -0.002275 0.001160 -0.000733 0.007109
# 3 0.000019 -0.002275 0.006256 0.002659 0.007398 0.002034
# 4 0.004233 0.001160 0.002659 0.025559 0.007413 0.004526
# 5 0.001544 -0.000733 0.007398 0.007413 0.046690 0.002390
# 6 0.006300 0.007109 0.002034 0.004526 0.002390 0.046262
#
#
# Mechanical properties :
#
#
# Convention : Reuss Voigt Hill
#
# Bulk Modulus (GPa) = 27.72784 83.36715 55.54750
# Shear Modulus (GPa) = 29.00167 46.23544 37.61855
#
# Velocity S-wave (km/s) = 3.54946 4.48166 4.04252
# Velocity P-wave (km/s) = 5.37062 7.93701 6.77642
#
# Compressibility (1/GPa) = 0.03606483
#
# Stress axis : x y z
#
# Youngs Moduli (GPa) = 38.92896 142.35299 159.85575
#
# Poissons Ratio (x) = -0.11452 -0.00308
# Poissons Ratio (y) = -0.03132 0.36374
# Poissons Ratio (z) = -0.00075 0.32392
#
# Static dielectric constant tensor:
#      x y z
#    x 1.993630 0.002260 0.024130 
#    y 0.002260 1.707250 -0.011420 
#    z 0.024130 -0.011420 2.382180 
# 
# From -- ./inp_files/145087.got.cif
#   From: 2010.05.17/outbox.cif.g08.bks.cpg/sg2_73_cif.got.tgz:145087.got - 2010.06.03 11:33:40.
