data_PCOD9096581
_publ_section_title
;
Structure prediction by ZEFSAII (Michael W. Deem and Ramdas Pophale) SiO2 
 PCOD9096581
Probable space group: P -1
;
_chemical_formula_sum "Si O2"
_cell_formula_units_Z 16
_cell_length_a 6.647174
_cell_length_b 10.421725
_cell_length_c 11.890729
_cell_angle_alpha 69.057973
_cell_angle_beta 85.439404
_cell_angle_gamma 102.249586
_cell_volume 740.831066
_symmetry_space_group_name_H-M "P -1"
_symmetry_group_IT_number 2
_symmetry_cell_setting 'triclinic'
loop_
_space_group_symop_operation_xyz
x,y,z
-x,-y,-z
loop_
_atom_site_type_symbol
_atom_site_label
_atom_site_fract_x
_atom_site_fract_y
_atom_site_fract_z
Si Si1 0.095208 0.985161 0.826832
Si Si2 0.832917 0.049474 0.416056
Si Si3 0.474939 0.550909 0.722416
Si Si4 0.490580 0.235434 0.752631
Si Si5 0.946864 0.601238 0.104558
Si Si6 0.795817 0.124536 0.913575
Si Si7 0.277153 0.426285 0.088343
Si Si8 0.576620 0.213942 0.508682
O O1 0.086787 0.917499 0.725406
O O2 0.259322 0.141200 0.764168
O O3 0.878193 0.009723 0.874757
O O4 0.194331 0.910151 0.944531
O O5 0.625343 0.918856 0.456470
O O6 0.761632 0.175476 0.442160
O O7 0.000000 0.000000 0.500000
O O8 0.500732 0.394691 0.740777
O O9 0.246954 0.519114 0.801087
O O10 0.654779 0.626612 0.779702
O O11 0.475728 0.648043 0.584790
O O12 0.584502 0.153599 0.870010
O O13 0.620496 0.234971 0.632402
O O14 0.033561 0.723920 0.151072
O O15 0.139323 0.537242 0.084422
O O16 0.855007 0.663596 0.978829
O O17 0.500000 0.500000 0.000000
#
# Coordination Sequence:
#
# PCOD9096581 Si02
#       8
#     2   2   2   2   2   2   2   2
#     4  10  23  38  62  90 117 157 205 255 301 361
#     4  10  22  45  64  87 120 156 207 258 300 359
#     4  11  21  38  60  89 125 161 198 247 308 362
#     4  11  21  41  60  87 125 161 199 253 302 361
#     4  10  20  36  56  86 126 155 201 245 293 368
#     4  11  21  38  61  90 119 159 201 250 310 354
#     4   9  20  36  56  84 120 163 193 241 301 356
#     4  10  24  40  63  90 119 161 207 250 302 364
#
# _framework density 21.597366999999998
#
# number of rings (size 3 to 8) (size 9 to 14) (size 15 to 20)
#    0.000    1.750    2.500    1.500    0.000    5.000 
#    0.000    1.875    0.000    0.000    0.000    0.000 
#    0.000    0.000    0.000    0.000    0.000    0.000 
#
# Total GULP energy -89310.640126 kJ/mol
# GULP energy per Si atom -5581.915008 kJ/mol
# Density = 2.154821 g / cm^3
# Si number density = 21.597367 Si / 1000 Ang^3
#
#
#
# Elastic Constant Matrix: (Units=GPa)
#
#
# Indices 1 2 3 4 5 6 
#
# 1 78.5947 30.4428 16.1789 16.5718 8.4198 -17.6972
# 2 30.4428 50.0140 14.5159 8.9635 -0.0196 -18.6561
# 3 16.1789 14.5159 101.4130 10.4183 4.1099 -23.0188
# 4 16.5718 8.9635 10.4183 33.7353 -5.7476 -2.9263
# 5 8.4198 -0.0196 4.1099 -5.7476 24.1089 -1.9751
# 6 -17.6972 -18.6561 -23.0188 -2.9263 -1.9751 34.5327
#
#
#
# Elastic Compliance Matrix: (Units=1/GPa)
#
#
# Indices 1 2 3 4 5 6 
#
# 1 0.019866 -0.009058 0.000332 -0.008564 -0.008692 0.004285
# 2 -0.009058 0.030237 -0.000206 -0.001879 0.003726 0.011610
# 3 0.000332 -0.000206 0.012036 -0.003570 -0.002393 0.007642
# 4 -0.008564 -0.001879 -0.003570 0.037177 0.012138 -0.003939
# 5 -0.008692 0.003726 -0.002393 0.012138 0.047797 -0.000274
# 6 0.004285 0.011610 0.007642 -0.003939 -0.000274 0.042171
#
#
# Mechanical properties :
#
#
# Convention : Reuss Voigt Hill
#
# Bulk Modulus (GPa) = 22.58672 39.14407 30.86540
# Shear Modulus (GPa) = 22.53223 29.73434 26.13328
#
# Velocity S-wave (km/s) = 3.23350 3.71449 3.48231
# Velocity P-wave (km/s) = 4.94181 6.04652 5.52186
#
# Compressibility (1/GPa) = 0.04427380
#
# Stress axis : x y z
#
# Youngs Moduli (GPa) = 50.33830 33.07256 83.08728
#
# Poissons Ratio (x) = 0.29958 -0.02759
# Poissons Ratio (y) = 0.45598 0.01709
# Poissons Ratio (z) = -0.01672 0.00680
#
# Static dielectric constant tensor:
#      x y z
#    x 1.782090 0.012670 -0.021570 
#    y 0.012670 1.784170 0.014960 
#    z -0.021570 0.014960 1.794730 
# 
# From -- ./inp_files/118699.got.cif
#   From: 2010.05.17/outbox.cif.g08.bks.cpg/sg2_60_cif.got.tgz:118699.got - 2010.06.03 11:33:40.
