data_PCOD9096895
_publ_section_title
;
Structure prediction by ZEFSAII (Michael W. Deem and Ramdas Pophale) SiO2 
 PCOD9096895
Probable space group: P -1
;
_chemical_formula_sum "Si O2"
_cell_formula_units_Z 16
_cell_length_a 6.836627
_cell_length_b 15.968207
_cell_length_c 8.266202
_cell_angle_alpha 119.308413
_cell_angle_beta 54.678785
_cell_angle_gamma 93.215536
_cell_volume 608.517920
_symmetry_space_group_name_H-M "P -1"
_symmetry_group_IT_number 2
_symmetry_cell_setting 'triclinic'
loop_
_space_group_symop_operation_xyz
x,y,z
-x,-y,-z
loop_
_atom_site_type_symbol
_atom_site_label
_atom_site_fract_x
_atom_site_fract_y
_atom_site_fract_z
Si Si1 0.155294 0.598373 0.756760
Si Si2 0.714008 0.554516 0.954524
Si Si3 0.552228 0.813702 0.694644
Si Si4 0.240414 0.823126 0.371169
Si Si5 0.217202 0.180978 0.750602
Si Si6 0.478932 0.321827 0.154848
Si Si7 0.329873 0.679850 0.468725
Si Si8 0.062047 0.973322 0.135179
O O1 0.017370 0.515569 0.782316
O O2 0.958704 0.707717 0.006533
O O3 0.403966 0.601117 0.736071
O O4 0.207701 0.607710 0.551451
O O5 0.667073 0.619973 0.874545
O O6 0.615087 0.620173 0.224453
O O7 0.500000 0.500000 0.000000
O O8 0.729768 0.823546 0.472397
O O9 0.350010 0.765982 0.662156
O O10 0.659958 0.733397 0.710229
O O11 0.362928 0.918102 0.950894
O O12 0.506364 0.837066 0.317073
O O13 0.298544 0.773242 0.120240
O O14 0.202621 0.735051 0.420499
O O15 0.029718 0.926689 0.615684
O O16 0.098751 0.097670 0.793633
O O17 0.000000 0.000000 0.000000
#
# Coordination Sequence:
#
# PCOD9096895 Si02
#       8
#     2   2   2   2   2   2   2   2
#     4  11  20  41  68  86 127 173 197 253 327 369
#     4  11  24  44  69  97 124 155 208 264 311 388
#     4  10  20  36  58  86 125 167 209 255 305 372
#     4  10  20  36  59  91 127 165 216 261 296 367
#     4  11  19  37  62  87 119 176 209 246 319 359
#     4  10  22  43  62  93 127 161 213 255 312 385
#     4   9  18  39  62  88 126 162 206 247 313 379
#     4  12  20  34  62  93 127 168 217 265 301 349
#
# _framework density 26.293389999999999
#
# number of rings (size 3 to 8) (size 9 to 14) (size 15 to 20)
#    0.000    1.500    8.750    0.375    0.000    1.500 
#    4.500    3.125    0.000    0.000    0.000    0.000 
#    0.000    0.000    0.000    0.000    0.000    0.000 
#
# Total GULP energy -89480.354959 kJ/mol
# GULP energy per Si atom -5592.522185 kJ/mol
# Density = 2.623355 g / cm^3
# Si number density = 26.293390 Si / 1000 Ang^3
#
#
#
# Elastic Constant Matrix: (Units=GPa)
#
#
# Indices 1 2 3 4 5 6 
#
# 1 85.2626 46.7469 27.8020 -23.3693 2.8593 14.4573
# 2 46.7469 130.6338 69.1680 -39.4545 -1.3060 7.0485
# 3 27.8020 69.1680 126.2622 -38.9004 -2.9216 8.4525
# 4 -23.3693 -39.4545 -38.9004 58.9938 5.9687 -4.8680
# 5 2.8593 -1.3060 -2.9216 5.9687 40.7447 -3.8971
# 6 14.4573 7.0485 8.4525 -4.8680 -3.8971 41.6811
#
#
#
# Elastic Compliance Matrix: (Units=1/GPa)
#
#
# Indices 1 2 3 4 5 6 
#
# 1 0.015924 -0.004652 0.000297 0.003229 -0.002160 -0.004621
# 2 -0.004652 0.013050 -0.005068 0.003620 -0.000068 0.000851
# 3 0.000297 -0.005068 0.012138 0.004646 -0.000106 -0.001175
# 4 0.003229 0.003620 0.004646 0.024036 -0.003315 -0.000177
# 5 -0.002160 -0.000068 -0.000106 -0.003315 0.025436 0.002773
# 6 -0.004621 0.000851 -0.001175 -0.000177 0.002773 0.025928
#
#
# Mechanical properties :
#
#
# Convention : Reuss Voigt Hill
#
# Bulk Modulus (GPa) = 44.91281 69.95470 57.43375
# Shear Modulus (GPa) = 35.01911 41.51336 38.26624
#
# Velocity S-wave (km/s) = 3.65342 3.97779 3.81905
# Velocity P-wave (km/s) = 5.90891 6.91088 6.42944
#
# Compressibility (1/GPa) = 0.02226536
#
# Stress axis : x y z
#
# Youngs Moduli (GPa) = 62.79992 76.62992 82.38269
#
# Poissons Ratio (x) = 0.35649 -0.02443
# Poissons Ratio (y) = 0.29215 0.41749
# Poissons Ratio (z) = -0.01862 0.38833
#
# Static dielectric constant tensor:
#      x y z
#    x 2.144210 0.023460 -0.018980 
#    y 0.023460 2.129830 0.062820 
#    z -0.018980 0.062820 2.043880 
# 
# From -- ./inp_files/208168.got.cif
#   From: 2010.05.17/outbox.cif.g08.bks.cpg/sg2_105_cif.got.tgz:208168.got - 2010.06.03 11:33:40.
