data_PCOD9096545
_publ_section_title
;
Structure prediction by ZEFSAII (Michael W. Deem and Ramdas Pophale) SiO2 
 PCOD9096545
Probable space group: P -1
;
_chemical_formula_sum "Si O2"
_cell_formula_units_Z 16
_cell_length_a 6.829090
_cell_length_b 14.628940
_cell_length_c 7.168179
_cell_angle_alpha 70.030900
_cell_angle_beta 104.702579
_cell_angle_gamma 105.003073
_cell_volume 639.239208
_symmetry_space_group_name_H-M "P -1"
_symmetry_group_IT_number 2
_symmetry_cell_setting 'triclinic'
loop_
_space_group_symop_operation_xyz
x,y,z
-x,-y,-z
loop_
_atom_site_type_symbol
_atom_site_label
_atom_site_fract_x
_atom_site_fract_y
_atom_site_fract_z
Si Si1 0.634413 0.359673 0.175836
Si Si2 0.838432 0.872032 0.021692
Si Si3 0.109443 0.727864 0.199546
Si Si4 0.538910 0.673111 0.230075
Si Si5 0.533307 0.860345 0.631142
Si Si6 0.159944 0.074298 0.609185
Si Si7 0.902425 0.224783 0.398086
Si Si8 0.812546 0.542581 0.335864
O O1 0.492900 0.260126 0.294810
O O2 0.845812 0.317626 0.211022
O O3 0.682286 0.450624 0.260473
O O4 0.535106 0.381240 0.944372
O O5 0.687379 0.775966 0.142980
O O6 0.878633 0.940743 0.168222
O O7 0.036075 0.826103 0.033803
O O8 0.700133 0.901340 0.801240
O O9 0.333311 0.702888 0.238549
O O10 0.104013 0.745137 0.408435
O O11 0.933636 0.632960 0.176433
O O12 0.673516 0.597613 0.401211
O O13 0.607732 0.912848 0.418735
O O14 0.297207 0.862812 0.622375
O O15 0.103651 0.180078 0.459187
O O16 0.000000 0.000000 0.500000
O O17 0.000000 0.500000 0.500000
#
# Coordination Sequence:
#
# PCOD9096545 Si02
#       8
#     2   2   2   2   2   2   2   2
#     4   9  20  39  54  80 116 149 192 234 274 337
#     4   9  21  38  60  84 118 148 194 234 277 354
#     4  10  20  36  56  83 114 156 190 236 281 324
#     4  10  21  36  58  80 115 154 192 230 283 330
#     4   9  20  39  60  82 114 156 185 229 297 334
#     4  11  23  39  63  89 113 146 188 237 296 351
#     4   9  20  40  57  82 114 148 189 232 280 345
#     4  11  20  36  52  84 118 147 195 242 269 326
#
# _framework density 25.029754000000001
#
# number of rings (size 3 to 8) (size 9 to 14) (size 15 to 20)
#    0.750    1.500    1.250    1.125    1.750    2.000 
#    2.250    0.625    0.000    0.000    0.000    0.000 
#    0.000    0.000    0.000    0.000    0.000    0.000 
#
# Total GULP energy -89245.892641 kJ/mol
# GULP energy per Si atom -5577.868290 kJ/mol
# Density = 2.497278 g / cm^3
# Si number density = 25.029754 Si / 1000 Ang^3
#
#
#
# Elastic Constant Matrix: (Units=GPa)
#
#
# Indices 1 2 3 4 5 6 
#
# 1 103.4419 20.2011 15.1302 -1.5679 8.5587 -11.2529
# 2 20.2011 93.7440 13.8261 14.9777 -1.3653 -11.5788
# 3 15.1302 13.8261 81.4380 18.5841 12.2877 -0.5462
# 4 -1.5679 14.9777 18.5841 39.4225 0.2468 12.1534
# 5 8.5587 -1.3653 12.2877 0.2468 31.3840 -7.3725
# 6 -11.2529 -11.5788 -0.5462 12.1534 -7.3725 25.0302
#
#
#
# Elastic Compliance Matrix: (Units=1/GPa)
#
#
# Indices 1 2 3 4 5 6 
#
# 1 0.010752 -0.001906 -0.001634 0.001035 -0.001699 0.002914
# 2 -0.001906 0.013912 -0.000609 -0.008439 0.003975 0.010834
# 3 -0.001634 -0.000609 0.015151 -0.007370 -0.005131 0.001381
# 4 0.001035 -0.008439 -0.007370 0.039461 -0.003675 -0.023843
# 5 -0.001699 0.003975 -0.005131 -0.003675 0.037798 0.013881
# 6 0.002914 0.010834 0.001381 -0.023843 0.013881 0.061969
#
#
# Mechanical properties :
#
#
# Convention : Reuss Voigt Hill
#
# Bulk Modulus (GPa) = 31.72901 41.88210 36.80556
# Shear Modulus (GPa) = 25.27194 34.46510 29.86852
#
# Velocity S-wave (km/s) = 3.18099 3.71477 3.45819
# Velocity P-wave (km/s) = 5.11816 5.93032 5.53915
#
# Compressibility (1/GPa) = 0.03151690
#
# Stress axis : x y z
#
# Youngs Moduli (GPa) = 93.00837 71.87865 66.00016
#
# Poissons Ratio (x) = 0.13701 0.10785
# Poissons Ratio (y) = 0.17728 0.04020
# Poissons Ratio (z) = 0.15199 0.04378
#
# Static dielectric constant tensor:
#      x y z
#    x 2.057820 -0.025490 -0.006810 
#    y -0.025490 2.017340 -0.003940 
#    z -0.006810 -0.003940 2.029870 
# 
# From -- ./inp_files/135414.got.cif
#   From: 2010.05.17/outbox.cif.g08.bks.cpg/sg2_68_cif.got.tgz:135414.got - 2010.06.03 11:33:40.
