data_PCOD9096246
_publ_section_title
;
Structure prediction by ZEFSAII (Michael W. Deem and Ramdas Pophale) SiO2 
 PCOD9096246
Probable space group: P -1
;
_chemical_formula_sum "Si O2"
_cell_formula_units_Z 16
_cell_length_a 9.251046
_cell_length_b 10.253429
_cell_length_c 10.185726
_cell_angle_alpha 109.081920
_cell_angle_beta 60.947197
_cell_angle_gamma 138.792045
_cell_volume 555.175246
_symmetry_space_group_name_H-M "P -1"
_symmetry_group_IT_number 2
_symmetry_cell_setting 'triclinic'
loop_
_space_group_symop_operation_xyz
x,y,z
-x,-y,-z
loop_
_atom_site_type_symbol
_atom_site_label
_atom_site_fract_x
_atom_site_fract_y
_atom_site_fract_z
Si Si1 0.214927 0.805236 0.063845
Si Si2 0.235590 0.598726 0.500952
Si Si3 0.451793 0.218942 0.805510
Si Si4 0.188581 0.340697 0.654359
Si Si5 0.023905 0.856655 0.720670
Si Si6 0.842231 0.537275 0.910150
Si Si7 0.407398 0.012620 0.379880
Si Si8 0.626293 0.739135 0.678960
O O1 0.443846 0.877450 0.273012
O O2 0.157453 0.621563 0.092736
O O3 0.056025 0.719589 0.973161
O O4 0.500000 0.000000 0.000000
O O5 0.418174 0.640885 0.333259
O O6 0.180398 0.459246 0.592429
O O7 0.372262 0.810847 0.568903
O O8 0.000000 0.500000 0.500000
O O9 0.554465 0.359524 0.933682
O O10 0.182812 0.041824 0.814530
O O11 0.376836 0.509291 0.733557
O O12 0.274671 0.264095 0.505039
O O13 0.933144 0.176507 0.775141
O O14 0.932784 0.672112 0.784472
O O15 0.807741 0.810381 0.735730
O O16 0.180811 0.909840 0.539010
O O17 0.432549 0.140517 0.295497
#
# Coordination Sequence:
#
# PCOD9096246 Si02
#       8
#     2   2   2   2   2   2   2   2
#     4  11  26  51  75 113 139 191 259 322 368 419
#     4  10  20  35  64 106 142 190 235 309 380 427
#     4  11  24  37  68 112 150 191 237 310 371 446
#     4  10  23  42  75 105 152 194 248 306 380 445
#     4  11  23  43  71 104 152 192 252 299 366 452
#     4  11  26  45  75 105 147 190 253 318 369 421
#     4  10  24  38  60 112 161 190 237 289 386 457
#     4  10  23  44  70 115 156 200 228 297 390 458
#
# _framework density 28.819727
#
# number of rings (size 3 to 8) (size 9 to 14) (size 15 to 20)
#    0.000    1.500    0.000    4.125   14.000    2.000 
#    0.000    0.625    0.000    2.250    0.000    0.000 
#    0.000    0.000    0.000    0.000    0.000    0.000 
#
# Total GULP energy -89465.400780 kJ/mol
# GULP energy per Si atom -5591.587549 kJ/mol
# Density = 2.875413 g / cm^3
# Si number density = 28.819727 Si / 1000 Ang^3
#
#
#
# Elastic Constant Matrix: (Units=GPa)
#
#
# Indices 1 2 3 4 5 6 
#
# 1 107.8440 60.0476 50.4667 -18.6284 26.5554 19.3262
# 2 60.0476 216.9606 68.2776 24.9197 8.3088 42.3393
# 3 50.4667 68.2776 90.2776 0.0107 19.8118 6.4214
# 4 -18.6284 24.9197 0.0107 61.7859 7.0348 23.4307
# 5 26.5554 8.3088 19.8118 7.0348 52.8340 -1.8744
# 6 19.3262 42.3393 6.4214 23.4307 -1.8744 56.4643
#
#
#
# Elastic Compliance Matrix: (Units=1/GPa)
#
#
# Indices 1 2 3 4 5 6 
#
# 1 0.019389 -0.002593 -0.006314 0.011287 -0.008790 -0.008950
# 2 -0.002593 0.007602 -0.004546 -0.002947 0.002098 -0.003003
# 3 -0.006314 -0.004546 0.018357 -0.001250 -0.002690 0.003912
# 4 0.011287 -0.002947 -0.001250 0.026650 -0.008746 -0.012860
# 5 -0.008790 0.002098 -0.002690 -0.008746 0.025409 0.006214
# 6 -0.008950 -0.003003 0.003912 -0.012860 0.006214 0.028123
#
#
# Mechanical properties :
#
#
# Convention : Reuss Voigt Hill
#
# Bulk Modulus (GPa) = 54.22264 85.85178 70.03721
# Shear Modulus (GPa) = 31.52946 49.96953 40.74949
#
# Velocity S-wave (km/s) = 3.31119 4.16849 3.76432
# Velocity P-wave (km/s) = 5.78566 7.28164 6.57633
#
# Compressibility (1/GPa) = 0.01844248
#
# Stress axis : x y z
#
# Youngs Moduli (GPa) = 51.57612 131.55180 54.47521
#
# Poissons Ratio (x) = 0.34106 0.34393
# Poissons Ratio (y) = 0.13372 0.24766
# Poissons Ratio (z) = 0.32563 0.59808
#
# Static dielectric constant tensor:
#      x y z
#    x 2.250100 0.001530 -0.051100 
#    y 0.001530 2.289520 0.036040 
#    z -0.051100 0.036040 2.360580 
# 
# From -- ./inp_files/520231.got.cif
#   From: 2010.05.17/outbox.cif.g08.bks.cpg/sg2_261_cif.got.tgz:520231.got - 2010.06.03 11:33:40.
