data_PCOD9096405
_publ_section_title
;
Structure prediction by ZEFSAII (Michael W. Deem and Ramdas Pophale) SiO2 
 PCOD9096405
Probable space group: P -1
;
_chemical_formula_sum "Si O2"
_cell_formula_units_Z 12
_cell_length_a 9.868579
_cell_length_b 8.779818
_cell_length_c 8.834085
_cell_angle_alpha 50.793763
_cell_angle_beta 81.510768
_cell_angle_gamma 65.422089
_cell_volume 532.102255
_symmetry_space_group_name_H-M "P -1"
_symmetry_group_IT_number 2
_symmetry_cell_setting 'triclinic'
loop_
_space_group_symop_operation_xyz
x,y,z
-x,-y,-z
loop_
_atom_site_type_symbol
_atom_site_label
_atom_site_fract_x
_atom_site_fract_y
_atom_site_fract_z
Si Si1 0.680778 0.742330 0.506160
Si Si2 0.111478 0.816107 0.484081
Si Si3 0.908470 0.833373 0.221235
Si Si4 0.163705 0.470540 0.931665
Si Si5 0.661115 0.976005 0.682525
Si Si6 0.193472 0.684729 0.084940
O O1 0.810003 0.722444 0.379627
O O2 0.702949 0.859193 0.582693
O O3 0.698534 0.507680 0.705132
O O4 0.517606 0.888880 0.375003
O O5 0.151409 0.588415 0.701703
O O6 0.021983 0.837783 0.331151
O O7 0.254552 0.869823 0.406182
O O8 0.000000 0.000000 0.500000
O O9 0.021946 0.724139 0.134093
O O10 0.802956 0.084028 0.044514
O O11 0.275495 0.219081 0.085177
O O12 0.220030 0.600046 0.962502
O O13 0.000000 0.500000 0.000000
#
# Coordination Sequence:
#
# PCOD9096405 Si02
#       6
#     2   2   2   2   2   2
#     4  10  20  36  54  81 114 142 179 226 276 317
#     4  12  19  35  58  83 108 140 185 227 266 317
#     4  11  21  36  58  83 110 144 183 223 270 326
#     4  11  19  34  59  84 107 140 186 227 267 316
#     4  10  21  34  55  84 111 140 181 231 270 317
#     4  10  21  35  57  82 110 145 183 222 269 326
#
# _framework density 22.552057999999999
#
# number of rings (size 3 to 8) (size 9 to 14) (size 15 to 20)
#    0.000    1.333    5.000    1.500    0.000    1.333 
#    0.000    5.833    0.000   12.000    0.000    0.000 
#    0.000    0.000    0.000    0.000    0.000    0.000 
#
# Total GULP energy -67192.121526 kJ/mol
# GULP energy per Si atom -5599.343461 kJ/mol
# Density = 2.250073 g / cm^3
# Si number density = 22.552058 Si / 1000 Ang^3
#
#
#
# Elastic Constant Matrix: (Units=GPa)
#
#
# Indices 1 2 3 4 5 6 
#
# 1 67.4832 13.7011 30.0957 -7.6226 12.7873 5.4604
# 2 13.7011 60.6179 29.2396 -1.3156 10.1687 7.8807
# 3 30.0957 29.2396 146.9180 -32.9948 14.8617 5.7346
# 4 -7.6226 -1.3156 -32.9948 36.8565 -14.2883 3.5903
# 5 12.7873 10.1687 14.8617 -14.2883 24.4600 -8.4259
# 6 5.4604 7.8807 5.7346 3.5903 -8.4259 16.5713
#
#
#
# Elastic Compliance Matrix: (Units=1/GPa)
#
#
# Indices 1 2 3 4 5 6 
#
# 1 0.019449 0.001173 -0.002874 -0.003146 -0.015239 -0.013039
# 2 0.001173 0.023560 -0.004163 -0.008205 -0.018859 -0.017962
# 3 -0.002874 -0.004163 0.010176 0.009261 0.001896 -0.001637
# 4 -0.003146 -0.008205 0.009261 0.044572 0.027563 0.006091
# 5 -0.015239 -0.018859 0.001896 0.027563 0.089926 0.053086
# 6 -0.013039 -0.017962 -0.001637 0.006091 0.053086 0.099423
#
#
# Mechanical properties :
#
#
# Convention : Reuss Voigt Hill
#
# Bulk Modulus (GPa) = 24.12061 46.78800 35.45430
# Shear Modulus (GPa) = 15.99223 29.04305 22.51764
#
# Velocity S-wave (km/s) = 2.66583 3.59252 3.16329
# Velocity P-wave (km/s) = 4.49380 6.16441 5.39417
#
# Compressibility (1/GPa) = 0.04145833
#
# Stress axis : x y z
#
# Youngs Moduli (GPa) = 51.41622 42.44413 98.27391
#
# Poissons Ratio (x) = -0.04980 0.28240
# Poissons Ratio (y) = -0.06033 0.40913
# Poissons Ratio (z) = 0.14775 0.17670
#
# Static dielectric constant tensor:
#      x y z
#    x 1.774210 0.017220 0.002970 
#    y 0.017220 1.855850 -0.002300 
#    z 0.002970 -0.002300 1.820660 
# 
# From -- ./inp_files/149009.got.cif
#   From: 2010.05.17/outbox.cif.g08.bks.cpg/sg2_75_cif.got.tgz:149009.got - 2010.06.03 11:33:40.
