data_PCOD9096002
_publ_section_title
;
Structure prediction by ZEFSAII (Michael W. Deem and Ramdas Pophale) SiO2 
 PCOD9096002
Probable space group: P -1
;
_chemical_formula_sum "Si O2"
_cell_formula_units_Z 14
_cell_length_a 7.284476
_cell_length_b 12.020999
_cell_length_c 10.852885
_cell_angle_alpha 47.518629
_cell_angle_beta 121.400901
_cell_angle_gamma 111.105121
_cell_volume 598.180982
_symmetry_space_group_name_H-M "P -1"
_symmetry_group_IT_number 2
_symmetry_cell_setting 'triclinic'
loop_
_space_group_symop_operation_xyz
x,y,z
-x,-y,-z
loop_
_atom_site_type_symbol
_atom_site_label
_atom_site_fract_x
_atom_site_fract_y
_atom_site_fract_z
Si Si1 0.995821 0.001802 0.348857
Si Si2 0.851135 0.449228 0.657412
Si Si3 0.156631 0.688826 0.617842
Si Si4 0.535223 0.724332 0.399497
Si Si5 0.360005 0.220745 0.343988
Si Si6 0.677217 0.455580 0.992870
Si Si7 0.313210 0.765644 0.049552
O O1 0.214416 0.095566 0.321424
O O2 0.798991 0.093226 0.156131
O O3 0.008588 0.831290 0.433590
O O4 0.000000 0.000000 0.500000
O O5 0.693907 0.585304 0.538814
O O6 0.700206 0.348102 0.591138
O O7 0.070465 0.535643 0.636715
O O8 0.866167 0.337359 0.863430
O O9 0.396331 0.753483 0.634622
O O10 0.150565 0.636609 0.798386
O O11 0.617682 0.816175 0.475683
O O12 0.482853 0.797789 0.194409
O O13 0.257766 0.385942 0.164202
O O14 0.500000 0.500000 0.000000
O O15 0.593814 0.343191 0.941732
#
# Coordination Sequence:
#
# PCOD9096002 Si02
#       7
#     2   2   2   2   2   2   2
#     4  12  24  37  61  88 120 162 200 238 299 358
#     4   9  18  37  64  86 114 153 203 242 295 343
#     4  11  23  37  58  93 123 156 195 246 305 347
#     4   9  19  37  65  87 115 155 201 247 296 339
#     4  11  22  40  61  88 124 152 200 254 291 352
#     4  10  20  35  61  92 117 149 194 253 299 334
#     4  10  20  39  62  89 119 154 201 248 288 359
#
# _framework density 23.404288000000001
#
# number of rings (size 3 to 8) (size 9 to 14) (size 15 to 20)
#    0.857    0.857    2.857    2.143    0.000    1.714 
#    0.000    3.571    0.000    0.000    0.000    0.000 
#    0.000    0.000    0.000    0.000    0.000    0.000 
#
# Total GULP energy -78066.722061 kJ/mol
# GULP energy per Si atom -5576.194433 kJ/mol
# Density = 2.335102 g / cm^3
# Si number density = 23.404288 Si / 1000 Ang^3
#
#
#
# Elastic Constant Matrix: (Units=GPa)
#
#
# Indices 1 2 3 4 5 6 
#
# 1 78.9045 10.5425 13.5185 -1.3080 -7.8702 16.5808
# 2 10.5425 98.8770 35.4113 0.8421 -3.4459 22.8098
# 3 13.5185 35.4113 187.3962 -11.5992 -6.7783 -5.4943
# 4 -1.3080 0.8421 -11.5992 38.3818 -4.0911 0.4328
# 5 -7.8702 -3.4459 -6.7783 -4.0911 18.8051 1.0636
# 6 16.5808 22.8098 -5.4943 0.4328 1.0636 27.7489
#
#
#
# Elastic Compliance Matrix: (Units=1/GPa)
#
#
# Indices 1 2 3 4 5 6 
#
# 1 0.015852 0.001738 -0.001486 0.000958 0.007275 -0.011488
# 2 0.001738 0.014280 -0.003165 -0.000760 0.002801 -0.013499
# 3 -0.001486 -0.003165 0.006349 0.002019 0.001262 0.004667
# 4 0.000958 -0.000760 0.002019 0.027460 0.006977 -0.000244
# 5 0.007275 0.002801 0.001262 0.006977 0.059204 -0.008778
# 6 -0.011488 -0.013499 0.004667 -0.000244 -0.008778 0.055263
#
#
# Mechanical properties :
#
#
# Convention : Reuss Voigt Hill
#
# Bulk Modulus (GPa) = 32.62299 53.79135 43.20717
# Shear Modulus (GPa) = 25.71310 37.36750 31.54030
#
# Velocity S-wave (km/s) = 3.31818 4.00009 3.67499
# Velocity P-wave (km/s) = 5.35253 6.66091 6.04224
#
# Compressibility (1/GPa) = 0.03065323
#
# Stress axis : x y z
#
# Youngs Moduli (GPa) = 63.08492 70.02788 157.50256
#
# Poissons Ratio (x) = -0.12169 0.23409
# Poissons Ratio (y) = -0.10963 0.49854
# Poissons Ratio (z) = 0.09376 0.22166
#
# Static dielectric constant tensor:
#      x y z
#    x 2.009610 0.042760 0.018220 
#    y 0.042760 1.902850 0.031800 
#    z 0.018220 0.031800 1.906550 
# 
# From -- ./inp_files/392218.got.cif
#   From: 2010.05.17/outbox.cif.g08.bks.cpg/sg2_197_cif.got.tgz:392218.got - 2010.06.03 11:33:40.
