data_PCOD9096089
_publ_section_title
;
Structure prediction by ZEFSAII (Michael W. Deem and Ramdas Pophale) SiO2 
 PCOD9096089
Probable space group: P -1
;
_chemical_formula_sum "Si O2"
_cell_formula_units_Z 16
_cell_length_a 10.389227
_cell_length_b 9.531738
_cell_length_c 8.829393
_cell_angle_alpha 73.319268
_cell_angle_beta 110.391152
_cell_angle_gamma 107.312710
_cell_volume 765.831327
_symmetry_space_group_name_H-M "P -1"
_symmetry_group_IT_number 2
_symmetry_cell_setting 'triclinic'
loop_
_space_group_symop_operation_xyz
x,y,z
-x,-y,-z
loop_
_atom_site_type_symbol
_atom_site_label
_atom_site_fract_x
_atom_site_fract_y
_atom_site_fract_z
Si Si1 0.189059 0.461473 0.154255
Si Si2 0.398668 0.665637 0.348562
Si Si3 0.151187 0.349471 0.733530
Si Si4 0.103796 0.621234 0.808570
Si Si5 0.353645 0.968131 0.356397
Si Si6 0.652755 0.731966 0.899720
Si Si7 0.921991 0.121943 0.511492
Si Si8 0.558832 0.478579 0.291738
O O1 0.254001 0.545241 0.303386
O O2 0.268345 0.334629 0.181524
O O3 0.030631 0.379324 0.142704
O O4 0.212038 0.584701 0.989842
O O5 0.359563 0.823494 0.302567
O O6 0.491382 0.620479 0.262872
O O7 0.472780 0.632625 0.543557
O O8 0.073879 0.465727 0.749699
O O9 0.275099 0.461344 0.661612
O O10 0.042597 0.228566 0.630567
O O11 0.248138 0.278163 0.912884
O O12 0.127551 0.766754 0.667124
O O13 0.215879 0.943124 0.418997
O O14 0.500000 0.000000 0.500000
O O15 0.355202 0.103207 0.199844
O O16 0.500479 0.617019 0.852179
O O17 0.000000 0.000000 0.500000
#
# Coordination Sequence:
#
# PCOD9096089 Si02
#       8
#     2   2   2   2   2   2   2   2
#     4   9  19  37  63  93 121 160 205 259 308 369
#     4  10  20  35  62  87 119 164 203 246 305 374
#     4  11  23  40  65  92 123 161 213 268 310 364
#     4  10  20  38  63  91 125 158 207 257 313 367
#     4  12  25  42  62  89 129 173 208 250 317 383
#     4  10  22  40  63  92 124 165 206 259 313 374
#     4  12  27  41  64  94 131 167 207 262 316 373
#     4  10  20  38  63  91 122 157 211 260 309 364
#
# _framework density 20.892330000000001
#
# number of rings (size 3 to 8) (size 9 to 14) (size 15 to 20)
#    0.000    1.500    1.250    3.750    1.750    1.500 
#    0.000    0.625    0.000    0.000    0.000    0.000 
#    0.000    0.000    0.000    0.000    0.000    0.000 
#
# Total GULP energy -89112.388663 kJ/mol
# GULP energy per Si atom -5569.524291 kJ/mol
# Density = 2.084478 g / cm^3
# Si number density = 20.892330 Si / 1000 Ang^3
#
#
#
# Elastic Constant Matrix: (Units=GPa)
#
#
# Indices 1 2 3 4 5 6 
#
# 1 81.3332 26.3732 18.2629 10.0752 7.5399 5.6982
# 2 26.3732 72.4619 23.8902 -3.6264 -2.9206 -25.7782
# 3 18.2629 23.8902 78.4716 -18.2240 -0.6209 -11.0990
# 4 10.0752 -3.6264 -18.2240 25.3562 2.3376 9.2323
# 5 7.5399 -2.9206 -0.6209 2.3376 21.4852 -5.1627
# 6 5.6982 -25.7782 -11.0990 9.2323 -5.1627 35.3107
#
#
#
# Elastic Compliance Matrix: (Units=1/GPa)
#
#
# Indices 1 2 3 4 5 6 
#
# 1 0.019545 -0.010585 -0.004828 -0.007412 -0.010514 -0.011998
# 2 -0.010585 0.027624 -0.003453 -0.004276 0.013576 0.023892
# 3 -0.004828 -0.003453 0.018319 0.014470 0.000245 0.000269
# 4 -0.007412 -0.004276 0.014470 0.057745 -0.007092 -0.013512
# 5 -0.010514 0.013576 0.000245 -0.007092 0.058154 0.022042
# 6 -0.011998 0.023892 0.000269 -0.013512 0.022042 0.054539
#
#
# Mechanical properties :
#
#
# Convention : Reuss Voigt Hill
#
# Bulk Modulus (GPa) = 36.02732 41.03547 38.53140
# Shear Modulus (GPa) = 17.67356 27.34645 22.51000
#
# Velocity S-wave (km/s) = 2.91165 3.62183 3.28598
# Velocity P-wave (km/s) = 5.34653 6.09707 5.73409
#
# Compressibility (1/GPa) = 0.02775671
#
# Stress axis : x y z
#
# Youngs Moduli (GPa) = 51.16430 36.20025 54.58933
#
# Poissons Ratio (x) = 0.38318 0.26354
# Poissons Ratio (y) = 0.54157 0.18849
# Poissons Ratio (z) = 0.24701 0.12499
#
# Static dielectric constant tensor:
#      x y z
#    x 1.839570 0.030950 0.023650 
#    y 0.030950 1.750370 0.007420 
#    z 0.023650 0.007420 1.835730 
# 
# From -- ./inp_files/237892.got.cif
#   From: 2010.05.17/outbox.cif.g08.bks.cpg/sg2_119_cif.got.tgz:237892.got - 2010.06.03 11:33:40.
