data_PCOD9096852
_publ_section_title
;
Structure prediction by ZEFSAII (Michael W. Deem and Ramdas Pophale) SiO2 
 PCOD9096852
Probable space group: P -1
;
_chemical_formula_sum "Si O2"
_cell_formula_units_Z 14
_cell_length_a 7.791652
_cell_length_b 12.005923
_cell_length_c 11.300570
_cell_angle_alpha 59.050907
_cell_angle_beta 61.345046
_cell_angle_gamma 41.601720
_cell_volume 593.514451
_symmetry_space_group_name_H-M "P -1"
_symmetry_group_IT_number 2
_symmetry_cell_setting 'triclinic'
loop_
_space_group_symop_operation_xyz
x,y,z
-x,-y,-z
loop_
_atom_site_type_symbol
_atom_site_label
_atom_site_fract_x
_atom_site_fract_y
_atom_site_fract_z
Si Si1 0.066325 0.634553 0.803094
Si Si2 0.103330 0.136644 0.483716
Si Si3 0.842865 0.168208 0.772177
Si Si4 0.630621 0.775581 0.474080
Si Si5 0.082483 0.241961 0.823238
Si Si6 0.346017 0.234073 0.953154
Si Si7 0.563461 0.532494 0.754720
O O1 0.176913 0.439623 0.863927
O O2 0.266863 0.623483 0.828601
O O3 0.066948 0.714012 0.638081
O O4 0.775521 0.755553 0.887682
O O5 0.228161 0.189898 0.499747
O O6 0.960840 0.100723 0.640249
O O7 0.344802 0.957935 0.440171
O O8 0.644413 0.147512 0.892699
O O9 0.668216 0.377599 0.711797
O O10 0.058572 0.116868 0.826583
O O11 0.802578 0.704605 0.337952
O O12 0.592808 0.657153 0.616439
O O13 0.263369 0.168416 0.916607
O O14 0.779346 0.417595 0.848825
#
# Coordination Sequence:
#
# PCOD9096852 Si02
#       7
#     2   2   2   2   2   2   2
#     4  10  22  35  54  90 114 146 189 231 287 328
#     4  10  21  37  58  82 120 142 188 236 279 342
#     4   8  20  36  58  87 107 147 190 228 280 328
#     4  10  20  36  58  85 112 151 183 234 292 319
#     4   9  19  35  58  83 112 145 193 227 271 343
#     4  10  20  38  58  82 117 152 184 234 279 328
#     4   9  19  34  55  88 110 138 195 230 277 329
#
# _framework density 23.588304000000001
#
# number of rings (size 3 to 8) (size 9 to 14) (size 15 to 20)
#    0.857    1.714    0.000    1.286    4.000    2.286 
#    2.571    0.714    0.000    2.571    0.000    0.000 
#    0.000    0.000    0.000    0.000    0.000    0.000 
#
# Total GULP energy -78151.496990 kJ/mol
# GULP energy per Si atom -5582.249785 kJ/mol
# Density = 2.353462 g / cm^3
# Si number density = 23.588304 Si / 1000 Ang^3
#
#
#
# Elastic Constant Matrix: (Units=GPa)
#
#
# Indices 1 2 3 4 5 6 
#
# 1 92.9034 10.2034 47.0785 10.1690 -15.5216 -7.4062
# 2 10.2034 29.0877 24.2900 -4.8190 -14.5389 -3.1940
# 3 47.0785 24.2900 89.0502 10.3483 -11.5449 -3.6849
# 4 10.1690 -4.8190 10.3483 32.6526 -9.6863 -8.9946
# 5 -15.5216 -14.5389 -11.5449 -9.6863 35.0994 3.8480
# 6 -7.4062 -3.1940 -3.6849 -8.9946 3.8480 19.0807
#
#
#
# Elastic Compliance Matrix: (Units=1/GPa)
#
#
# Indices 1 2 3 4 5 6 
#
# 1 0.016182 0.006802 -0.009584 0.002536 0.006933 0.005366
# 2 0.006802 0.074301 -0.022412 0.030844 0.032879 0.018658
# 3 -0.009584 -0.022412 0.022380 -0.011925 -0.008682 -0.007020
# 4 0.002536 0.030844 -0.011925 0.051029 0.021474 0.023569
# 5 0.006933 0.032879 -0.008682 0.021474 0.047471 0.007067
# 6 0.005366 0.018658 -0.007020 0.023569 0.007067 0.065945
#
#
# Mechanical properties :
#
#
# Convention : Reuss Voigt Hill
#
# Bulk Modulus (GPa) = 16.00691 41.57614 28.79152
# Shear Modulus (GPa) = 14.34627 25.99781 20.17204
#
# Velocity S-wave (km/s) = 2.46883 3.32346 2.92750
# Velocity P-wave (km/s) = 3.86362 5.69133 4.86409
#
# Compressibility (1/GPa) = 0.06247304
#
# Stress axis : x y z
#
# Youngs Moduli (GPa) = 61.79692 13.45869 44.68365
#
# Poissons Ratio (x) = -0.09154 0.42826
# Poissons Ratio (y) = -0.42032 1.00147
# Poissons Ratio (z) = 0.59227 0.30164
#
# Static dielectric constant tensor:
#      x y z
#    x 1.934460 -0.026800 -0.008590 
#    y -0.026800 1.916070 0.020440 
#    z -0.008590 0.020440 1.834260 
# 
# From -- ./inp_files/308600.got.cif
#   From: 2010.05.17/outbox.cif.g08.bks.cpg/sg2_155_cif.got.tgz:308600.got - 2010.06.03 11:33:40.
