data_PCOD9096305
_publ_section_title
;
Structure prediction by ZEFSAII (Michael W. Deem and Ramdas Pophale) SiO2 
 PCOD9096305
Probable space group: P -1
;
_chemical_formula_sum "Si O2"
_cell_formula_units_Z 16
_cell_length_a 9.569794
_cell_length_b 6.861440
_cell_length_c 10.943190
_cell_angle_alpha 67.351173
_cell_angle_beta 112.020044
_cell_angle_gamma 110.780243
_cell_volume 595.889314
_symmetry_space_group_name_H-M "P -1"
_symmetry_group_IT_number 2
_symmetry_cell_setting 'triclinic'
loop_
_space_group_symop_operation_xyz
x,y,z
-x,-y,-z
loop_
_atom_site_type_symbol
_atom_site_label
_atom_site_fract_x
_atom_site_fract_y
_atom_site_fract_z
Si Si1 0.732545 0.331021 0.205588
Si Si2 0.754351 0.930726 0.132687
Si Si3 0.838245 0.031315 0.494676
Si Si4 0.899109 0.884625 0.787758
Si Si5 0.030619 0.531402 0.146971
Si Si6 0.397103 0.184122 0.144841
Si Si7 0.656674 0.278946 0.672615
Si Si8 0.353341 0.375709 0.607277
O O1 0.795040 0.234819 0.368352
O O2 0.560461 0.359840 0.160364
O O3 0.867942 0.530418 0.155677
O O4 0.721400 0.136457 0.148051
O O5 0.732498 0.734863 0.271705
O O6 0.643566 0.878220 0.993444
O O7 0.933134 0.010402 0.126579
O O8 0.853392 0.053308 0.639296
O O9 0.708865 0.815232 0.467037
O O10 0.000000 0.000000 0.500000
O O11 0.929493 0.697556 0.753094
O O12 0.757330 0.776571 0.853821
O O13 0.182061 0.699529 0.205153
O O14 0.000000 0.500000 0.000000
O O15 0.422978 0.977091 0.280299
O O16 0.536998 0.393341 0.677670
O O17 0.672608 0.407004 0.517956
#
# Coordination Sequence:
#
# PCOD9096305 Si02
#       8
#     2   2   2   2   2   2   2   2
#     4  10  21  38  64  94 116 169 212 248 299 378
#     4  10  20  38  64  87 122 171 213 240 300 387
#     4  11  16  38  66  87 115 163 216 244 293 378
#     4  11  23  39  65  93 125 164 200 262 314 368
#     4  11  23  39  67  90 123 163 214 249 303 373
#     4  12  24  39  64  96 130 156 208 261 317 365
#     4  11  21  38  63  98 120 155 213 263 300 358
#     4  10  20  35  65  91 117 158 216 255 293 353
#
# _framework density 26.850625000000001
#
# number of rings (size 3 to 8) (size 9 to 14) (size 15 to 20)
#    0.000    1.250    7.500    2.250    1.750    0.500 
#    0.000    1.250    5.500    0.000    0.000    0.000 
#    0.000    0.000    0.000    0.000    0.000    0.000 
#
# Total GULP energy -89614.637139 kJ/mol
# GULP energy per Si atom -5600.914821 kJ/mol
# Density = 2.678951 g / cm^3
# Si number density = 26.850625 Si / 1000 Ang^3
#
#
#
# Elastic Constant Matrix: (Units=GPa)
#
#
# Indices 1 2 3 4 5 6 
#
# 1 188.6739 25.6037 48.1468 17.7370 7.3054 35.8866
# 2 25.6037 76.2752 8.3399 -0.5737 7.9832 13.3542
# 3 48.1468 8.3399 120.5916 -6.6463 11.5459 7.7289
# 4 17.7370 -0.5737 -6.6463 46.4977 3.5511 7.1290
# 5 7.3054 7.9832 11.5459 3.5511 34.7152 9.4809
# 6 35.8866 13.3542 7.7289 7.1290 9.4809 43.8264
#
#
#
# Elastic Compliance Matrix: (Units=1/GPa)
#
#
# Indices 1 2 3 4 5 6 
#
# 1 0.007336 -0.001451 -0.002780 -0.002557 0.001327 -0.004946
# 2 -0.001451 0.014357 0.000075 0.001368 -0.002366 -0.002911
# 3 -0.002780 0.000075 0.009792 0.002581 -0.003169 0.000792
# 4 -0.002557 0.001368 0.002581 0.023370 -0.002467 -0.002046
# 5 0.001327 -0.002366 -0.003169 -0.002467 0.032112 -0.006352
# 6 -0.004946 -0.002911 0.000792 -0.002046 -0.006352 0.029321
#
#
# Mechanical properties :
#
#
# Convention : Reuss Voigt Hill
#
# Bulk Modulus (GPa) = 43.15216 61.08018 52.11617
# Shear Modulus (GPa) = 37.78624 45.23788 41.51206
#
# Velocity S-wave (km/s) = 3.75544 4.10908 3.93623
# Velocity P-wave (km/s) = 5.90851 6.73129 6.33328
#
# Compressibility (1/GPa) = 0.02317381
#
# Stress axis : x y z
#
# Youngs Moduli (GPa) = 136.31348 69.65367 102.12434
#
# Poissons Ratio (x) = 0.10105 0.28386
# Poissons Ratio (y) = 0.19776 -0.00764
# Poissons Ratio (z) = 0.37889 -0.00521
#
# Static dielectric constant tensor:
#      x y z
#    x 2.158820 -0.046620 0.020630 
#    y -0.046620 2.123010 -0.061290 
#    z 0.020630 -0.061290 2.072490 
# 
# From -- ./inp_files/381479.got.cif
#   From: 2010.05.17/outbox.cif.g08.bks.cpg/sg2_191_cif.got.tgz:381479.got - 2010.06.03 11:33:40.
