data_PCOD9096668
_publ_section_title
;
Structure prediction by ZEFSAII (Michael W. Deem and Ramdas Pophale) SiO2 
 PCOD9096668
Probable space group: P -1
;
_chemical_formula_sum "Si O2"
_cell_formula_units_Z 12
_cell_length_a 23.627674
_cell_length_b 5.293802
_cell_length_c 24.160644
_cell_angle_alpha 47.195588
_cell_angle_beta 11.572819
_cell_angle_gamma 44.649918
_cell_volume 422.783580
_symmetry_space_group_name_H-M "P -1"
_symmetry_group_IT_number 2
_symmetry_cell_setting 'triclinic'
loop_
_space_group_symop_operation_xyz
x,y,z
-x,-y,-z
loop_
_atom_site_type_symbol
_atom_site_label
_atom_site_fract_x
_atom_site_fract_y
_atom_site_fract_z
Si Si1 0.503405 0.410129 0.445784
Si Si2 0.063399 0.816637 0.291961
Si Si3 0.261338 0.124405 0.258149
Si Si4 0.661368 0.575034 0.544477
Si Si5 0.458563 0.417055 0.226203
Si Si6 0.068532 0.513231 0.065751
O O1 0.500000 0.500000 0.500000
O O2 0.809869 0.406539 0.123114
O O3 0.500000 0.000000 0.500000
O O4 0.188543 0.657489 0.683775
O O5 0.183979 0.561525 0.267896
O O6 0.815524 0.662166 0.527955
O O7 0.283900 0.755909 0.038144
O O8 0.920351 0.240796 0.373036
O O9 0.400567 0.855508 0.215453
O O10 0.000000 0.000000 0.500000
O O11 0.500000 0.000000 0.000000
O O12 0.501122 0.767506 0.724987
O O13 0.392678 0.455726 0.792663
O O14 0.850145 0.711588 0.297652
#
# Coordination Sequence:
#
# PCOD9096668 Si02
#       6
#     2   2   2   2   2   2
#     4  11  24  50  78 107 140 177 224 275 328 397
#     4  10  20  36  57  83 121 170 221 277 334 383
#     4   8  16  31  52  79 112 158 224 282 323 382
#     4  11  22  41  58  93 136 168 222 262 332 411
#     4  10  20  36  57  83 121 170 221 277 334 383
#     4  10  24  44  64 103 134 168 214 272 326 405
#
# _framework density 28.383315
#
# number of rings (size 3 to 8) (size 9 to 14) (size 15 to 20)
#    0.000    2.000    0.000    3.000    0.000    0.667 
#   30.000    0.000    0.000   14.000    0.000    0.000 
#    0.000    0.000    0.000    0.000    0.000    0.000 
#
# Total GULP energy -66834.956105 kJ/mol
# GULP energy per Si atom -5569.579675 kJ/mol
# Density = 2.831871 g / cm^3
# Si number density = 28.383315 Si / 1000 Ang^3
#
#
#
# Elastic Constant Matrix: (Units=GPa)
#
#
# Indices 1 2 3 4 5 6 
#
# 1 166.0095 4.7798 76.1577 -9.1964 38.9324 19.5804
# 2 4.7798 101.2844 -0.5557 9.7077 7.1129 -6.3268
# 3 76.1577 -0.5557 283.6810 -11.9889 39.4339 -5.7907
# 4 -9.1964 9.7077 -11.9889 33.7529 -12.1495 -8.9484
# 5 38.9324 7.1129 39.4339 -12.1495 72.9329 0.0839
# 6 19.5804 -6.3268 -5.7907 -8.9484 0.0839 27.9015
#
#
#
# Elastic Compliance Matrix: (Units=1/GPa)
#
#
# Indices 1 2 3 4 5 6 
#
# 1 0.008553 -0.000456 -0.001988 -0.001412 -0.003674 -0.006960
# 2 -0.000456 0.010400 0.000246 -0.003075 -0.001418 0.001747
# 3 -0.001988 0.000246 0.004321 0.001260 -0.001092 0.002755
# 4 -0.001412 -0.003075 0.001260 0.036076 0.006369 0.012106
# 5 -0.003674 -0.001418 -0.001092 0.006369 0.017457 0.004020
# 6 -0.006960 0.001747 0.002755 0.012106 0.004020 0.045563
#
#
# Mechanical properties :
#
#
# Convention : Reuss Voigt Hill
#
# Bulk Modulus (GPa) = 52.97708 79.08206 66.02957
# Shear Modulus (GPa) = 37.57725 58.29034 47.93380
#
# Velocity S-wave (km/s) = 3.64252 4.53667 4.11396
# Velocity P-wave (km/s) = 6.03291 7.44074 6.77350
#
# Compressibility (1/GPa) = 0.01887609
#
# Stress axis : x y z
#
# Youngs Moduli (GPa) = 116.91486 96.15840 231.44920
#
# Poissons Ratio (x) = 0.04385 0.46017
# Poissons Ratio (y) = 0.05331 -0.05684
# Poissons Ratio (z) = 0.23245 -0.02362
#
# Static dielectric constant tensor:
#      x y z
#    x 2.279530 -0.202650 -0.034800 
#    y -0.202650 2.514910 0.122420 
#    z -0.034800 0.122420 2.133260 
# 
# From -- ./inp_files/621008.got.cif
#   From: 2010.05.17/outbox.cif.g08.bks.cpg/sg2_311_cif.got.tgz:621008.got - 2010.06.03 11:33:40.
