data_PCOD9096140
_publ_section_title
;
Structure prediction by ZEFSAII (Michael W. Deem and Ramdas Pophale) SiO2 
 PCOD9096140
Probable space group: P -1
;
_chemical_formula_sum "Si O2"
_cell_formula_units_Z 16
_cell_length_a 7.958926
_cell_length_b 9.402818
_cell_length_c 10.750900
_cell_angle_alpha 67.738402
_cell_angle_beta 78.030422
_cell_angle_gamma 67.479459
_cell_volume 685.980203
_symmetry_space_group_name_H-M "P -1"
_symmetry_group_IT_number 2
_symmetry_cell_setting 'triclinic'
loop_
_space_group_symop_operation_xyz
x,y,z
-x,-y,-z
loop_
_atom_site_type_symbol
_atom_site_label
_atom_site_fract_x
_atom_site_fract_y
_atom_site_fract_z
Si Si1 0.213209 0.934285 0.534855
Si Si2 0.516843 0.458301 0.719364
Si Si3 0.229980 0.497844 0.530859
Si Si4 0.394913 0.886624 0.273170
Si Si5 0.628515 0.035179 0.076555
Si Si6 0.690700 0.283003 0.159671
Si Si7 0.916962 0.785258 0.386283
Si Si8 0.943084 0.951876 0.868071
O O1 0.231110 0.099002 0.535901
O O2 0.349719 0.855989 0.429398
O O3 0.264473 0.810784 0.683209
O O4 0.000000 0.000000 0.500000
O O5 0.362078 0.488051 0.628374
O O6 0.664058 0.526275 0.610010
O O7 0.601413 0.261307 0.770348
O O8 0.432048 0.538541 0.835475
O O9 0.087193 0.678842 0.480184
O O10 0.137780 0.361683 0.612514
O O11 0.218417 0.039198 0.208779
O O12 0.584306 0.919400 0.224315
O O13 0.590680 0.202910 0.101836
O O14 0.827171 0.990395 0.000315
O O15 0.500000 0.000000 0.000000
O O16 0.897862 0.223522 0.094703
O O17 0.979058 0.907769 0.245462
#
# Coordination Sequence:
#
# PCOD9096140 Si02
#       8
#     2   2   2   2   2   2   2   2
#     4  11  19  35  64  98 127 158 211 258 317 376
#     4  11  22  38  58  97 134 161 194 263 330 377
#     4  10  21  36  57  91 145 162 194 257 332 388
#     4  11  22  40  66  93 135 166 199 265 323 371
#     4  10  25  45  66  91 125 168 224 266 303 361
#     4  11  23  39  69  93 124 168 213 260 319 379
#     4  10  20  35  62  93 121 177 208 251 316 384
#     4  10  21  44  65  86 122 172 219 256 298 371
#
# _framework density 23.324289
#
# number of rings (size 3 to 8) (size 9 to 14) (size 15 to 20)
#    0.000    1.500    3.750    2.625    5.250    0.500 
#    0.000    3.125    0.000    0.000    0.000    0.000 
#    0.000    0.000    0.000    0.000    0.000    0.000 
#
# Total GULP energy -89193.953065 kJ/mol
# GULP energy per Si atom -5574.622067 kJ/mol
# Density = 2.327120 g / cm^3
# Si number density = 23.324289 Si / 1000 Ang^3
#
#
#
# Elastic Constant Matrix: (Units=GPa)
#
#
# Indices 1 2 3 4 5 6 
#
# 1 79.3413 32.9568 28.3390 3.2745 -15.5652 9.3175
# 2 32.9568 119.8392 37.9087 34.1683 -20.5876 -6.2096
# 3 28.3390 37.9087 86.9786 27.1167 -17.7222 8.5766
# 4 3.2745 34.1683 27.1167 45.4490 -4.5783 0.5679
# 5 -15.5652 -20.5876 -17.7222 -4.5783 50.8832 -4.7055
# 6 9.3175 -6.2096 8.5766 0.5679 -4.7055 28.5295
#
#
#
# Elastic Compliance Matrix: (Units=1/GPa)
#
#
# Indices 1 2 3 4 5 6 
#
# 1 0.016762 -0.004696 -0.004119 0.005023 0.001776 -0.005065
# 2 -0.004696 0.013408 -0.001544 -0.008568 0.003199 0.005614
# 3 -0.004119 -0.001544 0.017077 -0.008387 0.002988 -0.003465
# 4 0.005023 -0.008568 -0.008387 0.032902 -0.002074 -0.001981
# 5 0.001776 0.003199 0.002988 -0.002074 0.022621 0.002990
# 6 -0.005065 0.005614 -0.003465 -0.001981 0.002990 0.039502
#
#
# Mechanical properties :
#
#
# Convention : Reuss Voigt Hill
#
# Bulk Modulus (GPa) = 37.69534 53.84090 45.76812
# Shear Modulus (GPa) = 29.09801 37.43600 33.26700
#
# Velocity S-wave (km/s) = 3.53589 4.01062 3.78071
# Velocity P-wave (km/s) = 5.73293 6.67686 6.22282
#
# Compressibility (1/GPa) = 0.02652848
#
# Stress axis : x y z
#
# Youngs Moduli (GPa) = 59.66021 74.58344 58.55682
#
# Poissons Ratio (x) = 0.35024 0.24120
# Poissons Ratio (y) = 0.28016 0.09043
# Poissons Ratio (z) = 0.24574 0.11517
#
# Static dielectric constant tensor:
#      x y z
#    x 1.967270 -0.028090 0.031510 
#    y -0.028090 1.919070 -0.012860 
#    z 0.031510 -0.012860 1.969260 
# 
# From -- ./inp_files/381926.got.cif
#   From: 2010.05.17/outbox.cif.g08.bks.cpg/sg2_191_cif.got.tgz:381926.got - 2010.06.03 11:33:40.
