data_PCOD9096362
_publ_section_title
;
Structure prediction by ZEFSAII (Michael W. Deem and Ramdas Pophale) SiO2 
 PCOD9096362
Probable space group: P -1
;
_chemical_formula_sum "Si O2"
_cell_formula_units_Z 16
_cell_length_a 14.873680
_cell_length_b 11.482623
_cell_length_c 10.907648
_cell_angle_alpha 66.512745
_cell_angle_beta 86.268200
_cell_angle_gamma 142.917430
_cell_volume 743.074877
_symmetry_space_group_name_H-M "P -1"
_symmetry_group_IT_number 2
_symmetry_cell_setting 'triclinic'
loop_
_space_group_symop_operation_xyz
x,y,z
-x,-y,-z
loop_
_atom_site_type_symbol
_atom_site_label
_atom_site_fract_x
_atom_site_fract_y
_atom_site_fract_z
Si Si1 0.219699 0.723899 0.421247
Si Si2 0.520434 0.107022 0.831580
Si Si3 0.243073 0.076961 0.582150
Si Si4 0.826421 0.514699 0.263569
Si Si5 0.897020 0.506391 0.993573
Si Si6 0.504154 0.731423 0.726736
Si Si7 0.827765 0.878441 0.010554
Si Si8 0.481511 0.348227 0.696804
O O1 0.275733 0.678665 0.347040
O O2 0.227166 0.678888 0.577144
O O3 0.000000 0.500000 0.500000
O O4 0.392399 0.052985 0.268297
O O5 0.501603 0.233592 0.798029
O O6 0.500000 0.000000 0.000000
O O7 0.334693 0.821334 0.883230
O O8 0.316959 0.107048 0.437142
O O9 0.391494 0.219617 0.621444
O O10 0.302579 0.301050 0.473998
O O11 0.017788 0.745788 0.783656
O O12 0.629950 0.354574 0.322243
O O13 0.905618 0.584257 0.091299
O O14 0.017924 0.823969 0.187375
O O15 0.000000 0.500000 0.000000
O O16 0.337777 0.417619 0.921785
O O17 0.681502 0.768335 0.166830
O O18 0.000000 0.000000 0.000000
#
# Coordination Sequence:
#
# PCOD9096362 Si02
#       8
#     2   2   2   2   2   2   2   2
#     4  12  28  43  63  93 134 179 224 273 331 392
#     4  12  28  46  66  93 139 183 223 274 336 403
#     4  10  20  35  70  98 130 159 220 278 329 381
#     4  11  21  40  64  96 130 161 222 270 328 393
#     4  12  22  38  69 101 127 171 221 276 329 395
#     4  10  21  40  65  94 127 166 215 273 332 391
#     4   9  19  36  67  99 129 163 211 282 333 389
#     4  10  20  39  63 101 134 170 215 274 335 389
#
# _framework density 21.532150999999999
#
# number of rings (size 3 to 8) (size 9 to 14) (size 15 to 20)
#    0.000    1.250    3.750    1.875    5.250    1.000 
#    0.000    1.250    0.000    0.000    0.000    0.000 
#    0.000    0.000    0.000    0.000    0.000    0.000 
#
# Total GULP energy -89317.790657 kJ/mol
# GULP energy per Si atom -5582.361916 kJ/mol
# Density = 2.148314 g / cm^3
# Si number density = 21.532151 Si / 1000 Ang^3
#
#
#
# Elastic Constant Matrix: (Units=GPa)
#
#
# Indices 1 2 3 4 5 6 
#
# 1 108.9208 27.0625 36.6555 -9.6350 -2.0786 -12.3579
# 2 27.0625 38.1396 9.9047 -17.0608 6.2930 -9.3025
# 3 36.6555 9.9047 84.0571 -23.2576 4.8746 -8.9795
# 4 -9.6350 -17.0608 -23.2576 32.9637 -6.8614 4.7474
# 5 -2.0786 6.2930 4.8746 -6.8614 36.3026 -4.0204
# 6 -12.3579 -9.3025 -8.9795 4.7474 -4.0204 25.1713
#
#
#
# Elastic Compliance Matrix: (Units=1/GPa)
#
#
# Indices 1 2 3 4 5 6 
#
# 1 0.013668 -0.010502 -0.006191 -0.005565 0.002614 0.002088
# 2 -0.010502 0.044985 0.006799 0.022891 -0.003996 0.008939
# 3 -0.006191 0.006799 0.017991 0.013742 -0.001004 0.003139
# 4 -0.005565 0.022891 0.013742 0.050776 0.003646 0.001636
# 5 0.002614 -0.003996 -0.001004 0.003646 0.029599 0.003488
# 6 0.002088 0.008939 0.003139 0.001636 0.003488 0.045425
#
#
# Mechanical properties :
#
#
# Convention : Reuss Voigt Hill
#
# Bulk Modulus (GPa) = 17.58825 42.04033 29.81429
# Shear Modulus (GPa) = 20.73088 29.38715 25.05902
#
# Velocity S-wave (km/s) = 3.10625 3.69833 3.41515
# Velocity P-wave (km/s) = 4.58815 6.14847 5.42470
#
# Compressibility (1/GPa) = 0.05685615
#
# Stress axis : x y z
#
# Youngs Moduli (GPa) = 73.16095 22.22953 55.58245
#
# Poissons Ratio (x) = 0.23346 0.34414
# Poissons Ratio (y) = 0.76837 -0.37793
# Poissons Ratio (z) = 0.45297 -0.15115
#
# Static dielectric constant tensor:
#      x y z
#    x 1.868950 -0.077310 -0.022070 
#    y -0.077310 1.844550 -0.036870 
#    z -0.022070 -0.036870 1.775400 
# 
# From -- ./inp_files/314086.got.cif
#   From: 2010.05.17/outbox.cif.g08.bks.cpg/sg2_158_cif.got.tgz:314086.got - 2010.06.03 11:33:40.
