data_PCOD9096992
_publ_section_title
;
Structure prediction by ZEFSAII (Michael W. Deem and Ramdas Pophale) SiO2 
 PCOD9096992
Probable space group: P -1
;
_chemical_formula_sum "Si O2"
_cell_formula_units_Z 16
_cell_length_a 11.414068
_cell_length_b 8.933724
_cell_length_c 21.771922
_cell_angle_alpha 124.990425
_cell_angle_beta 23.098991
_cell_angle_gamma 126.081785
_cell_volume 700.380476
_symmetry_space_group_name_H-M "P -1"
_symmetry_group_IT_number 2
_symmetry_cell_setting 'triclinic'
loop_
_space_group_symop_operation_xyz
x,y,z
-x,-y,-z
loop_
_atom_site_type_symbol
_atom_site_label
_atom_site_fract_x
_atom_site_fract_y
_atom_site_fract_z
Si Si1 0.636719 0.177340 0.682861
Si Si2 0.966567 0.866215 0.218438
Si Si3 0.182903 0.433210 0.326500
Si Si4 0.440667 0.921936 0.162342
Si Si5 0.966718 0.179706 0.016749
Si Si6 0.280694 0.499811 0.818604
Si Si7 0.840919 0.047690 0.434571
Si Si8 0.589949 0.754082 0.939145
O O1 0.891305 0.361389 0.593687
O O2 0.644846 0.107454 0.731874
O O3 0.316827 0.246614 0.847527
O O4 0.656413 0.037194 0.584581
O O5 0.771242 0.705014 0.233788
O O6 0.752656 0.907889 0.387893
O O7 0.128317 0.070414 0.163806
O O8 0.271011 0.791529 0.074325
O O9 0.418137 0.436044 0.270704
O O10 0.910504 0.260639 0.428407
O O11 0.324181 0.399951 0.183700
O O12 0.169108 0.999836 0.281107
O O13 0.518641 0.747947 0.045268
O O14 0.740988 0.081153 0.050313
O O15 0.794732 0.345580 0.158392
O O16 0.000000 0.000000 0.000000
O O17 0.000000 0.500000 0.000000
#
# Coordination Sequence:
#
# PCOD9096992 Si02
#       8
#     2   2   2   2   2   2   2   2
#     4  11  22  35  56  85 117 147 189 230 278 336
#     4   9  18  30  56  86 109 142 190 231 275 329
#     4  11  21  34  59  87 112 145 189 237 277 327
#     4  10  20  36  59  80 109 153 188 227 282 334
#     4  10  21  35  56  86 112 143 187 237 276 325
#     4  12  18  33  61  85 106 146 192 232 277 333
#     4  10  21  39  57  81 116 153 183 227 282 339
#     4   9  17  32  53  86 112 138 188 240 278 319
#
# _framework density 22.844728
#
# number of rings (size 3 to 8) (size 9 to 14) (size 15 to 20)
#    0.000    1.750    3.750    2.250    0.000    0.500 
#    0.000    1.875    2.750    3.000    0.000    0.000 
#    0.000    0.000    0.000    0.000    0.000    0.000 
#
# Total GULP energy -89112.252905 kJ/mol
# GULP energy per Si atom -5569.515807 kJ/mol
# Density = 2.279273 g / cm^3
# Si number density = 22.844728 Si / 1000 Ang^3
#
#
#
# Elastic Constant Matrix: (Units=GPa)
#
#
# Indices 1 2 3 4 5 6 
#
# 1 60.5424 32.9833 23.9341 2.9564 14.0065 18.4087
# 2 32.9833 84.8961 20.4418 14.2722 16.9503 20.3426
# 3 23.9341 20.4418 77.6741 6.9359 37.3213 18.3672
# 4 2.9564 14.2722 6.9359 23.4591 12.3253 12.0223
# 5 14.0065 16.9503 37.3213 12.3253 51.9208 5.9957
# 6 18.4087 20.3426 18.3672 12.0223 5.9957 35.1636
#
#
#
# Elastic Compliance Matrix: (Units=1/GPa)
#
#
# Indices 1 2 3 4 5 6 
#
# 1 0.025014 -0.007572 -0.002501 0.009120 -0.003496 -0.009930
# 2 -0.007572 0.016955 -0.000071 -0.006961 -0.001421 -0.003185
# 3 -0.002501 -0.000071 0.023631 0.007762 -0.016887 -0.010767
# 4 0.009120 -0.006961 0.007762 0.065468 -0.018534 -0.024025
# 5 -0.003496 -0.001421 -0.016887 -0.018534 0.035855 0.011697
# 6 -0.009930 -0.003185 -0.010767 -0.024025 0.011697 0.047324
#
#
# Mechanical properties :
#
#
# Convention : Reuss Voigt Hill
#
# Bulk Modulus (GPa) = 22.06954 41.98123 32.02539
# Shear Modulus (GPa) = 20.02887 31.82559 25.92723
#
# Velocity S-wave (km/s) = 2.96419 3.73651 3.37253
# Velocity P-wave (km/s) = 4.62568 6.08539 5.40504
#
# Compressibility (1/GPa) = 0.04531131
#
# Stress axis : x y z
#
# Youngs Moduli (GPa) = 39.97733 58.97881 42.31756
#
# Poissons Ratio (x) = 0.44657 0.10585
# Poissons Ratio (y) = 0.30270 0.00303
# Poissons Ratio (z) = 0.10000 0.00422
#
# Static dielectric constant tensor:
#      x y z
#    x 1.943170 -0.065230 0.047940 
#    y -0.065230 1.975060 -0.019270 
#    z 0.047940 -0.019270 1.913980 
# 
# From -- ./inp_files/567813.got.cif
#   From: 2010.05.17/outbox.cif.g08.bks.cpg/sg2_284_cif.got.tgz:567813.got - 2010.06.03 11:33:40.
