data_PCOD9096573
_publ_section_title
;
Structure prediction by ZEFSAII (Michael W. Deem and Ramdas Pophale) SiO2 
 PCOD9096573
Probable space group: P -1
;
_chemical_formula_sum "Si O2"
_cell_formula_units_Z 16
_cell_length_a 11.863747
_cell_length_b 18.467855
_cell_length_c 24.251167
_cell_angle_alpha 151.003581
_cell_angle_beta 160.348685
_cell_angle_gamma 37.404056
_cell_volume 852.051199
_symmetry_space_group_name_H-M "P -1"
_symmetry_group_IT_number 2
_symmetry_cell_setting 'triclinic'
loop_
_space_group_symop_operation_xyz
x,y,z
-x,-y,-z
loop_
_atom_site_type_symbol
_atom_site_label
_atom_site_fract_x
_atom_site_fract_y
_atom_site_fract_z
Si Si1 0.770652 0.813755 0.160464
Si Si2 0.070566 0.362378 0.982088
Si Si3 0.795707 0.648320 0.747777
Si Si4 0.768973 0.515654 0.456689
Si Si5 0.229921 0.552421 0.792303
Si Si6 0.191867 0.573756 0.986562
Si Si7 0.331493 0.741335 0.444940
Si Si8 0.635587 0.932638 0.815670
O O1 0.879720 0.779815 0.126362
O O2 0.123701 0.829878 0.367050
O O3 0.560638 0.943363 0.165677
O O4 0.517626 0.658728 0.959641
O O5 0.417195 0.413276 0.209362
O O6 0.000000 0.500000 0.000000
O O7 0.806965 0.342583 0.897852
O O8 0.500000 0.500000 0.500000
O O9 0.660198 0.804956 0.787703
O O10 0.039948 0.653575 0.810914
O O11 0.024230 0.642250 0.903248
O O12 0.655549 0.678606 0.526321
O O13 0.000000 0.500000 0.500000
O O14 0.955316 0.471100 0.567671
O O15 0.421838 0.455030 0.857198
O O16 0.940014 0.410295 0.766570
O O17 0.426766 0.841049 0.608709
O O18 0.000000 0.000000 0.000000
#
# Coordination Sequence:
#
# PCOD9096573 Si02
#       8
#     2   2   2   2   2   2   2   2
#     4  11  21  36  58  90 122 155 198 247 304 352
#     4  11  18  35  58  87 120 154 194 252 297 354
#     4  12  22  40  60  85 124 158 202 244 296 361
#     4  11  17  28  54  87 118 145 195 247 291 339
#     4  11  20  35  57  90 120 152 199 249 300 346
#     4  10  21  36  59  88 119 154 202 248 300 352
#     4  10  20  36  56  85 121 154 192 243 298 350
#     4  12  23  39  59  88 124 157 202 246 297 358
#
# _framework density 18.778213999999998
#
# number of rings (size 3 to 8) (size 9 to 14) (size 15 to 20)
#    0.000    1.000    8.750    1.500    0.000    0.000 
#    0.000    0.625    0.000    0.000    0.000    2.625 
#    0.000    0.000    0.000    0.000    0.000    0.000 
#
# Total GULP energy -89106.898872 kJ/mol
# GULP energy per Si atom -5569.181180 kJ/mol
# Density = 1.873547 g / cm^3
# Si number density = 18.778214 Si / 1000 Ang^3
#
#
#
# Elastic Constant Matrix: (Units=GPa)
#
#
# Indices 1 2 3 4 5 6 
#
# 1 73.5737 38.2368 17.2281 -1.5870 -33.4750 -11.9131
# 2 38.2368 128.1578 48.3201 -15.6842 -28.9227 -7.7916
# 3 17.2281 48.3201 54.7826 -21.3628 -23.3960 4.4027
# 4 -1.5870 -15.6842 -21.3628 28.2717 5.2806 -8.2654
# 5 -33.4750 -28.9227 -23.3960 5.2806 36.3815 -5.5133
# 6 -11.9131 -7.7916 4.4027 -8.2654 -5.5133 38.9443
#
#
#
# Elastic Compliance Matrix: (Units=1/GPa)
#
#
# Indices 1 2 3 4 5 6 
#
# 1 0.029781 -0.003452 0.006845 0.002903 0.030545 0.012586
# 2 -0.003452 0.013121 -0.010264 -0.000034 0.001094 0.002877
# 3 0.006845 -0.010264 0.044918 0.025247 0.023921 0.003707
# 4 0.002903 -0.000034 0.025247 0.055641 0.012564 0.011615
# 5 0.030545 0.001094 0.023921 0.012564 0.073031 0.019864
# 6 0.012586 0.002877 0.003707 0.011615 0.019864 0.034962
#
#
# Mechanical properties :
#
#
# Convention : Reuss Voigt Hill
#
# Bulk Modulus (GPa) = 13.49948 51.56491 32.53219
# Shear Modulus (GPa) = 17.24793 30.90144 24.07468
#
# Velocity S-wave (km/s) = 3.03398 4.06100 3.58446
# Velocity P-wave (km/s) = 4.41337 7.03623 5.87309
#
# Compressibility (1/GPa) = 0.07407695
#
# Stress axis : x y z
#
# Youngs Moduli (GPa) = 33.57795 76.21580 22.26277
#
# Poissons Ratio (x) = 0.26312 -0.15239
# Poissons Ratio (y) = 0.11592 0.22851
# Poissons Ratio (z) = -0.22984 0.78230
#
# Static dielectric constant tensor:
#      x y z
#    x 1.731910 -0.029380 0.042890 
#    y -0.029380 1.734930 -0.043200 
#    z 0.042890 -0.043200 1.691160 
# 
# From -- ./inp_files/254328.got.cif
#   From: 2010.05.17/outbox.cif.g08.bks.cpg/sg2_128_cif.got.tgz:254328.got - 2010.06.03 11:33:40.
