data_PCOD9096166
_publ_section_title
;
Structure prediction by ZEFSAII (Michael W. Deem and Ramdas Pophale) SiO2 
 PCOD9096166
Probable space group: P -1
;
_chemical_formula_sum "Si O2"
_cell_formula_units_Z 16
_cell_length_a 23.671254
_cell_length_b 17.222941
_cell_length_c 8.161847
_cell_angle_alpha 140.493576
_cell_angle_beta 44.254289
_cell_angle_gamma 160.131671
_cell_volume 718.749305
_symmetry_space_group_name_H-M "P -1"
_symmetry_group_IT_number 2
_symmetry_cell_setting 'triclinic'
loop_
_space_group_symop_operation_xyz
x,y,z
-x,-y,-z
loop_
_atom_site_type_symbol
_atom_site_label
_atom_site_fract_x
_atom_site_fract_y
_atom_site_fract_z
Si Si1 0.625208 0.242246 0.841058
Si Si2 0.879326 0.251780 0.738088
Si Si3 0.590717 0.933135 0.248555
Si Si4 0.761494 0.345285 0.050969
Si Si5 0.040701 0.249513 0.204657
Si Si6 0.150480 0.138798 0.311606
Si Si7 0.152615 0.913920 0.140093
Si Si8 0.726775 0.511034 0.614057
O O1 0.476835 0.128177 0.893466
O O2 0.795360 0.522725 0.875793
O O3 0.620743 0.103564 0.542360
O O4 0.640241 0.240193 0.996972
O O5 0.811336 0.066729 0.712532
O O6 0.974023 0.293029 0.476574
O O7 0.760960 0.197960 0.817403
O O8 0.000000 0.500000 0.000000
O O9 0.437049 0.672660 0.243012
O O10 0.754619 0.069391 0.125000
O O11 0.720968 0.360461 0.328984
O O12 0.952381 0.638313 0.088582
O O13 0.108382 0.266627 0.252455
O O14 0.909373 0.011921 0.972596
O O15 0.258418 0.389222 0.417401
O O16 0.217837 0.126896 0.278964
O O17 0.000000 0.000000 0.500000
#
# Coordination Sequence:
#
# PCOD9096166 Si02
#       8
#     2   2   2   2   2   2   2   2
#     4  10  21  39  63  93 133 170 210 257 339 396
#     4  10  20  35  62  99 133 150 209 282 326 362
#     4  10  25  39  60  94 141 170 204 266 341 389
#     4  11  21  39  69  95 129 166 224 270 316 391
#     4  11  20  38  66 100 125 168 219 276 323 373
#     4  12  23  41  69  94 127 172 233 269 303 387
#     4  11  22  41  62  95 124 170 212 275 320 367
#     4  11  23  42  61  96 131 178 213 262 325 389
#
# _framework density 22.260891999999998
#
# number of rings (size 3 to 8) (size 9 to 14) (size 15 to 20)
#    0.000    1.250    5.000    1.875    5.250    2.000 
#    0.000    0.000    0.000    7.500    0.000    0.000 
#    0.000    0.000    0.000    0.000    0.000    0.000 
#
# Total GULP energy -89374.290263 kJ/mol
# GULP energy per Si atom -5585.893141 kJ/mol
# Density = 2.221022 g / cm^3
# Si number density = 22.260892 Si / 1000 Ang^3
#
#
#
# Elastic Constant Matrix: (Units=GPa)
#
#
# Indices 1 2 3 4 5 6 
#
# 1 120.2167 15.2508 6.5324 2.6500 -4.5459 -25.9660
# 2 15.2508 49.7630 4.3697 -16.7447 -7.5611 -8.2268
# 3 6.5324 4.3697 71.5164 -10.5625 -0.3750 13.8821
# 4 2.6500 -16.7447 -10.5625 28.5143 -0.5889 -0.9935
# 5 -4.5459 -7.5611 -0.3750 -0.5889 31.8903 5.4679
# 6 -25.9660 -8.2268 13.8821 -0.9935 5.4679 28.7124
#
#
#
# Elastic Compliance Matrix: (Units=1/GPa)
#
#
# Indices 1 2 3 4 5 6 
#
# 1 0.011331 -0.002650 -0.003601 -0.003571 -0.001060 0.011307
# 2 -0.002650 0.028462 0.000074 0.017289 0.005796 0.005217
# 3 -0.003601 0.000074 0.017583 0.006516 0.001866 -0.011866
# 4 -0.003571 0.017289 0.006516 0.048042 0.004666 -0.000652
# 5 -0.001060 0.005796 0.001866 0.004666 0.033799 -0.006475
# 6 0.011307 0.005217 -0.011866 -0.000652 -0.006475 0.053496
#
#
# Mechanical properties :
#
#
# Convention : Reuss Voigt Hill
#
# Bulk Modulus (GPa) = 22.21118 32.64466 27.42792
# Shear Modulus (GPa) = 22.71971 32.17963 27.44967
#
# Velocity S-wave (km/s) = 3.19817 3.80619 3.51535
# Velocity P-wave (km/s) = 4.86179 5.83202 5.36887
#
# Compressibility (1/GPa) = 0.04502237
#
# Stress axis : x y z
#
# Youngs Moduli (GPa) = 88.25306 35.13511 56.87400
#
# Poissons Ratio (x) = 0.09310 0.20480
# Poissons Ratio (y) = 0.23385 -0.00422
# Poissons Ratio (z) = 0.31779 -0.00261
#
# Static dielectric constant tensor:
#      x y z
#    x 1.889200 -0.028370 0.015270 
#    y -0.028370 1.842260 0.020660 
#    z 0.015270 0.020660 1.795880 
# 
# From -- ./inp_files/338688.got.cif
#   From: 2010.05.17/outbox.cif.g08.bks.cpg/sg2_170_cif.got.tgz:338688.got - 2010.06.03 11:33:40.
