data_PCOD9096297
_publ_section_title
;
Structure prediction by ZEFSAII (Michael W. Deem and Ramdas Pophale) SiO2 
 PCOD9096297
Probable space group: P -1
;
_chemical_formula_sum "Si O2"
_cell_formula_units_Z 16
_cell_length_a 9.920079
_cell_length_b 9.635430
_cell_length_c 11.098144
_cell_angle_alpha 79.592895
_cell_angle_beta 98.752756
_cell_angle_gamma 128.181105
_cell_volume 819.014943
_symmetry_space_group_name_H-M "P -1"
_symmetry_group_IT_number 2
_symmetry_cell_setting 'triclinic'
loop_
_space_group_symop_operation_xyz
x,y,z
-x,-y,-z
loop_
_atom_site_type_symbol
_atom_site_label
_atom_site_fract_x
_atom_site_fract_y
_atom_site_fract_z
Si Si1 0.361234 0.866515 0.196215
Si Si2 0.818920 0.894629 0.557155
Si Si3 0.323444 0.385482 0.211033
Si Si4 0.884257 0.240818 0.605879
Si Si5 0.196507 0.573876 0.022858
Si Si6 0.503770 0.689888 0.369880
Si Si7 0.746147 0.426853 0.429570
Si Si8 0.545249 0.280144 0.179120
O O1 0.192797 0.769361 0.273215
O O2 0.303422 0.760916 0.080014
O O3 0.485847 0.833200 0.285528
O O4 0.447258 0.073044 0.170491
O O5 0.791528 0.769598 0.682857
O O6 0.674709 0.781358 0.454664
O O7 0.806991 0.043561 0.587202
O O8 0.000000 0.000000 0.500000
O O9 0.218944 0.442974 0.121585
O O10 0.471744 0.557143 0.281730
O O11 0.414066 0.329170 0.144993
O O12 0.820068 0.319601 0.491663
O O13 0.090273 0.374847 0.611923
O O14 0.291439 0.608496 0.903816
O O15 0.000000 0.500000 0.000000
O O16 0.350621 0.579634 0.463883
O O17 0.614158 0.327172 0.318081
#
# Coordination Sequence:
#
# PCOD9096297 Si02
#       8
#     2   2   2   2   2   2   2   2
#     4  10  21  41  67  89 120 159 210 257 305 378
#     4  12  23  35  60  95 137 157 200 252 318 370
#     4  11  24  42  64  92 128 165 210 256 313 377
#     4  10  20  36  57  98 125 160 203 253 308 372
#     4  11  26  46  65  87 122 168 218 261 312 365
#     4  10  21  39  60  92 128 168 197 241 318 384
#     4  10  20  35  65  88 128 166 203 245 310 378
#     4  12  22  40  68  90 122 164 215 261 308 358
#
# _framework density 19.535663
#
# number of rings (size 3 to 8) (size 9 to 14) (size 15 to 20)
#    0.000    1.250    2.500    3.375    1.750    6.000 
#    0.000    0.625    0.000    0.000    0.000    0.000 
#    0.000    0.000    0.000    0.000    0.000    0.000 
#
# Total GULP energy -89448.482199 kJ/mol
# GULP energy per Si atom -5590.530137 kJ/mol
# Density = 1.949120 g / cm^3
# Si number density = 19.535663 Si / 1000 Ang^3
#
#
#
# Elastic Constant Matrix: (Units=GPa)
#
#
# Indices 1 2 3 4 5 6 
#
# 1 113.3372 49.6285 36.0511 -6.7597 -0.2626 -2.2422
# 2 49.6285 104.1604 28.4398 -14.2987 14.0727 -16.4593
# 3 36.0511 28.4398 62.5080 1.6885 -2.5901 -7.8541
# 4 -6.7597 -14.2987 1.6885 18.2836 4.9566 -6.1713
# 5 -0.2626 14.0727 -2.5901 4.9566 26.6889 1.2356
# 6 -2.2422 -16.4593 -7.8541 -6.1713 1.2356 38.6322
#
#
#
# Elastic Compliance Matrix: (Units=1/GPa)
#
#
# Indices 1 2 3 4 5 6 
#
# 1 0.012826 -0.005812 -0.004974 -0.001200 0.003071 -0.003033
# 2 -0.005812 0.021574 -0.006317 0.023960 -0.017049 0.011943
# 3 -0.004974 -0.006317 0.022294 -0.011027 0.007514 -0.000449
# 4 -0.001200 0.023960 -0.011027 0.090455 -0.031596 0.023357
# 5 0.003071 -0.017049 0.007514 -0.031596 0.053656 -0.012321
# 6 -0.003033 0.011943 -0.000449 0.023357 -0.012321 0.034831
#
#
# Mechanical properties :
#
#
# Convention : Reuss Voigt Hill
#
# Bulk Modulus (GPa) = 44.46914 56.47159 50.47037
# Shear Modulus (GPa) = 18.02851 27.78002 22.90427
#
# Velocity S-wave (km/s) = 3.04114 3.77505 3.42780
# Velocity P-wave (km/s) = 5.92823 6.92611 6.44651
#
# Compressibility (1/GPa) = 0.02248750
#
# Stress axis : x y z
#
# Youngs Moduli (GPa) = 77.96669 46.35194 44.85565
#
# Poissons Ratio (x) = 0.26939 0.22313
# Poissons Ratio (y) = 0.45313 0.28335
# Poissons Ratio (z) = 0.38784 0.29280
#
# Static dielectric constant tensor:
#      x y z
#    x 1.723100 -0.011230 -0.021330 
#    y -0.011230 1.669080 -0.011820 
#    z -0.021330 -0.011820 1.674570 
# 
# From -- ./inp_files/180731.got.cif
#   From: 2010.05.17/outbox.cif.g08.bks.cpg/sg2_91_cif.got.tgz:180731.got - 2010.06.03 11:33:40.
