data_PCOD9096650
_publ_section_title
;
Structure prediction by ZEFSAII (Michael W. Deem and Ramdas Pophale) SiO2 
 PCOD9096650
Probable space group: P -1
;
_chemical_formula_sum "Si O2"
_cell_formula_units_Z 16
_cell_length_a 17.543135
_cell_length_b 9.978727
_cell_length_c 14.669126
_cell_angle_alpha 80.230804
_cell_angle_beta 31.633235
_cell_angle_gamma 57.248543
_cell_volume 851.405628
_symmetry_space_group_name_H-M "P -1"
_symmetry_group_IT_number 2
_symmetry_cell_setting 'triclinic'
loop_
_space_group_symop_operation_xyz
x,y,z
-x,-y,-z
loop_
_atom_site_type_symbol
_atom_site_label
_atom_site_fract_x
_atom_site_fract_y
_atom_site_fract_z
Si Si1 0.258509 0.812744 0.293285
Si Si2 0.582265 0.094521 0.416438
Si Si3 0.234863 0.685888 0.631374
Si Si4 0.452818 0.665743 0.928337
Si Si5 0.702704 0.487538 0.230674
Si Si6 0.091165 0.251797 0.733510
Si Si7 0.952659 0.941921 0.342119
Si Si8 0.617798 0.682006 0.579959
O O1 0.361014 0.588130 0.228248
O O2 0.231356 0.905326 0.407443
O O3 0.411604 0.758206 0.060191
O O4 0.000000 0.000000 0.500000
O O5 0.397799 0.317431 0.630326
O O6 0.588441 0.148726 0.301825
O O7 0.500000 0.000000 0.500000
O O8 0.786770 0.936142 0.296358
O O9 0.494582 0.551347 0.394321
O O10 0.169920 0.693044 0.800444
O O11 0.243439 0.546677 0.574564
O O12 0.094621 0.904666 0.700663
O O13 0.527217 0.714809 0.768314
O O14 0.209409 0.776045 0.135589
O O15 0.849400 0.442171 0.005164
O O16 0.074464 0.182653 0.664832
O O17 0.228300 0.293457 0.581575
#
# Coordination Sequence:
#
# PCOD9096650 Si02
#       8
#     2   2   2   2   2   2   2   2
#     4   9  20  39  64  89 113 140 190 244 298 350
#     4   9  20  36  52  80 122 158 195 229 273 337
#     4  10  20  36  57  82 117 151 207 241 269 336
#     4  10  20  38  65  88 112 147 190 243 296 344
#     4  10  21  37  53  80 120 162 196 242 277 329
#     4  11  23  36  57  83 125 162 189 231 294 333
#     4  11  21  36  61  89 111 152 194 241 288 346
#     4  10  21  38  55  87 119 154 197 237 280 348
#
# _framework density 18.792452999999998
#
# number of rings (size 3 to 8) (size 9 to 14) (size 15 to 20)
#    0.000    2.000    2.500    0.750    1.750    5.000 
#    2.250    0.625    0.000    6.750    0.000    0.000 
#    0.000    0.000    0.000    0.000    0.000    0.000 
#
# Total GULP energy -89166.494080 kJ/mol
# GULP energy per Si atom -5572.905880 kJ/mol
# Density = 1.874968 g / cm^3
# Si number density = 18.792453 Si / 1000 Ang^3
#
#
#
# Elastic Constant Matrix: (Units=GPa)
#
#
# Indices 1 2 3 4 5 6 
#
# 1 81.9824 45.8507 51.1672 -10.0634 19.0080 10.3046
# 2 45.8507 81.3346 36.4731 0.8907 11.3377 0.8571
# 3 51.1672 36.4731 103.0767 -14.0427 31.7141 2.4240
# 4 -10.0634 0.8907 -14.0427 22.8306 -12.3706 -1.4724
# 5 19.0080 11.3377 31.7141 -12.3706 31.9239 1.4323
# 6 10.3046 0.8571 2.4240 -1.4724 1.4323 32.0341
#
#
#
# Elastic Compliance Matrix: (Units=1/GPa)
#
#
# Indices 1 2 3 4 5 6 
#
# 1 0.024159 -0.010273 -0.007049 0.005600 -0.001266 -0.006649
# 2 -0.010273 0.019408 -0.002419 -0.007321 -0.001330 0.002691
# 3 -0.007049 -0.002419 0.018018 0.001487 -0.012339 0.001589
# 4 0.005600 -0.007321 0.001487 0.058571 0.020483 0.000058
# 5 -0.001266 -0.001330 -0.012339 0.020483 0.052747 -0.000041
# 6 -0.006649 0.002691 0.001589 0.000058 -0.000041 0.033168
#
#
# Mechanical properties :
#
#
# Convention : Reuss Voigt Hill
#
# Bulk Modulus (GPa) = 45.24295 59.26396 52.25346
# Shear Modulus (GPa) = 19.76893 26.21790 22.99341
#
# Velocity S-wave (km/s) = 3.24691 3.73919 3.50172
# Velocity P-wave (km/s) = 6.17931 7.08848 6.64946
#
# Compressibility (1/GPa) = 0.02210289
#
# Stress axis : x y z
#
# Youngs Moduli (GPa) = 41.39215 51.52447 55.49956
#
# Poissons Ratio (x) = 0.52932 0.39121
# Poissons Ratio (y) = 0.42523 0.13427
# Poissons Ratio (z) = 0.29177 0.12465
#
# Static dielectric constant tensor:
#      x y z
#    x 1.682190 -0.036260 -0.003820 
#    y -0.036260 1.659700 0.001810 
#    z -0.003820 0.001810 1.711120 
# 
# From -- ./inp_files/278195.got.cif
#   From: 2010.05.17/outbox.cif.g08.bks.cpg/sg2_140_cif.got.tgz:278195.got - 2010.06.03 11:33:40.
