data_PCOD9096523
_publ_section_title
;
Structure prediction by ZEFSAII (Michael W. Deem and Ramdas Pophale) SiO2 
 PCOD9096523
Probable space group: P -1
;
_chemical_formula_sum "Si O2"
_cell_formula_units_Z 16
_cell_length_a 10.249900
_cell_length_b 12.213599
_cell_length_c 8.086334
_cell_angle_alpha 83.407559
_cell_angle_beta 54.415308
_cell_angle_gamma 105.118280
_cell_volume 747.560526
_symmetry_space_group_name_H-M "P -1"
_symmetry_group_IT_number 2
_symmetry_cell_setting 'triclinic'
loop_
_space_group_symop_operation_xyz
x,y,z
-x,-y,-z
loop_
_atom_site_type_symbol
_atom_site_label
_atom_site_fract_x
_atom_site_fract_y
_atom_site_fract_z
Si Si1 0.405898 0.084868 0.743055
Si Si2 0.082680 0.306460 0.200549
Si Si3 0.276433 0.655869 0.574375
Si Si4 0.358807 0.064874 0.409156
Si Si5 0.517706 0.320457 0.114559
Si Si6 0.219430 0.125287 0.184249
Si Si7 0.377866 0.497719 0.743625
Si Si8 0.807432 0.491386 0.659757
O O1 0.548302 0.223087 0.599805
O O2 0.310167 0.045401 0.642160
O O3 0.524372 0.009690 0.701800
O O4 0.273842 0.070772 0.993737
O O5 0.067281 0.170825 0.254056
O O6 0.163107 0.382868 0.295769
O O7 0.895417 0.313814 0.308919
O O8 0.224478 0.374359 0.940014
O O9 0.281139 0.584150 0.747877
O O10 0.271587 0.562358 0.449336
O O11 0.485336 0.206974 0.274605
O O12 0.220708 0.054144 0.365288
O O13 0.382367 0.254440 0.080067
O O14 0.498142 0.429314 0.208776
O O15 0.704858 0.386299 0.883050
O O16 0.500000 0.500000 0.500000
O O17 0.000000 0.500000 0.500000
#
# Coordination Sequence:
#
# PCOD9096523 Si02
#       8
#     2   2   2   2   2   2   2   2
#     4  11  19  37  63  82 106 146 187 241 288 319
#     4  10  23  34  51  78 117 150 175 227 275 336
#     4  11  19  36  54  79 111 145 187 220 281 337
#     4   9  21  35  59  86 107 136 194 243 278 327
#     4   9  19  34  54  81 112 136 190 234 271 330
#     4  10  20  36  56  81 113 143 189 232 277 329
#     4  11  22  33  55  84 108 148 185 230 275 330
#     4   9  19  33  51  77 112 149 178 216 279 334
#
# _framework density 21.402950000000001
#
# number of rings (size 3 to 8) (size 9 to 14) (size 15 to 20)
#    0.750    1.250    2.500    1.500    1.750    1.000 
#    0.000    0.625    0.000    3.000    0.000    0.000 
#    0.000    0.000    0.000    0.000    0.000    0.000 
#
# Total GULP energy -89095.720328 kJ/mol
# GULP energy per Si atom -5568.482521 kJ/mol
# Density = 2.135424 g / cm^3
# Si number density = 21.402950 Si / 1000 Ang^3
#
#
#
# Elastic Constant Matrix: (Units=GPa)
#
#
# Indices 1 2 3 4 5 6 
#
# 1 93.7037 18.4080 33.6782 9.8065 16.8470 -27.9767
# 2 18.4080 57.5676 29.0000 9.8401 -2.4842 -15.2382
# 3 33.6782 29.0000 100.0463 17.8908 5.4014 -2.8286
# 4 9.8065 9.8401 17.8908 39.7521 4.1108 -0.9907
# 5 16.8470 -2.4842 5.4014 4.1108 23.3371 -0.8218
# 6 -27.9767 -15.2382 -2.8286 -0.9907 -0.8218 32.9630
#
#
#
# Elastic Compliance Matrix: (Units=1/GPa)
#
#
# Indices 1 2 3 4 5 6 
#
# 1 0.019612 0.000318 -0.005440 -0.000813 -0.012158 0.015998
# 2 0.000318 0.024207 -0.006470 -0.003385 0.004826 0.010924
# 3 -0.005440 -0.006470 0.014146 -0.003624 0.000374 -0.006494
# 4 -0.000813 -0.003385 -0.003624 0.028190 -0.003965 -0.001817
# 5 -0.012158 0.004826 0.000374 -0.003965 0.052511 -0.006866
# 6 0.015998 0.010924 -0.006494 -0.001817 -0.006866 0.048182
#
#
# Mechanical properties :
#
#
# Convention : Reuss Voigt Hill
#
# Bulk Modulus (GPa) = 28.75113 45.94333 37.34723
# Shear Modulus (GPa) = 22.56048 30.55921 26.55984
#
# Velocity S-wave (km/s) = 3.25019 3.78273 3.52652
# Velocity P-wave (km/s) = 5.24856 6.37112 5.83689
#
# Compressibility (1/GPa) = 0.03478124
#
# Stress axis : x y z
#
# Youngs Moduli (GPa) = 50.98872 41.31038 70.68957
#
# Poissons Ratio (x) = -0.01315 0.38456
# Poissons Ratio (y) = -0.01622 0.45738
# Poissons Ratio (z) = 0.27739 0.26729
#
# Static dielectric constant tensor:
#      x y z
#    x 1.873950 0.104200 0.070180 
#    y 0.104200 2.328500 0.260470 
#    z 0.070180 0.260470 1.858310 
# 
# From -- ./inp_files/253447.got.cif
#   From: 2010.05.17/outbox.cif.g08.bks.cpg/sg2_127_cif.got.tgz:253447.got - 2010.06.03 11:33:40.
