data_PCOD9096373
_publ_section_title
;
Structure prediction by ZEFSAII (Michael W. Deem and Ramdas Pophale) SiO2 
 PCOD9096373
Probable space group: P -1
;
_chemical_formula_sum "Si O2"
_cell_formula_units_Z 16
_cell_length_a 6.349252
_cell_length_b 23.312949
_cell_length_c 9.594506
_cell_angle_alpha 62.802870
_cell_angle_beta 140.182397
_cell_angle_gamma 128.763831
_cell_volume 708.282957
_symmetry_space_group_name_H-M "P -1"
_symmetry_group_IT_number 2
_symmetry_cell_setting 'triclinic'
loop_
_space_group_symop_operation_xyz
x,y,z
-x,-y,-z
loop_
_atom_site_type_symbol
_atom_site_label
_atom_site_fract_x
_atom_site_fract_y
_atom_site_fract_z
Si Si1 0.279642 0.895888 0.455551
Si Si2 0.954358 0.727186 0.072770
Si Si3 0.146745 0.752904 0.443581
Si Si4 0.055613 0.634939 0.717479
Si Si5 0.050019 0.513478 0.676010
Si Si6 0.057787 0.390342 0.984865
Si Si7 0.939082 0.862069 0.816137
Si Si8 0.724441 0.032477 0.358677
O O1 0.049474 0.818463 0.348022
O O2 0.675956 0.896280 0.701601
O O3 0.118956 0.909578 0.499628
O O4 0.366814 0.962269 0.319759
O O5 0.506156 0.681844 0.885289
O O6 0.096283 0.690736 0.069310
O O7 0.074942 0.813830 0.027148
O O8 0.039478 0.712696 0.287770
O O9 0.961113 0.695506 0.538176
O O10 0.604053 0.797916 0.625394
O O11 0.904743 0.565145 0.616287
O O12 0.974757 0.613014 0.861368
O O13 0.497584 0.562483 0.869959
O O14 0.000000 0.500000 0.500000
O O15 0.902139 0.437783 0.770989
O O16 0.271926 0.923735 0.825699
O O17 0.000000 0.000000 0.500000
#
# Coordination Sequence:
#
# PCOD9096373 Si02
#       8
#     2   2   2   2   2   2   2   2
#     4   8  17  31  53  76 103 136 179 215 264 314
#     4  10  20  36  51  78 113 138 176 222 259 309
#     4   9  19  35  51  78 108 137 180 220 256 317
#     4  10  21  37  54  79 110 142 175 216 266 309
#     4  10  21  38  58  80 108 138 176 221 260 308
#     4  10  22  36  56  80 107 142 176 214 264 314
#     4   8  18  31  53  73 103 139 174 216 266 306
#     4   9  15  31  56  76 100 141 173 218 269 310
#
# _framework density 22.589842999999998
#
# number of rings (size 3 to 8) (size 9 to 14) (size 15 to 20)
#    0.750    2.000    0.000    1.125    1.750    1.500 
#    2.250    0.625    0.000    3.750    0.000    0.000 
#    0.000    0.000    0.000    0.000    0.000    0.000 
#
# Total GULP energy -89074.435600 kJ/mol
# GULP energy per Si atom -5567.152225 kJ/mol
# Density = 2.253843 g / cm^3
# Si number density = 22.589843 Si / 1000 Ang^3
#
#
#
# Elastic Constant Matrix: (Units=GPa)
#
#
# Indices 1 2 3 4 5 6 
#
# 1 87.2528 48.2612 16.6323 -12.7737 -31.1494 -13.4979
# 2 48.2612 102.6209 32.2929 -28.5126 -23.1792 -4.8375
# 3 16.6323 32.2929 43.3659 -12.5127 -21.8972 -4.1264
# 4 -12.7737 -28.5126 -12.5127 33.5821 9.4104 -14.5659
# 5 -31.1494 -23.1792 -21.8972 9.4104 36.1122 7.1199
# 6 -13.4979 -4.8375 -4.1264 -14.5659 7.1199 35.1879
#
#
#
# Elastic Compliance Matrix: (Units=1/GPa)
#
#
# Indices 1 2 3 4 5 6 
#
# 1 0.021238 -0.007711 0.006675 0.001960 0.015827 0.005478
# 2 -0.007711 0.019242 -0.009250 0.013363 -0.004382 0.005021
# 3 0.006675 -0.009250 0.040469 0.005079 0.022322 0.003620
# 4 0.001960 0.013363 0.005079 0.058418 -0.007573 0.028899
# 5 0.015827 -0.004382 0.022322 -0.007573 0.055268 -0.006232
# 6 0.005478 0.005021 0.003620 0.028899 -0.006232 0.044859
#
#
# Mechanical properties :
#
#
# Convention : Reuss Voigt Hill
#
# Bulk Modulus (GPa) = 16.56283 47.51249 32.03766
# Shear Modulus (GPa) = 17.84491 30.04665 23.94578
#
# Velocity S-wave (km/s) = 2.81366 3.65100 3.25933
# Velocity P-wave (km/s) = 4.23125 6.23309 5.32705
#
# Compressibility (1/GPa) = 0.06037615
#
# Stress axis : x y z
#
# Youngs Moduli (GPa) = 47.08493 51.97091 24.71024
#
# Poissons Ratio (x) = 0.40074 -0.16493
# Poissons Ratio (y) = 0.36307 0.22857
# Poissons Ratio (z) = -0.31428 0.48074
#
# Static dielectric constant tensor:
#      x y z
#    x 1.848240 -0.003940 0.023680 
#    y -0.003940 1.878510 -0.030980 
#    z 0.023680 -0.030980 1.896610 
# 
# From -- ./inp_files/142286.got.cif
#   From: 2010.05.17/outbox.cif.g08.bks.cpg/sg2_72_cif.got.tgz:142286.got - 2010.06.03 11:33:40.
