data_PCOD9096144
_publ_section_title
;
Structure prediction by ZEFSAII (Michael W. Deem and Ramdas Pophale) SiO2 
 PCOD9096144
Probable space group: P -1
;
_chemical_formula_sum "Si O2"
_cell_formula_units_Z 12
_cell_length_a 10.688293
_cell_length_b 6.760752
_cell_length_c 15.881897
_cell_angle_alpha 103.904883
_cell_angle_beta 41.925975
_cell_angle_gamma 124.917895
_cell_volume 591.609348
_symmetry_space_group_name_H-M "P -1"
_symmetry_group_IT_number 2
_symmetry_cell_setting 'triclinic'
loop_
_space_group_symop_operation_xyz
x,y,z
-x,-y,-z
loop_
_atom_site_type_symbol
_atom_site_label
_atom_site_fract_x
_atom_site_fract_y
_atom_site_fract_z
Si Si1 0.200271 0.320958 0.701632
Si Si2 0.384212 0.398029 0.357984
Si Si3 0.358768 0.504211 0.187250
Si Si4 0.090933 0.556786 0.556471
Si Si5 0.343002 0.075843 0.045855
Si Si6 0.593028 0.871456 0.546794
O O1 0.363285 0.374049 0.705894
O O2 0.327865 0.615980 0.638300
O O3 0.251689 0.175684 0.594354
O O4 0.929481 0.167171 0.842105
O O5 0.377565 0.448713 0.269340
O O6 0.176178 0.384246 0.507583
O O7 0.356857 0.151326 0.382083
O O8 0.359596 0.292954 0.115014
O O9 0.117780 0.473409 0.291617
O O10 0.560160 0.786534 0.079303
O O11 0.000000 0.500000 0.500000
O O12 0.325229 0.847856 0.479336
O O13 0.500000 0.000000 0.000000
#
# Coordination Sequence:
#
# PCOD9096144 Si02
#       6
#     2   2   2   2   2   2
#     4   9  20  41  59  88 120 158 196 243 298 353
#     4   9  21  38  63  91 119 151 188 261 298 340
#     4  10  23  39  58  92 117 155 207 236 288 365
#     4  10  20  35  62  94 118 150 191 245 304 350
#     4  11  24  42  60  80 121 168 199 240 291 350
#     4   9  19  38  58  90 125 147 197 242 305 343
#
# _framework density 20.283657000000002
#
# number of rings (size 3 to 8) (size 9 to 14) (size 15 to 20)
#    1.000    1.333    1.667    0.000    2.333    6.667 
#    6.000    0.833    0.000    0.000    0.000    0.000 
#    0.000    0.000    0.000    0.000    0.000    0.000 
#
# Total GULP energy -66815.768176 kJ/mol
# GULP energy per Si atom -5567.980681 kJ/mol
# Density = 2.023749 g / cm^3
# Si number density = 20.283657 Si / 1000 Ang^3
#
#
#
# Elastic Constant Matrix: (Units=GPa)
#
#
# Indices 1 2 3 4 5 6 
#
# 1 63.3712 -6.3658 26.0050 2.9439 -2.6715 -6.3677
# 2 -6.3658 42.0603 20.9598 -7.4568 -5.5815 1.3463
# 3 26.0050 20.9598 102.7981 -11.2741 -18.1914 -6.2522
# 4 2.9439 -7.4568 -11.2741 28.4538 1.6727 -3.7346
# 5 -2.6715 -5.5815 -18.1914 1.6727 44.9499 -2.7116
# 6 -6.3677 1.3463 -6.2522 -3.7346 -2.7116 23.4581
#
#
#
# Elastic Compliance Matrix: (Units=1/GPa)
#
#
# Indices 1 2 3 4 5 6 
#
# 1 0.019229 0.005364 -0.006148 -0.002627 -0.000412 0.002807
# 2 0.005364 0.028817 -0.006681 0.004134 0.000966 -0.001209
# 3 -0.006148 -0.006681 0.014212 0.004743 0.004609 0.003790
# 4 -0.002627 0.004134 0.004743 0.039186 0.001222 0.006693
# 5 -0.000412 0.000966 0.004609 0.001222 0.024408 0.004077
# 6 0.002807 -0.001209 0.003790 0.006693 0.004077 0.046008
#
#
# Mechanical properties :
#
#
# Convention : Reuss Voigt Hill
#
# Bulk Modulus (GPa) = 21.13057 32.15861 26.64459
# Shear Modulus (GPa) = 24.68343 30.54776 27.61560
#
# Velocity S-wave (km/s) = 3.49221 3.88497 3.69381
# Velocity P-wave (km/s) = 5.16729 6.00107 5.59972
#
# Compressibility (1/GPa) = 0.04732480
#
# Stress axis : x y z
#
# Youngs Moduli (GPa) = 52.00596 34.70221 70.36488
#
# Poissons Ratio (x) = -0.18613 0.43262
# Poissons Ratio (y) = -0.27895 0.47014
# Poissons Ratio (z) = 0.31975 0.23186
#
# Static dielectric constant tensor:
#      x y z
#    x 1.748670 0.005230 0.023820 
#    y 0.005230 1.711590 -0.009900 
#    z 0.023820 -0.009900 1.739460 
# 
# From -- ./inp_files/62649.got.cif
#   From: 2010.05.17/outbox.cif.g08.bks.cpg/sg2_32_cif.got.tgz:62649.got - 2010.06.03 11:33:40.
