data_PCOD9096434
_publ_section_title
;
Structure prediction by ZEFSAII (Michael W. Deem and Ramdas Pophale) SiO2 
 PCOD9096434
Probable space group: P -1
;
_chemical_formula_sum "Si O2"
_cell_formula_units_Z 14
_cell_length_a 7.481166
_cell_length_b 11.751560
_cell_length_c 14.490817
_cell_angle_alpha 30.170157
_cell_angle_beta 76.773630
_cell_angle_gamma 91.603222
_cell_volume 552.930822
_symmetry_space_group_name_H-M "P -1"
_symmetry_group_IT_number 2
_symmetry_cell_setting 'triclinic'
loop_
_space_group_symop_operation_xyz
x,y,z
-x,-y,-z
loop_
_atom_site_type_symbol
_atom_site_label
_atom_site_fract_x
_atom_site_fract_y
_atom_site_fract_z
Si Si1 0.614934 0.801737 0.980774
Si Si2 0.294776 0.878733 0.706579
Si Si3 0.405026 0.307643 0.262530
Si Si4 0.266660 0.216387 0.820092
Si Si5 0.142670 0.651090 0.203134
Si Si6 0.263884 0.637504 0.400460
Si Si7 0.050510 0.449688 0.169198
O O1 0.587980 0.595819 0.051431
O O2 0.725058 0.764745 0.083901
O O3 0.376008 0.718419 0.093872
O O4 0.721951 0.103237 0.739859
O O5 0.501688 0.845302 0.699781
O O6 0.143534 0.709352 0.760788
O O7 0.349344 0.165180 0.469446
O O8 0.173380 0.739404 0.910860
O O9 0.207031 0.324531 0.234539
O O10 0.212958 0.414554 0.635208
O O11 0.501850 0.286826 0.713131
O O12 0.142405 0.922747 0.010678
O O13 0.139676 0.564293 0.369705
O O14 0.002544 0.462510 0.272883
#
# Coordination Sequence:
#
# PCOD9096434 Si02
#       7
#     2   2   2   2   2   2   2
#     4   8  15  25  42  69  98 128 162 201 249 297
#     4  10  22  36  54  78 102 136 178 214 260 306
#     4  10  20  36  55  77 105 136 172 216 258 304
#     4   8  13  23  40  67  98 124 161 203 238 301
#     4   8  15  25  42  69  98 128 162 201 249 297
#     4   8  13  23  40  67  98 128 160 199 246 297
#     4  10  20  36  55  77 105 136 172 216 258 304
#
# _framework density 25.319621000000001
#
# number of rings (size 3 to 8) (size 9 to 14) (size 15 to 20)
#    0.000    3.143    0.000    2.571    0.000    6.857 
#    0.000    0.000    0.000    3.429    0.000    2.000 
#    0.000    0.000    0.000    5.143    0.000    0.000 
#
# Total GULP energy -78343.861624 kJ/mol
# GULP energy per Si atom -5595.990116 kJ/mol
# Density = 2.526199 g / cm^3
# Si number density = 25.319621 Si / 1000 Ang^3
#
#
#
# Elastic Constant Matrix: (Units=GPa)
#
#
# Indices 1 2 3 4 5 6 
#
# 1 100.9767 22.4612 29.0047 -1.8757 27.8039 8.2194
# 2 22.4612 73.0277 34.9360 9.9196 6.8843 10.6069
# 3 29.0047 34.9360 166.1664 11.8812 21.1071 4.8824
# 4 -1.8757 9.9196 11.8812 30.3069 -0.8563 1.6383
# 5 27.8039 6.8843 21.1071 -0.8563 43.8395 2.0248
# 6 8.2194 10.6069 4.8824 1.6383 2.0248 27.7134
#
#
#
# Elastic Compliance Matrix: (Units=1/GPa)
#
#
# Indices 1 2 3 4 5 6 
#
# 1 0.012990 -0.002869 -0.000820 0.001978 -0.007253 -0.002197
# 2 -0.002869 0.017151 -0.002714 -0.004440 0.000578 -0.005015
# 3 -0.000820 -0.002714 0.007198 -0.002074 -0.002575 0.000325
# 4 0.001978 -0.004440 -0.002074 0.035456 0.001166 -0.000703
# 5 -0.007253 0.000578 -0.002575 0.001166 0.028572 0.000227
# 6 -0.002197 -0.005015 0.000325 -0.000703 0.000227 0.038623
#
#
# Mechanical properties :
#
#
# Convention : Reuss Voigt Hill
#
# Bulk Modulus (GPa) = 40.76067 56.99718 48.87893
# Shear Modulus (GPa) = 31.06151 37.28986 34.17569
#
# Velocity S-wave (km/s) = 3.50634 3.84183 3.67791
# Velocity P-wave (km/s) = 5.70315 6.49919 6.11414
#
# Compressibility (1/GPa) = 0.02453345
#
# Stress axis : x y z
#
# Youngs Moduli (GPa) = 76.98478 58.30522 138.93569
#
# Poissons Ratio (x) = 0.16727 0.11390
# Poissons Ratio (y) = 0.22086 0.37704
# Poissons Ratio (z) = 0.06311 0.15823
#
# Static dielectric constant tensor:
#      x y z
#    x 2.069450 -0.068560 -0.057360 
#    y -0.068560 2.003790 0.032960 
#    z -0.057360 0.032960 2.025010 
# 
# From -- ./inp_files/224769.got.cif
#   From: 2010.05.17/outbox.cif.g08.bks.cpg/sg2_113_cif.got.tgz:224769.got - 2010.06.03 11:33:40.
