data_PCOD9096132
_publ_section_title
;
Structure prediction by ZEFSAII (Michael W. Deem and Ramdas Pophale) SiO2 
 PCOD9096132
Probable space group: P -1
;
_chemical_formula_sum "Si O2"
_cell_formula_units_Z 14
_cell_length_a 14.547392
_cell_length_b 8.911588
_cell_length_c 15.380253
_cell_angle_alpha 47.402877
_cell_angle_beta 26.903629
_cell_angle_gamma 64.301988
_cell_volume 571.195365
_symmetry_space_group_name_H-M "P -1"
_symmetry_group_IT_number 2
_symmetry_cell_setting 'triclinic'
loop_
_space_group_symop_operation_xyz
x,y,z
-x,-y,-z
loop_
_atom_site_type_symbol
_atom_site_label
_atom_site_fract_x
_atom_site_fract_y
_atom_site_fract_z
Si Si1 0.964871 0.800540 0.931585
Si Si2 0.548150 0.054647 0.805894
Si Si3 0.364438 0.717318 0.541442
Si Si4 0.573318 0.466689 0.733246
Si Si5 0.716547 0.696711 0.798668
Si Si6 0.664971 0.898474 0.367667
Si Si7 0.027055 0.791855 0.341832
O O1 0.167553 0.766984 0.728708
O O2 0.080564 0.927662 0.875236
O O3 0.925351 0.958896 0.834364
O O4 0.736727 0.553023 0.241853
O O5 0.616365 0.218758 0.599398
O O6 0.549144 0.223714 0.814550
O O7 0.712151 0.940057 0.715262
O O8 0.284729 0.826443 0.105384
O O9 0.611821 0.875627 0.319583
O O10 0.587465 0.645152 0.576500
O O11 0.815536 0.606225 0.530824
O O12 0.352929 0.411410 0.003778
O O13 0.940236 0.749980 0.531124
O O14 0.500000 0.500000 0.000000
O O15 0.500000 0.000000 0.500000
#
# Coordination Sequence:
#
# PCOD9096132 Si02
#       7
#     2   2   2   2   2   2   2
#     4   9  18  37  60  89 126 165 207 250 311 379
#     4  12  24  41  67  99 128 162 216 266 315 375
#     4  10  20  35  62  91 125 165 204 257 314 369
#     4  10  23  41  64  97 130 163 215 267 309 375
#     4  10  23  45  69  88 130 172 210 263 318 375
#     4   9  19  36  62  92 125 165 211 251 310 383
#     4  10  22  42  66  93 127 170 210 256 322 377
#
# _framework density 24.510002
#
# number of rings (size 3 to 8) (size 9 to 14) (size 15 to 20)
#    0.000    2.000    1.429    1.286    2.000    6.286 
#    0.000    5.714    0.000    0.000    0.000    0.000 
#    0.000    0.000    0.000    0.000    0.000    0.000 
#
# Total GULP energy -78333.958170 kJ/mol
# GULP energy per Si atom -5595.282726 kJ/mol
# Density = 2.445422 g / cm^3
# Si number density = 24.510002 Si / 1000 Ang^3
#
#
#
# Elastic Constant Matrix: (Units=GPa)
#
#
# Indices 1 2 3 4 5 6 
#
# 1 55.6784 10.7666 14.2279 -4.2152 4.4853 10.8062
# 2 10.7666 91.5887 6.2398 -7.4081 1.6207 -6.1254
# 3 14.2279 6.2398 89.0458 6.0811 -3.4913 0.0818
# 4 -4.2152 -7.4081 6.0811 39.0891 -9.0164 9.5395
# 5 4.4853 1.6207 -3.4913 -9.0164 29.7363 4.7137
# 6 10.8062 -6.1254 0.0818 9.5395 4.7137 35.2840
#
#
#
# Elastic Compliance Matrix: (Units=1/GPa)
#
#
# Indices 1 2 3 4 5 6 
#
# 1 0.021256 -0.002438 -0.003536 0.004075 -0.001002 -0.007893
# 2 -0.002438 0.011517 -0.000523 0.001340 -0.000299 0.002425
# 3 -0.003536 -0.000523 0.012039 -0.002495 0.000980 0.001508
# 4 0.004075 0.001340 -0.002495 0.031738 0.010383 -0.010978
# 5 -0.001002 -0.000299 0.000980 0.010383 0.038275 -0.007668
# 6 -0.007893 0.002425 0.001508 -0.010978 -0.007668 0.035169
#
#
# Mechanical properties :
#
#
# Convention : Reuss Voigt Hill
#
# Bulk Modulus (GPa) = 31.42885 33.19795 32.31340
# Shear Modulus (GPa) = 28.80275 34.49378 31.64826
#
# Velocity S-wave (km/s) = 3.43175 3.75552 3.59728
# Velocity P-wave (km/s) = 5.34353 5.69028 5.51963
#
# Compressibility (1/GPa) = 0.03181790
#
# Stress axis : x y z
#
# Youngs Moduli (GPa) = 47.04444 86.83176 83.06181
#
# Poissons Ratio (x) = 0.21173 0.29370
# Poissons Ratio (y) = 0.11471 0.04343
# Poissons Ratio (z) = 0.16634 0.04540
#
# Static dielectric constant tensor:
#      x y z
#    x 1.925510 0.011690 -0.029910 
#    y 0.011690 1.968550 0.012090 
#    z -0.029910 0.012090 1.911720 
# 
# From -- ./inp_files/495260.got.cif
#   From: 2010.05.17/outbox.cif.g08.bks.cpg/sg2_248_cif.got.tgz:495260.got - 2010.06.03 11:33:40.
