data_PCOD9096347
_publ_section_title
;
Structure prediction by ZEFSAII (Michael W. Deem and Ramdas Pophale) SiO2 
 PCOD9096347
Probable space group: P -1
;
_chemical_formula_sum "Si O2"
_cell_formula_units_Z 15
_cell_length_a 10.736263
_cell_length_b 7.939305
_cell_length_c 16.124802
_cell_angle_alpha 60.303607
_cell_angle_beta 139.653910
_cell_angle_gamma 132.159890
_cell_volume 659.231332
_symmetry_space_group_name_H-M "P -1"
_symmetry_group_IT_number 2
_symmetry_cell_setting 'triclinic'
loop_
_space_group_symop_operation_xyz
x,y,z
-x,-y,-z
loop_
_atom_site_type_symbol
_atom_site_label
_atom_site_fract_x
_atom_site_fract_y
_atom_site_fract_z
Si Si1 0.998398 0.616076 0.886314
Si Si2 0.733522 0.225759 0.587822
Si Si3 0.901057 0.893648 0.218896
Si Si4 0.553576 0.288627 0.651051
Si Si5 0.687138 0.203530 0.263144
Si Si6 0.063103 0.134614 0.413899
Si Si7 0.000000 0.500000 0.500000
Si Si8 0.563882 0.242183 0.016333
O O1 0.745949 0.488868 0.753634
O O2 0.064763 0.877738 0.860933
O O3 0.182624 0.600033 0.927004
O O4 0.000000 0.500000 0.000000
O O5 0.674102 0.293955 0.626572
O O6 0.816066 0.391901 0.509950
O O7 0.500000 0.000000 0.500000
O O8 0.937064 0.181417 0.718149
O O9 0.989228 0.959982 0.342597
O O10 0.633365 0.719008 0.124571
O O11 0.330145 0.292089 0.514144
O O12 0.459617 0.051500 0.711679
O O13 0.796453 0.365065 0.358497
O O14 0.553801 0.235337 0.112925
O O15 0.898646 0.229535 0.310170
O O16 0.000000 0.000000 0.500000
O O17 0.500000 0.000000 0.000000
#
# Coordination Sequence:
#
# PCOD9096347 Si02
#       8
#     2   2   2   2   2   2   1   2
#     4  11  24  42  67 103 136 184 233 294 353 418
#     4  12  24  47  68 102 144 184 230 293 353 417
#     4  11  23  44  68 102 137 181 234 292 351 419
#     4  11  23  42  68 101 142 178 235 292 354 419
#     4  11  21  42  68 100 136 190 229 292 359 418
#     4  10  20  35  67  99 126 175 226 283 352 409
#     4  12  26  44  70  98 150 188 232 284 370 414
#     4  10  20  41  67  92 136 178 230 286 347 415
#
# _framework density 22.753772999999999
#
# number of rings (size 3 to 8) (size 9 to 14) (size 15 to 20)
#    0.000    1.067    5.333    3.200    1.867    1.600 
#    2.400    5.333    0.000    0.000    0.000    0.000 
#    0.000    0.000    0.000    0.000    0.000    0.000 
#
# Total GULP energy -83553.123887 kJ/mol
# GULP energy per Si atom -5570.208259 kJ/mol
# Density = 2.270198 g / cm^3
# Si number density = 22.753773 Si / 1000 Ang^3
#
#
#
# Elastic Constant Matrix: (Units=GPa)
#
#
# Indices 1 2 3 4 5 6 
#
# 1 140.3771 30.1836 50.7898 -9.2632 6.5424 26.9410
# 2 30.1836 64.6353 20.5194 6.9415 -3.7784 27.7780
# 3 50.7898 20.5194 129.4896 14.9601 8.1906 9.2903
# 4 -9.2632 6.9415 14.9601 37.8564 7.3777 -2.9577
# 5 6.5424 -3.7784 8.1906 7.3777 56.0566 1.6367
# 6 26.9410 27.7780 9.2903 -2.9577 1.6367 40.7071
#
#
#
# Elastic Compliance Matrix: (Units=1/GPa)
#
#
# Indices 1 2 3 4 5 6 
#
# 1 0.010058 -0.002429 -0.003708 0.004320 -0.001254 -0.003789
# 2 -0.002429 0.024557 -0.001300 -0.006460 0.003430 -0.015460
# 3 -0.003708 -0.001300 0.009869 -0.004402 -0.000541 0.000791
# 4 0.004320 -0.006460 -0.004402 0.031690 -0.004614 0.005041
# 5 -0.001254 0.003430 -0.000541 -0.004614 0.018976 -0.002486
# 6 -0.003789 -0.015460 0.000791 0.005041 -0.002486 0.037909
#
#
# Mechanical properties :
#
#
# Convention : Reuss Voigt Hill
#
# Bulk Modulus (GPa) = 33.77243 59.72083 46.74663
# Shear Modulus (GPa) = 31.68500 42.45797 37.07148
#
# Velocity S-wave (km/s) = 3.73569 4.32438 4.04077
# Velocity P-wave (km/s) = 5.78636 7.15802 6.50843
#
# Compressibility (1/GPa) = 0.02960995
#
# Stress axis : x y z
#
# Youngs Moduli (GPa) = 99.42081 40.72160 101.32571
#
# Poissons Ratio (x) = 0.09890 0.37574
# Poissons Ratio (y) = 0.24147 0.13175
# Poissons Ratio (z) = 0.36868 0.05295
#
# Static dielectric constant tensor:
#      x y z
#    x 1.898660 -0.099340 -0.010620 
#    y -0.099340 1.974770 0.062820 
#    z -0.010620 0.062820 2.010780 
# 
# From -- ./inp_files/492628.got.cif
#   From: 2010.05.17/outbox.cif.g08.bks.cpg/sg2_247_cif.got.tgz:492628.got - 2010.06.03 11:33:40.
