data_PCOD9096147
_publ_section_title
;
Structure prediction by ZEFSAII (Michael W. Deem and Ramdas Pophale) SiO2 
 PCOD9096147
Probable space group: P -1
;
_chemical_formula_sum "Si O2"
_cell_formula_units_Z 14
_cell_length_a 25.393104
_cell_length_b 7.999102
_cell_length_c 6.362907
_cell_angle_alpha 121.831851
_cell_angle_beta 124.069268
_cell_angle_gamma 29.457411
_cell_volume 524.001490
_symmetry_space_group_name_H-M "P -1"
_symmetry_group_IT_number 2
_symmetry_cell_setting 'triclinic'
loop_
_space_group_symop_operation_xyz
x,y,z
-x,-y,-z
loop_
_atom_site_type_symbol
_atom_site_label
_atom_site_fract_x
_atom_site_fract_y
_atom_site_fract_z
Si Si1 0.477623 0.263997 0.238179
Si Si2 0.130668 0.706175 0.564787
Si Si3 0.305211 0.765027 0.852574
Si Si4 0.869845 0.951816 0.905678
Si Si5 0.898962 0.518854 0.956509
Si Si6 0.355319 0.372646 0.371391
Si Si7 0.659110 0.971150 0.173999
O O1 0.454159 0.255151 0.416370
O O2 0.576651 0.149914 0.304991
O O3 0.366043 0.626839 0.119943
O O4 0.500000 0.000000 0.000000
O O5 0.145690 0.581040 0.280679
O O6 0.217845 0.373145 0.688549
O O7 0.000000 0.000000 0.500000
O O8 0.145507 0.890459 0.803711
O O9 0.330667 0.483723 0.631991
O O10 0.359219 0.779018 0.818167
O O11 0.182878 0.163998 0.860779
O O12 0.895667 0.663239 0.833781
O O13 0.758287 0.253146 0.731641
O O14 0.972277 0.793370 0.907360
O O15 0.361883 0.143591 0.125647
#
# Coordination Sequence:
#
# PCOD9096147 Si02
#       7
#     2   2   2   2   2   2   2
#     4  10  23  45  65  90 127 172 213 254 320 379
#     4   9  19  39  64  89 124 168 205 251 310 378
#     4  12  24  40  64  99 129 160 214 269 310 371
#     4   9  18  38  63  88 124 171 205 248 313 376
#     4  10  20  35  62  94 124 162 211 254 311 373
#     4  10  22  43  64  91 131 165 210 257 315 380
#     4  10  23  41  64  96 126 164 215 263 313 367
#
# _framework density 26.717483999999999
#
# number of rings (size 3 to 8) (size 9 to 14) (size 15 to 20)
#    0.000    2.000    1.429    1.286    0.000    4.571 
#    2.571    6.429    0.000    0.000    0.000    0.000 
#    0.000    0.000    0.000    0.000    0.000    0.000 
#
# Total GULP energy -78284.714738 kJ/mol
# GULP energy per Si atom -5591.765338 kJ/mol
# Density = 2.665667 g / cm^3
# Si number density = 26.717484 Si / 1000 Ang^3
#
#
#
# Elastic Constant Matrix: (Units=GPa)
#
#
# Indices 1 2 3 4 5 6 
#
# 1 66.0619 6.7736 28.5132 2.0077 -6.9297 -6.2576
# 2 6.7736 85.3284 30.0377 12.9381 -1.7256 -19.4161
# 3 28.5132 30.0377 120.9320 22.9894 9.8039 -19.7139
# 4 2.0077 12.9381 22.9894 50.8931 -7.1407 -5.0224
# 5 -6.9297 -1.7256 9.8039 -7.1407 27.6847 5.4530
# 6 -6.2576 -19.4161 -19.7139 -5.0224 5.4530 41.1342
#
#
#
# Elastic Compliance Matrix: (Units=1/GPa)
#
#
# Indices 1 2 3 4 5 6 
#
# 1 0.018129 0.000127 -0.005482 0.002706 0.007272 -0.000443
# 2 0.000127 0.014020 -0.002286 -0.001993 0.000162 0.005277
# 3 -0.005482 -0.002286 0.012615 -0.005620 -0.008328 0.004550
# 4 0.002706 -0.001993 -0.005620 0.023694 0.008954 -0.001517
# 5 0.007272 0.000162 -0.008328 0.008954 0.044715 -0.007643
# 6 -0.000443 0.005277 0.004550 -0.001517 -0.007643 0.029743
#
#
# Mechanical properties :
#
#
# Convention : Reuss Voigt Hill
#
# Bulk Modulus (GPa) = 33.92047 44.77461 39.34754
# Shear Modulus (GPa) = 29.75704 37.74226 33.74965
#
# Velocity S-wave (km/s) = 3.34093 3.76259 3.55801
# Velocity P-wave (km/s) = 5.25414 5.97252 5.62481
#
# Compressibility (1/GPa) = 0.02948072
#
# Stress axis : x y z
#
# Youngs Moduli (GPa) = 55.15991 71.32479 79.27108
#
# Poissons Ratio (x) = -0.00903 0.43457
# Poissons Ratio (y) = -0.00699 0.18124
# Poissons Ratio (z) = 0.30239 0.16308
#
# Static dielectric constant tensor:
#      x y z
#    x 2.132290 -0.057330 -0.003110 
#    y -0.057330 2.067830 0.018020 
#    z -0.003110 0.018020 2.119580 
# 
# From -- ./inp_files/55768.got.cif
#   From: 2010.05.17/outbox.cif.g08.bks.cpg/sg2_28_cif.got.tgz:55768.got - 2010.06.03 11:33:40.
