data_PCOD9096880
_publ_section_title
;
Structure prediction by ZEFSAII (Michael W. Deem and Ramdas Pophale) SiO2 
 PCOD9096880
Probable space group: P -1
;
_chemical_formula_sum "Si O2"
_cell_formula_units_Z 10
_cell_length_a 11.017136
_cell_length_b 9.753804
_cell_length_c 9.412655
_cell_angle_alpha 137.950460
_cell_angle_beta 41.259049
_cell_angle_gamma 141.010684
_cell_volume 387.948198
_symmetry_space_group_name_H-M "P -1"
_symmetry_group_IT_number 2
_symmetry_cell_setting 'triclinic'
loop_
_space_group_symop_operation_xyz
x,y,z
-x,-y,-z
loop_
_atom_site_type_symbol
_atom_site_label
_atom_site_fract_x
_atom_site_fract_y
_atom_site_fract_z
Si Si1 0.070834 0.957610 0.679888
Si Si2 0.910025 0.626822 0.339090
Si Si3 0.694086 0.165974 0.056208
Si Si4 0.545172 0.106779 0.699348
Si Si5 0.123253 0.381088 0.138473
O O1 0.285793 0.964405 0.444846
O O2 0.907572 0.824471 0.592146
O O3 0.985406 0.782045 0.755398
O O4 0.138822 0.214222 0.877728
O O5 0.705709 0.412304 0.281616
O O6 0.986354 0.488217 0.272916
O O7 0.089841 0.746294 0.153048
O O8 0.659249 0.016994 0.116335
O O9 0.500000 0.000000 0.000000
O O10 0.659239 0.388596 0.827464
O O11 0.500000 0.000000 0.500000
#
# Coordination Sequence:
#
# PCOD9096880 Si02
#       5
#     2   2   2   2   2
#     4  10  20  36  58  86 118 154 194 236 288 344
#     4  10  21  39  61  80 121 155 187 242 291 334
#     4  11  20  38  64  87 114 154 197 233 290 351
#     4  11  21  37  60  87 117 153 193 240 289 338
#     4  10  20  36  58  86 118 154 194 236 288 344
#
# _framework density 25.776638999999999
#
# number of rings (size 3 to 8) (size 9 to 14) (size 15 to 20)
#    0.000    1.600    4.000    4.800    0.000    0.800 
#    0.000   10.000    0.000    0.000    0.000    0.000 
#    0.000    0.000    0.000    0.000    0.000    0.000 
#
# Total GULP energy -55964.065247 kJ/mol
# GULP energy per Si atom -5596.406525 kJ/mol
# Density = 2.571797 g / cm^3
# Si number density = 25.776639 Si / 1000 Ang^3
#
#
#
# Elastic Constant Matrix: (Units=GPa)
#
#
# Indices 1 2 3 4 5 6 
#
# 1 46.9774 44.5173 24.6813 19.0558 27.0701 1.2802
# 2 44.5173 200.9395 91.3932 37.3473 30.2851 25.8639
# 3 24.6813 91.3932 188.4582 44.1787 36.8437 9.6509
# 4 19.0558 37.3473 44.1787 67.2955 -0.1315 13.9698
# 5 27.0701 30.2851 36.8437 -0.1315 49.3274 10.7464
# 6 1.2802 25.8639 9.6509 13.9698 10.7464 43.2106
#
#
#
# Elastic Compliance Matrix: (Units=1/GPa)
#
#
# Indices 1 2 3 4 5 6 
#
# 1 0.049662 -0.008201 0.006674 -0.017079 -0.030530 0.015061
# 2 -0.008201 0.008421 -0.003621 0.001096 0.003155 -0.005128
# 3 0.006674 -0.003621 0.009470 -0.007050 -0.009512 0.004499
# 4 -0.017079 0.001096 -0.007050 0.026050 0.016450 -0.011089
# 5 -0.030530 0.003155 -0.009512 0.016450 0.045621 -0.015523
# 6 0.015061 -0.005128 0.004499 -0.011089 -0.015523 0.032206
#
#
# Mechanical properties :
#
#
# Convention : Reuss Voigt Hill
#
# Bulk Modulus (GPa) = 17.46496 84.17319 50.81908
# Shear Modulus (GPa) = 24.89912 50.35226 37.62569
#
# Velocity S-wave (km/s) = 3.11136 4.42453 3.82472
# Velocity P-wave (km/s) = 4.43820 7.66992 6.26599
#
# Compressibility (1/GPa) = 0.05725751
#
# Stress axis : x y z
#
# Youngs Moduli (GPa) = 20.13627 118.74828 105.59688
#
# Poissons Ratio (x) = 0.97382 -0.70477
# Poissons Ratio (y) = 0.16513 0.38238
# Poissons Ratio (z) = -0.13439 0.43000
#
# Static dielectric constant tensor:
#      x y z
#    x 2.153610 0.024710 0.021000 
#    y 0.024710 2.035260 0.048860 
#    z 0.021000 0.048860 2.033400 
# 
# From -- ./inp_files/76385.got.cif
#   From: 2010.05.17/outbox.cif.g08.bks.cpg/sg2_39_cif.got.tgz:76385.got - 2010.06.03 11:33:40.
