data_PCOD9096859
_publ_section_title
;
Structure prediction by ZEFSAII (Michael W. Deem and Ramdas Pophale) SiO2 
 PCOD9096859
Probable space group: P -1
;
_chemical_formula_sum "Si O2"
_cell_formula_units_Z 16
_cell_length_a 13.510328
_cell_length_b 16.413035
_cell_length_c 4.964920
_cell_angle_alpha 83.452227
_cell_angle_beta 114.308897
_cell_angle_gamma 138.775280
_cell_volume 625.168621
_symmetry_space_group_name_H-M "P -1"
_symmetry_group_IT_number 2
_symmetry_cell_setting 'triclinic'
loop_
_space_group_symop_operation_xyz
x,y,z
-x,-y,-z
loop_
_atom_site_type_symbol
_atom_site_label
_atom_site_fract_x
_atom_site_fract_y
_atom_site_fract_z
Si Si1 0.291523 0.137164 0.685845
Si Si2 0.976967 0.911332 0.801645
Si Si3 0.398853 0.619108 0.721461
Si Si4 0.560264 0.928579 0.352026
Si Si5 0.584014 0.468380 0.715377
Si Si6 0.000489 0.358837 0.374823
Si Si7 0.980103 0.730254 0.064889
Si Si8 0.668306 0.174639 0.381310
O O1 0.214939 0.181589 0.497589
O O2 0.331729 0.090957 0.530207
O O3 0.462125 0.242303 0.024864
O O4 0.126691 0.006623 0.714001
O O5 0.000579 0.836840 0.984831
O O6 0.000000 0.000000 0.000000
O O7 0.461294 0.636484 0.483765
O O8 0.190374 0.513812 0.531067
O O9 0.422316 0.553351 0.967389
O O10 0.406302 0.829225 0.432038
O O11 0.669341 0.075891 0.478245
O O12 0.478409 0.897864 0.981036
O O13 0.500000 0.500000 0.500000
O O14 0.783276 0.595810 0.816334
O O15 0.936066 0.288261 0.038650
O O16 0.844382 0.309640 0.385085
O O17 0.016181 0.287531 0.608306
#
# Coordination Sequence:
#
# PCOD9096859 Si02
#       8
#     2   2   2   2   2   2   2   2
#     4  11  26  43  60  91 133 163 209 253 317 378
#     4  11  27  40  62  90 126 175 204 251 309 381
#     4  10  23  38  61  89 122 166 203 256 308 364
#     4  10  23  39  64  93 120 165 197 265 311 362
#     4  10  20  36  58  85 116 162 212 255 294 349
#     4  10  21  41  66  94 123 164 208 265 303 361
#     4  10  22  37  62  89 124 160 212 249 305 358
#     4  10  21  40  65  91 122 153 217 255 311 366
#
# _framework density 25.593097
#
# number of rings (size 3 to 8) (size 9 to 14) (size 15 to 20)
#    0.000    1.750    0.000    2.625   10.500    2.000 
#    0.000    1.250    0.000    0.000    0.000    0.000 
#    0.000    0.000    0.000    0.000    0.000    0.000 
#
# Total GULP energy -89385.574552 kJ/mol
# GULP energy per Si atom -5586.598409 kJ/mol
# Density = 2.553485 g / cm^3
# Si number density = 25.593097 Si / 1000 Ang^3
#
#
#
# Elastic Constant Matrix: (Units=GPa)
#
#
# Indices 1 2 3 4 5 6 
#
# 1 129.6576 34.8164 5.4116 6.1128 -8.0724 16.2083
# 2 34.8164 66.9791 8.3034 11.9681 8.0971 11.2839
# 3 5.4116 8.3034 69.6080 11.7036 -12.5091 -0.1654
# 4 6.1128 11.9681 11.7036 41.5228 8.2527 4.1185
# 5 -8.0724 8.0971 -12.5091 8.2527 32.9842 -1.4676
# 6 16.2083 11.2839 -0.1654 4.1185 -1.4676 41.2800
#
#
#
# Elastic Compliance Matrix: (Units=1/GPa)
#
#
# Indices 1 2 3 4 5 6 
#
# 1 0.009590 -0.005050 0.000677 -0.000712 0.003925 -0.002172
# 2 -0.005050 0.019719 -0.002738 -0.002511 -0.006638 -0.003404
# 3 0.000677 -0.002738 0.017288 -0.006117 0.008991 0.001482
# 4 -0.000712 -0.002511 -0.006117 0.028678 -0.009153 -0.002245
# 5 0.003925 -0.006638 0.008991 -0.009153 0.038723 0.002599
# 6 -0.002172 -0.003404 0.001482 -0.002245 0.002599 0.026330
#
#
# Mechanical properties :
#
#
# Convention : Reuss Voigt Hill
#
# Bulk Modulus (GPa) = 30.88991 40.36750 35.62871
# Shear Modulus (GPa) = 30.24010 37.67160 33.95585
#
# Velocity S-wave (km/s) = 3.44113 3.84075 3.64642
# Velocity P-wave (km/s) = 5.28056 5.95614 5.62849
#
# Compressibility (1/GPa) = 0.03237303
#
# Stress axis : x y z
#
# Youngs Moduli (GPa) = 104.27653 50.71146 57.84388
#
# Poissons Ratio (x) = 0.25611 -0.03914
# Poissons Ratio (y) = 0.52663 0.15840
# Poissons Ratio (z) = -0.07056 0.13887
#
# Static dielectric constant tensor:
#      x y z
#    x 2.113180 -0.048510 0.002020 
#    y -0.048510 2.063780 0.083130 
#    z 0.002020 0.083130 2.065310 
# 
# From -- ./inp_files/77933.got.cif
#   From: 2010.05.17/outbox.cif.g08.bks.cpg/sg2_39_cif.got.tgz:77933.got - 2010.06.03 11:33:40.
