data_PCOD9096108
_publ_section_title
;
Structure prediction by ZEFSAII (Michael W. Deem and Ramdas Pophale) SiO2 
 PCOD9096108
Probable space group: P -1
;
_chemical_formula_sum "Si O2"
_cell_formula_units_Z 14
_cell_length_a 7.310869
_cell_length_b 14.069098
_cell_length_c 8.941697
_cell_angle_alpha 49.229700
_cell_angle_beta 61.661332
_cell_angle_gamma 76.477907
_cell_volume 609.044830
_symmetry_space_group_name_H-M "P -1"
_symmetry_group_IT_number 2
_symmetry_cell_setting 'triclinic'
loop_
_space_group_symop_operation_xyz
x,y,z
-x,-y,-z
loop_
_atom_site_type_symbol
_atom_site_label
_atom_site_fract_x
_atom_site_fract_y
_atom_site_fract_z
Si Si1 0.435686 0.299533 0.801800
Si Si2 0.931729 0.613673 0.505822
Si Si3 0.414993 0.079096 0.819786
Si Si4 0.605364 0.132885 0.385495
Si Si5 0.223795 0.832086 0.016627
Si Si6 0.782804 0.462536 0.298848
Si Si7 0.491476 0.612282 0.775470
O O1 0.348817 0.197866 0.814421
O O2 0.559538 0.225654 0.956048
O O3 0.621952 0.388355 0.556078
O O4 0.268626 0.392088 0.825550
O O5 0.685097 0.606220 0.597099
O O6 0.000000 0.500000 0.500000
O O7 0.047858 0.744348 0.264812
O O8 0.999517 0.576932 0.684516
O O9 0.596568 0.116555 0.586186
O O10 0.500000 0.000000 0.000000
O O11 0.246312 0.978560 0.907575
O O12 0.474528 0.251977 0.300561
O O13 0.500000 0.000000 0.500000
O O14 0.791761 0.170932 0.155183
O O15 0.719633 0.406638 0.218942
O O16 0.500000 0.500000 0.000000
#
# Coordination Sequence:
#
# PCOD9096108 Si02
#       7
#     2   2   2   2   2   2   2
#     4   9  15  31  56  89 119 164 208 252 313 380
#     4  11  23  39  63  95 129 163 219 268 313 390
#     4   9  17  31  59  90 117 168 212 253 314 386
#     4  10  20  37  61  92 129 169 211 262 320 377
#     4   9  19  35  57  90 124 163 211 262 315 377
#     4  10  20  35  62  89 127 165 210 258 323 373
#     4  12  24  41  67  96 131 173 212 266 330 384
#
# _framework density 22.986812
#
# number of rings (size 3 to 8) (size 9 to 14) (size 15 to 20)
#    0.000    2.000    1.429    4.286    0.000    0.571 
#    0.000    2.857    3.143    0.857    0.000    0.000 
#    0.000    0.000    0.000    0.000    0.000    0.000 
#
# Total GULP energy -78064.283095 kJ/mol
# GULP energy per Si atom -5576.020221 kJ/mol
# Density = 2.293449 g / cm^3
# Si number density = 22.986812 Si / 1000 Ang^3
#
#
#
# Elastic Constant Matrix: (Units=GPa)
#
#
# Indices 1 2 3 4 5 6 
#
# 1 68.9607 0.5124 27.4048 0.3053 21.8967 6.3672
# 2 0.5124 127.7520 33.8740 -23.3421 0.6302 7.1680
# 3 27.4048 33.8740 127.3708 -2.2858 19.6788 8.9114
# 4 0.3053 -23.3421 -2.2858 40.8609 0.8346 8.1482
# 5 21.8967 0.6302 19.6788 0.8346 31.5734 1.7070
# 6 6.3672 7.1680 8.9114 8.1482 1.7070 19.2807
#
#
#
# Elastic Compliance Matrix: (Units=1/GPa)
#
#
# Indices 1 2 3 4 5 6 
#
# 1 0.019730 0.001229 -0.002290 0.001790 -0.012024 -0.005606
# 2 0.001229 0.010048 -0.002503 0.006753 0.000647 -0.005896
# 3 -0.002290 -0.002503 0.009842 -0.000305 -0.004361 -0.002347
# 4 0.001790 0.006753 -0.000305 0.031553 -0.001145 -0.016194
# 5 -0.012024 0.000647 -0.004361 -0.001145 0.042614 0.002457
# 6 -0.005606 -0.005896 -0.002347 -0.016194 0.002457 0.063619
#
#
# Mechanical properties :
#
#
# Convention : Reuss Voigt Hill
#
# Bulk Modulus (GPa) = 30.77690 49.74065 40.25878
# Shear Modulus (GPa) = 25.59319 35.82916 30.71117
#
# Velocity S-wave (km/s) = 3.34036 3.95230 3.65915
# Velocity P-wave (km/s) = 5.31934 6.52022 5.95016
#
# Compressibility (1/GPa) = 0.03249190
#
# Stress axis : x y z
#
# Youngs Moduli (GPa) = 50.68551 99.52305 101.60564
#
# Poissons Ratio (x) = -0.12230 0.23264
# Poissons Ratio (y) = -0.06229 0.25432
# Poissons Ratio (z) = 0.11605 0.24910
#
# Static dielectric constant tensor:
#      x y z
#    x 1.898050 0.044020 0.015620 
#    y 0.044020 1.904380 0.017580 
#    z 0.015620 0.017580 1.898620 
# 
# From -- ./inp_files/195052.got.cif
#   From: 2010.05.17/outbox.cif.g08.bks.cpg/sg2_98_cif.got.tgz:195052.got - 2010.06.03 11:33:40.
