data_PCOD9096224
_publ_section_title
;
Structure prediction by ZEFSAII (Michael W. Deem and Ramdas Pophale) SiO2 
 PCOD9096224
Probable space group: P -1
;
_chemical_formula_sum "Si O2"
_cell_formula_units_Z 16
_cell_length_a 9.230382
_cell_length_b 12.158699
_cell_length_c 9.291189
_cell_angle_alpha 93.921176
_cell_angle_beta 132.753958
_cell_angle_gamma 99.500716
_cell_volume 731.346001
_symmetry_space_group_name_H-M "P -1"
_symmetry_group_IT_number 2
_symmetry_cell_setting 'triclinic'
loop_
_space_group_symop_operation_xyz
x,y,z
-x,-y,-z
loop_
_atom_site_type_symbol
_atom_site_label
_atom_site_fract_x
_atom_site_fract_y
_atom_site_fract_z
Si Si1 0.532263 0.149551 0.132007
Si Si2 0.704408 0.455819 0.969542
Si Si3 0.092779 0.631117 0.326389
Si Si4 0.729854 0.087526 0.981906
Si Si5 0.605011 0.230037 0.689190
Si Si6 0.382331 0.590177 0.756357
Si Si7 0.140387 0.097975 0.403141
Si Si8 0.958411 0.149673 0.574062
O O1 0.577270 0.127731 0.993499
O O2 0.506401 0.273659 0.150813
O O3 0.741269 0.141906 0.349269
O O4 0.348014 0.049308 0.063813
O O5 0.686483 0.442961 0.129433
O O6 0.937286 0.536197 0.116107
O O7 0.652228 0.333722 0.845883
O O8 0.537707 0.518821 0.810850
O O9 0.284010 0.711225 0.373726
O O10 0.190627 0.576512 0.517732
O O11 0.972787 0.721356 0.307293
O O12 0.962237 0.130436 0.197436
O O13 0.702495 0.134881 0.812288
O O14 0.364288 0.166230 0.505713
O O15 0.113783 0.131938 0.554754
O O16 0.090196 0.959284 0.362232
#
# Coordination Sequence:
#
# PCOD9096224 Si02
#       8
#     2   2   2   2   2   2   2   2
#     4   9  17  37  63  93 128 160 212 265 312 369
#     4  11  25  42  69  92 125 173 224 263 308 385
#     4  11  26  43  66  93 136 169 206 273 325 377
#     4  10  20  35  63  94 129 167 205 259 317 386
#     4  12  25  43  62  99 135 169 208 262 333 384
#     4  10  23  42  67  99 119 168 221 273 306 375
#     4  10  22  37  65  95 127 171 211 260 312 382
#     4   9  20  39  63  94 125 166 217 259 310 377
#
# _framework density 21.877471
#
# number of rings (size 3 to 8) (size 9 to 14) (size 15 to 20)
#    0.000    1.750    2.500    0.750    7.000    3.000 
#    0.000    0.625    0.000    0.000    0.000    0.000 
#    0.000    0.000    0.000    0.000    0.000    0.000 
#
# Total GULP energy -89456.184895 kJ/mol
# GULP energy per Si atom -5591.011556 kJ/mol
# Density = 2.182768 g / cm^3
# Si number density = 21.877471 Si / 1000 Ang^3
#
#
#
# Elastic Constant Matrix: (Units=GPa)
#
#
# Indices 1 2 3 4 5 6 
#
# 1 41.0153 23.7800 24.0544 -19.5513 6.6936 5.5097
# 2 23.7800 95.1068 24.5783 -4.6755 12.2157 0.2303
# 3 24.0544 24.5783 66.7630 -9.4409 18.8316 0.1607
# 4 -19.5513 -4.6755 -9.4409 26.3532 -0.5221 -3.0643
# 5 6.6936 12.2157 18.8316 -0.5221 23.3230 3.0945
# 6 5.5097 0.2303 0.1607 -3.0643 3.0945 21.6026
#
#
#
# Elastic Compliance Matrix: (Units=1/GPa)
#
#
# Indices 1 2 3 4 5 6 
#
# 1 0.052569 -0.008674 -0.011262 0.032425 0.000429 -0.008693
# 2 -0.008674 0.013290 -0.001334 -0.004398 -0.003757 0.001995
# 3 -0.011262 -0.001334 0.024137 0.000324 -0.016224 0.005077
# 4 0.032425 -0.004398 0.000324 0.061374 -0.006069 0.001350
# 5 0.000429 -0.003757 -0.016224 -0.006069 0.058912 -0.009248
# 6 -0.008693 0.001995 0.005077 0.001350 -0.009248 0.049965
#
#
# Mechanical properties :
#
#
# Convention : Reuss Voigt Hill
#
# Bulk Modulus (GPa) = 21.07217 38.63450 29.85333
# Shear Modulus (GPa) = 15.69334 22.95392 19.32363
#
# Velocity S-wave (km/s) = 2.68120 3.24266 2.97520
# Velocity P-wave (km/s) = 4.38611 5.63184 5.04755
#
# Compressibility (1/GPa) = 0.04745595
#
# Stress axis : x y z
#
# Youngs Moduli (GPa) = 19.02254 75.24699 41.42982
#
# Poissons Ratio (x) = 0.65266 0.46659
# Poissons Ratio (y) = 0.16499 0.05528
# Poissons Ratio (z) = 0.21423 0.10040
#
# Static dielectric constant tensor:
#      x y z
#    x 1.800890 -0.001110 -0.024770 
#    y -0.001110 1.780060 0.007820 
#    z -0.024770 0.007820 1.809130 
# 
# From -- ./inp_files/188058.got.cif
#   From: 2010.05.17/outbox.cif.g08.bks.cpg/sg2_95_cif.got.tgz:188058.got - 2010.06.03 11:33:40.
