data_PCOD9096815
_publ_section_title
;
Structure prediction by ZEFSAII (Michael W. Deem and Ramdas Pophale) SiO2 
 PCOD9096815
Probable space group: P -1
;
_chemical_formula_sum "Si O2"
_cell_formula_units_Z 16
_cell_length_a 8.801941
_cell_length_b 14.824745
_cell_length_c 20.503442
_cell_angle_alpha 21.116814
_cell_angle_beta 49.945520
_cell_angle_gamma 52.792449
_cell_volume 737.688550
_symmetry_space_group_name_H-M "P -1"
_symmetry_group_IT_number 2
_symmetry_cell_setting 'triclinic'
loop_
_space_group_symop_operation_xyz
x,y,z
-x,-y,-z
loop_
_atom_site_type_symbol
_atom_site_label
_atom_site_fract_x
_atom_site_fract_y
_atom_site_fract_z
Si Si1 0.929838 0.640204 0.586298
Si Si2 0.130819 0.072038 0.477990
Si Si3 0.795105 0.806437 0.152943
Si Si4 0.497754 0.436855 0.700464
Si Si5 0.575275 0.475113 0.923039
Si Si6 0.337328 0.108401 0.721867
Si Si7 0.548303 0.361156 0.287389
Si Si8 0.924804 0.281455 0.721884
O O1 0.988576 0.875983 0.455948
O O2 0.691121 0.677437 0.618885
O O3 0.986123 0.541453 0.565017
O O4 0.030934 0.404167 0.755504
O O5 0.239878 0.335903 0.258120
O O6 0.306947 0.870820 0.579428
O O7 0.000000 0.000000 0.500000
O O8 0.640978 0.727238 0.194284
O O9 0.687150 0.811239 0.249820
O O10 0.869966 0.079587 0.929064
O O11 0.512252 0.716823 0.476939
O O12 0.426490 0.449617 0.786604
O O13 0.721111 0.328451 0.709684
O O14 0.426893 0.555062 0.850928
O O15 0.500000 0.500000 0.000000
O O16 0.620477 0.184184 0.095031
O O17 0.118222 0.160744 0.717727
#
# Coordination Sequence:
#
# PCOD9096815 Si02
#       8
#     2   2   2   2   2   2   2   2
#     4   9  18  33  56  82 111 150 192 232 285 350
#     4  11  21  37  62  90 116 152 198 249 296 347
#     4  11  20  36  60  88 119 154 196 248 295 343
#     4  11  22  36  58  90 121 153 195 251 298 344
#     4  11  23  41  63  86 116 159 202 245 295 356
#     4  11  22  38  57  85 121 159 197 238 295 361
#     4  10  21  39  61  86 116 157 201 239 294 361
#     4  10  20  36  58  83 115 158 199 236 291 360
#
# _framework density 21.68937
#
# number of rings (size 3 to 8) (size 9 to 14) (size 15 to 20)
#    0.000    1.500    0.000    9.375    0.000    1.000 
#    0.000    0.625    0.000    6.000    0.000    0.000 
#    0.000    0.000    0.000    0.000    0.000    0.000 
#
# Total GULP energy -89149.407189 kJ/mol
# GULP energy per Si atom -5571.837949 kJ/mol
# Density = 2.164000 g / cm^3
# Si number density = 21.689370 Si / 1000 Ang^3
#
#
#
# Elastic Constant Matrix: (Units=GPa)
#
#
# Indices 1 2 3 4 5 6 
#
# 1 124.3668 56.5441 36.6231 -22.6719 16.3637 32.5660
# 2 56.5441 100.7037 37.9717 -23.7431 12.4831 10.6446
# 3 36.6231 37.9717 64.0090 -5.0793 18.9160 14.4857
# 4 -22.6719 -23.7431 -5.0793 41.0751 0.9597 4.6472
# 5 16.3637 12.4831 18.9160 0.9597 32.3043 -6.5301
# 6 32.5660 10.6446 14.4857 4.6472 -6.5301 28.1862
#
#
#
# Elastic Compliance Matrix: (Units=1/GPa)
#
#
# Indices 1 2 3 4 5 6 
#
# 1 0.023476 -0.005288 0.004612 0.014850 -0.019979 -0.034575
# 2 -0.005288 0.016464 -0.007310 0.005328 0.001048 0.003014
# 3 0.004612 -0.007310 0.029479 0.005142 -0.021695 -0.023592
# 4 0.014850 0.005328 0.005142 0.040498 -0.020515 -0.033242
# 5 -0.019979 0.001048 -0.021695 -0.020515 0.064530 0.052170
# 6 -0.034575 0.003014 -0.023592 -0.033242 0.052170 0.103980
#
#
# Mechanical properties :
#
#
# Convention : Reuss Voigt Hill
#
# Bulk Modulus (GPa) = 18.71024 61.26194 39.98609
# Shear Modulus (GPa) = 16.01465 30.84248 23.42857
#
# Velocity S-wave (km/s) = 2.72023 3.77504 3.29018
# Velocity P-wave (km/s) = 4.30249 6.87806 5.73669
#
# Compressibility (1/GPa) = 0.05344667
#
# Stress axis : x y z
#
# Youngs Moduli (GPa) = 42.59586 60.74026 33.92292
#
# Poissons Ratio (x) = 0.32122 -0.15646
# Poissons Ratio (y) = 0.22527 0.24797
# Poissons Ratio (z) = -0.19646 0.44400
#
# Static dielectric constant tensor:
#      x y z
#    x 1.812490 0.040980 0.035590 
#    y 0.040980 1.894220 0.058430 
#    z 0.035590 0.058430 1.825560 
# 
# From -- ./inp_files/245080.got.cif
#   From: 2010.05.17/outbox.cif.g08.bks.cpg/sg2_123_cif.got.tgz:245080.got - 2010.06.03 11:33:40.
