data_PCOD9096612
_publ_section_title
;
Structure prediction by ZEFSAII (Michael W. Deem and Ramdas Pophale) SiO2 
 PCOD9096612
Probable space group: P -1
;
_chemical_formula_sum "Si O2"
_cell_formula_units_Z 14
_cell_length_a 10.446820
_cell_length_b 13.455565
_cell_length_c 12.595020
_cell_angle_alpha 142.045471
_cell_angle_beta 103.772501
_cell_angle_gamma 48.873160
_cell_volume 652.716623
_symmetry_space_group_name_H-M "P -1"
_symmetry_group_IT_number 2
_symmetry_cell_setting 'triclinic'
loop_
_space_group_symop_operation_xyz
x,y,z
-x,-y,-z
loop_
_atom_site_type_symbol
_atom_site_label
_atom_site_fract_x
_atom_site_fract_y
_atom_site_fract_z
Si Si1 0.503758 0.068809 0.178478
Si Si2 0.242596 0.055726 0.138639
Si Si3 0.289723 0.558764 0.308095
Si Si4 0.056304 0.491054 0.122487
Si Si5 0.069731 0.874956 0.743776
Si Si6 0.092973 0.620122 0.844221
Si Si7 0.575505 0.559099 0.395859
O O1 0.498154 0.262043 0.368226
O O2 0.297939 0.185677 0.292054
O O3 0.500000 0.000000 0.000000
O O4 0.718470 0.806051 0.054362
O O5 0.481415 0.753790 0.915278
O O6 0.115866 0.066069 0.203681
O O7 0.095446 0.217719 0.142867
O O8 0.113074 0.626179 0.265612
O O9 0.189982 0.673309 0.501312
O O10 0.378562 0.653344 0.384893
O O11 0.901986 0.541028 0.214772
O O12 0.000000 0.500000 0.000000
O O13 0.235049 0.730000 0.754229
O O14 0.974514 0.140974 0.916535
O O15 0.308760 0.449313 0.678925
#
# Coordination Sequence:
#
# PCOD9096612 Si02
#       7
#     2   2   2   2   2   2   2
#     4  11  22  39  68  94 130 165 215 258 320 375
#     4  10  20  36  57 101 131 160 203 263 314 379
#     4  11  22  38  65  90 128 167 207 255 323 371
#     4  11  26  45  63  89 129 169 215 264 316 381
#     4  11  21  34  63 101 138 154 206 269 322 369
#     4  11  21  39  62  92 134 166 209 260 322 370
#     4  11  21  37  63 101 130 162 209 268 314 378
#
# _framework density 21.448817999999999
#
# number of rings (size 3 to 8) (size 9 to 14) (size 15 to 20)
#    0.000    1.143    4.286    3.857    2.000    1.143 
#    0.000    4.286    0.000    0.000    0.000    0.000 
#    0.000    0.000    0.000    0.000    0.000    0.000 
#
# Total GULP energy -78005.123802 kJ/mol
# GULP energy per Si atom -5571.794557 kJ/mol
# Density = 2.140000 g / cm^3
# Si number density = 21.448818 Si / 1000 Ang^3
#
#
#
# Elastic Constant Matrix: (Units=GPa)
#
#
# Indices 1 2 3 4 5 6 
#
# 1 176.2636 42.7935 41.6908 -31.9609 -12.1461 -23.0004
# 2 42.7935 75.2310 21.8690 -27.4266 -4.0637 -15.1172
# 3 41.6908 21.8690 68.2788 -18.1056 -6.4950 -7.0912
# 4 -31.9609 -27.4266 -18.1056 21.3613 -1.2289 7.3699
# 5 -12.1461 -4.0637 -6.4950 -1.2289 42.0435 -7.9634
# 6 -23.0004 -15.1172 -7.0912 7.3699 -7.9634 17.1658
#
#
#
# Elastic Compliance Matrix: (Units=1/GPa)
#
#
# Indices 1 2 3 4 5 6 
#
# 1 0.009536 0.001802 -0.001681 0.011642 0.005100 0.011038
# 2 0.001802 0.028376 0.001596 0.035233 0.007663 0.016492
# 3 -0.001681 0.001596 0.019952 0.015871 0.003645 0.002272
# 4 0.011642 0.035233 0.015871 0.121042 0.014240 0.007822
# 5 0.005100 0.007663 0.003645 0.014240 0.031441 0.023561
# 6 0.011038 0.016492 0.002272 0.007822 0.023561 0.096079
#
#
# Mechanical properties :
#
#
# Convention : Reuss Voigt Hill
#
# Bulk Modulus (GPa) = 16.31382 59.16445 37.73914
# Shear Modulus (GPa) = 15.45946 30.34212 22.90079
#
# Velocity S-wave (km/s) = 2.68761 3.76524 3.27110
# Velocity P-wave (km/s) = 4.15373 6.82250 5.64801
#
# Compressibility (1/GPa) = 0.06129772
#
# Stress axis : x y z
#
# Youngs Moduli (GPa) = 104.86299 35.24093 50.11909
#
# Poissons Ratio (x) = -0.06351 0.08426
# Poissons Ratio (y) = -0.18897 -0.07997
# Poissons Ratio (z) = 0.17630 -0.05623
#
# Static dielectric constant tensor:
#      x y z
#    x 1.978810 0.028290 0.063650 
#    y 0.028290 1.706300 0.008880 
#    z 0.063650 0.008880 1.882080 
# 
# From -- ./inp_files/379801.got.cif
#   From: 2010.05.17/outbox.cif.g08.bks.cpg/sg2_190_cif.got.tgz:379801.got - 2010.06.03 11:33:40.
