data_PCOD9096621
_publ_section_title
;
Structure prediction by ZEFSAII (Michael W. Deem and Ramdas Pophale) SiO2 
 PCOD9096621
Probable space group: P -1
;
_chemical_formula_sum "Si O2"
_cell_formula_units_Z 14
_cell_length_a 15.832388
_cell_length_b 21.944214
_cell_length_c 7.692305
_cell_angle_alpha 111.606154
_cell_angle_beta 81.723586
_cell_angle_gamma 158.675520
_cell_volume 730.356260
_symmetry_space_group_name_H-M "P -1"
_symmetry_group_IT_number 2
_symmetry_cell_setting 'triclinic'
loop_
_space_group_symop_operation_xyz
x,y,z
-x,-y,-z
loop_
_atom_site_type_symbol
_atom_site_label
_atom_site_fract_x
_atom_site_fract_y
_atom_site_fract_z
Si Si1 0.951056 0.364083 0.723383
Si Si2 0.098888 0.999077 0.509397
Si Si3 0.686975 0.454099 0.935682
Si Si4 0.476685 0.170896 0.113960
Si Si5 0.621739 0.990209 0.358326
Si Si6 0.881497 0.117901 0.759295
Si Si7 0.196666 0.090297 0.949807
O O1 0.701060 0.229052 0.716376
O O2 0.124178 0.464371 0.947049
O O3 0.187042 0.567717 0.739642
O O4 0.796042 0.186369 0.501916
O O5 0.987787 0.858951 0.277404
O O6 0.038239 0.943521 0.673649
O O7 0.448312 0.253590 0.661868
O O8 0.000000 0.000000 0.500000
O O9 0.483140 0.329998 0.024582
O O10 0.884424 0.656456 0.020665
O O11 0.373638 0.069518 0.222801
O O12 0.386919 0.055383 0.865824
O O13 0.306752 0.114133 0.067453
O O14 0.766695 0.055090 0.538040
O O15 0.000000 0.000000 0.000000
#
# Coordination Sequence:
#
# PCOD9096621 Si02
#       7
#     2   2   2   2   2   2   2
#     4   9  19  38  61  81 118 154 184 239 285 336
#     4  10  20  36  57  79 114 148 187 236 283 327
#     4   8  20  37  58  80 117 151 183 239 284 332
#     4  11  21  35  59  84 116 152 190 235 284 337
#     4  10  20  39  59  86 116 151 193 230 287 337
#     4  11  21  37  59  85 116 150 190 235 280 342
#     4   9  18  38  56  78 112 150 186 233 283 330
#
# _framework density 19.168728000000002
#
# number of rings (size 3 to 8) (size 9 to 14) (size 15 to 20)
#    0.857    1.429    1.429    1.286    0.000    2.286 
#    0.000    8.571    0.000    0.000    0.000    0.000 
#    0.000    0.000    0.000    0.000    0.000    0.000 
#
# Total GULP energy -78012.513675 kJ/mol
# GULP energy per Si atom -5572.322405 kJ/mol
# Density = 1.912510 g / cm^3
# Si number density = 19.168728 Si / 1000 Ang^3
#
#
#
# Elastic Constant Matrix: (Units=GPa)
#
#
# Indices 1 2 3 4 5 6 
#
# 1 45.7038 5.4431 -2.5198 1.6701 -12.7023 12.3385
# 2 5.4431 61.5366 12.3148 -8.5541 -15.5166 -9.2549
# 3 -2.5198 12.3148 32.8195 -2.9890 -10.8626 -1.5150
# 4 1.6701 -8.5541 -2.9890 23.0534 5.9283 -1.9911
# 5 -12.7023 -15.5166 -10.8626 5.9283 21.2412 4.6352
# 6 12.3385 -9.2549 -1.5150 -1.9911 4.6352 30.7448
#
#
#
# Elastic Compliance Matrix: (Units=1/GPa)
#
#
# Indices 1 2 3 4 5 6 
#
# 1 0.040404 -0.002004 0.014422 -0.013781 0.038910 -0.022866
# 2 -0.002004 0.021311 -0.004282 0.005619 0.009309 0.005969
# 3 0.014422 -0.004282 0.042460 -0.005988 0.031076 -0.010057
# 4 -0.013781 0.005619 -0.005988 0.053388 -0.025194 0.014183
# 5 0.038910 0.009309 0.031076 -0.025194 0.106388 -0.028953
# 6 -0.022866 0.005969 -0.010057 0.014183 -0.028953 0.048287
#
#
# Mechanical properties :
#
#
# Convention : Reuss Voigt Hill
#
# Bulk Modulus (GPa) = 8.30241 18.94846 13.62544
# Shear Modulus (GPa) = 14.87588 23.32932 19.10260
#
# Velocity S-wave (km/s) = 2.78879 3.49241 3.16024
# Velocity P-wave (km/s) = 3.83542 5.11558 4.52104
#
# Compressibility (1/GPa) = 0.12044691
#
# Stress axis : x y z
#
# Youngs Moduli (GPa) = 24.74979 46.92501 23.55185
#
# Poissons Ratio (x) = 0.09402 -0.33966
# Poissons Ratio (y) = 0.04959 0.10085
# Poissons Ratio (z) = -0.35693 0.20093
#
# Static dielectric constant tensor:
#      x y z
#    x 1.684230 -0.013120 0.003980 
#    y -0.013120 1.653490 0.014690 
#    z 0.003980 0.014690 1.695160 
# 
# From -- ./inp_files/197389.got.cif
#   From: 2010.05.17/outbox.cif.g08.bks.cpg/sg2_99_cif.got.tgz:197389.got - 2010.06.03 11:33:40.
