data_PCOD9096708
_publ_section_title
;
Structure prediction by ZEFSAII (Michael W. Deem and Ramdas Pophale) SiO2 
 PCOD9096708
Probable space group: P -1
;
_chemical_formula_sum "Si O2"
_cell_formula_units_Z 16
_cell_length_a 17.313424
_cell_length_b 10.586251
_cell_length_c 9.294687
_cell_angle_alpha 80.513159
_cell_angle_beta 68.479264
_cell_angle_gamma 31.322481
_cell_volume 784.037256
_symmetry_space_group_name_H-M "P -1"
_symmetry_group_IT_number 2
_symmetry_cell_setting 'triclinic'
loop_
_space_group_symop_operation_xyz
x,y,z
-x,-y,-z
loop_
_atom_site_type_symbol
_atom_site_label
_atom_site_fract_x
_atom_site_fract_y
_atom_site_fract_z
Si Si1 0.187445 0.258865 0.063991
Si Si2 0.881375 0.097449 0.940848
Si Si3 0.709633 0.472326 0.734816
Si Si4 0.152934 0.639808 0.617085
Si Si5 0.186165 0.310868 0.742292
Si Si6 0.392358 0.737454 0.926823
Si Si7 0.486967 0.876087 0.455747
Si Si8 0.383533 0.123060 0.189986
O O1 0.233893 0.257382 0.183919
O O2 0.990133 0.518667 0.152283
O O3 0.240109 0.264437 0.880448
O O4 0.281133 0.996980 0.030556
O O5 0.777468 0.336228 0.868832
O O6 0.746157 0.170375 0.069124
O O7 0.007846 0.868800 0.781188
O O8 0.000000 0.000000 0.000000
O O9 0.847612 0.292643 0.550167
O O10 0.546639 0.608801 0.775269
O O11 0.656480 0.689831 0.744273
O O12 0.153791 0.483883 0.643787
O O13 0.337572 0.425254 0.588893
O O14 0.323837 0.043491 0.617286
O O15 0.500000 0.500000 0.000000
O O16 0.452998 0.938643 0.299487
O O17 0.500000 0.000000 0.500000
O O18 0.500000 0.000000 0.000000
#
# Coordination Sequence:
#
# PCOD9096708 Si02
#       8
#     2   2   2   2   2   2   2   2
#     4  11  22  36  64  94 129 167 212 268 318 378
#     4  11  26  42  69  94 123 165 221 270 309 381
#     4  11  23  42  66  90 131 172 209 258 321 388
#     4  11  21  42  65  89 125 169 212 251 333 380
#     4  10  21  38  60  90 129 167 205 259 332 381
#     4  10  22  42  62  90 128 172 211 252 320 379
#     4  10  20  36  57  86 127 161 200 258 319 376
#     4  12  22  34  63  97 125 159 220 259 314 379
#
# _framework density 20.407192999999999
#
# number of rings (size 3 to 8) (size 9 to 14) (size 15 to 20)
#    0.000    1.250    5.000    2.625    3.500    0.500 
#    0.000    0.625    0.000    0.000    0.000    0.000 
#    0.000    0.000    0.000    0.000    0.000    0.000 
#
# Total GULP energy -89115.060031 kJ/mol
# GULP energy per Si atom -5569.691252 kJ/mol
# Density = 2.036075 g / cm^3
# Si number density = 20.407193 Si / 1000 Ang^3
#
#
#
# Elastic Constant Matrix: (Units=GPa)
#
#
# Indices 1 2 3 4 5 6 
#
# 1 74.1244 3.2366 14.5509 -16.3461 -5.9324 -21.8425
# 2 3.2366 58.4199 7.0640 -3.5426 -6.6914 -11.3388
# 3 14.5509 7.0640 90.5984 -10.0162 -5.2654 -16.8055
# 4 -16.3461 -3.5426 -10.0162 38.6674 -4.8941 3.2047
# 5 -5.9324 -6.6914 -5.2654 -4.8941 15.4023 -2.9182
# 6 -21.8425 -11.3388 -16.8055 3.2047 -2.9182 34.3630
#
#
#
# Elastic Compliance Matrix: (Units=1/GPa)
#
#
# Indices 1 2 3 4 5 6 
#
# 1 0.021570 0.004423 0.001402 0.010712 0.017204 0.016318
# 2 0.004423 0.020888 0.001132 0.005042 0.014860 0.011049
# 3 0.001402 0.001132 0.013208 0.004529 0.008506 0.008024
# 4 0.010712 0.005042 0.004529 0.033836 0.020371 0.009262
# 5 0.017204 0.014860 0.008506 0.020371 0.092302 0.025938
# 6 0.016318 0.011049 0.008024 0.009262 0.025938 0.048382
#
#
# Mechanical properties :
#
#
# Convention : Reuss Voigt Hill
#
# Bulk Modulus (GPa) = 14.37243 30.31621 22.34432
# Shear Modulus (GPa) = 20.87974 30.90594 25.89284
#
# Velocity S-wave (km/s) = 3.20215 3.89583 3.56590
# Velocity P-wave (km/s) = 4.55300 5.92660 5.28462
#
# Compressibility (1/GPa) = 0.06957768
#
# Stress axis : x y z
#
# Youngs Moduli (GPa) = 46.36059 47.87472 75.71286
#
# Poissons Ratio (x) = -0.21173 -0.10613
# Poissons Ratio (y) = -0.20504 -0.08567
# Poissons Ratio (z) = -0.06499 -0.05417
#
# Static dielectric constant tensor:
#      x y z
#    x 1.740820 -0.010110 -0.085160 
#    y -0.010110 1.759240 0.024280 
#    z -0.085160 0.024280 1.723000 
# 
# From -- ./inp_files/333248.got.cif
#   From: 2010.05.17/outbox.cif.g08.bks.cpg/sg2_167_cif.got.tgz:333248.got - 2010.06.03 11:33:40.
