data_PCOD9096338
_publ_section_title
;
Structure prediction by ZEFSAII (Michael W. Deem and Ramdas Pophale) SiO2 
 PCOD9096338
Probable space group: P -1
;
_chemical_formula_sum "Si O2"
_cell_formula_units_Z 14
_cell_length_a 8.252107
_cell_length_b 11.153595
_cell_length_c 23.343959
_cell_angle_alpha 24.500776
_cell_angle_beta 134.798905
_cell_angle_gamma 128.854706
_cell_volume 631.565147
_symmetry_space_group_name_H-M "P -1"
_symmetry_group_IT_number 2
_symmetry_cell_setting 'triclinic'
loop_
_space_group_symop_operation_xyz
x,y,z
-x,-y,-z
loop_
_atom_site_type_symbol
_atom_site_label
_atom_site_fract_x
_atom_site_fract_y
_atom_site_fract_z
Si Si1 0.653652 0.143614 0.026221
Si Si2 0.912086 0.267630 0.934430
Si Si3 0.983168 0.788536 0.528453
Si Si4 0.984265 0.682233 0.358243
Si Si5 0.634168 0.773832 0.590333
Si Si6 0.482022 0.748028 0.436826
Si Si7 0.796737 0.630645 0.138999
O O1 0.865306 0.274579 0.987547
O O2 0.473885 0.360042 0.919562
O O3 0.766353 0.901805 0.201409
O O4 0.500000 0.000000 0.000000
O O5 0.708631 0.480768 0.767931
O O6 0.131640 0.374454 0.907889
O O7 0.882359 0.939355 0.049373
O O8 0.069388 0.599389 0.686869
O O9 0.022421 0.562796 0.585116
O O10 0.852414 0.955688 0.551381
O O11 0.717507 0.903003 0.414463
O O12 0.216201 0.849488 0.328568
O O13 0.000000 0.500000 0.500000
O O14 0.520550 0.680529 0.543201
O O15 0.500000 0.000000 0.500000
O O16 0.500000 0.500000 0.500000
#
# Coordination Sequence:
#
# PCOD9096338 Si02
#       7
#     2   2   2   2   2   2   2
#     4  10  20  37  62  94 128 173 236 283 321 413
#     4  10  21  36  61  99 130 168 231 282 333 398
#     4  11  21  42  64 101 133 180 230 289 337 418
#     4  11  23  39  65  99 136 176 227 287 352 401
#     4  12  24  38  70 103 140 176 235 289 349 410
#     4  10  24  40  63  97 143 179 224 286 352 410
#     4  10  20  35  67  92 130 172 235 277 330 396
#
# _framework density 22.167152000000002
#
# number of rings (size 3 to 8) (size 9 to 14) (size 15 to 20)
#    0.000    1.429    4.286    2.143    6.000    0.000 
#    2.571    0.000    0.000    8.571    0.000    0.000 
#    0.000    0.000    0.000    0.000    0.000    0.000 
#
# Total GULP energy -77986.043071 kJ/mol
# GULP energy per Si atom -5570.431648 kJ/mol
# Density = 2.211670 g / cm^3
# Si number density = 22.167152 Si / 1000 Ang^3
#
#
#
# Elastic Constant Matrix: (Units=GPa)
#
#
# Indices 1 2 3 4 5 6 
#
# 1 182.7400 32.4530 43.5882 11.7932 5.3915 -10.2959
# 2 32.4530 66.5356 24.1301 11.2933 -1.8730 1.4310
# 3 43.5882 24.1301 78.8155 21.8140 -2.4136 10.2211
# 4 11.7932 11.2933 21.8140 17.9282 3.5373 -3.3126
# 5 5.3915 -1.8730 -2.4136 3.5373 40.5657 2.0418
# 6 -10.2959 1.4310 10.2211 -3.3126 2.0418 43.5891
#
#
#
# Elastic Compliance Matrix: (Units=1/GPa)
#
#
# Indices 1 2 3 4 5 6 
#
# 1 0.006996 -0.002466 -0.004502 0.003354 -0.001761 0.003126
# 2 -0.002466 0.018372 -0.001601 -0.008668 0.001915 -0.001559
# 3 -0.004502 -0.001601 0.025175 -0.029393 0.005058 -0.009385
# 4 0.003354 -0.008668 -0.029393 0.100177 -0.012143 0.016151
# 5 -0.001761 0.001915 0.005058 -0.012143 0.026526 -0.003830
# 6 0.003126 -0.001559 -0.009385 0.016151 -0.003830 0.027339
#
#
# Mechanical properties :
#
#
# Convention : Reuss Voigt Hill
#
# Bulk Modulus (GPa) = 29.93531 58.71487 44.32509
# Shear Modulus (GPa) = 21.47257 35.61123 28.54190
#
# Velocity S-wave (km/s) = 3.11572 4.01245 3.59217
# Velocity P-wave (km/s) = 5.14561 6.92901 6.10280
#
# Compressibility (1/GPa) = 0.03340536
#
# Stress axis : x y z
#
# Youngs Moduli (GPa) = 142.94855 54.43193 39.72227
#
# Poissons Ratio (x) = 0.13421 0.17881
# Poissons Ratio (y) = 0.35246 0.06360
# Poissons Ratio (z) = 0.64349 0.08715
#
# Static dielectric constant tensor:
#      x y z
#    x 1.947730 -0.061890 -0.004860 
#    y -0.061890 2.047860 0.054840 
#    z -0.004860 0.054840 1.799220 
# 
# From -- ./inp_files/607010.got.cif
#   From: 2010.05.17/outbox.cif.g08.bks.cpg/sg2_304_cif.got.tgz:607010.got - 2010.06.03 11:33:40.
