data_PCOD9096345
_publ_section_title
;
Structure prediction by ZEFSAII (Michael W. Deem and Ramdas Pophale) SiO2 
 PCOD9096345
Probable space group: P -1
;
_chemical_formula_sum "Si O2"
_cell_formula_units_Z 16
_cell_length_a 23.383167
_cell_length_b 9.053038
_cell_length_c 8.695267
_cell_angle_alpha 96.073193
_cell_angle_beta 48.699741
_cell_angle_gamma 58.179975
_cell_volume 826.407448
_symmetry_space_group_name_H-M "P -1"
_symmetry_group_IT_number 2
_symmetry_cell_setting 'triclinic'
loop_
_space_group_symop_operation_xyz
x,y,z
-x,-y,-z
loop_
_atom_site_type_symbol
_atom_site_label
_atom_site_fract_x
_atom_site_fract_y
_atom_site_fract_z
Si Si1 0.962582 0.678038 0.214545
Si Si2 0.196669 0.379140 0.952087
Si Si3 0.579908 0.651846 0.745009
Si Si4 0.804201 0.753321 0.753346
Si Si5 0.715080 0.579516 0.925503
Si Si6 0.564844 0.337357 0.212488
Si Si7 0.560657 0.008797 0.686576
Si Si8 0.743544 0.253603 0.667210
O O1 0.900471 0.680230 0.462162
O O2 0.086813 0.569163 0.044845
O O3 0.853299 0.966801 0.400606
O O4 0.000000 0.500000 0.000000
O O5 0.145888 0.354115 0.176097
O O6 0.251083 0.434686 0.959545
O O7 0.319632 0.114743 0.628095
O O8 0.537304 0.598508 0.692040
O O9 0.597267 0.784805 0.649957
O O10 0.692754 0.412093 0.621490
O O11 0.470827 0.851351 0.088436
O O12 0.761671 0.655169 0.762824
O O13 0.678856 0.048342 0.020955
O O14 0.565852 0.797691 0.173282
O O15 0.783737 0.325714 0.715965
O O16 0.500000 0.500000 0.500000
O O17 0.630706 0.349427 0.976286
#
# Coordination Sequence:
#
# PCOD9096345 Si02
#       8
#     2   2   2   2   2   2   2   2
#     4  11  25  43  62  88 125 171 211 249 306 364
#     4  10  22  37  70  85 122 164 214 246 307 365
#     4  10  21  38  59  92 132 158 200 253 317 365
#     4   9  22  41  63  89 122 159 210 253 303 368
#     4   9  20  39  67  91 122 151 207 264 310 359
#     4  11  23  35  61  93 130 161 196 254 316 371
#     4  10  20  35  67  98 120 159 203 256 315 372
#     4  10  24  40  59  91 126 160 207 259 298 365
#
# _framework density 19.360908999999999
#
# number of rings (size 3 to 8) (size 9 to 14) (size 15 to 20)
#    0.750    1.250    1.250    1.125    8.750    1.500 
#    0.000    2.500    0.000    0.000    0.000    0.000 
#    0.000    0.000    0.000    0.000    0.000    0.000 
#
# Total GULP energy -89164.671598 kJ/mol
# GULP energy per Si atom -5572.791975 kJ/mol
# Density = 1.931684 g / cm^3
# Si number density = 19.360909 Si / 1000 Ang^3
#
#
#
# Elastic Constant Matrix: (Units=GPa)
#
#
# Indices 1 2 3 4 5 6 
#
# 1 80.4691 21.6929 42.9268 5.0209 23.5144 -11.3808
# 2 21.6929 73.2137 27.5619 18.9225 12.2004 2.1643
# 3 42.9268 27.5619 98.4978 8.8448 14.7364 -3.5692
# 4 5.0209 18.9225 8.8448 15.1020 0.4119 1.0832
# 5 23.5144 12.2004 14.7364 0.4119 27.6059 1.3542
# 6 -11.3808 2.1643 -3.5692 1.0832 1.3542 27.6340
#
#
#
# Elastic Compliance Matrix: (Units=1/GPa)
#
#
# Indices 1 2 3 4 5 6 
#
# 1 0.022115 -0.001281 -0.006469 -0.002204 -0.015237 0.009206
# 2 -0.001281 0.023178 -0.002454 -0.026888 -0.007380 -0.001244
# 3 -0.006469 -0.002454 0.014027 -0.002931 -0.000825 -0.000505
# 4 -0.002204 -0.026888 -0.002931 0.102253 0.013989 -0.003874
# 5 -0.015237 -0.007380 -0.000825 0.013989 0.053135 -0.008956
# 6 0.009206 -0.001244 -0.000505 -0.003874 -0.008956 0.040602
#
#
# Mechanical properties :
#
#
# Convention : Reuss Voigt Hill
#
# Bulk Modulus (GPa) = 25.69847 48.50488 37.10167
# Shear Modulus (GPa) = 17.31981 24.73498 21.02739
#
# Velocity S-wave (km/s) = 2.99419 3.57819 3.29914
# Velocity P-wave (km/s) = 5.02551 6.49451 5.80665
#
# Compressibility (1/GPa) = 0.03891283
#
# Stress axis : x y z
#
# Youngs Moduli (GPa) = 45.21797 43.14436 71.29332
#
# Poissons Ratio (x) = 0.05526 0.46117
# Poissons Ratio (y) = 0.05792 0.17495
# Poissons Ratio (z) = 0.29250 0.10587
#
# Static dielectric constant tensor:
#      x y z
#    x 1.695380 -0.003670 -0.004620 
#    y -0.003670 1.702500 -0.016450 
#    z -0.004620 -0.016450 1.666820 
# 
# From -- ./inp_files/352228.got.cif
#   From: 2010.05.17/outbox.cif.g08.bks.cpg/sg2_177_cif.got.tgz:352228.got - 2010.06.03 11:33:40.
