data_PCOD9096686
_publ_section_title
;
Structure prediction by ZEFSAII (Michael W. Deem and Ramdas Pophale) SiO2 
 PCOD9096686
Probable space group: P -1
;
_chemical_formula_sum "Si O2"
_cell_formula_units_Z 16
_cell_length_a 6.411014
_cell_length_b 12.323221
_cell_length_c 12.163350
_cell_angle_alpha 87.956959
_cell_angle_beta 55.765074
_cell_angle_gamma 96.970171
_cell_volume 782.239563
_symmetry_space_group_name_H-M "P -1"
_symmetry_group_IT_number 2
_symmetry_cell_setting 'triclinic'
loop_
_space_group_symop_operation_xyz
x,y,z
-x,-y,-z
loop_
_atom_site_type_symbol
_atom_site_label
_atom_site_fract_x
_atom_site_fract_y
_atom_site_fract_z
Si Si1 0.430139 0.599690 0.090075
Si Si2 0.216702 0.136774 0.382350
Si Si3 0.703928 0.027516 0.177719
Si Si4 0.369544 0.562908 0.367276
Si Si5 0.913845 0.677548 0.233402
Si Si6 0.791421 0.816572 0.059592
Si Si7 0.796325 0.996247 0.393388
Si Si8 0.926056 0.670083 0.479709
O O1 0.369759 0.556424 0.234547
O O2 0.639211 0.713709 0.037654
O O3 0.168780 0.634273 0.122751
O O4 0.500000 0.500000 0.000000
O O5 0.457338 0.084197 0.272757
O O6 0.136124 0.084629 0.528598
O O7 0.240717 0.264691 0.396194
O O8 0.987422 0.106612 0.365302
O O9 0.645417 0.921081 0.118909
O O10 0.808270 0.980362 0.261048
O O11 0.933129 0.122225 0.066961
O O12 0.661767 0.584954 0.314789
O O13 0.218174 0.454914 0.472403
O O14 0.213243 0.662664 0.436436
O O15 0.841280 0.762423 0.163352
O O16 0.954381 0.715792 0.345767
O O17 0.500000 0.000000 0.500000
#
# Coordination Sequence:
#
# PCOD9096686 Si02
#       8
#     2   2   2   2   2   2   2   2
#     4  10  23  40  60  86 114 148 191 239 284 333
#     4  10  21  35  59  86 112 148 190 231 283 343
#     4  10  22  39  57  84 116 152 192 234 279 333
#     4   9  21  37  56  84 116 147 190 235 283 342
#     4  10  21  38  60  81 112 156 186 228 289 337
#     4  10  23  40  58  82 116 152 193 234 279 341
#     4   9  20  36  53  81 114 143 180 231 281 332
#     4  10  20  36  57  85 114 146 188 238 284 334
#
# _framework density 20.454091999999999
#
# number of rings (size 3 to 8) (size 9 to 14) (size 15 to 20)
#    0.000    2.250    0.000    1.125    0.000   18.000 
#    0.000    2.500    0.000    0.000    0.000    0.000 
#    0.000    0.000    0.000    0.000    0.000    0.000 
#
# Total GULP energy -89104.571899 kJ/mol
# GULP energy per Si atom -5569.035744 kJ/mol
# Density = 2.040754 g / cm^3
# Si number density = 20.454092 Si / 1000 Ang^3
#
#
#
# Elastic Constant Matrix: (Units=GPa)
#
#
# Indices 1 2 3 4 5 6 
#
# 1 95.2996 49.3295 15.8232 14.4260 -17.4716 7.0481
# 2 49.3295 106.5291 51.3337 30.4505 -17.3646 6.9734
# 3 15.8232 51.3337 70.7991 11.1825 -18.9237 6.3401
# 4 14.4260 30.4505 11.1825 40.1162 -3.3393 -6.1850
# 5 -17.4716 -17.3646 -18.9237 -3.3393 22.8831 0.6479
# 6 7.0481 6.9734 6.3401 -6.1850 0.6479 13.8133
#
#
#
# Elastic Compliance Matrix: (Units=1/GPa)
#
#
# Indices 1 2 3 4 5 6 
#
# 1 0.016508 -0.007263 0.005988 -0.002516 0.011937 -0.009191
# 2 -0.007263 0.022649 -0.012154 -0.012378 0.000002 -0.007692
# 3 0.005988 -0.012154 0.027591 -0.000752 0.018361 -0.010781
# 4 -0.002516 -0.012378 -0.000752 0.038799 -0.006998 0.025578
# 5 0.011937 0.000002 0.018361 -0.006998 0.067568 -0.020822
# 6 -0.009191 -0.007692 -0.010781 0.025578 -0.020822 0.098345
#
#
# Mechanical properties :
#
#
# Convention : Reuss Voigt Hill
#
# Bulk Modulus (GPa) = 25.06986 56.17787 40.62386
# Shear Modulus (GPa) = 16.04548 25.77194 20.90871
#
# Velocity S-wave (km/s) = 2.80387 3.55348 3.20070
# Velocity P-wave (km/s) = 4.77132 6.66043 5.79339
#
# Compressibility (1/GPa) = 0.03988854
#
# Stress axis : x y z
#
# Youngs Moduli (GPa) = 60.57851 44.15205 36.24394
#
# Poissons Ratio (x) = 0.32066 -0.21702
# Poissons Ratio (y) = 0.43996 0.44052
# Poissons Ratio (z) = -0.36273 0.53664
#
# Static dielectric constant tensor:
#      x y z
#    x 1.750200 -0.004650 0.007410 
#    y -0.004650 1.787850 0.011660 
#    z 0.007410 0.011660 1.746880 
# 
# From -- ./inp_files/364452.got.cif
#   From: 2010.05.17/outbox.cif.g08.bks.cpg/sg2_183_cif.got.tgz:364452.got - 2010.06.03 11:33:40.
