data_PCOD9096102
_publ_section_title
;
Structure prediction by ZEFSAII (Michael W. Deem and Ramdas Pophale) SiO2 
 PCOD9096102
Probable space group: P -1
;
_chemical_formula_sum "Si O2"
_cell_formula_units_Z 15
_cell_length_a 16.763751
_cell_length_b 7.635011
_cell_length_c 19.495384
_cell_angle_alpha 137.190037
_cell_angle_beta 159.475311
_cell_angle_gamma 49.173411
_cell_volume 588.702152
_symmetry_space_group_name_H-M "P -1"
_symmetry_group_IT_number 2
_symmetry_cell_setting 'triclinic'
loop_
_space_group_symop_operation_xyz
x,y,z
-x,-y,-z
loop_
_atom_site_type_symbol
_atom_site_label
_atom_site_fract_x
_atom_site_fract_y
_atom_site_fract_z
Si Si1 0.848974 0.233472 0.035765
Si Si2 0.153790 0.327014 0.433910
Si Si3 0.042468 0.919323 0.662042
Si Si4 0.159494 0.809237 0.132520
Si Si5 0.000000 0.000000 0.500000
Si Si6 0.396415 0.817412 0.452631
Si Si7 0.482407 0.834566 0.825181
Si Si8 0.571582 0.114793 0.356488
O O1 0.993173 0.386625 0.257071
O O2 0.947132 0.955344 0.025276
O O3 0.875456 0.344339 0.011579
O O4 0.587789 0.153745 0.826830
O O5 0.017894 0.280565 0.381928
O O6 0.365647 0.551187 0.671983
O O7 0.250074 0.058845 0.416071
O O8 0.027147 0.843905 0.549010
O O9 0.836866 0.094255 0.551463
O O10 0.293014 0.066625 0.922911
O O11 0.256370 0.667111 0.234487
O O12 0.359480 0.050100 0.342790
O O13 0.283614 0.018914 0.723272
O O14 0.422636 0.715627 0.521221
O O15 0.533573 0.813553 0.779163
#
# Coordination Sequence:
#
# PCOD9096102 Si02
#       8
#     2   2   2   2   1   2   2   2
#     4   9  15  30  55  86 112 156 198 237 278 342
#     4  10  20  35  62  89 115 150 201 234 280 339
#     4  10  21  42  62  85 117 152 182 237 289 347
#     4   8  14  25  53  81 113 157 197 231 291 325
#     4  10  24  44  62  88 120 146 184 230 300 350
#     4   8  15  30  51  85 114 155 200 234 279 343
#     4  11  22  41  62  88 116 150 186 241 285 347
#     4   9  18  34  57  84 115 154 192 231 288 333
#
# _framework density 25.479776999999999
#
# number of rings (size 3 to 8) (size 9 to 14) (size 15 to 20)
#    0.000    2.667    1.333    0.400    0.000    0.533 
#   14.400    1.333    0.000   30.400    0.000    0.000 
#    0.000    0.000    0.000    0.000    0.000    0.000 
#
# Total GULP energy -83519.559201 kJ/mol
# GULP energy per Si atom -5567.970613 kJ/mol
# Density = 2.542178 g / cm^3
# Si number density = 25.479777 Si / 1000 Ang^3
#
#
#
# Elastic Constant Matrix: (Units=GPa)
#
#
# Indices 1 2 3 4 5 6 
#
# 1 125.3358 17.2452 27.2815 1.5146 -12.0006 40.1395
# 2 17.2452 24.2353 36.8733 2.3957 -14.5622 -13.1966
# 3 27.2815 36.8733 140.6885 -16.4911 -1.3148 16.0647
# 4 1.5146 2.3957 -16.4911 28.3241 10.2490 9.4990
# 5 -12.0006 -14.5622 -1.3148 10.2490 32.6140 -22.4694
# 6 40.1395 -13.1966 16.0647 9.4990 -22.4694 21.2145
#
#
#
# Elastic Compliance Matrix: (Units=1/GPa)
#
#
# Indices 1 2 3 4 5 6 
#
# 1 0.008683 0.005229 -0.003780 -0.006152 0.007781 0.000683
# 2 0.005229 0.010944 0.000664 0.013959 -0.016008 -0.026792
# 3 -0.003780 0.000664 0.006627 -0.000861 0.005413 0.008666
# 4 -0.006152 0.013959 -0.000861 0.027243 0.005253 0.014340
# 5 0.007781 -0.016008 0.005413 0.005253 0.012938 -0.017428
# 6 0.000683 -0.026792 0.008666 0.014340 -0.017428 -0.002263
#
#
# Mechanical properties :
#
#
# Convention : Reuss Voigt Hill
#
# Bulk Modulus (GPa) = 32.81060 50.33996 41.57528
# Shear Modulus (GPa) = 71.31831 30.35449 50.83640
#
# Velocity S-wave (km/s) = 5.29631 3.45529 4.47157
# Velocity P-wave (km/s) = 7.09269 5.97649 6.55838
#
# Compressibility (1/GPa) = 0.03047796
#
# Stress axis : x y z
#
# Youngs Moduli (GPa) = 115.17169 91.37132 150.89233
#
# Poissons Ratio (x) = -0.47776 0.57045
# Poissons Ratio (y) = -0.60220 -0.10013
# Poissons Ratio (z) = 0.43541 -0.06063
#
# Static dielectric constant tensor:
#      x y z
#    x 2.064180 0.005500 -0.057570 
#    y 0.005500 2.061420 -0.041480 
#    z -0.057570 -0.041480 1.994310 
# 
# From -- ./inp_files/599295.got.cif
#   From: 2010.05.17/outbox.cif.g08.bks.cpg/sg2_300_cif.got.tgz:599295.got - 2010.06.03 11:33:40.
