data_PCOD9096786
_publ_section_title
;
Structure prediction by ZEFSAII (Michael W. Deem and Ramdas Pophale) SiO2 
 PCOD9096786
Probable space group: P -1
;
_chemical_formula_sum "Si O2"
_cell_formula_units_Z 16
_cell_length_a 7.151914
_cell_length_b 18.204341
_cell_length_c 6.016267
_cell_angle_alpha 121.029782
_cell_angle_beta 107.942029
_cell_angle_gamma 61.259101
_cell_volume 586.622182
_symmetry_space_group_name_H-M "P -1"
_symmetry_group_IT_number 2
_symmetry_cell_setting 'triclinic'
loop_
_space_group_symop_operation_xyz
x,y,z
-x,-y,-z
loop_
_atom_site_type_symbol
_atom_site_label
_atom_site_fract_x
_atom_site_fract_y
_atom_site_fract_z
Si Si1 0.228399 0.123926 0.539231
Si Si2 0.408938 0.824615 0.468457
Si Si3 0.816595 0.505380 0.118087
Si Si4 0.088591 0.735067 0.671874
Si Si5 0.141053 0.358094 0.271511
Si Si6 0.995757 0.902826 0.189580
Si Si7 0.506617 0.352544 0.065596
Si Si8 0.657480 0.039415 0.996448
O O1 0.414664 0.153482 0.570967
O O2 0.013291 0.210340 0.506318
O O3 0.183832 0.117217 0.768928
O O4 0.295406 0.017730 0.306617
O O5 0.179819 0.897769 0.413830
O O6 0.418664 0.853824 0.776543
O O7 0.429861 0.723052 0.233831
O O8 0.815991 0.572743 0.427705
O O9 0.920007 0.405033 0.119409
O O10 0.605774 0.549516 0.956892
O O11 0.000000 0.500000 0.000000
O O12 0.313019 0.652013 0.691720
O O13 0.902558 0.713101 0.690922
O O14 0.118533 0.816762 0.943406
O O15 0.327701 0.333797 0.119924
O O16 0.883175 0.984953 0.111521
O O17 0.500000 0.000000 0.000000
#
# Coordination Sequence:
#
# PCOD9096786 Si02
#       8
#     2   2   2   2   2   2   2   2
#     4  10  21  37  55  79 114 153 191 232 280 328
#     4  10  20  36  58  82 111 147 188 233 274 328
#     4   9  20  39  60  85 114 145 182 225 278 340
#     4  10  22  36  56  87 113 144 192 232 271 333
#     4  10  20  39  62  81 113 150 179 227 284 330
#     4  10  21  38  57  81 115 151 188 233 280 324
#     4  10  21  37  58  86 114 144 188 231 278 337
#     4   9  20  37  55  83 116 147 192 235 274 334
#
# _framework density 27.274794
#
# number of rings (size 3 to 8) (size 9 to 14) (size 15 to 20)
#    0.000    2.250    0.000    1.875    0.000    7.000 
#    0.000   15.625    0.000    0.000    0.000    0.000 
#    0.000    0.000    0.000    0.000    0.000    0.000 
#
# Total GULP energy -89238.482548 kJ/mol
# GULP energy per Si atom -5577.405159 kJ/mol
# Density = 2.721272 g / cm^3
# Si number density = 27.274794 Si / 1000 Ang^3
#
#
#
# Elastic Constant Matrix: (Units=GPa)
#
#
# Indices 1 2 3 4 5 6 
#
# 1 92.8336 26.6763 -4.2505 -17.3921 -16.8195 4.6380
# 2 26.6763 121.4715 25.8391 -49.0526 -10.2927 -11.8686
# 3 -4.2505 25.8391 71.0455 3.8722 -12.2708 6.3656
# 4 -17.3921 -49.0526 3.8722 42.5405 -2.2003 1.7393
# 5 -16.8195 -10.2927 -12.2708 -2.2003 36.9031 -14.1112
# 6 4.6380 -11.8686 6.3656 1.7393 -14.1112 42.0665
#
#
#
# Elastic Compliance Matrix: (Units=1/GPa)
#
#
# Indices 1 2 3 4 5 6 
#
# 1 0.013187 -0.000981 0.002059 0.004419 0.006693 0.000020
# 2 -0.000981 0.022920 -0.009318 0.026903 0.008121 0.009596
# 3 0.002059 -0.009318 0.018999 -0.011331 0.002259 -0.004505
# 4 0.004419 0.026903 -0.011331 0.057611 0.013359 0.010917
# 5 0.006693 0.008121 0.002259 0.013359 0.039247 0.013825
# 6 0.000020 0.009596 -0.004505 0.010917 0.013825 0.031345
#
#
# Mechanical properties :
#
#
# Convention : Reuss Voigt Hill
#
# Bulk Modulus (GPa) = 25.88889 42.43117 34.16003
# Shear Modulus (GPa) = 23.51128 40.10773 31.80951
#
# Velocity S-wave (km/s) = 2.93919 3.83888 3.41876
# Velocity P-wave (km/s) = 4.58595 5.93633 5.30429
#
# Compressibility (1/GPa) = 0.03862661
#
# Stress axis : x y z
#
# Youngs Moduli (GPa) = 75.82967 43.63093 52.63454
#
# Poissons Ratio (x) = 0.04279 -0.10837
# Poissons Ratio (y) = 0.07436 0.49045
# Poissons Ratio (z) = -0.15613 0.40655
#
# Static dielectric constant tensor:
#      x y z
#    x 2.125530 -0.081570 0.029080 
#    y -0.081570 2.237960 0.003380 
#    z 0.029080 0.003380 2.122850 
# 
# From -- ./inp_files/53811.got.cif
#   From: 2010.05.17/outbox.cif.g08.bks.cpg/sg2_27_cif.got.tgz:53811.got - 2010.06.03 11:33:40.
