data_PCOD9096126
_publ_section_title
;
Structure prediction by ZEFSAII (Michael W. Deem and Ramdas Pophale) SiO2 
 PCOD9096126
Probable space group: P -1
;
_chemical_formula_sum "Si O2"
_cell_formula_units_Z 16
_cell_length_a 22.226279
_cell_length_b 12.161660
_cell_length_c 9.330594
_cell_angle_alpha 53.622286
_cell_angle_beta 152.572114
_cell_angle_gamma 132.817855
_cell_volume 851.799010
_symmetry_space_group_name_H-M "P -1"
_symmetry_group_IT_number 2
_symmetry_cell_setting 'triclinic'
loop_
_space_group_symop_operation_xyz
x,y,z
-x,-y,-z
loop_
_atom_site_type_symbol
_atom_site_label
_atom_site_fract_x
_atom_site_fract_y
_atom_site_fract_z
Si Si1 0.343447 0.760228 0.775661
Si Si2 0.234250 0.127270 0.135066
Si Si3 0.067755 0.400105 0.804770
Si Si4 0.662224 0.533880 0.856935
Si Si5 0.102387 0.914396 0.794768
Si Si6 0.956280 0.354659 0.922846
Si Si7 0.927836 0.088600 0.588161
Si Si8 0.343548 0.041471 0.714617
O O1 0.210651 0.717626 0.421069
O O2 0.330127 0.873865 0.780664
O O3 0.335477 0.604111 0.941228
O O4 0.501541 0.856603 0.973244
O O5 0.272448 0.302401 0.055235
O O6 0.329768 0.110058 0.478517
O O7 0.067962 0.053577 0.894575
O O8 0.238426 0.033188 0.077235
O O9 0.000000 0.500000 0.500000
O O10 0.042521 0.396174 0.923871
O O11 0.982832 0.233503 0.692862
O O12 0.232261 0.449494 0.066945
O O13 0.500000 0.500000 0.500000
O O14 0.118299 0.876046 0.693666
O O15 0.027343 0.769733 0.846172
O O16 0.000000 0.000000 0.500000
O O17 0.000000 0.500000 0.000000
O O18 0.788087 0.966048 0.461177
#
# Coordination Sequence:
#
# PCOD9096126 Si02
#       8
#     2   2   2   2   2   2   2   2
#     4  11  23  38  61  87 126 159 204 252 316 363
#     4  10  20  36  63  87 122 157 202 255 311 359
#     4  11  20  38  65  93 120 161 214 260 301 372
#     4  11  22  38  61  94 126 161 202 258 316 369
#     4  10  22  38  56  90 124 157 198 258 313 354
#     4  12  24  40  64  93 127 161 210 259 314 367
#     4  10  20  35  62  91 117 154 211 251 302 360
#     4  11  20  39  63  88 118 161 207 256 297 375
#
# _framework density 18.783774999999999
#
# number of rings (size 3 to 8) (size 9 to 14) (size 15 to 20)
#    0.000    1.250    5.000    1.125    3.500    3.000 
#    0.000    1.875    0.000    1.500    0.000    0.000 
#    0.000    0.000    0.000    0.000    0.000    0.000 
#
# Total GULP energy -89243.346042 kJ/mol
# GULP energy per Si atom -5577.709128 kJ/mol
# Density = 1.874102 g / cm^3
# Si number density = 18.783775 Si / 1000 Ang^3
#
#
#
# Elastic Constant Matrix: (Units=GPa)
#
#
# Indices 1 2 3 4 5 6 
#
# 1 93.6834 34.1888 38.5221 14.6768 -15.5476 -2.7996
# 2 34.1888 112.0912 20.6562 -7.4954 -8.1490 -1.0659
# 3 38.5221 20.6562 86.0111 6.9950 13.8100 14.4627
# 4 14.6768 -7.4954 6.9950 41.1857 10.8078 -3.1317
# 5 -15.5476 -8.1490 13.8100 10.8078 34.0871 2.7948
# 6 -2.7996 -1.0659 14.4627 -3.1317 2.7948 24.0670
#
#
#
# Elastic Compliance Matrix: (Units=1/GPa)
#
#
# Indices 1 2 3 4 5 6 
#
# 1 0.021107 -0.003813 -0.011280 -0.010046 0.015987 0.005901
# 2 -0.003813 0.010595 -0.001364 0.003591 0.000101 0.001301
# 3 -0.011280 -0.001364 0.021023 0.002946 -0.013938 -0.012004
# 4 -0.010046 0.003591 0.002946 0.032306 -0.015424 0.003215
# 5 0.015987 0.000101 -0.013938 -0.015424 0.046962 0.002779
# 6 0.005901 0.001301 -0.012004 0.003215 0.002779 0.049604
#
#
# Mechanical properties :
#
#
# Convention : Reuss Voigt Hill
#
# Bulk Modulus (GPa) = 50.47388 53.16888 51.82138
# Shear Modulus (GPa) = 22.61270 33.09588 27.85429
#
# Velocity S-wave (km/s) = 3.47341 4.20210 3.85501
# Velocity P-wave (km/s) = 6.55861 7.20491 6.88934
#
# Compressibility (1/GPa) = 0.01981223
#
# Stress axis : x y z
#
# Youngs Moduli (GPa) = 47.37671 94.38028 47.56749
#
# Poissons Ratio (x) = 0.35984 0.53656
# Poissons Ratio (y) = 0.18063 0.06488
# Poissons Ratio (z) = 0.53441 0.12874
#
# Static dielectric constant tensor:
#      x y z
#    x 1.686600 -0.009610 -0.003520 
#    y -0.009610 1.683620 0.010390 
#    z -0.003520 0.010390 1.707570 
# 
# From -- ./inp_files/266674.got.cif
#   From: 2010.05.17/outbox.cif.g08.bks.cpg/sg2_134_cif.got.tgz:266674.got - 2010.06.03 11:33:40.
