data_PCOD9096998
_publ_section_title
;
Structure prediction by ZEFSAII (Michael W. Deem and Ramdas Pophale) SiO2 
 PCOD9096998
Probable space group: P -1
;
_chemical_formula_sum "Si O2"
_cell_formula_units_Z 16
_cell_length_a 10.710133
_cell_length_b 9.344338
_cell_length_c 22.155873
_cell_angle_alpha 110.852404
_cell_angle_beta 159.344013
_cell_angle_gamma 66.361267
_cell_volume 715.279169
_symmetry_space_group_name_H-M "P -1"
_symmetry_group_IT_number 2
_symmetry_cell_setting 'triclinic'
loop_
_space_group_symop_operation_xyz
x,y,z
-x,-y,-z
loop_
_atom_site_type_symbol
_atom_site_label
_atom_site_fract_x
_atom_site_fract_y
_atom_site_fract_z
Si Si1 0.384237 0.062828 0.728500
Si Si2 0.175049 0.614855 0.444524
Si Si3 0.705701 0.824931 0.083453
Si Si4 0.548695 0.704421 0.427737
Si Si5 0.490892 0.511478 0.925289
Si Si6 0.253111 0.811491 0.987719
Si Si7 0.206094 0.098587 0.522897
Si Si8 0.631070 0.811276 0.609289
O O1 0.457432 0.053500 0.689009
O O2 0.077536 0.226005 0.619672
O O3 0.699036 0.072642 0.919466
O O4 0.185831 0.923854 0.636983
O O5 0.403980 0.482160 0.571054
O O6 0.448444 0.672927 0.531363
O O7 0.887654 0.522945 0.272240
O O8 0.127907 0.791122 0.253285
O O9 0.567811 0.678772 0.968116
O O10 0.622257 0.806621 0.114329
O O11 0.500000 0.000000 0.000000
O O12 0.741862 0.743157 0.460233
O O13 0.710780 0.777610 0.570612
O O14 0.500000 0.500000 0.000000
O O15 0.768792 0.350042 0.011774
O O16 0.962105 0.828810 0.805081
O O17 0.340395 0.969425 0.513050
#
# Coordination Sequence:
#
# PCOD9096998 Si02
#       8
#     2   2   2   2   2   2   2   2
#     4   9  21  42  60  80 112 157 202 234 283 342
#     4  10  21  36  60  86 114 153 194 238 283 342
#     4  11  22  35  53  85 123 151 181 234 299 348
#     4  12  22  35  58  88 119 146 188 241 291 346
#     4   9  17  33  53  78 111 151 188 222 276 338
#     4  10  20  36  59  81 114 154 194 234 279 346
#     4  10  22  39  59  82 116 155 195 241 286 341
#     4  11  21  36  59  91 119 149 189 237 295 344
#
# _framework density 22.368888999999999
#
# number of rings (size 3 to 8) (size 9 to 14) (size 15 to 20)
#    0.000    1.750    0.000    6.750    0.000    4.000 
#    0.000    0.000    0.000    6.750    0.000    0.000 
#    0.000    0.000    0.000    0.000    0.000    0.000 
#
# Total GULP energy -89234.350771 kJ/mol
# GULP energy per Si atom -5577.146923 kJ/mol
# Density = 2.231798 g / cm^3
# Si number density = 22.368889 Si / 1000 Ang^3
#
#
#
# Elastic Constant Matrix: (Units=GPa)
#
#
# Indices 1 2 3 4 5 6 
#
# 1 77.0031 19.6086 18.0680 11.6050 0.8044 17.1263
# 2 19.6086 117.0556 33.1067 2.5053 10.3193 35.0526
# 3 18.0680 33.1067 116.8705 20.7919 -8.4171 6.4073
# 4 11.6050 2.5053 20.7919 36.6948 -12.5091 -0.1893
# 5 0.8044 10.3193 -8.4171 -12.5091 12.9570 -1.4851
# 6 17.1263 35.0526 6.4073 -0.1893 -1.4851 32.5150
#
#
#
# Elastic Compliance Matrix: (Units=1/GPa)
#
#
# Indices 1 2 3 4 5 6 
#
# 1 0.017259 0.003313 -0.002286 -0.010040 -0.016380 -0.013018
# 2 0.003313 0.019393 -0.005176 -0.010350 -0.031657 -0.023137
# 3 -0.002286 -0.005176 0.011146 -0.001630 0.010511 0.005058
# 4 -0.010040 -0.010350 -0.001630 0.053061 0.061312 0.019877
# 5 -0.016380 -0.031657 0.010511 0.061312 0.175048 0.049036
# 6 -0.013018 -0.023137 0.005058 0.019877 0.049036 0.063913
#
#
# Mechanical properties :
#
#
# Convention : Reuss Voigt Hill
#
# Bulk Modulus (GPa) = 25.31757 50.27731 37.79744
# Shear Modulus (GPa) = 13.83949 32.44310 23.14130
#
# Velocity S-wave (km/s) = 2.49005 3.81250 3.21990
# Velocity P-wave (km/s) = 4.42831 6.47344 5.54596
#
# Compressibility (1/GPa) = 0.03949827
#
# Stress axis : x y z
#
# Youngs Moduli (GPa) = 57.94095 51.56591 89.72031
#
# Poissons Ratio (x) = -0.17082 0.20514
# Poissons Ratio (y) = -0.19194 0.46437
# Poissons Ratio (z) = 0.13248 0.26689
#
# Static dielectric constant tensor:
#      x y z
#    x 1.844440 -0.040150 0.019230 
#    y -0.040150 1.944390 -0.043410 
#    z 0.019230 -0.043410 1.901950 
# 
# From -- ./inp_files/523275.got.cif
#   From: 2010.05.17/outbox.cif.g08.bks.cpg/sg2_262_cif.got.tgz:523275.got - 2010.06.03 11:33:40.
