data_PCOD9096317
_publ_section_title
;
Structure prediction by ZEFSAII (Michael W. Deem and Ramdas Pophale) SiO2 
 PCOD9096317
Probable space group: P -1
;
_chemical_formula_sum "Si O2"
_cell_formula_units_Z 15
_cell_length_a 8.059922
_cell_length_b 11.433380
_cell_length_c 8.309755
_cell_angle_alpha 107.484644
_cell_angle_beta 124.255726
_cell_angle_gamma 70.183946
_cell_volume 589.501776
_symmetry_space_group_name_H-M "P -1"
_symmetry_group_IT_number 2
_symmetry_cell_setting 'triclinic'
loop_
_space_group_symop_operation_xyz
x,y,z
-x,-y,-z
loop_
_atom_site_type_symbol
_atom_site_label
_atom_site_fract_x
_atom_site_fract_y
_atom_site_fract_z
Si Si1 0.854261 0.321951 0.850982
Si Si2 0.458229 0.650540 0.848916
Si Si3 0.198273 0.901435 0.786508
Si Si4 0.794947 0.055353 0.777194
Si Si5 0.500000 0.500000 0.500000
Si Si6 0.392463 0.034498 0.678591
Si Si7 0.167310 0.504759 0.809749
Si Si8 0.929920 0.738208 0.379181
O O1 0.797765 0.201448 0.854734
O O2 0.662476 0.408239 0.684843
O O3 0.023171 0.268142 0.787357
O O4 0.938561 0.402096 0.068781
O O5 0.390956 0.797228 0.906078
O O6 0.489383 0.618074 0.665043
O O7 0.278310 0.583184 0.783888
O O8 0.651307 0.589126 0.035893
O O9 0.286906 0.997935 0.766208
O O10 0.083321 0.815337 0.575472
O O11 0.021042 0.967798 0.839153
O O12 0.686870 0.043196 0.539441
O O13 0.637134 0.008550 0.791659
O O14 0.289332 0.180520 0.651675
O O15 0.043341 0.409014 0.625288
#
# Coordination Sequence:
#
# PCOD9096317 Si02
#       8
#     2   2   2   2   1   2   2   2
#     4  11  20  41  65  93 136 170 212 268 325 392
#     4  10  22  43  62  93 135 170 217 272 319 387
#     4  11  20  43  67  97 128 165 226 281 306 377
#     4  10  20  36  64  99 126 169 218 269 330 375
#     4  10  20  36  66  92 122 172 216 264 312 370
#     4  10  20  35  65  99 126 167 219 272 323 377
#     4  10  25  39  63  95 133 176 209 256 345 399
#     4  11  20  39  67  94 129 170 218 265 326 391
#
# _framework density 25.445215000000001
#
# number of rings (size 3 to 8) (size 9 to 14) (size 15 to 20)
#    0.000    1.600    4.000    1.200    5.600    0.533 
#    2.400    4.000    0.000    0.000    0.000    0.000 
#    0.000    0.000    0.000    0.000    0.000    0.000 
#
# Total GULP energy -83703.838360 kJ/mol
# GULP energy per Si atom -5580.255891 kJ/mol
# Density = 2.538730 g / cm^3
# Si number density = 25.445215 Si / 1000 Ang^3
#
#
#
# Elastic Constant Matrix: (Units=GPa)
#
#
# Indices 1 2 3 4 5 6 
#
# 1 99.6853 27.5695 23.2424 11.2598 -8.9922 -7.9764
# 2 27.5695 127.5002 29.0351 23.0052 -9.9627 -9.1739
# 3 23.2424 29.0351 79.5414 21.3116 10.6777 -11.2089
# 4 11.2598 23.0052 21.3116 42.8831 -10.5359 3.2309
# 5 -8.9922 -9.9627 10.6777 -10.5359 25.1098 0.7586
# 6 -7.9764 -9.1739 -11.2089 3.2309 0.7586 41.9325
#
#
#
# Elastic Compliance Matrix: (Units=1/GPa)
#
#
# Indices 1 2 3 4 5 6 
#
# 1 0.011767 -0.001330 -0.003838 0.000865 0.005659 0.000752
# 2 -0.001330 0.009574 -0.002603 -0.002801 0.003215 0.001303
# 3 -0.003838 -0.002603 0.021081 -0.012633 -0.016842 0.005613
# 4 0.000865 -0.002801 -0.012633 0.036318 0.020020 -0.006986
# 5 0.005659 0.003215 -0.016842 0.020020 0.058850 -0.005329
# 6 0.000752 0.001303 0.005613 -0.006986 -0.005329 0.026411
#
#
# Mechanical properties :
#
#
# Convention : Reuss Voigt Hill
#
# Bulk Modulus (GPa) = 37.20474 51.82455 44.51465
# Shear Modulus (GPa) = 26.52455 37.11039 31.81747
#
# Velocity S-wave (km/s) = 3.23215 3.82310 3.53998
# Velocity P-wave (km/s) = 5.34624 6.31660 5.85157
#
# Compressibility (1/GPa) = 0.02687830
#
# Stress axis : x y z
#
# Youngs Moduli (GPa) = 84.98110 104.44905 47.43703
#
# Poissons Ratio (x) = 0.13893 0.18208
# Poissons Ratio (y) = 0.11304 0.12350
# Poissons Ratio (z) = 0.32618 0.27192
#
# Static dielectric constant tensor:
#      x y z
#    x 2.055460 -0.005970 0.009720 
#    y -0.005970 1.984340 -0.060640 
#    z 0.009720 -0.060640 2.087090 
# 
# From -- ./inp_files/172391.got.cif
#   From: 2010.05.17/outbox.cif.g08.bks.cpg/sg2_87_cif.got.tgz:172391.got - 2010.06.03 11:33:40.
