data_PCOD9096524
_publ_section_title
;
Structure prediction by ZEFSAII (Michael W. Deem and Ramdas Pophale) SiO2 
 PCOD9096524
Probable space group: P -1
;
_chemical_formula_sum "Si O2"
_cell_formula_units_Z 16
_cell_length_a 26.289408
_cell_length_b 5.039005
_cell_length_c 5.536310
_cell_angle_alpha 84.342962
_cell_angle_beta 131.196040
_cell_angle_gamma 90.356542
_cell_volume 547.483128
_symmetry_space_group_name_H-M "P -1"
_symmetry_group_IT_number 2
_symmetry_cell_setting 'triclinic'
loop_
_space_group_symop_operation_xyz
x,y,z
-x,-y,-z
loop_
_atom_site_type_symbol
_atom_site_label
_atom_site_fract_x
_atom_site_fract_y
_atom_site_fract_z
Si Si1 0.168943 0.919606 0.574269
Si Si2 0.573448 0.644997 0.827619
Si Si3 0.918640 0.729165 0.347145
Si Si4 0.702997 0.309758 0.133945
Si Si5 0.793529 0.642328 0.740104
Si Si6 0.664813 0.899731 0.435383
Si Si7 0.547442 0.128942 0.339890
Si Si8 0.043742 0.824280 0.958483
O O1 0.241269 0.773198 0.887944
O O2 0.129526 0.103526 0.629506
O O3 0.186500 0.117509 0.393380
O O4 0.113775 0.724354 0.316599
O O5 0.497364 0.615066 0.705273
O O6 0.560310 0.916929 0.614085
O O7 0.630842 0.476237 0.864117
O O8 0.615147 0.684457 0.203093
O O9 0.990714 0.627399 0.700405
O O10 0.938032 0.956268 0.200237
O O11 0.866291 0.533019 0.085774
O O12 0.750796 0.453683 0.460514
O O13 0.680796 0.051835 0.226258
O O14 0.737396 0.761205 0.749653
O O15 0.621221 0.108885 0.447393
O O16 0.500000 0.000000 0.000000
O O17 0.000000 0.000000 0.000000
#
# Coordination Sequence:
#
# PCOD9096524 Si02
#       8
#     2   2   2   2   2   2   2   2
#     4   9  18  34  53  78 112 144 181 229 276 327
#     4   9  19  37  57  79 109 144 181 226 279 330
#     4   9  16  31  56  79 105 147 185 221 275 326
#     4  10  20  36  56  81 115 149 184 230 278 327
#     4   9  19  34  51  78 113 146 184 229 274 323
#     4   9  19  35  55  80 111 145 183 229 276 326
#     4   9  18  37  59  78 107 143 181 228 277 327
#     4   8  15  30  56  81 104 141 185 226 272 324
#
# _framework density 29.224644999999999
#
# number of rings (size 3 to 8) (size 9 to 14) (size 15 to 20)
#    0.000    3.000    0.000    0.000    0.000    3.500 
#    0.000   26.250    0.000   25.500    0.000    0.000 
#    0.000    0.000    0.000    0.000    0.000    0.000 
#
# Total GULP energy -89468.371924 kJ/mol
# GULP energy per Si atom -5591.773245 kJ/mol
# Density = 2.915813 g / cm^3
# Si number density = 29.224645 Si / 1000 Ang^3
#
#
#
# Elastic Constant Matrix: (Units=GPa)
#
#
# Indices 1 2 3 4 5 6 
#
# 1 187.8500 21.8515 48.3731 -14.1714 34.8345 -33.2876
# 2 21.8515 74.8358 18.9233 -8.8208 -0.2020 -12.7414
# 3 48.3731 18.9233 142.2422 -0.7942 44.6879 13.8249
# 4 -14.1714 -8.8208 -0.7942 43.7343 -4.0815 -3.5424
# 5 34.8345 -0.2020 44.6879 -4.0815 57.6501 8.3287
# 6 -33.2876 -12.7414 13.8249 -3.5424 8.3287 47.7525
#
#
#
# Elastic Compliance Matrix: (Units=1/GPa)
#
#
# Indices 1 2 3 4 5 6 
#
# 1 0.008133 -0.000321 -0.002105 0.002724 -0.004118 0.007113
# 2 -0.000321 0.015451 -0.003074 0.003540 0.002207 0.004666
# 3 -0.002105 -0.003074 0.010602 -0.002068 -0.006470 -0.004382
# 4 0.002724 0.003540 -0.002068 0.024932 0.000995 0.005118
# 5 -0.004118 0.002207 -0.006470 0.000995 0.025622 -0.004803
# 6 0.007113 0.004666 -0.004382 0.005118 -0.004803 0.029631
#
#
# Mechanical properties :
#
#
# Convention : Reuss Voigt Hill
#
# Bulk Modulus (GPa) = 43.12971 64.80262 53.96616
# Shear Modulus (GPa) = 37.56575 50.87940 44.22258
#
# Velocity S-wave (km/s) = 3.58916 4.17703 3.89420
# Velocity P-wave (km/s) = 5.65386 6.74429 6.22301
#
# Compressibility (1/GPa) = 0.02318587
#
# Stress axis : x y z
#
# Youngs Moduli (GPa) = 122.96338 64.71940 94.31920
#
# Poissons Ratio (x) = 0.02079 0.19858
# Poissons Ratio (y) = 0.03950 0.28989
# Poissons Ratio (z) = 0.25888 0.19892
#
# Static dielectric constant tensor:
#      x y z
#    x 2.292610 -0.072430 0.015820 
#    y -0.072430 2.331540 0.103560 
#    z 0.015820 0.103560 2.374550 
# 
# From -- ./inp_files/10813.got.cif
#   From: 2010.05.17/outbox.cif.g08.bks.cpg/sg2_6_cif.got.tgz:10813.got - 2010.06.03 11:33:40.
