data_PCOD9096721
_publ_section_title
;
Structure prediction by ZEFSAII (Michael W. Deem and Ramdas Pophale) SiO2 
 PCOD9096721
Probable space group: P -1
;
_chemical_formula_sum "Si O2"
_cell_formula_units_Z 12
_cell_length_a 5.317757
_cell_length_b 10.331283
_cell_length_c 9.614303
_cell_angle_alpha 58.530748
_cell_angle_beta 77.951872
_cell_angle_gamma 97.681599
_cell_volume 421.539359
_symmetry_space_group_name_H-M "P -1"
_symmetry_group_IT_number 2
_symmetry_cell_setting 'triclinic'
loop_
_space_group_symop_operation_xyz
x,y,z
-x,-y,-z
loop_
_atom_site_type_symbol
_atom_site_label
_atom_site_fract_x
_atom_site_fract_y
_atom_site_fract_z
Si Si1 0.686104 0.784787 0.622832
Si Si2 0.327460 0.455697 0.710224
Si Si3 0.468909 0.972442 0.759778
Si Si4 0.762242 0.315523 0.594542
Si Si5 0.984835 0.059560 0.768087
Si Si6 0.799541 0.605098 0.950283
O O1 0.532548 0.619981 0.657103
O O2 0.489329 0.861279 0.691537
O O3 0.874879 0.903622 0.423770
O O4 0.866686 0.736832 0.749839
O O5 0.520912 0.368159 0.661969
O O6 0.124490 0.533380 0.603891
O O7 0.205941 0.349569 0.914391
O O8 0.620230 0.158424 0.607045
O O9 0.682787 0.946698 0.860734
O O10 0.193364 0.979992 0.855923
O O11 0.949862 0.233254 0.708911
O O12 0.500000 0.500000 0.000000
O O13 0.000000 0.500000 0.000000
#
# Coordination Sequence:
#
# PCOD9096721 Si02
#       6
#     2   2   2   2   2   2
#     4  11  20  37  63  85 117 151 195 238 286 336
#     4  10  20  40  58  90 115 155 190 238 286 343
#     4  10  22  36  58  89 115 147 192 238 291 332
#     4   9  21  37  60  85 122 146 191 237 293 337
#     4  10  20  36  57  88 115 147 188 238 289 336
#     4  10  23  39  57  86 117 152 191 234 282 342
#
# _framework density 28.467093999999999
#
# number of rings (size 3 to 8) (size 9 to 14) (size 15 to 20)
#    1.000    1.000    1.667    2.000    0.000    3.333 
#    6.000    0.833    0.000    1.000    0.000    0.000 
#    0.000    0.000    0.000    0.000    0.000    0.000 
#
# Total GULP energy -66970.720398 kJ/mol
# GULP energy per Si atom -5580.893366 kJ/mol
# Density = 2.840230 g / cm^3
# Si number density = 28.467094 Si / 1000 Ang^3
#
#
#
# Elastic Constant Matrix: (Units=GPa)
#
#
# Indices 1 2 3 4 5 6 
#
# 1 163.2931 44.0146 0.0984 -18.4745 14.1365 -57.3842
# 2 44.0146 220.9620 8.4645 -25.8687 2.8623 -32.5879
# 3 0.0984 8.4645 89.8612 -21.6637 31.0254 -4.4333
# 4 -18.4745 -25.8687 -21.6637 40.6100 2.3120 3.8505
# 5 14.1365 2.8623 31.0254 2.3120 34.2791 -17.9514
# 6 -57.3842 -32.5879 -4.4333 3.8505 -17.9514 54.6206
#
#
#
# Elastic Compliance Matrix: (Units=1/GPa)
#
#
# Indices 1 2 3 4 5 6 
#
# 1 0.010438 -0.000034 0.002027 0.004876 -0.000998 0.010439
# 2 -0.000034 0.005360 0.000019 0.003035 0.001075 0.003304
# 3 0.002027 0.000019 0.023689 0.015608 -0.026307 -0.005683
# 4 0.004876 0.003035 0.015608 0.038293 -0.019438 -0.000888
# 5 -0.000998 0.001075 -0.026307 -0.019438 0.065228 0.020265
# 6 0.010439 0.003304 -0.005683 -0.000888 0.020265 0.037508
#
#
# Mechanical properties :
#
#
# Convention : Reuss Voigt Hill
#
# Bulk Modulus (GPa) = 22.98227 64.36346 43.67286
# Shear Modulus (GPa) = 26.17850 54.00451 40.09151
#
# Velocity S-wave (km/s) = 3.03579 4.36028 3.75686
# Velocity P-wave (km/s) = 4.51429 6.92880 5.84752
#
# Compressibility (1/GPa) = 0.04351181
#
# Stress axis : x y z
#
# Youngs Moduli (GPa) = 95.80096 186.55963 42.21288
#
# Poissons Ratio (x) = 0.00627 -0.08556
# Poissons Ratio (y) = 0.00322 -0.00079
# Poissons Ratio (z) = -0.19417 -0.00348
#
# Static dielectric constant tensor:
#      x y z
#    x 2.499350 0.093220 0.153580 
#    y 0.093220 2.233850 0.030370 
#    z 0.153580 0.030370 2.267280 
# 
# From -- ./inp_files/363607.got.cif
#   From: 2010.05.17/outbox.cif.g08.bks.cpg/sg2_182_cif.got.tgz:363607.got - 2010.06.03 11:33:40.
