data_PCOD9096957
_publ_section_title
;
Structure prediction by ZEFSAII (Michael W. Deem and Ramdas Pophale) SiO2 
 PCOD9096957
Probable space group: P -1
;
_chemical_formula_sum "Si O2"
_cell_formula_units_Z 16
_cell_length_a 23.314147
_cell_length_b 17.347255
_cell_length_c 15.534638
_cell_angle_alpha 156.420212
_cell_angle_beta 161.212156
_cell_angle_gamma 19.019496
_cell_volume 645.481635
_symmetry_space_group_name_H-M "P -1"
_symmetry_group_IT_number 2
_symmetry_cell_setting 'triclinic'
loop_
_space_group_symop_operation_xyz
x,y,z
-x,-y,-z
loop_
_atom_site_type_symbol
_atom_site_label
_atom_site_fract_x
_atom_site_fract_y
_atom_site_fract_z
Si Si1 0.511309 0.433030 0.186383
Si Si2 0.866441 0.733659 0.938338
Si Si3 0.803703 0.060706 0.586371
Si Si4 0.924728 0.569500 0.234937
Si Si5 0.397408 0.939444 0.531362
Si Si6 0.425095 0.749232 0.717740
Si Si7 0.024623 0.773445 0.370111
Si Si8 0.039431 0.688497 0.815226
O O1 0.461859 0.679326 0.333651
O O2 0.531877 0.403064 0.289883
O O3 0.270462 0.494189 0.893876
O O4 0.763112 0.237192 0.310146
O O5 0.604794 0.934812 0.792430
O O6 0.937492 0.665284 0.871176
O O7 0.922368 0.479579 0.788223
O O8 0.012548 0.773136 0.248172
O O9 0.954757 0.780764 0.482447
O O10 0.636575 0.057382 0.411100
O O11 0.679702 0.242078 0.514977
O O12 0.921517 0.143276 0.898538
O O13 0.662001 0.693102 0.974965
O O14 0.989025 0.464789 0.314872
O O15 0.167829 0.139214 0.363804
O O16 0.222544 0.018369 0.736907
#
# Coordination Sequence:
#
# PCOD9096957 Si02
#       8
#     2   2   2   2   2   2   2   2
#     4   9  20  36  62  88 121 156 202 246 303 366
#     4  10  22  36  60  88 123 166 196 246 312 359
#     4  11  22  39  65  89 124 160 198 257 302 357
#     4  11  24  39  63  95 125 156 206 252 302 367
#     4  10  22  43  62  84 121 168 211 245 298 358
#     4  11  22  35  60  97 126 156 196 250 316 367
#     4  10  20  36  58  90 127 158 193 247 312 374
#     4  10  24  42  65  88 119 168 211 247 299 356
#
# _framework density 24.787693000000001
#
# number of rings (size 3 to 8) (size 9 to 14) (size 15 to 20)
#    0.000    1.750    1.250    3.000    8.750    3.500 
#    0.000    1.875    2.750    0.000    0.000    0.000 
#    0.000    0.000    0.000    0.000    0.000    0.000 
#
# Total GULP energy -89321.881036 kJ/mol
# GULP energy per Si atom -5582.617565 kJ/mol
# Density = 2.473128 g / cm^3
# Si number density = 24.787693 Si / 1000 Ang^3
#
#
#
# Elastic Constant Matrix: (Units=GPa)
#
#
# Indices 1 2 3 4 5 6 
#
# 1 64.5706 14.3759 42.6545 -18.1388 6.5084 -4.5395
# 2 14.3759 98.9559 46.8263 -32.7683 -0.2309 5.7818
# 3 42.6545 46.8263 126.7233 -19.3378 -0.0065 -1.4651
# 4 -18.1388 -32.7683 -19.3378 46.2373 -5.4057 1.6208
# 5 6.5084 -0.2309 -0.0065 -5.4057 18.9749 0.7305
# 6 -4.5395 5.7818 -1.4651 1.6208 0.7305 52.8719
#
#
#
# Elastic Compliance Matrix: (Units=1/GPa)
#
#
# Indices 1 2 3 4 5 6 
#
# 1 0.022376 0.002340 -0.007370 0.006627 -0.005812 0.001338
# 2 0.002340 0.015670 -0.005034 0.010267 0.002388 -0.002000
# 3 -0.007370 -0.005034 0.012055 -0.001177 0.002125 0.000259
# 4 0.006627 0.010267 -0.001177 0.031888 0.007000 -0.001661
# 5 -0.005812 0.002388 0.002125 0.007000 0.056784 -0.001700
# 6 0.001338 -0.002000 0.000259 -0.001661 -0.001700 0.019329
#
#
# Mechanical properties :
#
#
# Convention : Reuss Voigt Hill
#
# Bulk Modulus (GPa) = 33.36331 55.32926 44.34628
# Shear Modulus (GPa) = 26.56440 36.04303 31.30372
#
# Velocity S-wave (km/s) = 3.27720 3.81736 3.55755
# Velocity P-wave (km/s) = 5.27341 6.46525 5.89950
#
# Compressibility (1/GPa) = 0.02997305
#
# Stress axis : x y z
#
# Youngs Moduli (GPa) = 44.69066 63.81602 82.95035
#
# Poissons Ratio (x) = -0.14930 0.61132
# Poissons Ratio (y) = -0.10455 0.41758
# Poissons Ratio (z) = 0.32936 0.32125
#
# Static dielectric constant tensor:
#      x y z
#    x 2.028480 -0.051510 0.020790 
#    y -0.051510 2.053080 0.077770 
#    z 0.020790 0.077770 1.988600 
# 
# From -- ./inp_files/274596.got.cif
#   From: 2010.05.17/outbox.cif.g08.bks.cpg/sg2_138_cif.got.tgz:274596.got - 2010.06.03 11:33:40.
