data_PCOD9096634
_publ_section_title
;
Structure prediction by ZEFSAII (Michael W. Deem and Ramdas Pophale) SiO2 
 PCOD9096634
Probable space group: P -1
;
_chemical_formula_sum "Si O2"
_cell_formula_units_Z 16
_cell_length_a 14.862510
_cell_length_b 13.806667
_cell_length_c 9.355831
_cell_angle_alpha 66.993366
_cell_angle_beta 143.786931
_cell_angle_gamma 129.924930
_cell_volume 834.960960
_symmetry_space_group_name_H-M "P -1"
_symmetry_group_IT_number 2
_symmetry_cell_setting 'triclinic'
loop_
_space_group_symop_operation_xyz
x,y,z
-x,-y,-z
loop_
_atom_site_type_symbol
_atom_site_label
_atom_site_fract_x
_atom_site_fract_y
_atom_site_fract_z
Si Si1 0.299789 0.693356 0.959393
Si Si2 0.790593 0.024561 0.111067
Si Si3 0.908782 0.198197 0.420401
Si Si4 0.564011 0.970465 0.301915
Si Si5 0.399088 0.259726 0.868577
Si Si6 0.191076 0.044067 0.139314
Si Si7 0.299140 0.306617 0.003571
Si Si8 0.447430 0.543531 0.269802
O O1 0.115220 0.687786 0.705540
O O2 0.399854 0.713628 0.922993
O O3 0.445877 0.825693 0.162190
O O4 0.295986 0.574695 0.087869
O O5 0.591539 0.007124 0.865647
O O6 0.750586 0.894541 0.206380
O O7 0.853592 0.030304 0.026505
O O8 0.923710 0.145313 0.318443
O O9 0.082543 0.240422 0.718495
O O10 0.713775 0.077898 0.316024
O O11 0.683399 0.976785 0.584930
O O12 0.406571 0.333176 0.976450
O O13 0.380534 0.321159 0.665493
O O14 0.303403 0.197735 0.155313
O O15 0.000000 0.000000 0.000000
O O16 0.372563 0.431373 0.121285
O O17 0.500000 0.500000 0.500000
#
# Coordination Sequence:
#
# PCOD9096634 Si02
#       8
#     2   2   2   2   2   2   2   2
#     4   9  19  34  60  77 102 145 186 217 262 320
#     4  10  20  36  57  81 110 151 181 219 268 326
#     4  11  19  35  56  84 112 139 183 224 273 321
#     4  11  17  36  56  81 112 146 182 221 265 332
#     4   9  19  36  56  83 102 144 189 216 262 330
#     4  11  23  34  50  85 118 143 177 225 278 318
#     4  11  23  34  55  83 111 142 181 227 272 313
#     4  10  20  39  59  78 104 143 186 224 271 321
#
# _framework density 19.162572000000001
#
# number of rings (size 3 to 8) (size 9 to 14) (size 15 to 20)
#    0.750    1.000    3.750    2.250    0.000    3.500 
#    0.000    0.000    0.000    0.750    0.000    0.000 
#    0.000    0.000    0.000    0.000    0.000    0.000 
#
# Total GULP energy -89204.087982 kJ/mol
# GULP energy per Si atom -5575.255499 kJ/mol
# Density = 1.911896 g / cm^3
# Si number density = 19.162572 Si / 1000 Ang^3
#
#
#
# Elastic Constant Matrix: (Units=GPa)
#
#
# Indices 1 2 3 4 5 6 
#
# 1 119.2255 38.1902 28.2990 -6.8476 -7.2156 -12.4625
# 2 38.1902 72.7976 27.3981 -31.5967 -9.8156 -17.6897
# 3 28.2990 27.3981 60.0905 -24.5617 -0.5398 -0.2475
# 4 -6.8476 -31.5967 -24.5617 32.8195 2.0666 -2.3830
# 5 -7.2156 -9.8156 -0.5398 2.0666 20.3212 -6.2231
# 6 -12.4625 -17.6897 -0.2475 -2.3830 -6.2231 31.8231
#
#
#
# Elastic Compliance Matrix: (Units=1/GPa)
#
#
# Indices 1 2 3 4 5 6 
#
# 1 0.011911 -0.008597 -0.005901 -0.010311 0.000727 -0.000790
# 2 -0.008597 0.050811 0.001203 0.048784 0.026913 0.033803
# 3 -0.005901 0.001203 0.027195 0.020434 -0.003020 -0.000491
# 4 -0.010311 0.048784 0.020434 0.091709 0.021634 0.034337
# 5 0.000727 0.026913 -0.003020 0.021634 0.069507 0.030434
# 6 -0.000790 0.033803 -0.000491 0.034337 0.030434 0.058423
#
#
# Mechanical properties :
#
#
# Convention : Reuss Voigt Hill
#
# Bulk Modulus (GPa) = 15.79101 48.87646 32.33373
# Shear Modulus (GPa) = 13.99560 27.54119 20.76839
#
# Velocity S-wave (km/s) = 2.70545 3.79521 3.29568
# Velocity P-wave (km/s) = 4.24473 6.69077 5.60286
#
# Compressibility (1/GPa) = 0.06332717
#
# Stress axis : x y z
#
# Youngs Moduli (GPa) = 83.95554 19.68073 36.77127
#
# Poissons Ratio (x) = 0.16920 0.21698
# Poissons Ratio (y) = 0.72178 -0.04423
# Poissons Ratio (z) = 0.49540 -0.02367
#
# Static dielectric constant tensor:
#      x y z
#    x 1.682870 -0.002170 0.018290 
#    y -0.002170 1.692480 -0.008830 
#    z 0.018290 -0.008830 1.664690 
# 
# From -- ./inp_files/200328.got.cif
#   From: 2010.05.17/outbox.cif.g08.bks.cpg/sg2_101_cif.got.tgz:200328.got - 2010.06.03 11:33:40.
