data_PCOD9096605
_publ_section_title
;
Structure prediction by ZEFSAII (Michael W. Deem and Ramdas Pophale) SiO2 
 PCOD9096605
Probable space group: P -1
;
_chemical_formula_sum "Si O2"
_cell_formula_units_Z 13
_cell_length_a 6.891659
_cell_length_b 9.610096
_cell_length_c 11.938905
_cell_angle_alpha 107.687270
_cell_angle_beta 74.215214
_cell_angle_gamma 132.416170
_cell_volume 553.621269
_symmetry_space_group_name_H-M "P -1"
_symmetry_group_IT_number 2
_symmetry_cell_setting 'triclinic'
loop_
_space_group_symop_operation_xyz
x,y,z
-x,-y,-z
loop_
_atom_site_type_symbol
_atom_site_label
_atom_site_fract_x
_atom_site_fract_y
_atom_site_fract_z
Si Si1 0.294386 0.699633 0.011213
Si Si2 0.522544 0.609673 0.358497
Si Si3 0.695781 0.829909 0.167949
Si Si4 0.708646 0.103297 0.392845
Si Si5 0.000000 0.500000 0.500000
Si Si6 0.273118 0.026659 0.159851
Si Si7 0.744756 0.786655 0.592320
O O1 0.491489 0.713816 0.071549
O O2 0.269699 0.854159 0.095918
O O3 0.461420 0.785730 0.891312
O O4 0.000000 0.500000 0.000000
O O5 0.642787 0.684018 0.236162
O O6 0.243730 0.562774 0.395875
O O7 0.705786 0.770675 0.462468
O O8 0.469589 0.422876 0.368012
O O9 0.645259 0.963919 0.268143
O O10 0.008531 0.968547 0.128856
O O11 0.784876 0.306285 0.407743
O O12 0.983429 0.172206 0.418392
O O13 0.500000 0.000000 0.500000
O O14 0.254494 0.065020 0.301570
#
# Coordination Sequence:
#
# PCOD9096605 Si02
#       7
#     2   2   2   2   1   2   2
#     4  11  27  49  71 100 129 180 239 291 345 398
#     4  10  21  39  66 103 134 180 213 267 337 411
#     4  11  24  43  72 100 137 181 227 285 343 403
#     4  10  20  38  59  96 133 173 216 259 330 401
#     4  10  20  36  56  92 140 170 212 258 316 406
#     4  10  25  49  69 100 135 179 226 292 340 402
#     4   9  22  41  65  97 141 175 218 267 334 412
#
# _framework density 23.481755
#
# number of rings (size 3 to 8) (size 9 to 14) (size 15 to 20)
#    0.000    1.846    1.538    0.462    4.308    5.538 
#   13.846    0.000    0.000    0.000    0.000    0.000 
#    0.000    0.000    0.000    0.000    0.000    0.000 
#
# Total GULP energy -72417.609780 kJ/mol
# GULP energy per Si atom -5570.585368 kJ/mol
# Density = 2.342831 g / cm^3
# Si number density = 23.481755 Si / 1000 Ang^3
#
#
#
# Elastic Constant Matrix: (Units=GPa)
#
#
# Indices 1 2 3 4 5 6 
#
# 1 65.8918 29.4132 33.7702 -1.8753 2.5661 21.4624
# 2 29.4132 121.4299 24.6578 -17.8236 9.4896 17.4055
# 3 33.7702 24.6578 77.9342 -15.4438 -5.0790 12.2920
# 4 -1.8753 -17.8236 -15.4438 24.8356 10.2500 -3.6308
# 5 2.5661 9.4896 -5.0790 10.2500 35.0239 1.0641
# 6 21.4624 17.4055 12.2920 -3.6308 1.0641 41.9962
#
#
#
# Elastic Compliance Matrix: (Units=1/GPa)
#
#
# Indices 1 2 3 4 5 6 
#
# 1 0.024495 -0.004037 -0.009608 -0.008591 0.000687 -0.008794
# 2 -0.004037 0.011342 0.000021 0.009932 -0.005631 -0.001643
# 3 -0.009608 0.000021 0.019175 0.011165 0.000204 0.000249
# 4 -0.008591 0.009932 0.011165 0.061779 -0.018608 0.002819
# 5 0.000687 -0.005631 0.000204 -0.018608 0.035520 -0.000586
# 6 -0.008794 -0.001643 0.000249 0.002819 -0.000586 0.029172
#
#
# Mechanical properties :
#
#
# Convention : Reuss Voigt Hill
#
# Bulk Modulus (GPa) = 36.01697 48.99314 42.50506
# Shear Modulus (GPa) = 22.93736 32.19880 27.56808
#
# Velocity S-wave (km/s) = 3.12880 3.70702 3.43012
# Velocity P-wave (km/s) = 5.33142 6.26357 5.81620
#
# Compressibility (1/GPa) = 0.02776469
#
# Stress axis : x y z
#
# Youngs Moduli (GPa) = 40.82401 88.16760 52.15259
#
# Poissons Ratio (x) = 0.35590 0.50107
# Poissons Ratio (y) = 0.16479 -0.00109
# Poissons Ratio (z) = 0.39223 -0.00184
#
# Static dielectric constant tensor:
#      x y z
#    x 1.988490 -0.052400 -0.032630 
#    y -0.052400 1.981850 0.034580 
#    z -0.032630 0.034580 1.841820 
# 
# From -- ./inp_files/394924.got.cif
#   From: 2010.05.17/outbox.cif.g08.bks.cpg/sg2_198_cif.got.tgz:394924.got - 2010.06.03 11:33:40.
