data_PCOD9096228
_publ_section_title
;
Structure prediction by ZEFSAII (Michael W. Deem and Ramdas Pophale) SiO2 
 PCOD9096228
Probable space group: P -1
;
_chemical_formula_sum "Si O2"
_cell_formula_units_Z 16
_cell_length_a 16.334402
_cell_length_b 11.906402
_cell_length_c 8.022598
_cell_angle_alpha 128.262323
_cell_angle_beta 142.193491
_cell_angle_gamma 62.350374
_cell_volume 749.949361
_symmetry_space_group_name_H-M "P -1"
_symmetry_group_IT_number 2
_symmetry_cell_setting 'triclinic'
loop_
_space_group_symop_operation_xyz
x,y,z
-x,-y,-z
loop_
_atom_site_type_symbol
_atom_site_label
_atom_site_fract_x
_atom_site_fract_y
_atom_site_fract_z
Si Si1 0.748717 0.344340 0.879191
Si Si2 0.062516 0.937218 0.374011
Si Si3 0.652777 0.055875 0.322742
Si Si4 0.304232 0.407402 0.221328
Si Si5 0.993298 0.207158 0.323113
Si Si6 0.441615 0.478214 0.065384
Si Si7 0.957398 0.659553 0.107193
Si Si8 0.284005 0.220637 0.704346
O O1 0.656088 0.219693 0.531986
O O2 0.768174 0.472398 0.894201
O O3 0.675021 0.417838 0.980592
O O4 0.873298 0.262925 0.074497
O O5 0.224574 0.952587 0.623478
O O6 0.017167 0.770400 0.167256
O O7 0.000000 0.000000 0.500000
O O8 0.001677 0.038372 0.227475
O O9 0.699591 0.946788 0.439336
O O10 0.500000 0.000000 0.000000
O O11 0.439920 0.481761 0.576947
O O12 0.203876 0.349546 0.149884
O O13 0.326118 0.276824 0.010389
O O14 0.998115 0.283997 0.584036
O O15 0.128564 0.249795 0.479521
O O16 0.500000 0.500000 0.000000
O O17 0.378542 0.318189 0.831359
O O18 0.000000 0.500000 0.000000
#
# Coordination Sequence:
#
# PCOD9096228 Si02
#       8
#     2   2   2   2   2   2   2   2
#     4  11  23  41  66  94 125 167 219 268 306 399
#     4   9  20  40  62  94 135 167 203 274 327 370
#     4  11  21  39  68  92 120 173 222 252 312 391
#     4  10  21  40  62  89 124 169 209 252 331 384
#     4   9  21  40  62  90 126 168 215 256 324 379
#     4  11  24  42  61  91 131 170 207 270 330 375
#     4  10  20  35  63  95 126 164 208 267 314 374
#     4   9  20  40  64  86 125 169 208 260 314 388
#
# _framework density 21.334772999999998
#
# number of rings (size 3 to 8) (size 9 to 14) (size 15 to 20)
#    0.000    2.000    0.000    4.500    1.750    6.500 
#    6.750    0.625    0.000    0.000    0.000    0.000 
#    0.000    0.000    0.000    0.000    0.000    0.000 
#
# Total GULP energy -89271.571276 kJ/mol
# GULP energy per Si atom -5579.473205 kJ/mol
# Density = 2.128621 g / cm^3
# Si number density = 21.334773 Si / 1000 Ang^3
#
#
#
# Elastic Constant Matrix: (Units=GPa)
#
#
# Indices 1 2 3 4 5 6 
#
# 1 110.5686 26.7386 20.1514 6.7746 29.7638 17.9783
# 2 26.7386 112.1645 40.0306 15.2536 19.6881 4.9667
# 3 20.1514 40.0306 75.5699 -4.2184 26.2568 15.6323
# 4 6.7746 15.2536 -4.2184 46.4344 -2.0511 7.1256
# 5 29.7638 19.6881 26.2568 -2.0511 39.1127 10.0959
# 6 17.9783 4.9667 15.6323 7.1256 10.0959 26.5424
#
#
#
# Elastic Compliance Matrix: (Units=1/GPa)
#
#
# Indices 1 2 3 4 5 6 
#
# 1 0.012331 -0.001764 0.001630 -0.000550 -0.008137 -0.005739
# 2 -0.001764 0.012656 -0.006895 -0.005397 -0.001998 0.005096
# 3 0.001630 -0.006895 0.022334 0.005265 -0.009730 -0.010680
# 4 -0.000550 -0.005397 0.005265 0.025542 0.003497 -0.009906
# 5 -0.008137 -0.001998 -0.009730 0.003497 0.040723 -0.004812
# 6 -0.005739 0.005096 -0.010680 -0.009906 -0.004812 0.051389
#
#
# Mechanical properties :
#
#
# Convention : Reuss Voigt Hill
#
# Bulk Modulus (GPa) = 30.06271 52.46047 41.26159
# Shear Modulus (GPa) = 26.29919 36.51006 31.40462
#
# Velocity S-wave (km/s) = 3.51478 4.14127 3.84082
# Velocity P-wave (km/s) = 5.53110 6.89270 6.24910
#
# Compressibility (1/GPa) = 0.03326380
#
# Stress axis : x y z
#
# Youngs Moduli (GPa) = 81.09583 79.01638 44.77408
#
# Poissons Ratio (x) = 0.13939 -0.07299
# Poissons Ratio (y) = 0.14306 0.30870
# Poissons Ratio (z) = -0.13220 0.54480
#
# Static dielectric constant tensor:
#      x y z
#    x 1.783440 -0.014140 -0.003340 
#    y -0.014140 1.779780 0.007840 
#    z -0.003340 0.007840 1.827290 
# 
# From -- ./inp_files/256247.got.cif
#   From: 2010.05.17/outbox.cif.g08.bks.cpg/sg2_129_cif.got.tgz:256247.got - 2010.06.03 11:33:40.
