data_PCOD9096332
_publ_section_title
;
Structure prediction by ZEFSAII (Michael W. Deem and Ramdas Pophale) SiO2 
 PCOD9096332
Probable space group: P -1
;
_chemical_formula_sum "Si O2"
_cell_formula_units_Z 14
_cell_length_a 7.493338
_cell_length_b 9.242120
_cell_length_c 11.737891
_cell_angle_alpha 117.216379
_cell_angle_beta 123.063477
_cell_angle_gamma 73.692340
_cell_volume 605.304693
_symmetry_space_group_name_H-M "P -1"
_symmetry_group_IT_number 2
_symmetry_cell_setting 'triclinic'
loop_
_space_group_symop_operation_xyz
x,y,z
-x,-y,-z
loop_
_atom_site_type_symbol
_atom_site_label
_atom_site_fract_x
_atom_site_fract_y
_atom_site_fract_z
Si Si1 0.206358 0.609835 0.107846
Si Si2 0.221256 0.266112 0.352359
Si Si3 0.127254 0.536748 0.818781
Si Si4 0.412890 0.930105 0.326092
Si Si5 0.607353 0.471599 0.325003
Si Si6 0.837582 0.823623 0.307364
Si Si7 0.861874 0.164103 0.369330
O O1 0.234425 0.795423 0.228723
O O2 0.382750 0.504577 0.200322
O O3 0.251984 0.627076 0.993461
O O4 0.000000 0.500000 0.000000
O O5 0.358052 0.390700 0.518082
O O6 0.097365 0.368380 0.248332
O O7 0.041503 0.212263 0.360275
O O8 0.334222 0.095284 0.293973
O O9 0.230598 0.518348 0.722483
O O10 0.126994 0.352474 0.795649
O O11 0.617468 0.840704 0.307278
O O12 0.500000 0.000000 0.500000
O O13 0.668160 0.295981 0.337101
O O14 0.034557 0.830763 0.467178
O O15 0.818819 0.975554 0.271002
#
# Coordination Sequence:
#
# PCOD9096332 Si02
#       7
#     2   2   2   2   2   2   2
#     4  12  28  42  67  99 141 175 221 277 343 388
#     4  11  21  42  71  99 133 176 223 273 331 398
#     4  11  22  43  68  96 132 178 219 274 334 400
#     4  12  23  43  67  97 135 177 219 273 333 393
#     4  11  20  45  67  98 133 181 225 263 337 403
#     4  11  21  37  68 101 130 168 225 272 334 382
#     4  10  20  35  67 104 125 164 231 278 307 394
#
# _framework density 23.128847
#
# number of rings (size 3 to 8) (size 9 to 14) (size 15 to 20)
#    0.000    0.857    7.143    1.286    2.000    1.714 
#    0.000    2.143    0.000    0.000    0.000    0.000 
#    0.000    0.000    0.000    0.000    0.000    0.000 
#
# Total GULP energy -78216.725367 kJ/mol
# GULP energy per Si atom -5586.908955 kJ/mol
# Density = 2.307620 g / cm^3
# Si number density = 23.128847 Si / 1000 Ang^3
#
#
#
# Elastic Constant Matrix: (Units=GPa)
#
#
# Indices 1 2 3 4 5 6 
#
# 1 33.2647 46.6857 27.5063 -3.9044 5.7872 -5.5625
# 2 46.6857 212.5592 72.5890 1.3155 15.8381 -38.1787
# 3 27.5063 72.5890 117.1485 3.0789 10.6259 -14.0442
# 4 -3.9044 1.3155 3.0789 33.6346 -8.1219 8.3150
# 5 5.7872 15.8381 10.6259 -8.1219 32.0221 -5.9426
# 6 -5.5625 -38.1787 -14.0442 8.3150 -5.9426 38.6391
#
#
#
# Elastic Compliance Matrix: (Units=1/GPa)
#
#
# Indices 1 2 3 4 5 6 
#
# 1 0.049095 -0.009798 -0.006388 0.008088 -0.001127 -0.006849
# 2 -0.009798 0.009043 -0.002210 -0.003438 -0.001499 0.007231
# 3 -0.006388 -0.002210 0.011833 -0.002594 -0.002070 0.001438
# 4 0.008088 -0.003438 -0.002594 0.035402 0.008313 -0.009516
# 5 -0.001127 -0.001499 -0.002070 0.008313 0.035197 0.001229
# 6 -0.006849 0.007231 0.001438 -0.009516 0.001229 0.034799
#
#
# Mechanical properties :
#
#
# Convention : Reuss Voigt Hill
#
# Bulk Modulus (GPa) = 30.13788 72.94826 51.54307
# Shear Modulus (GPa) = 22.39954 35.27193 28.83573
#
# Velocity S-wave (km/s) = 3.11540 3.90939 3.53476
# Velocity P-wave (km/s) = 5.09898 7.21014 6.24443
#
# Compressibility (1/GPa) = 0.03318084
#
# Stress axis : x y z
#
# Youngs Moduli (GPa) = 20.36873 110.58510 84.50601
#
# Poissons Ratio (x) = 1.08350 0.53981
# Poissons Ratio (y) = 0.19957 0.18672
# Poissons Ratio (z) = 0.13011 0.24434
#
# Static dielectric constant tensor:
#      x y z
#    x 1.986920 0.049440 -0.009830 
#    y 0.049440 1.916240 0.026530 
#    z -0.009830 0.026530 1.852880 
# 
# From -- ./inp_files/205354.got.cif
#   From: 2010.05.17/outbox.cif.g08.bks.cpg/sg2_103_cif.got.tgz:205354.got - 2010.06.03 11:33:40.
