data_PCOD9096594
_publ_section_title
;
Structure prediction by ZEFSAII (Michael W. Deem and Ramdas Pophale) SiO2 
 PCOD9096594
Probable space group: P -1
;
_chemical_formula_sum "Si O2"
_cell_formula_units_Z 14
_cell_length_a 14.213264
_cell_length_b 9.547453
_cell_length_c 7.861446
_cell_angle_alpha 131.075278
_cell_angle_beta 86.978910
_cell_angle_gamma 61.091243
_cell_volume 582.688805
_symmetry_space_group_name_H-M "P -1"
_symmetry_group_IT_number 2
_symmetry_cell_setting 'triclinic'
loop_
_space_group_symop_operation_xyz
x,y,z
-x,-y,-z
loop_
_atom_site_type_symbol
_atom_site_label
_atom_site_fract_x
_atom_site_fract_y
_atom_site_fract_z
Si Si1 0.437415 0.403772 0.135645
Si Si2 0.498994 0.928962 0.639741
Si Si3 0.998219 0.703839 0.844926
Si Si4 0.729381 0.058066 0.307661
Si Si5 0.963468 0.969507 0.731278
Si Si6 0.080786 0.266294 0.676255
Si Si7 0.658855 0.400560 0.087649
O O1 0.331405 0.652137 0.462080
O O2 0.565295 0.356595 0.106676
O O3 0.380189 0.501175 0.026212
O O4 0.478912 0.133432 0.925246
O O5 0.381657 0.944957 0.695127
O O6 0.625022 0.625615 0.386621
O O7 0.500000 0.000000 0.500000
O O8 0.086449 0.404038 0.628798
O O9 0.025826 0.772985 0.724203
O O10 0.012410 0.847525 0.099082
O O11 0.845716 0.863012 0.009689
O O12 0.789357 0.954878 0.410389
O O13 0.999430 0.805379 0.430472
O O14 0.808522 0.151813 0.893260
O O15 0.000000 0.500000 0.000000
#
# Coordination Sequence:
#
# PCOD9096594 Si02
#       7
#     2   2   2   2   2   2   2
#     4   9  17  33  55  86 115 141 184 248 291 338
#     4   9  19  31  56  87 116 144 184 240 299 343
#     4  10  25  39  57  84 121 162 199 232 289 352
#     4  10  20  36  56  89 116 146 194 246 287 336
#     4  11  22  41  60  82 120 164 193 235 293 356
#     4  10  22  37  60  88 115 150 200 247 288 336
#     4   9  18  32  56  85 111 145 194 235 290 344
#
# _framework density 24.026547999999998
#
# number of rings (size 3 to 8) (size 9 to 14) (size 15 to 20)
#    0.000    2.286    1.429    1.286    4.000    4.571 
#    0.000    2.857    0.000    1.714    0.000    0.000 
#    0.000    0.000    0.000    0.000    0.000    0.000 
#
# Total GULP energy -78173.223011 kJ/mol
# GULP energy per Si atom -5583.801644 kJ/mol
# Density = 2.397186 g / cm^3
# Si number density = 24.026548 Si / 1000 Ang^3
#
#
#
# Elastic Constant Matrix: (Units=GPa)
#
#
# Indices 1 2 3 4 5 6 
#
# 1 31.4989 10.1919 11.8135 5.7862 15.6929 10.7774
# 2 10.1919 53.3600 19.5087 1.0755 6.0431 15.5428
# 3 11.8135 19.5087 106.3274 24.9173 32.7894 11.2383
# 4 5.7862 1.0755 24.9173 22.6041 7.4828 2.2826
# 5 15.6929 6.0431 32.7894 7.4828 42.8035 12.2439
# 6 10.7774 15.5428 11.2383 2.2826 12.2439 20.5637
#
#
#
# Elastic Compliance Matrix: (Units=1/GPa)
#
#
# Indices 1 2 3 4 5 6 
#
# 1 0.044526 -0.004230 0.003397 -0.009330 -0.012900 -0.013279
# 2 -0.004230 0.026390 -0.005810 0.005943 0.006736 -0.019225
# 3 0.003397 -0.005810 0.017104 -0.015900 -0.011240 0.001721
# 4 -0.009330 0.005943 -0.015900 0.062611 0.003863 -0.000162
# 5 -0.012900 0.006736 -0.011240 0.003863 0.039731 -0.016273
# 6 -0.013279 -0.019225 0.001721 -0.000162 -0.016273 0.078886
#
#
# Mechanical properties :
#
#
# Convention : Reuss Voigt Hill
#
# Bulk Modulus (GPa) = 13.38069 30.46828 21.92449
# Shear Modulus (GPa) = 16.26312 27.17239 21.71775
#
# Velocity S-wave (km/s) = 2.60452 3.36658 3.00977
# Velocity P-wave (km/s) = 3.82438 5.27451 4.60686
#
# Compressibility (1/GPa) = 0.07473454
#
# Stress axis : x y z
#
# Youngs Moduli (GPa) = 22.45893 37.89333 58.46558
#
# Poissons Ratio (x) = 0.16027 -0.19861
# Poissons Ratio (y) = 0.09499 0.33969
# Poissons Ratio (z) = -0.07629 0.22016
#
# Static dielectric constant tensor:
#      x y z
#    x 1.869370 0.023940 0.014550 
#    y 0.023940 2.001080 -0.038650 
#    z 0.014550 -0.038650 2.012700 
# 
# From -- ./inp_files/304371.got.cif
#   From: 2010.05.17/outbox.cif.g08.bks.cpg/sg2_153_cif.got.tgz:304371.got - 2010.06.03 11:33:40.
