data_PCOD9096371
_publ_section_title
;
Structure prediction by ZEFSAII (Michael W. Deem and Ramdas Pophale) SiO2 
 PCOD9096371
Probable space group: P -1
;
_chemical_formula_sum "Si O2"
_cell_formula_units_Z 16
_cell_length_a 13.874182
_cell_length_b 6.303773
_cell_length_c 17.383566
_cell_angle_alpha 61.123485
_cell_angle_beta 139.497681
_cell_angle_gamma 96.290139
_cell_volume 770.851581
_symmetry_space_group_name_H-M "P -1"
_symmetry_group_IT_number 2
_symmetry_cell_setting 'triclinic'
loop_
_space_group_symop_operation_xyz
x,y,z
-x,-y,-z
loop_
_atom_site_type_symbol
_atom_site_label
_atom_site_fract_x
_atom_site_fract_y
_atom_site_fract_z
Si Si1 0.433524 0.479097 0.263818
Si Si2 0.369823 0.427981 0.888797
Si Si3 0.189989 0.393682 0.040446
Si Si4 0.900802 0.925947 0.841906
Si Si5 0.329715 0.492228 0.371046
Si Si6 0.127075 0.731333 0.805728
Si Si7 0.752920 0.980130 0.580617
Si Si8 0.609061 0.149010 0.956958
O O1 0.372899 0.326411 0.191110
O O2 0.341873 0.496502 0.285254
O O3 0.393215 0.760528 0.148064
O O4 0.624818 0.286179 0.431227
O O5 0.193636 0.655909 0.772809
O O6 0.436981 0.373613 0.852183
O O7 0.500000 0.500000 0.000000
O O8 0.385309 0.140539 0.977082
O O9 0.137889 0.181235 0.083407
O O10 0.163480 0.456689 0.923915
O O11 0.075786 0.688372 0.960952
O O12 0.781577 0.934120 0.697856
O O13 0.843544 0.244209 0.759556
O O14 0.500000 0.500000 0.500000
O O15 0.320018 0.230647 0.445720
O O16 0.930872 0.909179 0.664127
O O17 0.239143 0.843046 0.902465
#
# Coordination Sequence:
#
# PCOD9096371 Si02
#       8
#     2   2   2   2   2   2   2   2
#     4  11  21  37  55  81 114 154 193 235 273 326
#     4   9  18  39  64  88 112 138 177 231 300 345
#     4   9  19  35  53  78 113 139 189 247 268 319
#     4  10  20  36  51  76 109 150 192 235 281 315
#     4  12  23  35  56  78 115 168 197 224 275 334
#     4   9  20  35  60  85 110 150 182 233 285 338
#     4  11  22  39  53  79 123 155 191 234 276 323
#     4   9  20  38  63  88 111 139 183 239 283 342
#
# _framework density 20.756264999999999
#
# number of rings (size 3 to 8) (size 9 to 14) (size 15 to 20)
#    0.000    2.000    2.500    1.125    1.750    3.500 
#    2.250    0.625    0.000    6.750    0.000    0.000 
#    0.000    0.000    0.000    0.000    0.000    0.000 
#
# Total GULP energy -89161.005279 kJ/mol
# GULP energy per Si atom -5572.562830 kJ/mol
# Density = 2.070902 g / cm^3
# Si number density = 20.756265 Si / 1000 Ang^3
#
#
#
# Elastic Constant Matrix: (Units=GPa)
#
#
# Indices 1 2 3 4 5 6 
#
# 1 64.7340 13.3934 1.1832 -1.5224 13.4109 4.7120
# 2 13.3934 56.6865 11.7184 -9.2624 9.4399 16.3233
# 3 1.1832 11.7184 66.9672 1.2592 12.6920 4.4588
# 4 -1.5224 -9.2624 1.2592 20.8023 -0.2237 0.0943
# 5 13.4109 9.4399 12.6920 -0.2237 22.2553 -5.1783
# 6 4.7120 16.3233 4.4588 0.0943 -5.1783 31.2780
#
#
#
# Elastic Compliance Matrix: (Units=1/GPa)
#
#
# Indices 1 2 3 4 5 6 
#
# 1 0.018817 -0.001321 0.002757 0.000499 -0.013455 -0.004768
# 2 -0.001321 0.027035 -0.001302 0.011947 -0.013532 -0.016001
# 3 0.002757 -0.001302 0.017747 -0.001564 -0.012243 -0.004288
# 4 0.000499 0.011947 -0.001564 0.053494 -0.005608 -0.007177
# 5 -0.013455 -0.013532 -0.012243 -0.005608 0.070965 0.022600
# 6 -0.004768 -0.016001 -0.004288 -0.007177 0.022600 0.045415
#
#
# Mechanical properties :
#
#
# Convention : Reuss Voigt Hill
#
# Bulk Modulus (GPa) = 15.65742 26.77530 21.21636
# Shear Modulus (GPa) = 19.64676 25.67331 22.66004
#
# Velocity S-wave (km/s) = 3.07994 3.52077 3.30770
# Velocity P-wave (km/s) = 4.49531 5.42730 4.98314
#
# Compressibility (1/GPa) = 0.06386748
#
# Stress axis : x y z
#
# Youngs Moduli (GPa) = 53.14350 36.98889 56.34688
#
# Poissons Ratio (x) = 0.04885 -0.15534
# Poissons Ratio (y) = 0.07019 0.07337
# Poissons Ratio (z) = -0.14651 0.04816
#
# Static dielectric constant tensor:
#      x y z
#    x 1.785460 -0.030900 0.028290 
#    y -0.030900 1.809120 0.016020 
#    z 0.028290 0.016020 1.732650 
# 
# From -- ./inp_files/81444.got.cif
#   From: 2010.05.17/outbox.cif.g08.bks.cpg/sg2_41_cif.got.tgz:81444.got - 2010.06.03 11:33:40.
