data_PCOD9096789
_publ_section_title
;
Structure prediction by ZEFSAII (Michael W. Deem and Ramdas Pophale) SiO2 
 PCOD9096789
Probable space group: P -1
;
_chemical_formula_sum "Si O2"
_cell_formula_units_Z 16
_cell_length_a 9.641946
_cell_length_b 9.030322
_cell_length_c 16.372454
_cell_angle_alpha 55.762802
_cell_angle_beta 147.597480
_cell_angle_gamma 110.292561
_cell_volume 604.502267
_symmetry_space_group_name_H-M "P -1"
_symmetry_group_IT_number 2
_symmetry_cell_setting 'triclinic'
loop_
_space_group_symop_operation_xyz
x,y,z
-x,-y,-z
loop_
_atom_site_type_symbol
_atom_site_label
_atom_site_fract_x
_atom_site_fract_y
_atom_site_fract_z
Si Si1 0.993551 0.068235 0.619304
Si Si2 0.328931 0.220666 0.841516
Si Si3 0.306128 0.626703 0.931454
Si Si4 0.589921 0.973797 0.341971
Si Si5 0.124811 0.133999 0.932651
Si Si6 0.791336 0.977213 0.712931
Si Si7 0.845987 0.569961 0.819185
Si Si8 0.447465 0.637179 0.354474
O O1 0.801373 0.082665 0.441180
O O2 0.834076 0.086377 0.620297
O O3 0.171970 0.846931 0.772267
O O4 0.163827 0.213074 0.679211
O O5 0.165194 0.252845 0.836841
O O6 0.522017 0.351639 0.909018
O O7 0.500000 0.000000 0.000000
O O8 0.066894 0.540043 0.865234
O O9 0.500000 0.500000 0.000000
O O10 0.658855 0.757427 0.414952
O O11 0.446853 0.951469 0.363552
O O12 0.378765 0.082877 0.135032
O O13 0.854109 0.223411 0.821491
O O14 0.057891 0.959203 0.907029
O O15 0.756604 0.789399 0.718734
O O16 0.603327 0.484611 0.707665
O O17 0.000000 0.500000 0.000000
O O18 0.500000 0.500000 0.500000
#
# Coordination Sequence:
#
# PCOD9096789 Si02
#       8
#     2   2   2   2   2   2   2   2
#     4   9  19  34  55  83 110 147 196 238 283 342
#     4   9  19  36  57  79 105 147 197 239 282 344
#     4  10  20  36  58  83 116 158 195 234 288 356
#     4  11  20  35  57  87 120 150 190 248 293 339
#     4  10  20  36  58  82 111 152 196 240 290 339
#     4   9  18  33  53  81 115 153 191 233 288 349
#     4  11  21  35  57  89 118 151 195 243 293 341
#     4  11  22  35  55  86 122 156 190 233 291 358
#
# _framework density 26.468057000000002
#
# number of rings (size 3 to 8) (size 9 to 14) (size 15 to 20)
#    0.000    2.000    0.000    6.375    0.000    2.000 
#    0.000    2.500    0.000    3.000    0.000   20.125 
#    0.000    0.000    0.000    0.000    0.000    0.000 
#
# Total GULP energy -89349.281191 kJ/mol
# GULP energy per Si atom -5584.330074 kJ/mol
# Density = 2.640781 g / cm^3
# Si number density = 26.468057 Si / 1000 Ang^3
#
#
#
# Elastic Constant Matrix: (Units=GPa)
#
#
# Indices 1 2 3 4 5 6 
#
# 1 108.2450 1.8917 5.2138 -2.8624 -6.3945 -28.1392
# 2 1.8917 137.4613 49.6181 60.3495 3.0948 -9.7617
# 3 5.2138 49.6181 141.6779 59.6598 -26.5730 -8.6448
# 4 -2.8624 60.3495 59.6598 62.8294 -7.9798 4.2176
# 5 -6.3945 3.0948 -26.5730 -7.9798 27.4311 4.2383
# 6 -28.1392 -9.7617 -8.6448 4.2176 4.2383 25.5164
#
#
#
# Elastic Compliance Matrix: (Units=1/GPa)
#
#
# Indices 1 2 3 4 5 6 
#
# 1 0.013398 0.002184 0.001579 -0.004024 0.000655 0.016702
# 2 0.002184 0.015882 0.001609 -0.018482 -0.007151 0.013272
# 3 0.001579 0.001609 0.015035 -0.015171 0.009031 0.008458
# 4 -0.004024 -0.018482 -0.015171 0.050265 0.005059 -0.025797
# 5 0.000655 -0.007151 0.009031 0.005059 0.048856 -0.007905
# 6 0.016702 0.013272 0.008458 -0.025797 -0.007905 0.071129
#
#
# Mechanical properties :
#
#
# Convention : Reuss Voigt Hill
#
# Bulk Modulus (GPa) = 18.16268 55.64794 36.90531
# Shear Modulus (GPa) = 22.50476 45.19942 33.85209
#
# Velocity S-wave (km/s) = 2.91909 4.13691 3.58016
# Velocity P-wave (km/s) = 4.27065 6.62487 5.57348
#
# Compressibility (1/GPa) = 0.05505795
#
# Stress axis : x y z
#
# Youngs Moduli (GPa) = 74.63664 62.96533 66.51199
#
# Poissons Ratio (x) = -0.13751 -0.10500
# Poissons Ratio (y) = -0.16300 -0.10701
# Poissons Ratio (z) = -0.11783 -0.10130
#
# Static dielectric constant tensor:
#      x y z
#    x 2.132580 0.004230 0.063720 
#    y 0.004230 2.114010 0.013390 
#    z 0.063720 0.013390 2.168590 
# 
# From -- ./inp_files/312481.got.cif
#   From: 2010.05.17/outbox.cif.g08.bks.cpg/sg2_157_cif.got.tgz:312481.got - 2010.06.03 11:33:40.
