data_PCOD9096707
_publ_section_title
;
Structure prediction by ZEFSAII (Michael W. Deem and Ramdas Pophale) SiO2 
 PCOD9096707
Probable space group: P -1
;
_chemical_formula_sum "Si O2"
_cell_formula_units_Z 16
_cell_length_a 7.993178
_cell_length_b 11.417563
_cell_length_c 15.692368
_cell_angle_alpha 152.733708
_cell_angle_beta 109.675326
_cell_angle_gamma 75.706753
_cell_volume 613.215917
_symmetry_space_group_name_H-M "P -1"
_symmetry_group_IT_number 2
_symmetry_cell_setting 'triclinic'
loop_
_space_group_symop_operation_xyz
x,y,z
-x,-y,-z
loop_
_atom_site_type_symbol
_atom_site_label
_atom_site_fract_x
_atom_site_fract_y
_atom_site_fract_z
Si Si1 0.863283 0.904365 0.124617
Si Si2 0.226937 0.801225 0.186632
Si Si3 0.741559 0.816330 0.776748
Si Si4 0.034002 0.649720 0.836990
Si Si5 0.608928 0.440582 0.797472
Si Si6 0.764229 0.685615 0.249466
Si Si7 0.652756 0.319740 0.362936
Si Si8 0.601864 0.134655 0.429815
O O1 0.045247 0.927917 0.224384
O O2 0.802117 0.166917 0.250298
O O3 0.907447 0.725108 0.939140
O O4 0.688485 0.733304 0.020382
O O5 0.257676 0.736710 0.248465
O O6 0.408706 0.960933 0.286693
O O7 0.210443 0.530052 0.957276
O O8 0.914288 0.700801 0.769389
O O9 0.698943 0.626038 0.565461
O O10 0.548674 0.772024 0.761675
O O11 0.800206 0.121002 0.979310
O O12 0.094953 0.376012 0.693186
O O13 0.424354 0.379599 0.776572
O O14 0.587217 0.353362 0.640001
O O15 0.745917 0.953107 0.372671
O O16 0.653885 0.241366 0.413779
#
# Coordination Sequence:
#
# PCOD9096707 Si02
#       8
#     2   2   2   2   2   2   2   2
#     4  11  22  37  60  87 119 154 198 245 293 348
#     4  10  20  36  57  86 123 159 193 233 292 359
#     4  10  23  43  63  82 118 158 201 246 290 349
#     4  10  22  42  63  89 117 154 199 246 296 347
#     4  11  21  35  57  90 125 158 193 236 292 356
#     4  10  20  38  65  89 120 157 193 241 299 355
#     4  11  23  41  62  87 119 159 198 243 295 348
#     4  11  22  38  61  90 123 156 197 240 293 355
#
# _framework density 26.091950000000001
#
# number of rings (size 3 to 8) (size 9 to 14) (size 15 to 20)
#    0.000    1.500    0.000    7.875    0.000    4.000 
#    0.000    8.750    0.000    0.000    0.000    0.000 
#    0.000    0.000    0.000    0.000    0.000    0.000 
#
# Total GULP energy -89469.945659 kJ/mol
# GULP energy per Si atom -5591.871604 kJ/mol
# Density = 2.603256 g / cm^3
# Si number density = 26.091950 Si / 1000 Ang^3
#
#
#
# Elastic Constant Matrix: (Units=GPa)
#
#
# Indices 1 2 3 4 5 6 
#
# 1 69.2510 36.3425 34.5187 -2.9634 5.6900 -22.3332
# 2 36.3425 100.5123 20.0124 27.7982 2.4929 -10.6937
# 3 34.5187 20.0124 75.2579 9.6738 18.2863 -15.8669
# 4 -2.9634 27.7982 9.6738 37.4470 -9.0686 -13.0916
# 5 5.6900 2.4929 18.2863 -9.0686 36.1747 6.0151
# 6 -22.3332 -10.6937 -15.8669 -13.0916 6.0151 46.9850
#
#
#
# Elastic Compliance Matrix: (Units=1/GPa)
#
#
# Indices 1 2 3 4 5 6 
#
# 1 0.033590 -0.014621 -0.012939 0.023132 0.005739 0.013979
# 2 -0.014621 0.019436 0.004067 -0.019992 -0.005098 -0.006071
# 3 -0.012939 0.004067 0.023208 -0.013031 -0.013358 0.000692
# 4 0.023132 -0.019992 -0.013031 0.056028 0.015772 0.015636
# 5 0.005739 -0.005098 -0.013358 0.015772 0.038374 -0.003461
# 6 0.013979 -0.006071 0.000692 0.015636 -0.003461 0.031580
#
#
# Mechanical properties :
#
#
# Convention : Reuss Voigt Hill
#
# Bulk Modulus (GPa) = 34.19361 47.41871 40.80616
# Shear Modulus (GPa) = 19.30858 34.39785 26.85322
#
# Velocity S-wave (km/s) = 2.72328 3.63482 3.21156
# Velocity P-wave (km/s) = 4.79811 5.98574 5.42452
#
# Compressibility (1/GPa) = 0.02924523
#
# Stress axis : x y z
#
# Youngs Moduli (GPa) = 29.77111 51.45158 43.08876
#
# Poissons Ratio (x) = 0.75229 0.55754
# Poissons Ratio (y) = 0.43529 -0.17523
# Poissons Ratio (z) = 0.38522 -0.20923
#
# Static dielectric constant tensor:
#      x y z
#    x 2.070690 0.018320 0.022560 
#    y 0.018320 2.209840 0.011920 
#    z 0.022560 0.011920 2.043310 
# 
# From -- ./inp_files/223619.got.cif
#   From: 2010.05.17/outbox.cif.g08.bks.cpg/sg2_112_cif.got.tgz:223619.got - 2010.06.03 11:33:40.
