data_PCOD9096425
_publ_section_title
;
Structure prediction by ZEFSAII (Michael W. Deem and Ramdas Pophale) SiO2 
 PCOD9096425
Probable space group: P -1
;
_chemical_formula_sum "Si O2"
_cell_formula_units_Z 15
_cell_length_a 22.540320
_cell_length_b 5.951756
_cell_length_c 11.528906
_cell_angle_alpha 72.959874
_cell_angle_beta 149.478146
_cell_angle_gamma 116.324167
_cell_volume 690.462455
_symmetry_space_group_name_H-M "P -1"
_symmetry_group_IT_number 2
_symmetry_cell_setting 'triclinic'
loop_
_space_group_symop_operation_xyz
x,y,z
-x,-y,-z
loop_
_atom_site_type_symbol
_atom_site_label
_atom_site_fract_x
_atom_site_fract_y
_atom_site_fract_z
Si Si1 0.466964 0.221231 0.349739
Si Si2 0.812166 0.258471 0.718942
Si Si3 0.108395 0.410281 0.828537
Si Si4 0.254404 0.934969 0.873478
Si Si5 0.147318 0.801779 0.474689
Si Si6 0.938427 0.801169 0.823937
Si Si7 0.000000 0.000000 0.500000
Si Si8 0.686679 0.733488 0.698431
O O1 0.588880 0.484917 0.506888
O O2 0.370279 0.269675 0.269170
O O3 0.500000 0.000000 0.500000
O O4 0.392468 0.119964 0.120789
O O5 0.814592 0.229997 0.587247
O O6 0.823040 0.545605 0.710008
O O7 0.707416 0.002924 0.633079
O O8 0.943330 0.270499 0.998935
O O9 0.208196 0.682295 0.914345
O O10 0.985015 0.430049 0.678302
O O11 0.054049 0.227101 0.655448
O O12 0.179908 0.292240 0.053825
O O13 0.244579 0.848265 0.736165
O O14 0.147995 0.046386 0.704407
O O15 0.110581 0.049707 0.372127
O O16 0.000000 0.000000 0.000000
#
# Coordination Sequence:
#
# PCOD9096425 Si02
#       8
#     2   2   2   2   2   2   1   2
#     4  11  24  43  65  90 120 168 222 267 304 365
#     4  10  21  38  58  91 131 164 202 257 314 383
#     4  11  21  37  60  96 129 166 202 254 326 382
#     4  11  23  39  63  94 129 166 207 266 315 379
#     4  10  21  35  58  95 131 163 196 251 329 390
#     4   9  19  35  56  88 123 165 202 245 308 375
#     4  10  20  36  54  90 130 160 194 250 324 366
#     4  11  23  41  65  90 121 167 217 263 313 368
#
# _framework density 21.724568000000001
#
# number of rings (size 3 to 8) (size 9 to 14) (size 15 to 20)
#    0.000    1.600    4.000    1.600    0.000    9.600 
#    2.400    0.667    0.000    1.600    0.000    0.000 
#    0.000    0.000    0.000    0.000    0.000    0.000 
#
# Total GULP energy -83536.397961 kJ/mol
# GULP energy per Si atom -5569.093197 kJ/mol
# Density = 2.167512 g / cm^3
# Si number density = 21.724568 Si / 1000 Ang^3
#
#
#
# Elastic Constant Matrix: (Units=GPa)
#
#
# Indices 1 2 3 4 5 6 
#
# 1 65.0178 11.3244 17.4685 7.5023 -15.0984 4.9502
# 2 11.3244 110.0703 30.0374 28.5611 -14.6257 25.9805
# 3 17.4685 30.0374 113.2426 24.4065 -16.3269 2.2179
# 4 7.5023 28.5611 24.4065 36.2284 0.8592 1.8732
# 5 -15.0984 -14.6257 -16.3269 0.8592 23.2123 -0.5269
# 6 4.9502 25.9805 2.2179 1.8732 -0.5269 29.8392
#
#
#
# Elastic Compliance Matrix: (Units=1/GPa)
#
#
# Indices 1 2 3 4 5 6 
#
# 1 0.019352 0.002694 -0.000250 -0.006046 0.014222 -0.004907
# 2 0.002694 0.017656 0.000128 -0.014115 0.013156 -0.014711
# 3 -0.000250 0.000128 0.011844 -0.008216 0.008546 -0.000284
# 4 -0.006046 -0.014115 -0.008216 0.045440 -0.020045 0.010697
# 5 0.014222 0.013156 0.008546 -0.020045 0.067101 -0.012006
# 6 -0.004907 -0.014711 -0.000284 0.010697 -0.012006 0.046273
#
#
# Mechanical properties :
#
#
# Convention : Reuss Voigt Hill
#
# Bulk Modulus (GPa) = 18.51995 45.11015 31.81505
# Shear Modulus (GPa) = 22.67375 33.15603 27.91489
#
# Velocity S-wave (km/s) = 3.23413 3.91090 3.58850
# Velocity P-wave (km/s) = 4.74231 6.41897 5.64326
#
# Compressibility (1/GPa) = 0.05399583
#
# Stress axis : x y z
#
# Youngs Moduli (GPa) = 51.67383 56.63871 84.43321
#
# Poissons Ratio (x) = -0.15259 0.02112
# Poissons Ratio (y) = -0.13921 -0.01082
# Poissons Ratio (z) = 0.01293 -0.00726
#
# Static dielectric constant tensor:
#      x y z
#    x 1.853570 -0.008500 0.028950 
#    y -0.008500 1.864360 -0.024600 
#    z 0.028950 -0.024600 1.778770 
# 
# From -- ./inp_files/473406.got.cif
#   From: 2010.05.17/outbox.cif.g08.bks.cpg/sg2_237_cif.got.tgz:473406.got - 2010.06.03 11:33:40.
