data_PCOD9096141
_publ_section_title
;
Structure prediction by ZEFSAII (Michael W. Deem and Ramdas Pophale) SiO2 
 PCOD9096141
Probable space group: P -1
;
_chemical_formula_sum "Si O2"
_cell_formula_units_Z 16
_cell_length_a 8.644170
_cell_length_b 8.621478
_cell_length_c 14.722554
_cell_angle_alpha 54.462281
_cell_angle_beta 65.592174
_cell_angle_gamma 86.999388
_cell_volume 786.482418
_symmetry_space_group_name_H-M "P -1"
_symmetry_group_IT_number 2
_symmetry_cell_setting 'triclinic'
loop_
_space_group_symop_operation_xyz
x,y,z
-x,-y,-z
loop_
_atom_site_type_symbol
_atom_site_label
_atom_site_fract_x
_atom_site_fract_y
_atom_site_fract_z
Si Si1 0.231515 0.056054 0.242568
Si Si2 0.409857 0.919072 0.954530
Si Si3 0.339462 0.056129 0.404251
Si Si4 0.830335 0.782969 0.097974
Si Si5 0.702867 0.495179 0.941493
Si Si6 0.029078 0.077061 0.807461
Si Si7 0.695464 0.978221 0.375820
Si Si8 0.324815 0.621547 0.813158
O O1 0.432054 0.067315 0.159792
O O2 0.214520 0.981180 0.375595
O O3 0.200482 0.276889 0.176024
O O4 0.112033 0.931328 0.235206
O O5 0.285925 0.060135 0.911150
O O6 0.305074 0.688337 0.061036
O O7 0.500000 0.000000 0.000000
O O8 0.484382 0.929827 0.429379
O O9 0.467981 0.267330 0.271677
O O10 0.261319 0.076528 0.514819
O O11 0.934080 0.770570 0.169760
O O12 0.710238 0.576823 0.166600
O O13 0.955653 0.875026 0.951728
O O14 0.500000 0.500000 0.000000
O O15 0.752045 0.426640 0.051591
O O16 0.208475 0.100438 0.701380
O O17 0.754541 0.215175 0.270704
#
# Coordination Sequence:
#
# PCOD9096141 Si02
#       8
#     2   2   2   2   2   2   2   2
#     4  11  20  35  57  85 113 141 188 226 275 331
#     4  11  19  32  52  82 116 147 172 227 278 337
#     4   9  19  37  64  79 101 144 198 241 253 312
#     4  11  22  35  54  83 123 146 175 219 299 333
#     4  10  16  30  53  84 110 132 183 229 275 316
#     4  11  22  36  50  86 118 150 171 225 289 340
#     4   9  20  39  59  81 106 145 196 227 272 313
#     4  10  17  36  60  80 106 139 194 233 260 332
#
# _framework density 20.343748999999999
#
# number of rings (size 3 to 8) (size 9 to 14) (size 15 to 20)
#    0.750    1.000    5.000    2.250    0.000    1.000 
#    4.500    0.625    0.000    0.750    0.000    0.000 
#    0.000    0.000    0.000    0.000    0.000    0.000 
#
# Total GULP energy -89111.842671 kJ/mol
# GULP energy per Si atom -5569.490167 kJ/mol
# Density = 2.029745 g / cm^3
# Si number density = 20.343749 Si / 1000 Ang^3
#
#
#
# Elastic Constant Matrix: (Units=GPa)
#
#
# Indices 1 2 3 4 5 6 
#
# 1 73.1659 26.4101 17.2312 14.0101 21.2715 22.3650
# 2 26.4101 78.4145 9.2405 12.4903 11.9655 17.2229
# 3 17.2312 9.2405 83.3988 34.8886 30.7080 7.5031
# 4 14.0101 12.4903 34.8886 29.0505 6.4564 6.4007
# 5 21.2715 11.9655 30.7080 6.4564 29.5532 14.0617
# 6 22.3650 17.2229 7.5031 6.4007 14.0617 22.4598
#
#
#
# Elastic Compliance Matrix: (Units=1/GPa)
#
#
# Indices 1 2 3 4 5 6 
#
# 1 0.023064 -0.001621 0.009451 -0.015769 -0.017973 -0.009134
# 2 -0.001621 0.016610 0.005894 -0.010676 -0.006507 -0.005975
# 3 0.009451 0.005894 0.070649 -0.081850 -0.082548 0.037476
# 4 -0.015769 -0.010676 -0.081850 0.134225 0.092893 -0.045179
# 5 -0.017973 -0.006507 -0.082548 0.092893 0.147376 -0.068279
# 6 -0.009134 -0.005975 0.037476 -0.045179 -0.068279 0.101305
#
#
# Mechanical properties :
#
#
# Convention : Reuss Voigt Hill
#
# Bulk Modulus (GPa) = 7.25847 37.86034 22.55940
# Shear Modulus (GPa) = 9.77125 28.35252 19.06188
#
# Velocity S-wave (km/s) = 2.19397 3.73724 3.06435
# Velocity P-wave (km/s) = 3.16127 6.10519 4.86143
#
# Compressibility (1/GPa) = 0.13777008
#
# Stress axis : x y z
#
# Youngs Moduli (GPa) = 43.35793 60.20455 14.15454
#
# Poissons Ratio (x) = 0.09760 -0.13377
# Poissons Ratio (y) = 0.07029 -0.08343
# Poissons Ratio (z) = -0.40976 -0.35486
#
# Static dielectric constant tensor:
#      x y z
#    x 1.820520 -0.007790 0.004440 
#    y -0.007790 1.719180 0.004940 
#    z 0.004440 0.004940 1.729590 
# 
# From -- ./inp_files/490583.got.cif
#   From: 2010.05.17/outbox.cif.g08.bks.cpg/sg2_246_cif.got.tgz:490583.got - 2010.06.03 11:33:40.
