data_PCOD9096726
_publ_section_title
;
Structure prediction by ZEFSAII (Michael W. Deem and Ramdas Pophale) SiO2 
 PCOD9096726
Probable space group: P -1
;
_chemical_formula_sum "Si O2"
_cell_formula_units_Z 16
_cell_length_a 11.230221
_cell_length_b 24.475973
_cell_length_c 24.718569
_cell_angle_alpha 11.343894
_cell_angle_beta 38.051857
_cell_angle_gamma 38.070902
_cell_volume 817.267432
_symmetry_space_group_name_H-M "P -1"
_symmetry_group_IT_number 2
_symmetry_cell_setting 'triclinic'
loop_
_space_group_symop_operation_xyz
x,y,z
-x,-y,-z
loop_
_atom_site_type_symbol
_atom_site_label
_atom_site_fract_x
_atom_site_fract_y
_atom_site_fract_z
Si Si1 0.715862 0.048445 0.856475
Si Si2 0.310800 0.432065 0.494138
Si Si3 0.269361 0.493380 0.685554
Si Si4 0.073701 0.609688 0.755555
Si Si5 0.100083 0.984901 0.063276
Si Si6 0.418347 0.583988 0.735426
Si Si7 0.903517 0.144920 0.338701
Si Si8 0.347003 0.018825 0.779936
O O1 0.716842 0.283731 0.582835
O O2 0.834132 0.105358 0.812235
O O3 0.500000 0.000000 0.000000
O O4 0.793687 0.770400 0.066500
O O5 0.511260 0.542222 0.333876
O O6 0.164559 0.717062 0.261360
O O7 0.350443 0.217274 0.638819
O O8 0.214376 0.243379 0.755536
O O9 0.127802 0.560978 0.721314
O O10 0.271288 0.684736 0.640876
O O11 0.901941 0.865993 0.574646
O O12 0.023949 0.346539 0.064624
O O13 0.869883 0.058243 0.072075
O O14 0.286454 0.657950 0.763747
O O15 0.591293 0.775528 0.488128
O O16 0.503633 0.264893 0.002184
O O17 0.000000 0.000000 0.500000
#
# Coordination Sequence:
#
# PCOD9096726 Si02
#       8
#     2   2   2   2   2   2   2   2
#     4  12  23  40  59  84 113 158 205 249 293 328
#     4  12  22  39  58  82 121 155 197 239 295 344
#     4  12  23  37  62  87 114 158 194 244 299 341
#     4  11  21  36  58  89 123 149 193 236 294 360
#     4  12  25  40  58  80 119 161 205 242 281 340
#     4  11  21  36  58  85 121 153 186 230 299 355
#     4  10  20  36  57  88 122 157 180 233 299 367
#     4  12  24  37  57  88 117 160 196 234 285 358
#
# _framework density 19.577435999999999
#
# number of rings (size 3 to 8) (size 9 to 14) (size 15 to 20)
#    0.000    0.500    3.750    7.875    1.750    0.000 
#    0.000    0.000    0.000    0.000    0.000   17.500 
#    0.000    0.000    0.000    0.000    0.000    0.000 
#
# Total GULP energy -89308.088527 kJ/mol
# GULP energy per Si atom -5581.755533 kJ/mol
# Density = 1.953288 g / cm^3
# Si number density = 19.577436 Si / 1000 Ang^3
#
#
#
# Elastic Constant Matrix: (Units=GPa)
#
#
# Indices 1 2 3 4 5 6 
#
# 1 46.1772 38.9200 3.4723 2.2490 -1.7639 10.9800
# 2 38.9200 137.5054 53.1335 -11.1670 5.1100 26.4123
# 3 3.4723 53.1335 109.1534 -2.8512 9.1244 16.1280
# 4 2.2490 -11.1670 -2.8512 46.4789 11.8075 4.1262
# 5 -1.7639 5.1100 9.1244 11.8075 23.1087 2.4081
# 6 10.9800 26.4123 16.1280 4.1262 2.4081 31.0875
#
#
#
# Elastic Compliance Matrix: (Units=1/GPa)
#
#
# Indices 1 2 3 4 5 6 
#
# 1 0.031487 -0.010250 0.003990 -0.004895 0.006044 -0.004301
# 2 -0.010250 0.013804 -0.005087 0.004974 -0.003760 -0.005838
# 3 0.003990 -0.005087 0.012283 0.000472 -0.003321 -0.003265
# 4 -0.004895 0.004974 0.000472 0.027260 -0.015047 -0.005194
# 5 0.006044 -0.003760 -0.003321 -0.015047 0.053500 0.000636
# 6 -0.004301 -0.005838 -0.003265 -0.005194 0.000636 0.040981
#
#
# Mechanical properties :
#
#
# Convention : Reuss Voigt Hill
#
# Bulk Modulus (GPa) = 28.66885 53.76529 41.21707
# Shear Modulus (GPa) = 23.40451 33.28904 28.34677
#
# Velocity S-wave (km/s) = 3.46133 4.12804 3.80930
# Velocity P-wave (km/s) = 5.53624 7.08826 6.35977
#
# Compressibility (1/GPa) = 0.03488107
#
# Stress axis : x y z
#
# Youngs Moduli (GPa) = 31.75938 72.44164 81.41317
#
# Poissons Ratio (x) = 0.74252 -0.32486
# Poissons Ratio (y) = 0.32553 0.41413
# Poissons Ratio (z) = -0.12673 0.36849
#
# Static dielectric constant tensor:
#      x y z
#    x 1.675540 0.018300 0.000630 
#    y 0.018300 1.760730 -0.007310 
#    z 0.000630 -0.007310 1.721140 
# 
# From -- ./inp_files/437271.got.cif
#   From: 2010.05.17/outbox.cif.g08.bks.cpg/sg2_219_cif.got.tgz:437271.got - 2010.06.03 11:33:40.
