data_PCOD9096473
_publ_section_title
;
Structure prediction by ZEFSAII (Michael W. Deem and Ramdas Pophale) SiO2 
 PCOD9096473
Probable space group: P -1
;
_chemical_formula_sum "Si O2"
_cell_formula_units_Z 14
_cell_length_a 12.873933
_cell_length_b 9.308389
_cell_length_c 13.586053
_cell_angle_alpha 104.480680
_cell_angle_beta 21.856486
_cell_angle_gamma 104.550325
_cell_volume 586.027405
_symmetry_space_group_name_H-M "P -1"
_symmetry_group_IT_number 2
_symmetry_cell_setting 'triclinic'
loop_
_space_group_symop_operation_xyz
x,y,z
-x,-y,-z
loop_
_atom_site_type_symbol
_atom_site_label
_atom_site_fract_x
_atom_site_fract_y
_atom_site_fract_z
Si Si1 0.615309 0.362399 0.715225
Si Si2 0.212478 0.554675 0.910264
Si Si3 0.470854 0.294210 0.182316
Si Si4 0.911952 0.830665 0.777620
Si Si5 0.727430 0.396079 0.396984
Si Si6 0.791237 0.090028 0.261780
Si Si7 0.914638 0.105835 0.681667
O O1 0.902626 0.280756 0.469035
O O2 0.608655 0.344548 0.599174
O O3 0.588715 0.540637 0.779276
O O4 0.370088 0.263753 0.964203
O O5 0.309915 0.694998 0.915951
O O6 0.043258 0.461182 0.130025
O O7 0.507272 0.518850 0.597004
O O8 0.000000 0.500000 0.000000
O O9 0.629777 0.194585 0.946798
O O10 0.180627 0.223885 0.468364
O O11 0.065274 0.877691 0.753602
O O12 0.878940 0.986383 0.780091
O O13 0.728836 0.252445 0.302834
O O14 0.500000 0.000000 0.500000
O O15 0.000000 0.000000 0.000000
O O16 0.000000 0.000000 0.500000
#
# Coordination Sequence:
#
# PCOD9096473 Si02
#       7
#     2   2   2   2   2   2   2
#     4  10  20  42  68  91 120 166 216 261 319 393
#     4  11  22  37  61  94 128 169 216 269 325 393
#     4  11  23  44  69  95 130 176 218 270 334 396
#     4  11  23  42  65  93 130 172 215 272 331 389
#     4  10  20  36  55  84 126 167 210 267 316 367
#     4  11  21  34  55  86 122 165 210 258 316 388
#     4  12  27  47  67  97 137 175 218 281 340 386
#
# _framework density 23.889665999999998
#
# number of rings (size 3 to 8) (size 9 to 14) (size 15 to 20)
#    0.000    1.143    0.000   10.286    0.000    3.429 
#    0.000    4.286    0.000    0.000    0.000    0.000 
#    0.000    0.000    0.000    0.000    0.000    0.000 
#
# Total GULP energy -77982.871427 kJ/mol
# GULP energy per Si atom -5570.205102 kJ/mol
# Density = 2.383529 g / cm^3
# Si number density = 23.889666 Si / 1000 Ang^3
#
#
#
# Elastic Constant Matrix: (Units=GPa)
#
#
# Indices 1 2 3 4 5 6 
#
# 1 39.7128 23.5039 6.3359 -6.6191 9.1050 3.7508
# 2 23.5039 168.6382 86.2585 -0.6111 1.4106 -12.5543
# 3 6.3359 86.2585 209.6953 -3.2788 1.2205 -8.6528
# 4 -6.6191 -0.6111 -3.2788 71.0822 8.4269 4.6197
# 5 9.1050 1.4106 1.2205 8.4269 21.0185 -0.6529
# 6 3.7508 -12.5543 -8.6528 4.6197 -0.6529 23.2848
#
#
#
# Elastic Compliance Matrix: (Units=1/GPa)
#
#
# Indices 1 2 3 4 5 6 
#
# 1 0.034416 -0.005991 0.001205 0.005903 -0.017253 -0.009981
# 2 -0.005991 0.008763 -0.003262 -0.001285 0.002861 0.004813
# 3 0.001205 -0.003262 0.006094 0.000451 -0.000832 0.000199
# 4 0.005903 -0.001285 0.000451 0.016022 -0.009073 -0.004909
# 5 -0.017253 0.002861 -0.000832 -0.009073 0.058777 0.007461
# 6 -0.009981 0.004813 0.000199 -0.004909 0.007461 0.048406
#
#
# Mechanical properties :
#
#
# Convention : Reuss Voigt Hill
#
# Bulk Modulus (GPa) = 30.13941 72.24920 51.19431
# Shear Modulus (GPa) = 25.04602 43.20696 34.12649
#
# Velocity S-wave (km/s) = 3.24142 4.25738 3.78366
# Velocity P-wave (km/s) = 5.16261 7.38076 6.36899
#
# Compressibility (1/GPa) = 0.03317915
#
# Stress axis : x y z
#
# Youngs Moduli (GPa) = 29.05608 114.11790 164.08910
#
# Poissons Ratio (x) = 0.68362 -0.19776
# Poissons Ratio (y) = 0.17406 0.53522
# Poissons Ratio (z) = -0.03502 0.37223
#
# Static dielectric constant tensor:
#      x y z
#    x 2.178450 -0.198370 -0.042540 
#    y -0.198370 2.367920 -0.053660 
#    z -0.042540 -0.053660 2.021660 
# 
# From -- ./inp_files/527643.got.cif
#   From: 2010.05.17/outbox.cif.g08.bks.cpg/sg2_264_cif.got.tgz:527643.got - 2010.06.03 11:33:40.
