data_PCOD9096677
_publ_section_title
;
Structure prediction by ZEFSAII (Michael W. Deem and Ramdas Pophale) SiO2 
 PCOD9096677
Probable space group: P -1
;
_chemical_formula_sum "Si O2"
_cell_formula_units_Z 15
_cell_length_a 12.301993
_cell_length_b 9.061147
_cell_length_c 6.750437
_cell_angle_alpha 71.972267
_cell_angle_beta 80.390141
_cell_angle_gamma 62.870035
_cell_volume 636.508071
_symmetry_space_group_name_H-M "P -1"
_symmetry_group_IT_number 2
_symmetry_cell_setting 'triclinic'
loop_
_space_group_symop_operation_xyz
x,y,z
-x,-y,-z
loop_
_atom_site_type_symbol
_atom_site_label
_atom_site_fract_x
_atom_site_fract_y
_atom_site_fract_z
Si Si1 0.334491 0.266511 0.446774
Si Si2 0.560477 0.080416 0.217750
Si Si3 0.255037 0.948549 0.151336
Si Si4 0.107961 0.640055 0.879912
Si Si5 0.614993 0.418760 0.712097
Si Si6 0.646528 0.350137 0.206661
Si Si7 0.000000 0.000000 0.000000
Si Si8 0.873287 0.689225 0.745029
O O1 0.417035 0.197165 0.248812
O O2 0.340677 0.440859 0.425016
O O3 0.195169 0.301349 0.442500
O O4 0.402110 0.110714 0.638873
O O5 0.624161 0.178265 0.289524
O O6 0.624837 0.064483 0.995653
O O7 0.309248 0.767719 0.325290
O O8 0.199523 0.121381 0.220896
O O9 0.144435 0.953378 0.043522
O O10 0.227305 0.654352 0.763943
O O11 0.043408 0.803868 0.977197
O O12 0.013931 0.653843 0.727558
O O13 0.137045 0.462275 0.059903
O O14 0.468803 0.501038 0.714246
O O15 0.638820 0.393424 0.954380
#
# Coordination Sequence:
#
# PCOD9096677 Si02
#       8
#     2   2   2   2   2   2   1   2
#     4  10  18  34  53  77 108 139 168 222 257 313
#     4   9  19  32  55  77 104 139 181 205 263 309
#     4  10  19  32  53  82 100 137 178 217 254 309
#     4  10  18  32  51  78 102 138 173 217 255 304
#     4   9  16  29  55  73  97 135 183 207 249 305
#     4   9  15  30  52  76  94 133 182 215 236 309
#     4  10  16  30  56  70 102 132 180 210 242 310
#     4  10  21  31  52  80 112 130 170 222 272 291
#
# _framework density 23.566079999999999
#
# number of rings (size 3 to 8) (size 9 to 14) (size 15 to 20)
#    0.000    2.400    4.000    0.800    0.000    0.533 
#    0.000    0.667    2.933   13.600    0.000    0.000 
#    0.000    0.000    0.000    0.000    0.000    0.000 
#
# Total GULP energy -83547.495297 kJ/mol
# GULP energy per Si atom -5569.833020 kJ/mol
# Density = 2.351244 g / cm^3
# Si number density = 23.566080 Si / 1000 Ang^3
#
#
#
# Elastic Constant Matrix: (Units=GPa)
#
#
# Indices 1 2 3 4 5 6 
#
# 1 128.7516 43.2583 3.2779 -10.6098 -5.9130 4.7261
# 2 43.2583 165.2205 36.1253 -38.2409 -0.1868 -4.9949
# 3 3.2779 36.1253 34.8745 -9.0591 -10.5967 6.0647
# 4 -10.6098 -38.2409 -9.0591 29.7368 8.0123 1.7219
# 5 -5.9130 -0.1868 -10.5967 8.0123 17.7183 -3.1034
# 6 4.7261 -4.9949 6.0647 1.7219 -3.1034 39.2709
#
#
#
# Elastic Compliance Matrix: (Units=1/GPa)
#
#
# Indices 1 2 3 4 5 6 
#
# 1 0.009208 -0.004074 0.005177 -0.002093 0.006758 -0.001800
# 2 -0.004074 0.014823 -0.016541 0.017393 -0.018487 0.002706
# 3 0.005177 -0.016541 0.055193 -0.012665 0.038956 -0.007617
# 4 -0.002093 0.017393 -0.012665 0.061135 -0.035928 -0.001100
# 5 0.006758 -0.018487 0.038956 -0.035928 0.098069 0.000145
# 6 -0.001800 0.002706 -0.007617 -0.001100 0.000145 0.027261
#
#
# Mechanical properties :
#
#
# Convention : Reuss Voigt Hill
#
# Bulk Modulus (GPa) = 20.68344 54.90774 37.79559
# Shear Modulus (GPa) = 15.99078 33.75755 24.87416
#
# Velocity S-wave (km/s) = 2.60773 3.78890 3.25238
# Velocity P-wave (km/s) = 4.22644 6.51852 5.49335
#
# Compressibility (1/GPa) = 0.04834787
#
# Stress axis : x y z
#
# Youngs Moduli (GPa) = 108.60320 67.46461 18.11813
#
# Poissons Ratio (x) = 0.27486 -0.09380
# Poissons Ratio (y) = 0.44246 0.29970
# Poissons Ratio (z) = -0.56227 1.11594
#
# Static dielectric constant tensor:
#      x y z
#    x 1.908320 0.015590 0.044830 
#    y 0.015590 1.888250 0.039650 
#    z 0.044830 0.039650 1.958540 
# 
# From -- ./inp_files/237653.got.cif
#   From: 2010.05.17/outbox.cif.g08.bks.cpg/sg2_119_cif.got.tgz:237653.got - 2010.06.03 11:33:40.
