data_PCOD9096886
_publ_section_title
;
Structure prediction by ZEFSAII (Michael W. Deem and Ramdas Pophale) SiO2 
 PCOD9096886
Probable space group: P -1
;
_chemical_formula_sum "Si O2"
_cell_formula_units_Z 13
_cell_length_a 11.368639
_cell_length_b 18.813318
_cell_length_c 8.031938
_cell_angle_alpha 134.522171
_cell_angle_beta 80.300367
_cell_angle_gamma 138.806921
_cell_volume 519.645366
_symmetry_space_group_name_H-M "P -1"
_symmetry_group_IT_number 2
_symmetry_cell_setting 'triclinic'
loop_
_space_group_symop_operation_xyz
x,y,z
-x,-y,-z
loop_
_atom_site_type_symbol
_atom_site_label
_atom_site_fract_x
_atom_site_fract_y
_atom_site_fract_z
Si Si1 0.159710 0.782837 0.674483
Si Si2 0.461826 0.687034 0.085214
Si Si3 0.242865 0.274179 0.068406
Si Si4 0.840884 0.433643 0.778639
Si Si5 0.000000 0.000000 0.000000
Si Si6 0.598584 0.869095 0.016128
Si Si7 0.053926 0.342289 0.140836
O O1 0.214694 0.706817 0.544209
O O2 0.848315 0.569814 0.329932
O O3 0.161973 0.821186 0.926198
O O4 0.346854 0.982780 0.829151
O O5 0.646096 0.727824 0.084233
O O6 0.577815 0.851917 0.192345
O O7 0.411721 0.695513 0.291504
O O8 0.500000 0.500000 0.500000
O O9 0.151457 0.302084 0.032953
O O10 0.023915 0.069875 0.919665
O O11 0.018797 0.648828 0.988799
O O12 0.000000 0.500000 0.000000
O O13 0.841874 0.979540 0.077664
O O14 0.320915 0.606576 0.580334
#
# Coordination Sequence:
#
# PCOD9096886 Si02
#       7
#     2   2   2   2   1   2   2
#     4  10  19  37  60  83 111 152 192 235 275 331
#     4   9  20  36  56  86 116 150 182 228 295 335
#     4  11  17  33  61  87 113 138 186 241 282 336
#     4  10  23  41  56  77 122 159 188 229 282 338
#     4  10  16  30  56  88 114 136 172 238 292 324
#     4  10  19  32  61  88 110 144 193 234 279 335
#     4  11  21  35  60  91 109 148 196 234 277 331
#
# _framework density 25.017061999999999
#
# number of rings (size 3 to 8) (size 9 to 14) (size 15 to 20)
#    0.000    1.846    6.154    0.462    0.000    1.846 
#    0.000    3.077    0.000    1.846    0.000    0.000 
#    0.000    0.000    0.000    0.000    0.000    0.000 
#
# Total GULP energy -72450.536349 kJ/mol
# GULP energy per Si atom -5573.118181 kJ/mol
# Density = 2.496012 g / cm^3
# Si number density = 25.017062 Si / 1000 Ang^3
#
#
#
# Elastic Constant Matrix: (Units=GPa)
#
#
# Indices 1 2 3 4 5 6 
#
# 1 88.9314 2.9403 19.3035 7.7268 -10.5996 -28.5833
# 2 2.9403 62.6102 10.9770 5.8381 -11.6902 -3.3651
# 3 19.3035 10.9770 46.4953 9.9821 -2.9759 -12.0941
# 4 7.7268 5.8381 9.9821 21.4499 -7.7616 -9.4064
# 5 -10.5996 -11.6902 -2.9759 -7.7616 25.2946 3.7398
# 6 -28.5833 -3.3651 -12.0941 -9.4064 3.7398 55.4125
#
#
#
# Elastic Compliance Matrix: (Units=1/GPa)
#
#
# Indices 1 2 3 4 5 6 
#
# 1 0.014918 0.001441 -0.004756 0.001449 0.005827 0.006598
# 2 0.001441 0.018260 -0.004216 -0.000356 0.008392 0.000305
# 3 -0.004756 -0.004216 0.026884 -0.010449 -0.004232 0.001670
# 4 0.001449 -0.000356 -0.010449 0.060396 0.016625 0.007575
# 5 0.005827 0.008392 -0.004232 0.016625 0.050158 0.002029
# 6 0.006598 0.000305 0.001670 0.007575 0.002029 0.022982
#
#
# Mechanical properties :
#
#
# Convention : Reuss Voigt Hill
#
# Bulk Modulus (GPa) = 22.22212 29.38651 25.80431
# Shear Modulus (GPa) = 22.35525 31.41914 26.88719
#
# Velocity S-wave (km/s) = 2.99256 3.54772 3.28190
# Velocity P-wave (km/s) = 4.56537 5.34358 4.96973
#
# Compressibility (1/GPa) = 0.04500021
#
# Stress axis : x y z
#
# Youngs Moduli (GPa) = 67.03128 54.76473 37.19639
#
# Poissons Ratio (x) = -0.07890 0.17690
# Poissons Ratio (y) = -0.09657 0.15682
# Poissons Ratio (z) = 0.31879 0.23089
#
# Static dielectric constant tensor:
#      x y z
#    x 1.951540 -0.005640 0.058010 
#    y -0.005640 1.976760 -0.023940 
#    z 0.058010 -0.023940 2.141600 
# 
# From -- ./inp_files/246500.got.cif
#   From: 2010.05.17/outbox.cif.g08.bks.cpg/sg2_124_cif.got.tgz:246500.got - 2010.06.03 11:33:40.
