data_PCOD9096903
_publ_section_title
;
Structure prediction by ZEFSAII (Michael W. Deem and Ramdas Pophale) SiO2 
 PCOD9096903
Probable space group: P -1
;
_chemical_formula_sum "Si O2"
_cell_formula_units_Z 16
_cell_length_a 20.473433
_cell_length_b 8.568728
_cell_length_c 9.362204
_cell_angle_alpha 130.638790
_cell_angle_beta 141.934028
_cell_angle_gamma 44.704812
_cell_volume 696.253838
_symmetry_space_group_name_H-M "P -1"
_symmetry_group_IT_number 2
_symmetry_cell_setting 'triclinic'
loop_
_space_group_symop_operation_xyz
x,y,z
-x,-y,-z
loop_
_atom_site_type_symbol
_atom_site_label
_atom_site_fract_x
_atom_site_fract_y
_atom_site_fract_z
Si Si1 0.354570 0.681193 0.016048
Si Si2 0.015366 0.348965 0.797145
Si Si3 0.194146 0.808384 0.256443
Si Si4 0.368147 0.581425 0.648667
Si Si5 0.160285 0.520698 0.670183
Si Si6 0.041858 0.999010 0.859164
Si Si7 0.634666 0.878595 0.699239
Si Si8 0.776008 0.681616 0.069336
O O1 0.343678 0.678483 0.823789
O O2 0.272381 0.572830 0.871126
O O3 0.491572 0.535247 0.200698
O O4 0.316995 0.939795 0.157854
O O5 0.039934 0.108406 0.767616
O O6 0.122191 0.322614 0.862699
O O7 0.898859 0.473460 0.578531
O O8 0.000000 0.500000 0.000000
O O9 0.301323 0.765494 0.521595
O O10 0.081993 0.865156 0.198382
O O11 0.228839 0.560897 0.100088
O O12 0.141365 0.981078 0.135829
O O13 0.324412 0.377368 0.440677
O O14 0.194265 0.308638 0.708416
O O15 0.062509 0.741155 0.712258
O O16 0.500000 0.000000 0.500000
O O17 0.657766 0.855491 0.895691
#
# Coordination Sequence:
#
# PCOD9096903 Si02
#       8
#     2   2   2   2   2   2   2   2
#     4  10  20  38  64  92 121 165 210 245 314 369
#     4  12  23  38  58  86 115 164 204 247 310 368
#     4   9  18  36  59  86 124 156 194 257 304 364
#     4   9  19  37  65  92 125 165 202 257 302 367
#     4  11  24  39  59  91 125 158 206 262 306 371
#     4  10  20  36  58  87 120 154 204 246 306 372
#     4   9  19  38  64  92 121 162 205 251 300 366
#     4  10  21  39  59  88 127 160 202 255 313 358
#
# _framework density 22.980125000000001
#
# number of rings (size 3 to 8) (size 9 to 14) (size 15 to 20)
#    0.000    2.000    1.250    2.250    1.750    1.000 
#    2.250   11.250    0.000    6.750    0.000    0.000 
#    0.000    0.000    0.000    0.000    0.000    0.000 
#
# Total GULP energy -89297.174776 kJ/mol
# GULP energy per Si atom -5581.073424 kJ/mol
# Density = 2.292782 g / cm^3
# Si number density = 22.980125 Si / 1000 Ang^3
#
#
#
# Elastic Constant Matrix: (Units=GPa)
#
#
# Indices 1 2 3 4 5 6 
#
# 1 85.7133 16.8869 65.3441 -21.2490 -8.4702 16.3175
# 2 16.8869 79.3705 49.3401 -14.3530 -11.8325 10.6317
# 3 65.3441 49.3401 170.3882 -43.8458 -21.8610 18.0377
# 4 -21.2490 -14.3530 -43.8458 38.7602 9.0609 -12.5902
# 5 -8.4702 -11.8325 -21.8610 9.0609 26.1808 -6.1070
# 6 16.3175 10.6317 18.0377 -12.5902 -6.1070 27.9603
#
#
#
# Elastic Compliance Matrix: (Units=1/GPa)
#
#
# Indices 1 2 3 4 5 6 
#
# 1 0.017588 0.001031 -0.006184 0.001181 -0.000893 -0.006330
# 2 0.001031 0.015939 -0.004305 -0.000228 0.003257 -0.003276
# 3 -0.006184 -0.004305 0.011851 0.008269 0.003579 0.002106
# 4 0.001181 -0.000228 0.008269 0.040367 -0.004143 0.011335
# 5 -0.000893 0.003257 0.003579 -0.004143 0.044950 0.004926
# 6 -0.006330 -0.003276 0.002106 0.011335 0.004926 0.045526
#
#
# Mechanical properties :
#
#
# Convention : Reuss Voigt Hill
#
# Bulk Modulus (GPa) = 37.79018 66.51269 52.15144
# Shear Modulus (GPa) = 24.51477 32.17365 28.34421
#
# Velocity S-wave (km/s) = 3.26971 3.74580 3.51582
# Velocity P-wave (km/s) = 5.54392 6.90757 6.26297
#
# Compressibility (1/GPa) = 0.02646190
#
# Stress axis : x y z
#
# Youngs Moduli (GPa) = 56.85813 62.73884 84.37962
#
# Poissons Ratio (x) = -0.06465 0.52179
# Poissons Ratio (y) = -0.05859 0.36322
# Poissons Ratio (z) = 0.35160 0.27007
#
# Static dielectric constant tensor:
#      x y z
#    x 1.865700 0.044990 -0.028920 
#    y 0.044990 1.980180 0.014070 
#    z -0.028920 0.014070 1.945700 
# 
# From -- ./inp_files/216618.got.cif
#   From: 2010.05.17/outbox.cif.g08.bks.cpg/sg2_109_cif.got.tgz:216618.got - 2010.06.03 11:33:40.
