data_PCOD9096440
_publ_section_title
;
Structure prediction by ZEFSAII (Michael W. Deem and Ramdas Pophale) SiO2 
 PCOD9096440
Probable space group: P -1
;
_chemical_formula_sum "Si O2"
_cell_formula_units_Z 16
_cell_length_a 17.068670
_cell_length_b 6.418869
_cell_length_c 5.926429
_cell_angle_alpha 107.159118
_cell_angle_beta 86.544389
_cell_angle_gamma 93.497065
_cell_volume 618.643430
_symmetry_space_group_name_H-M "P -1"
_symmetry_group_IT_number 2
_symmetry_cell_setting 'triclinic'
loop_
_space_group_symop_operation_xyz
x,y,z
-x,-y,-z
loop_
_atom_site_type_symbol
_atom_site_label
_atom_site_fract_x
_atom_site_fract_y
_atom_site_fract_z
Si Si1 0.044030 0.782766 0.324514
Si Si2 0.003192 0.684550 0.793793
Si Si3 0.735266 0.746883 0.043593
Si Si4 0.437281 0.325331 0.065188
Si Si5 0.204473 0.954709 0.221399
Si Si6 0.822846 0.434776 0.248218
Si Si7 0.464891 0.869219 0.671161
Si Si8 0.299022 0.811726 0.539664
O O1 0.001467 0.807268 0.587711
O O2 0.126665 0.922013 0.374961
O O3 0.058836 0.519937 0.238133
O O4 0.008045 0.801275 0.078048
O O5 0.085307 0.559650 0.721104
O O6 0.652802 0.621394 0.951435
O O7 0.788353 0.627902 0.174463
O O8 0.714499 0.971725 0.241599
O O9 0.782819 0.817384 0.833434
O O10 0.442852 0.074307 0.897042
O O11 0.500000 0.500000 0.000000
O O12 0.470722 0.288094 0.296125
O O13 0.282904 0.892954 0.317134
O O14 0.188025 0.774868 0.977794
O O15 0.766692 0.372769 0.446879
O O16 0.384998 0.742741 0.567285
O O17 0.500000 0.000000 0.500000
#
# Coordination Sequence:
#
# PCOD9096440 Si02
#       8
#     2   2   2   2   2   2   2   2
#     4   9  17  32  58  86 117 156 198 245 289 348
#     4   9  17  32  57  88 116 154 203 240 290 349
#     4  10  22  36  54  82 113 143 188 240 289 349
#     4  10  21  38  56  78 109 145 184 236 291 345
#     4  10  20  36  57  81 111 151 189 235 292 343
#     4  10  20  36  57  81 110 151 190 234 286 350
#     4  10  21  36  56  79 106 141 186 234 284 349
#     4  10  20  36  55  79 109 144 186 234 291 345
#
# _framework density 25.863042
#
# number of rings (size 3 to 8) (size 9 to 14) (size 15 to 20)
#    0.000    2.250    1.250    1.500    0.000    4.500 
#    0.000    0.625    0.000    0.750    0.000    0.000 
#    0.000    0.000    0.000    0.000    0.000    0.000 
#
# Total GULP energy -89342.275059 kJ/mol
# GULP energy per Si atom -5583.892191 kJ/mol
# Density = 2.580418 g / cm^3
# Si number density = 25.863042 Si / 1000 Ang^3
#
#
#
# Elastic Constant Matrix: (Units=GPa)
#
#
# Indices 1 2 3 4 5 6 
#
# 1 105.7680 45.0366 21.0130 -7.9853 23.9065 5.4751
# 2 45.0366 76.7807 42.0656 -7.5079 5.7009 9.8537
# 3 21.0130 42.0656 123.1572 -25.3850 19.1563 1.0171
# 4 -7.9853 -7.5079 -25.3850 57.8072 -0.0043 0.5051
# 5 23.9065 5.7009 19.1563 -0.0043 33.7974 -5.8504
# 6 5.4751 9.8537 1.0171 0.5051 -5.8504 39.8586
#
#
#
# Elastic Compliance Matrix: (Units=1/GPa)
#
#
# Indices 1 2 3 4 5 6 
#
# 1 0.015783 -0.009527 0.002801 0.002186 -0.011419 -0.001588
# 2 -0.009527 0.022385 -0.007354 -0.001611 0.006604 -0.003048
# 3 0.002801 -0.007354 0.012364 0.004861 -0.007762 -0.000083
# 4 0.002186 -0.001611 0.004861 0.019534 -0.004181 -0.000887
# 5 -0.011419 0.006604 -0.007762 -0.004181 0.042052 0.006359
# 6 -0.001588 -0.003048 -0.000083 -0.000887 0.006359 0.027007
#
#
# Mechanical properties :
#
#
# Convention : Reuss Voigt Hill
#
# Bulk Modulus (GPa) = 44.70037 57.99292 51.34664
# Shear Modulus (GPa) = 28.61371 39.46536 34.03953
#
# Velocity S-wave (km/s) = 3.32980 3.91056 3.63181
# Velocity P-wave (km/s) = 5.66608 6.54689 6.12234
#
# Compressibility (1/GPa) = 0.02237118
#
# Stress axis : x y z
#
# Youngs Moduli (GPa) = 63.35886 44.67345 80.88134
#
# Poissons Ratio (x) = 0.42560 -0.22655
# Poissons Ratio (y) = 0.60361 0.59483
# Poissons Ratio (z) = -0.17747 0.32854
#
# Static dielectric constant tensor:
#      x y z
#    x 2.070790 0.025200 -0.003420 
#    y 0.025200 1.934210 -0.108890 
#    z -0.003420 -0.108890 1.989270 
# 
# From -- ./inp_files/10968.got.cif
#   From: 2010.05.17/outbox.cif.g08.bks.cpg/sg2_6_cif.got.tgz:10968.got - 2010.06.03 11:33:40.
