data_PCOD9096544
_publ_section_title
;
Structure prediction by ZEFSAII (Michael W. Deem and Ramdas Pophale) SiO2 
 PCOD9096544
Probable space group: P -1
;
_chemical_formula_sum "Si O2"
_cell_formula_units_Z 16
_cell_length_a 17.407194
_cell_length_b 8.921270
_cell_length_c 15.236913
_cell_angle_alpha 83.439180
_cell_angle_beta 153.465384
_cell_angle_gamma 112.646125
_cell_volume 809.314600
_symmetry_space_group_name_H-M "P -1"
_symmetry_group_IT_number 2
_symmetry_cell_setting 'triclinic'
loop_
_space_group_symop_operation_xyz
x,y,z
-x,-y,-z
loop_
_atom_site_type_symbol
_atom_site_label
_atom_site_fract_x
_atom_site_fract_y
_atom_site_fract_z
Si Si1 0.162124 0.613821 0.941382
Si Si2 0.198516 0.873087 0.097297
Si Si3 0.796831 0.645274 0.583672
Si Si4 0.463752 0.303694 0.396688
Si Si5 0.761923 0.811375 0.364305
Si Si6 0.710962 0.360117 0.127519
Si Si7 0.060357 0.782555 0.539615
Si Si8 0.848928 0.607924 0.898407
O O1 0.279208 0.652308 0.966679
O O2 0.928799 0.570980 0.688252
O O3 0.286271 0.800287 0.121507
O O4 0.121150 0.446405 0.971699
O O5 0.382356 0.094857 0.298175
O O6 0.983329 0.821151 0.827811
O O7 0.073126 0.727398 0.061815
O O8 0.586547 0.467502 0.434655
O O9 0.738983 0.724256 0.441604
O O10 0.647091 0.410333 0.654047
O O11 0.243678 0.274043 0.199588
O O12 0.923127 0.793088 0.474518
O O13 0.852276 0.032794 0.443650
O O14 0.522945 0.696790 0.082045
O O15 0.756512 0.223726 0.227989
O O16 0.903037 0.581615 0.339017
#
# Coordination Sequence:
#
# PCOD9096544 Si02
#       8
#     2   2   2   2   2   2   2   2
#     4  10  21  40  54  82 125 150 191 252 286 341
#     4   9  20  37  58  81 116 156 190 247 289 339
#     4   9  21  37  55  84 120 151 192 242 286 343
#     4  10  20  36  59  82 112 156 201 235 295 353
#     4  11  21  41  65  89 120 161 192 244 297 354
#     4  11  22  42  62  92 121 156 195 245 300 351
#     4  10  23  41  65  92 120 150 202 243 295 359
#     4  10  20  36  56  83 114 151 197 247 288 343
#
# _framework density 19.769815000000001
#
# number of rings (size 3 to 8) (size 9 to 14) (size 15 to 20)
#    0.750    1.250    1.250    2.250    0.000    2.500 
#    2.250    1.250    0.000    0.000    0.000    0.000 
#    0.000    0.000    0.000    0.000    0.000    0.000 
#
# Total GULP energy -89206.055040 kJ/mol
# GULP energy per Si atom -5575.378440 kJ/mol
# Density = 1.972482 g / cm^3
# Si number density = 19.769815 Si / 1000 Ang^3
#
#
#
# Elastic Constant Matrix: (Units=GPa)
#
#
# Indices 1 2 3 4 5 6 
#
# 1 -118.8070 12.4168 -22.9287 10.7708 27.8311 -68.0125
# 2 12.4168 103.8787 34.5706 -16.5245 -6.6201 5.3521
# 3 -22.9287 34.5706 40.1095 -3.2005 9.3540 -3.2107
# 4 10.7708 -16.5245 -3.2005 36.7766 -12.8759 2.8249
# 5 27.8311 -6.6201 9.3540 -12.8759 8.6947 20.7841
# 6 -68.0125 5.3521 -3.2107 2.8249 20.7841 -18.9503
#
#
#
# Elastic Compliance Matrix: (Units=1/GPa)
#
#
# Indices 1 2 3 4 5 6 
#
# 1 0.020824 0.003391 -0.000981 0.009996 0.034290 -0.034515
# 2 0.003391 0.014748 -0.012003 0.007612 0.009973 0.006102
# 3 -0.000981 -0.012003 0.035262 -0.004078 -0.009539 -0.016915
# 4 0.009996 0.007612 -0.004078 0.036669 0.027166 0.002227
# 5 0.034290 0.009973 -0.009539 0.027166 0.093116 -0.012456
# 6 -0.034515 0.006102 -0.016915 0.002227 -0.012456 0.062364
#
#
# Mechanical properties :
#
#
# Convention : Reuss Voigt Hill
#
# Bulk Modulus (GPa) = 19.36176 8.14430 13.75303
# Shear Modulus (GPa) = 16.70095 5.37905 11.04000
#
# Velocity S-wave (km/s) = 2.90965 1.65129 2.36567
# Velocity P-wave (km/s) = 4.59379 2.78643 3.79915
#
# Compressibility (1/GPa) = 0.05164819
#
# Stress axis : x y z
#
# Youngs Moduli (GPa) = 48.02185 67.80623 28.35931
#
# Poissons Ratio (x) = -0.22992 0.02781
# Poissons Ratio (y) = -0.16284 0.34039
# Poissons Ratio (z) = 0.04709 0.81387
#
# Static dielectric constant tensor:
#      x y z
#    x 1.706960 -0.013650 0.028400 
#    y -0.013650 1.688130 -0.020660 
#    z 0.028400 -0.020660 1.699940 
# 
# From -- ./inp_files/537351.got.cif
#   From: 2010.05.17/outbox.cif.g08.bks.cpg/sg2_269_cif.got.tgz:537351.got - 2010.06.03 11:33:40.
