data_PCOD9096893
_publ_section_title
;
Structure prediction by ZEFSAII (Michael W. Deem and Ramdas Pophale) SiO2 
 PCOD9096893
Probable space group: P -1
;
_chemical_formula_sum "Si O2"
_cell_formula_units_Z 16
_cell_length_a 15.545996
_cell_length_b 8.364642
_cell_length_c 14.884493
_cell_angle_alpha 131.617804
_cell_angle_beta 151.258677
_cell_angle_gamma 46.337777
_cell_volume 663.605348
_symmetry_space_group_name_H-M "P -1"
_symmetry_group_IT_number 2
_symmetry_cell_setting 'triclinic'
loop_
_space_group_symop_operation_xyz
x,y,z
-x,-y,-z
loop_
_atom_site_type_symbol
_atom_site_label
_atom_site_fract_x
_atom_site_fract_y
_atom_site_fract_z
Si Si1 0.732674 0.019993 0.545774
Si Si2 0.111922 0.479419 0.448827
Si Si3 0.480545 0.286304 0.811581
Si Si4 0.340399 0.360071 0.093548
Si Si5 0.201795 0.309656 0.131107
Si Si6 0.076645 0.816072 0.072998
Si Si7 0.310496 0.369824 0.874934
Si Si8 0.719440 0.395338 0.530988
O O1 0.752354 0.173405 0.703515
O O2 0.766201 0.154903 0.538074
O O3 0.877792 0.780656 0.619002
O O4 0.544352 0.940659 0.339862
O O5 0.293303 0.479593 0.674642
O O6 0.149754 0.554248 0.410036
O O7 0.903251 0.615884 0.337848
O O8 0.441435 0.262545 0.871830
O O9 0.648653 0.389045 0.987227
O O10 0.300363 0.240023 0.101277
O O11 0.160046 0.581126 0.010881
O O12 0.527592 0.419613 0.312183
O O13 0.355160 0.255093 0.970077
O O14 0.297885 0.424056 0.337020
O O15 0.000000 0.500000 0.000000
O O16 0.111358 0.133529 0.021421
O O17 0.000000 0.000000 0.000000
#
# Coordination Sequence:
#
# PCOD9096893 Si02
#       8
#     2   2   2   2   2   2   2   2
#     4  10  22  41  61  93 131 163 211 267 312 378
#     4  10  22  42  68  92 125 172 211 263 327 370
#     4   9  23  43  65  97 123 167 220 267 319 375
#     4  11  22  37  62  93 122 175 209 254 331 370
#     4  10  20  36  58  86 124 170 203 248 317 380
#     4  11  22  40  61  93 130 164 217 261 314 390
#     4  11  20  43  72  87 128 173 214 263 323 383
#     4  12  21  42  62  93 138 163 212 267 315 392
#
# _framework density 24.110717999999999
#
# number of rings (size 3 to 8) (size 9 to 14) (size 15 to 20)
#    0.750    0.750    3.750    3.750    0.000    0.000 
#    6.750    4.375    0.000    0.000    0.000    0.000 
#    0.000    0.000    0.000    0.000    0.000    0.000 
#
# Total GULP energy -89117.139968 kJ/mol
# GULP energy per Si atom -5569.821248 kJ/mol
# Density = 2.405584 g / cm^3
# Si number density = 24.110718 Si / 1000 Ang^3
#
#
#
# Elastic Constant Matrix: (Units=GPa)
#
#
# Indices 1 2 3 4 5 6 
#
# 1 136.6267 21.0563 25.4812 -0.6877 4.4267 29.5308
# 2 21.0563 63.4800 9.5511 -1.6850 10.8380 14.5831
# 3 25.4812 9.5511 109.0945 -4.8122 2.9898 5.9140
# 4 -0.6877 -1.6850 -4.8122 30.3627 5.7523 -1.0196
# 5 4.4267 10.8380 2.9898 5.7523 37.6024 2.2172
# 6 29.5308 14.5831 5.9140 -1.0196 2.2172 26.6830
#
#
#
# Elastic Compliance Matrix: (Units=1/GPa)
#
#
# Indices 1 2 3 4 5 6 
#
# 1 0.009971 -0.000664 -0.001726 -0.000396 -0.000178 -0.010291
# 2 -0.000664 0.019077 -0.000818 0.001570 -0.005063 -0.009029
# 3 -0.001726 -0.000818 0.009710 0.001577 -0.000593 0.000314
# 4 -0.000396 0.001570 0.001577 0.034407 -0.005856 0.001032
# 5 -0.000178 -0.005063 -0.000593 -0.005856 0.028990 0.000463
# 6 -0.010291 -0.009029 0.000314 0.001032 0.000463 0.053732
#
#
# Mechanical properties :
#
#
# Convention : Reuss Voigt Hill
#
# Bulk Modulus (GPa) = 30.91822 46.81982 38.86902
# Shear Modulus (GPa) = 28.88797 35.80380 32.34589
#
# Velocity S-wave (km/s) = 3.46517 3.85772 3.66670
# Velocity P-wave (km/s) = 5.37226 6.26925 5.83800
#
# Compressibility (1/GPa) = 0.03234339
#
# Stress axis : x y z
#
# Youngs Moduli (GPa) = 100.28711 52.42026 102.98870
#
# Poissons Ratio (x) = 0.03481 0.17772
# Poissons Ratio (y) = 0.06659 0.08420
# Poissons Ratio (z) = 0.17306 0.04286
#
# Static dielectric constant tensor:
#      x y z
#    x 1.952280 0.066740 0.031550 
#    y 0.066740 2.127830 0.012690 
#    z 0.031550 0.012690 1.960770 
# 
# From -- ./inp_files/530067.got.cif
#   From: 2010.05.17/outbox.cif.g08.bks.cpg/sg2_266_cif.got.tgz:530067.got - 2010.06.03 11:33:40.
