data_PCOD9096547
_publ_section_title
;
Structure prediction by ZEFSAII (Michael W. Deem and Ramdas Pophale) SiO2 
 PCOD9096547
Probable space group: P -1
;
_chemical_formula_sum "Si O2"
_cell_formula_units_Z 16
_cell_length_a 22.950243
_cell_length_b 14.323698
_cell_length_c 20.528693
_cell_angle_alpha 150.659749
_cell_angle_beta 19.886315
_cell_angle_gamma 158.963177
_cell_volume 823.031941
_symmetry_space_group_name_H-M "P -1"
_symmetry_group_IT_number 2
_symmetry_cell_setting 'triclinic'
loop_
_space_group_symop_operation_xyz
x,y,z
-x,-y,-z
loop_
_atom_site_type_symbol
_atom_site_label
_atom_site_fract_x
_atom_site_fract_y
_atom_site_fract_z
Si Si1 0.294062 0.198975 0.747288
Si Si2 0.249503 0.200640 0.949432
Si Si3 0.405824 0.556344 0.530799
Si Si4 0.936674 0.603359 0.540771
Si Si5 0.151544 0.157855 0.671606
Si Si6 0.839953 0.258060 0.071199
Si Si7 0.360141 0.687121 0.194516
Si Si8 0.420426 0.872541 0.435923
O O1 0.311623 0.257523 0.841193
O O2 0.489166 0.446364 0.647958
O O3 0.336920 0.005520 0.572608
O O4 0.030386 0.032490 0.898826
O O5 0.371437 0.106194 0.794248
O O6 0.338998 0.457696 0.048239
O O7 0.247750 0.303526 0.589274
O O8 0.634846 0.759531 0.459500
O O9 0.272442 0.653792 0.716405
O O10 0.761870 0.407061 0.663266
O O11 0.804397 0.435055 0.513289
O O12 0.184077 0.685972 0.337520
O O13 0.973016 0.853116 0.661884
O O14 0.021111 0.234702 0.890304
O O15 0.617964 0.973998 0.101914
O O16 0.000000 0.500000 0.000000
O O17 0.500000 0.000000 0.500000
#
# Coordination Sequence:
#
# PCOD9096547 Si02
#       8
#     2   2   2   2   2   2   2   2
#     4  10  20  36  56  83 117 151 188 232 284 341
#     4  10  21  35  56  86 115 151 187 236 286 334
#     4  10  20  36  56  83 117 151 188 232 284 341
#     4  11  21  35  59  87 115 146 188 239 288 334
#     4  10  21  35  56  86 115 151 187 236 286 334
#     4  10  21  36  56  83 115 148 184 231 284 340
#     4  11  21  35  59  87 115 146 188 239 288 334
#     4  10  21  36  56  83 115 148 184 231 284 340
#
# _framework density 19.440314999999998
#
# number of rings (size 3 to 8) (size 9 to 14) (size 15 to 20)
#    0.000    1.750    2.500    2.250    0.000    5.000 
#    0.000    0.000    0.000   14.250    0.000    0.000 
#    0.000    0.000    0.000    0.000    0.000    0.000 
#
# Total GULP energy -89195.814793 kJ/mol
# GULP energy per Si atom -5574.738425 kJ/mol
# Density = 1.939607 g / cm^3
# Si number density = 19.440315 Si / 1000 Ang^3
#
#
#
# Elastic Constant Matrix: (Units=GPa)
#
#
# Indices 1 2 3 4 5 6 
#
# 1 42.6526 11.2195 22.6988 -4.8825 -5.4540 -2.3870
# 2 11.2195 68.4414 11.1848 -5.2695 1.5637 8.6867
# 3 22.6988 11.1848 102.7234 -4.2663 -9.2048 -11.4066
# 4 -4.8825 -5.2695 -4.2663 36.9468 -5.1499 -1.4389
# 5 -5.4540 1.5637 -9.2048 -5.1499 40.1110 -0.6819
# 6 -2.3870 8.6867 -11.4066 -1.4389 -0.6819 18.3502
#
#
#
# Elastic Compliance Matrix: (Units=1/GPa)
#
#
# Indices 1 2 3 4 5 6 
#
# 1 0.028106 -0.003966 -0.005049 0.003128 0.003266 0.002762
# 2 -0.003966 0.016994 -0.002188 0.001018 -0.001741 -0.009905
# 3 -0.005049 -0.002188 0.012267 0.001104 0.002495 0.008183
# 4 0.003128 0.001018 0.001104 0.028475 0.004346 0.003005
# 5 0.003266 -0.001741 0.002495 0.004346 0.026643 0.004131
# 6 0.002762 -0.009905 0.008183 0.003005 0.004131 0.065020
#
#
# Mechanical properties :
#
#
# Convention : Reuss Voigt Hill
#
# Bulk Modulus (GPa) = 28.60404 33.78042 31.19223
# Shear Modulus (GPa) = 23.63333 30.32921 26.98127
#
# Velocity S-wave (km/s) = 3.49045 3.95412 3.72950
# Velocity P-wave (km/s) = 5.56687 6.18554 5.88434
#
# Compressibility (1/GPa) = 0.03496009
#
# Stress axis : x y z
#
# Youngs Moduli (GPa) = 35.57947 58.84367 81.52023
#
# Poissons Ratio (x) = 0.23340 0.41164
# Poissons Ratio (y) = 0.14113 0.17833
# Poissons Ratio (z) = 0.17966 0.12872
#
# Static dielectric constant tensor:
#      x y z
#    x 1.719220 -0.028340 -0.009320 
#    y -0.028340 1.683970 0.002940 
#    z -0.009320 0.002940 1.733780 
# 
# From -- ./inp_files/423416.got.cif
#   From: 2010.05.17/outbox.cif.g08.bks.cpg/sg2_212_cif.got.tgz:423416.got - 2010.06.03 11:33:40.
