data_PCOD9096270
_publ_section_title
;
Structure prediction by ZEFSAII (Michael W. Deem and Ramdas Pophale) SiO2 
 PCOD9096270
Probable space group: P -1
;
_chemical_formula_sum "Si O2"
_cell_formula_units_Z 14
_cell_length_a 10.770139
_cell_length_b 20.251783
_cell_length_c 12.042673
_cell_angle_alpha 153.732431
_cell_angle_beta 54.473365
_cell_angle_gamma 139.928806
_cell_volume 695.503133
_symmetry_space_group_name_H-M "P -1"
_symmetry_group_IT_number 2
_symmetry_cell_setting 'triclinic'
loop_
_space_group_symop_operation_xyz
x,y,z
-x,-y,-z
loop_
_atom_site_type_symbol
_atom_site_label
_atom_site_fract_x
_atom_site_fract_y
_atom_site_fract_z
Si Si1 0.907089 0.103358 0.318681
Si Si2 0.585299 0.432932 0.634578
Si Si3 0.336479 0.114106 0.465961
Si Si4 0.792063 0.584318 0.184841
Si Si5 0.618443 0.174385 0.610240
Si Si6 0.888261 0.722990 0.103915
Si Si7 0.283790 0.340608 0.305763
O O1 0.769189 0.156178 0.446402
O O2 0.022164 0.211479 0.539114
O O3 0.093549 0.227065 0.319289
O O4 0.771070 0.860281 0.021452
O O5 0.462584 0.222545 0.449118
O O6 0.412340 0.449950 0.745877
O O7 0.690138 0.513137 0.580196
O O8 0.769943 0.588894 0.857161
O O9 0.471605 0.147360 0.550151
O O10 0.227370 0.197197 0.686219
O O11 0.132452 0.884010 0.201205
O O12 0.846566 0.605056 0.058876
O O13 0.734929 0.377479 0.929536
O O14 0.500000 0.000000 0.500000
O O15 0.500000 0.500000 0.500000
#
# Coordination Sequence:
#
# PCOD9096270 Si02
#       7
#     2   2   2   2   2   2   2
#     4  11  26  41  66  95 129 171 215 257 325 375
#     4  11  20  38  66  90 126 163 216 263 306 371
#     4  10  21  35  57  95 127 165 203 254 319 377
#     4  11  20  40  63 100 130 159 201 269 328 384
#     4  12  23  39  63  99 140 164 198 264 335 390
#     4  10  20  35  64  93 128 161 205 260 321 376
#     4  11  25  46  66  89 123 175 230 264 293 373
#
# _framework density 20.129313
#
# number of rings (size 3 to 8) (size 9 to 14) (size 15 to 20)
#    0.000    1.143    4.286    3.000    6.000    0.000 
#    0.000    0.714    0.000    1.714    0.000    0.000 
#    0.000    0.000    0.000    0.000    0.000    0.000 
#
# Total GULP energy -78009.234629 kJ/mol
# GULP energy per Si atom -5572.088188 kJ/mol
# Density = 2.008350 g / cm^3
# Si number density = 20.129313 Si / 1000 Ang^3
#
#
#
# Elastic Constant Matrix: (Units=GPa)
#
#
# Indices 1 2 3 4 5 6 
#
# 1 58.1374 30.6191 39.4916 10.8014 14.6773 -5.7947
# 2 30.6191 80.8632 12.7387 21.6600 12.6845 -15.4935
# 3 39.4916 12.7387 91.5911 22.4191 22.3865 4.8698
# 4 10.8014 21.6600 22.4191 29.0468 1.6152 5.6149
# 5 14.6773 12.6845 22.3865 1.6152 33.2982 -1.8975
# 6 -5.7947 -15.4935 4.8698 5.6149 -1.8975 36.3792
#
#
#
# Elastic Compliance Matrix: (Units=1/GPa)
#
#
# Indices 1 2 3 4 5 6 
#
# 1 0.031327 -0.011398 -0.013570 0.007204 -0.000647 0.000807
# 2 -0.011398 0.024624 0.008391 -0.022174 -0.008321 0.010537
# 3 -0.013570 0.008391 0.022929 -0.018367 -0.011707 0.000567
# 4 0.007204 -0.022174 -0.018367 0.064621 0.013624 -0.015101
# 5 -0.000647 -0.008321 -0.011707 0.013624 0.040579 -0.002066
# 6 0.000807 0.010537 0.000567 -0.015101 -0.002066 0.034251
#
#
# Mechanical properties :
#
#
# Convention : Reuss Voigt Hill
#
# Bulk Modulus (GPa) = 21.86935 44.03228 32.95081
# Shear Modulus (GPa) = 18.74580 29.59434 24.17007
#
# Velocity S-wave (km/s) = 3.05498 3.83849 3.46893
# Velocity P-wave (km/s) = 4.83031 6.44729 5.69647
#
# Compressibility (1/GPa) = 0.04572610
#
# Stress axis : x y z
#
# Youngs Moduli (GPa) = 31.92169 40.61034 43.61285
#
# Poissons Ratio (x) = 0.46287 0.59183
# Poissons Ratio (y) = 0.36384 -0.36595
# Poissons Ratio (z) = 0.43318 -0.34076
#
# Static dielectric constant tensor:
#      x y z
#    x 1.684430 0.032400 0.042890 
#    y 0.032400 1.710700 -0.062660 
#    z 0.042890 -0.062660 1.599070 
# 
# From -- ./inp_files/438502.got.cif
#   From: 2010.05.17/outbox.cif.g08.bks.cpg/sg2_220_cif.got.tgz:438502.got - 2010.06.03 11:33:40.
