data_PCOD9096176
_publ_section_title
;
Structure prediction by ZEFSAII (Michael W. Deem and Ramdas Pophale) SiO2 
 PCOD9096176
Probable space group: P -1
;
_chemical_formula_sum "Si O2"
_cell_formula_units_Z 12
_cell_length_a 11.264235
_cell_length_b 11.036251
_cell_length_c 14.809342
_cell_angle_alpha 137.303293
_cell_angle_beta 154.133321
_cell_angle_gamma 35.579703
_cell_volume 467.293398
_symmetry_space_group_name_H-M "P -1"
_symmetry_group_IT_number 2
_symmetry_cell_setting 'triclinic'
loop_
_space_group_symop_operation_xyz
x,y,z
-x,-y,-z
loop_
_atom_site_type_symbol
_atom_site_label
_atom_site_fract_x
_atom_site_fract_y
_atom_site_fract_z
Si Si1 0.490278 0.563071 0.771577
Si Si2 0.207553 0.191280 0.853439
Si Si3 0.656519 0.560562 0.220341
Si Si4 0.040995 0.128392 0.300865
Si Si5 0.561977 0.243950 0.514103
Si Si6 0.542826 0.057573 0.820501
O O1 0.535609 0.418663 0.809575
O O2 0.187497 0.777350 0.715786
O O3 0.420593 0.470114 0.585166
O O4 0.773835 0.609461 0.990928
O O5 0.300278 0.146356 0.787105
O O6 0.878541 0.210146 0.663328
O O7 0.500000 0.000000 0.000000
O O8 0.997148 0.345753 0.351217
O O9 0.619138 0.773815 0.278620
O O10 0.500000 0.500000 0.000000
O O11 0.852047 0.062006 0.066581
O O12 0.341917 0.920053 0.426876
O O13 0.386487 0.168036 0.285259
#
# Coordination Sequence:
#
# PCOD9096176 Si02
#       6
#     2   2   2   2   2   2
#     4   9  20  36  62  81 111 152 180 235 276 328
#     4  11  19  40  61  73 119 154 179 231 283 324
#     4   8  15  38  61  76 116 150 178 229 282 319
#     4   8  19  40  57  79 118 147 176 233 274 330
#     4  12  21  35  62  87 109 149 189 223 288 324
#     4  10  20  35  63  82 111 152 184 231 276 334
#
# _framework density 25.6798
#
# number of rings (size 3 to 8) (size 9 to 14) (size 15 to 20)
#    1.000    1.333    5.000    1.000    0.000    1.333 
#    0.000    7.500    0.000    0.000    0.000    0.000 
#    0.000    0.000    0.000    0.000    0.000    0.000 
#
# Total GULP energy -67016.656211 kJ/mol
# GULP energy per Si atom -5584.721351 kJ/mol
# Density = 2.562135 g / cm^3
# Si number density = 25.679800 Si / 1000 Ang^3
#
#
#
# Elastic Constant Matrix: (Units=GPa)
#
#
# Indices 1 2 3 4 5 6 
#
# 1 73.9286 36.3232 12.3327 12.8005 -4.4949 18.9910
# 2 36.3232 85.8672 42.5039 19.2435 -6.9591 0.1412
# 3 12.3327 42.5039 131.5440 57.1138 1.0383 -3.5283
# 4 12.8005 19.2435 57.1138 55.5847 -8.8478 -5.6302
# 5 -4.4949 -6.9591 1.0383 -8.8478 25.0715 16.6033
# 6 18.9910 0.1412 -3.5283 -5.6302 16.6033 32.4313
#
#
#
# Elastic Compliance Matrix: (Units=1/GPa)
#
#
# Indices 1 2 3 4 5 6 
#
# 1 0.025738 -0.009423 0.001710 -0.004255 0.016258 -0.023906
# 2 -0.009423 0.018152 -0.006145 0.002919 0.001723 0.004395
# 3 0.001710 -0.006145 0.016980 -0.017017 -0.010181 0.003131
# 4 -0.004255 0.002919 -0.017017 0.037681 0.014074 -0.000036
# 5 0.016258 0.001723 -0.010181 0.014074 0.081838 -0.050090
# 6 -0.023906 0.004395 0.003131 -0.000036 -0.050090 0.070792
#
#
# Mechanical properties :
#
#
# Convention : Reuss Voigt Hill
#
# Bulk Modulus (GPa) = 30.16330 52.62881 41.39605
# Shear Modulus (GPa) = 17.24439 35.96282 26.60361
#
# Velocity S-wave (km/s) = 2.59417 3.74630 3.22215
# Velocity P-wave (km/s) = 4.55460 6.26512 5.47705
#
# Compressibility (1/GPa) = 0.03315288
#
# Stress axis : x y z
#
# Youngs Moduli (GPa) = 38.85347 55.09041 58.89297
#
# Poissons Ratio (x) = 0.51913 -0.10069
# Poissons Ratio (y) = 0.36613 0.36189
# Poissons Ratio (z) = -0.06643 0.33853
#
# Static dielectric constant tensor:
#      x y z
#    x 2.033720 -0.002240 0.006220 
#    y -0.002240 2.051500 0.003410 
#    z 0.006220 0.003410 2.050590 
# 
# From -- ./inp_files/258039.got.cif
#   From: 2010.05.17/outbox.cif.g08.bks.cpg/sg2_130_cif.got.tgz:258039.got - 2010.06.03 11:33:40.
