data_PCOD9096290
_publ_section_title
;
Structure prediction by ZEFSAII (Michael W. Deem and Ramdas Pophale) SiO2 
 PCOD9096290
Probable space group: P -1
;
_chemical_formula_sum "Si O2"
_cell_formula_units_Z 14
_cell_length_a 17.195407
_cell_length_b 5.196968
_cell_length_c 8.532539
_cell_angle_alpha 104.779455
_cell_angle_beta 64.576537
_cell_angle_gamma 86.278627
_cell_volume 652.459510
_symmetry_space_group_name_H-M "P -1"
_symmetry_group_IT_number 2
_symmetry_cell_setting 'triclinic'
loop_
_space_group_symop_operation_xyz
x,y,z
-x,-y,-z
loop_
_atom_site_type_symbol
_atom_site_label
_atom_site_fract_x
_atom_site_fract_y
_atom_site_fract_z
Si Si1 0.162064 0.314785 0.094473
Si Si2 0.983455 0.305421 0.126099
Si Si3 0.341782 0.105421 0.318849
Si Si4 0.306085 0.790311 0.877368
Si Si5 0.491238 0.807769 0.620473
Si Si6 0.701107 0.456712 0.842418
Si Si7 0.208880 0.455417 0.716766
O O1 0.196571 0.531484 0.208500
O O2 0.058836 0.319106 0.190052
O O3 0.183885 0.365024 0.899190
O O4 0.223588 0.023564 0.035404
O O5 0.880977 0.402968 0.268440
O O6 0.000000 0.500000 0.000000
O O7 0.000000 0.000000 0.000000
O O8 0.433594 0.145677 0.318123
O O9 0.331438 0.286893 0.199092
O O10 0.264880 0.225882 0.526613
O O11 0.328127 0.802996 0.248646
O O12 0.393891 0.895582 0.787082
O O13 0.272451 0.663918 0.731494
O O14 0.330721 0.559945 0.953398
O O15 0.500000 0.500000 0.500000
O O16 0.500000 0.000000 0.500000
#
# Coordination Sequence:
#
# PCOD9096290 Si02
#       7
#     2   2   2   2   2   2   2
#     4  10  21  43  66  95 129 166 215 262 315 377
#     4  10  20  35  64  99 123 157 216 267 309 369
#     4  12  25  44  63  95 133 164 215 262 314 379
#     4  11  22  43  69  91 129 170 213 258 319 375
#     4  12  26  42  67 101 125 160 213 272 315 365
#     4  11  26  43  64  91 134 176 205 255 320 383
#     4  10  22  38  69  96 123 168 214 268 316 364
#
# _framework density 21.457270999999999
#
# number of rings (size 3 to 8) (size 9 to 14) (size 15 to 20)
#    0.000    1.143    4.286    1.714    4.000    1.143 
#    0.000    1.429    0.000    0.000    0.000    0.000 
#    0.000    0.000    0.000    0.000    0.000    0.000 
#
# Total GULP energy -78149.208497 kJ/mol
# GULP energy per Si atom -5582.086321 kJ/mol
# Density = 2.140843 g / cm^3
# Si number density = 21.457271 Si / 1000 Ang^3
#
#
#
# Elastic Constant Matrix: (Units=GPa)
#
#
# Indices 1 2 3 4 5 6 
#
# 1 183.2374 36.0574 31.1441 -9.3606 10.6984 8.9971
# 2 36.0574 114.6003 6.7339 3.4067 19.9840 4.2225
# 3 31.1441 6.7339 29.3582 -2.4343 2.0773 0.6123
# 4 -9.3606 3.4067 -2.4343 30.4305 1.1698 12.2011
# 5 10.6984 19.9840 2.0773 1.1698 27.9709 5.2194
# 6 8.9971 4.2225 0.6123 12.2011 5.2194 34.5227
#
#
#
# Elastic Compliance Matrix: (Units=1/GPa)
#
#
# Indices 1 2 3 4 5 6 
#
# 1 0.007305 -0.001765 -0.007004 0.002909 -0.000670 -0.002490
# 2 -0.001765 0.010522 -0.000221 -0.001820 -0.006911 0.000865
# 3 -0.007004 -0.000221 0.041629 0.000866 -0.000454 0.000877
# 4 0.002909 -0.001820 0.000866 0.039937 0.001224 -0.014850
# 5 -0.000670 -0.006911 -0.000454 0.001224 0.042002 -0.005755
# 6 -0.002490 0.000865 0.000877 -0.014850 -0.005755 0.035613
#
#
# Mechanical properties :
#
#
# Convention : Reuss Voigt Hill
#
# Bulk Modulus (GPa) = 24.11072 52.78520 38.44796
# Shear Modulus (GPa) = 23.94496 35.46883 29.70690
#
# Velocity S-wave (km/s) = 3.34419 4.07012 3.72488
# Velocity P-wave (km/s) = 5.11590 6.83677 6.03796
#
# Compressibility (1/GPa) = 0.04147532
#
# Stress axis : x y z
#
# Youngs Moduli (GPa) = 136.88992 95.04237 24.02183
#
# Poissons Ratio (x) = 0.16773 0.16825
# Poissons Ratio (y) = 0.24158 0.00531
# Poissons Ratio (z) = 0.95881 0.02102
#
# Static dielectric constant tensor:
#      x y z
#    x 1.871780 0.043400 -0.005900 
#    y 0.043400 1.818150 0.010780 
#    z -0.005900 0.010780 1.766630 
# 
# From -- ./inp_files/34990.got.cif
#   From: 2010.05.17/outbox.cif.g08.bks.cpg/sg2_18_cif.got.tgz:34990.got - 2010.06.03 11:33:40.
