data_PCOD9096582
_publ_section_title
;
Structure prediction by ZEFSAII (Michael W. Deem and Ramdas Pophale) SiO2 
 PCOD9096582
Probable space group: P -1
;
_chemical_formula_sum "Si O2"
_cell_formula_units_Z 15
_cell_length_a 9.238083
_cell_length_b 4.972056
_cell_length_c 15.520794
_cell_angle_alpha 73.320623
_cell_angle_beta 92.801771
_cell_angle_gamma 74.242432
_cell_volume 650.997559
_symmetry_space_group_name_H-M "P -1"
_symmetry_group_IT_number 2
_symmetry_cell_setting 'triclinic'
loop_
_space_group_symop_operation_xyz
x,y,z
-x,-y,-z
loop_
_atom_site_type_symbol
_atom_site_label
_atom_site_fract_x
_atom_site_fract_y
_atom_site_fract_z
Si Si1 0.999445 0.424377 0.874859
Si Si2 0.587572 0.344384 0.793592
Si Si3 0.869495 0.206101 0.279131
Si Si4 0.760006 0.827049 0.964281
Si Si5 0.500000 0.500000 0.000000
Si Si6 0.143949 0.670904 0.298048
Si Si7 0.998522 0.691138 0.566943
Si Si8 0.597169 0.070939 0.196725
O O1 0.101828 0.601834 0.816492
O O2 0.867668 0.638480 0.909079
O O3 0.921995 0.319065 0.801741
O O4 0.116926 0.180006 0.957703
O O5 0.693176 0.290064 0.718200
O O6 0.544910 0.684130 0.785773
O O7 0.669209 0.151407 0.896412
O O8 0.441573 0.232577 0.785579
O O9 0.863278 0.377928 0.353015
O O10 0.738219 0.072535 0.259440
O O11 0.025390 0.939834 0.316697
O O12 0.635278 0.665707 0.998309
O O13 0.597686 0.224486 0.090623
O O14 0.134836 0.378322 0.373014
O O15 0.000000 0.500000 0.500000
O O16 0.000000 0.000000 0.500000
#
# Coordination Sequence:
#
# PCOD9096582 Si02
#       8
#     2   2   2   2   1   2   2   2
#     4  10  21  38  60  93 131 177 229 285 318 368
#     4  11  25  42  62  93 133 185 218 266 320 388
#     4  11  23  42  68 101 129 173 221 276 329 395
#     4  10  20  38  57  90 135 183 232 275 317 373
#     4  10  20  36  56  86 132 180 224 260 312 370
#     4  11  23  41  71  96 130 169 226 269 332 399
#     4  11  24  43  73 107 129 158 210 282 343 403
#     4  11  26  40  62  93 137 179 224 269 323 379
#
# _framework density 23.041558999999999
#
# number of rings (size 3 to 8) (size 9 to 14) (size 15 to 20)
#    0.000    1.333    4.000    1.600    5.600    3.733 
#    0.000    0.000    0.000    4.800    0.000    0.000 
#    0.000    0.000    0.000    0.000    0.000    0.000 
#
# Total GULP energy -83627.305941 kJ/mol
# GULP energy per Si atom -5575.153729 kJ/mol
# Density = 2.298912 g / cm^3
# Si number density = 23.041559 Si / 1000 Ang^3
#
#
#
# Elastic Constant Matrix: (Units=GPa)
#
#
# Indices 1 2 3 4 5 6 
#
# 1 92.2338 14.0174 45.5336 -4.6490 -11.0642 18.6980
# 2 14.0174 70.7229 21.9639 0.3948 -0.6509 11.4880
# 3 45.5336 21.9639 104.2720 6.1388 -10.3446 16.7119
# 4 -4.6490 0.3948 6.1388 35.4215 12.2360 -4.1906
# 5 -11.0642 -0.6509 -10.3446 12.2360 19.8914 -8.4956
# 6 18.6980 11.4880 16.7119 -4.1906 -8.4956 41.2061
#
#
#
# Elastic Compliance Matrix: (Units=1/GPa)
#
#
# Indices 1 2 3 4 5 6 
#
# 1 0.014832 -0.000612 -0.005581 0.001504 0.002887 -0.003548
# 2 -0.000612 0.015691 -0.002874 0.001019 -0.003461 -0.003541
# 3 -0.005581 -0.002874 0.013881 -0.005654 0.006878 -0.001453
# 4 0.001504 0.001019 -0.005654 0.038240 -0.025622 -0.000067
# 5 0.002887 -0.003461 0.006878 -0.025622 0.075281 0.009781
# 6 -0.003548 -0.003541 -0.001453 -0.000067 0.009781 0.029464
#
#
# Mechanical properties :
#
#
# Convention : Reuss Voigt Hill
#
# Bulk Modulus (GPa) = 38.06654 47.80651 42.93653
# Shear Modulus (GPa) = 23.33397 31.68471 27.50934
#
# Velocity S-wave (km/s) = 3.18573 3.71227 3.45904
# Velocity P-wave (km/s) = 5.48530 6.25840 5.88456
#
# Compressibility (1/GPa) = 0.02626979
#
# Stress axis : x y z
#
# Youngs Moduli (GPa) = 67.42309 63.73009 72.04123
#
# Poissons Ratio (x) = 0.03899 0.40209
# Poissons Ratio (y) = 0.04125 0.20703
# Poissons Ratio (z) = 0.37631 0.18315
#
# Static dielectric constant tensor:
#      x y z
#    x 1.948940 -0.080910 -0.043570 
#    y -0.080910 1.996140 0.077420 
#    z -0.043570 0.077420 1.917880 
# 
# From -- ./inp_files/54848.got.cif
#   From: 2010.05.17/outbox.cif.g08.bks.cpg/sg2_28_cif.got.tgz:54848.got - 2010.06.03 11:33:40.
