data_PCOD9096939
_publ_section_title
;
Structure prediction by ZEFSAII (Michael W. Deem and Ramdas Pophale) SiO2 
 PCOD9096939
Probable space group: P -1
;
_chemical_formula_sum "Si O2"
_cell_formula_units_Z 16
_cell_length_a 11.690035
_cell_length_b 6.861266
_cell_length_c 18.311054
_cell_angle_alpha 45.374448
_cell_angle_beta 131.656029
_cell_angle_gamma 111.742740
_cell_volume 768.031778
_symmetry_space_group_name_H-M "P -1"
_symmetry_group_IT_number 2
_symmetry_cell_setting 'triclinic'
loop_
_space_group_symop_operation_xyz
x,y,z
-x,-y,-z
loop_
_atom_site_type_symbol
_atom_site_label
_atom_site_fract_x
_atom_site_fract_y
_atom_site_fract_z
Si Si1 0.220026 0.233407 0.106975
Si Si2 0.522552 0.822428 0.360804
Si Si3 0.754655 0.195486 0.303700
Si Si4 0.200850 0.355728 0.901374
Si Si5 0.944956 0.232847 0.514513
Si Si6 0.584638 0.704661 0.583662
Si Si7 0.089073 0.229586 0.270741
Si Si8 0.089879 0.825513 0.940843
O O1 0.044912 0.170150 0.056731
O O2 0.348234 0.989977 0.257895
O O3 0.262730 0.272659 0.030408
O O4 0.205254 0.529411 0.063489
O O5 0.601239 0.728555 0.496505
O O6 0.506614 0.550426 0.378744
O O7 0.617914 0.031249 0.307906
O O8 0.712088 0.444917 0.162174
O O9 0.823523 0.305689 0.377909
O O10 0.899386 0.970116 0.394290
O O11 0.031642 0.545830 0.794592
O O12 0.177046 0.080206 0.921762
O O13 0.000000 0.500000 0.500000
O O14 0.874072 0.053162 0.592420
O O15 0.754807 0.650070 0.705338
O O16 0.500000 0.000000 0.500000
O O17 0.005101 0.163776 0.178361
#
# Coordination Sequence:
#
# PCOD9096939 Si02
#       8
#     2   2   2   2   2   2   2   2
#     4  10  22  38  59  88 117 158 200 239 295 346
#     4  11  24  41  58  85 127 154 194 249 295 353
#     4  10  22  38  58  87 118 158 196 240 297 350
#     4  10  21  38  61  86 117 154 201 243 291 342
#     4  10  20  36  59  84 118 154 198 240 288 350
#     4  11  24  39  59  88 119 159 195 239 303 361
#     4  10  20  36  58  89 113 148 199 242 293 351
#     4  10  20  38  63  86 117 152 199 251 289 344
#
# _framework density 20.832471999999999
#
# number of rings (size 3 to 8) (size 9 to 14) (size 15 to 20)
#    0.000    1.750    1.250    2.625    1.750    4.500 
#    0.000    0.625    0.000    0.000    0.000    0.000 
#    0.000    0.000    0.000    0.000    0.000    0.000 
#
# Total GULP energy -89409.050293 kJ/mol
# GULP energy per Si atom -5588.065643 kJ/mol
# Density = 2.078506 g / cm^3
# Si number density = 20.832472 Si / 1000 Ang^3
#
#
#
# Elastic Constant Matrix: (Units=GPa)
#
#
# Indices 1 2 3 4 5 6 
#
# 1 45.5527 36.9959 -0.9651 -3.1240 -8.4822 11.1180
# 2 36.9959 149.9390 22.8306 -10.6709 -7.0874 12.8902
# 3 -0.9651 22.8306 55.9165 1.3406 -6.1868 -8.6563
# 4 -3.1240 -10.6709 1.3406 22.5905 1.0125 -8.2174
# 5 -8.4822 -7.0874 -6.1868 1.0125 31.3490 -0.3958
# 6 11.1180 12.8902 -8.6563 -8.2174 -0.3958 25.0914
#
#
#
# Elastic Compliance Matrix: (Units=1/GPa)
#
#
# Indices 1 2 3 4 5 6 
#
# 1 0.031526 -0.007205 0.002798 -0.003274 0.007430 -0.010257
# 2 -0.007205 0.009505 -0.004522 0.002965 -0.000818 -0.002293
# 3 0.002798 -0.004522 0.021558 -0.000101 0.004101 0.008552
# 4 -0.003274 0.002965 -0.000101 0.051366 -0.001684 0.016688
# 5 0.007430 -0.000818 0.004101 -0.001684 0.034570 -0.001464
# 6 -0.010257 -0.002293 0.008552 0.016688 -0.001464 0.053970
#
#
# Mechanical properties :
#
#
# Convention : Reuss Voigt Hill
#
# Bulk Modulus (GPa) = 22.35482 41.01455 31.68468
# Shear Modulus (GPa) = 21.25299 28.64265 24.94782
#
# Velocity S-wave (km/s) = 3.19750 3.71199 3.46431
# Velocity P-wave (km/s) = 4.93822 6.17271 5.58965
#
# Compressibility (1/GPa) = 0.04473308
#
# Stress axis : x y z
#
# Youngs Moduli (GPa) = 31.72019 105.20804 46.38587
#
# Poissons Ratio (x) = 0.75799 -0.12981
# Poissons Ratio (y) = 0.22853 0.20974
# Poissons Ratio (z) = -0.08877 0.47571
#
# Static dielectric constant tensor:
#      x y z
#    x 1.767940 -0.004670 -0.029790 
#    y -0.004670 1.721130 0.000280 
#    z -0.029790 0.000280 1.758340 
# 
# From -- ./inp_files/69122.got.cif
#   From: 2010.05.17/outbox.cif.g08.bks.cpg/sg2_35_cif.got.tgz:69122.got - 2010.06.03 11:33:40.
