data_PCOD9096250
_publ_section_title
;
Structure prediction by ZEFSAII (Michael W. Deem and Ramdas Pophale) SiO2 
 PCOD9096250
Probable space group: P -1
;
_chemical_formula_sum "Si O2"
_cell_formula_units_Z 12
_cell_length_a 8.290915
_cell_length_b 8.399701
_cell_length_c 12.517562
_cell_angle_alpha 49.351946
_cell_angle_beta 120.913332
_cell_angle_gamma 115.078345
_cell_volume 562.100352
_symmetry_space_group_name_H-M "P -1"
_symmetry_group_IT_number 2
_symmetry_cell_setting 'triclinic'
loop_
_space_group_symop_operation_xyz
x,y,z
-x,-y,-z
loop_
_atom_site_type_symbol
_atom_site_label
_atom_site_fract_x
_atom_site_fract_y
_atom_site_fract_z
Si Si1 0.372975 0.324479 0.959515
Si Si2 0.523252 0.714976 0.344006
Si Si3 0.800316 0.563025 0.369274
Si Si4 0.372998 0.884404 0.417456
Si Si5 0.713442 0.323801 0.932980
Si Si6 0.126885 0.208668 0.127063
O O1 0.245712 0.398308 0.786678
O O2 0.541048 0.228758 0.994559
O O3 0.500000 0.500000 0.000000
O O4 0.219660 0.210725 0.039693
O O5 0.500000 0.500000 0.500000
O O6 0.725606 0.739445 0.342433
O O7 0.481304 0.889273 0.338989
O O8 0.368731 0.691807 0.207428
O O9 0.666312 0.350949 0.449364
O O10 0.000000 0.500000 0.500000
O O11 0.500000 0.000000 0.500000
O O12 0.187472 0.999966 0.292150
O O13 0.776277 0.572360 0.878210
O O14 0.903122 0.215404 0.049848
#
# Coordination Sequence:
#
# PCOD9096250 Si02
#       6
#     2   2   2   2   2   2
#     4   9  18  37  60  84 118 159 199 245 304 368
#     4   9  19  36  59  79 120 161 193 241 308 362
#     4  10  22  41  62  89 122 162 204 250 312 372
#     4  11  22  40  61  90 123 157 207 254 305 358
#     4   9  19  37  57  89 118 161 203 241 312 370
#     4  10  20  35  64  86 118 160 205 252 297 366
#
# _framework density 21.348500000000001
#
# number of rings (size 3 to 8) (size 9 to 14) (size 15 to 20)
#    0.000    2.333    0.000    4.000    4.667    0.667 
#    6.000    2.500    0.000    0.000    0.000    0.000 
#    0.000    0.000    0.000    0.000    0.000    0.000 
#
# Total GULP energy -66908.541253 kJ/mol
# GULP energy per Si atom -5575.711771 kJ/mol
# Density = 2.129991 g / cm^3
# Si number density = 21.348500 Si / 1000 Ang^3
#
#
#
# Elastic Constant Matrix: (Units=GPa)
#
#
# Indices 1 2 3 4 5 6 
#
# 1 104.3029 40.9584 53.6298 26.0415 14.7284 -21.1847
# 2 40.9584 53.3364 30.3088 22.0501 -1.2248 -28.6137
# 3 53.6298 30.3088 123.5799 27.2328 11.5583 -25.4470
# 4 26.0415 22.0501 27.2328 39.9671 -0.7181 -3.7181
# 5 14.7284 -1.2248 11.5583 -0.7181 44.9696 -1.5269
# 6 -21.1847 -28.6137 -25.4470 -3.7181 -1.5269 29.5840
#
#
#
# Elastic Compliance Matrix: (Units=1/GPa)
#
#
# Indices 1 2 3 4 5 6 
#
# 1 0.016840 -0.011457 -0.004219 -0.002160 -0.004885 -0.003175
# 2 -0.011457 0.067927 0.006419 -0.028732 0.005521 0.059690
# 3 -0.004219 0.006419 0.013105 -0.008510 -0.001496 0.013313
# 4 -0.002160 -0.028732 -0.008510 0.045238 0.001786 -0.030880
# 5 -0.004885 0.005521 -0.001496 0.001786 0.024470 0.002042
# 6 -0.003175 0.059690 0.013313 -0.030880 0.002042 0.096937
#
#
# Mechanical properties :
#
#
# Convention : Reuss Voigt Hill
#
# Bulk Modulus (GPa) = 12.60103 59.00145 35.80124
# Shear Modulus (GPa) = 16.15590 33.32561 24.74076
#
# Velocity S-wave (km/s) = 2.75393 3.95527 3.40795
# Velocity P-wave (km/s) = 4.00344 6.96823 5.68259
#
# Compressibility (1/GPa) = 0.07935856
#
# Stress axis : x y z
#
# Youngs Moduli (GPa) = 59.38228 14.72167 76.30566
#
# Poissons Ratio (x) = 0.16866 0.32193
# Poissons Ratio (y) = 0.68032 -0.48979
# Poissons Ratio (z) = 0.25053 -0.09450
#
# Static dielectric constant tensor:
#      x y z
#    x 1.833380 -0.005520 0.018540 
#    y -0.005520 1.841240 -0.006810 
#    z 0.018540 -0.006810 1.754800 
# 
# From -- ./inp_files/149588.got.cif
#   From: 2010.05.17/outbox.cif.g08.bks.cpg/sg2_75_cif.got.tgz:149588.got - 2010.06.03 11:33:40.
