data_PCOD9096470
_publ_section_title
;
Structure prediction by ZEFSAII (Michael W. Deem and Ramdas Pophale) SiO2 
 PCOD9096470
Probable space group: P -1
;
_chemical_formula_sum "Si O2"
_cell_formula_units_Z 15
_cell_length_a 10.565925
_cell_length_b 7.255158
_cell_length_c 18.300013
_cell_angle_alpha 127.084448
_cell_angle_beta 139.314419
_cell_angle_gamma 39.548603
_cell_volume 581.737930
_symmetry_space_group_name_H-M "P -1"
_symmetry_group_IT_number 2
_symmetry_cell_setting 'triclinic'
loop_
_space_group_symop_operation_xyz
x,y,z
-x,-y,-z
loop_
_atom_site_type_symbol
_atom_site_label
_atom_site_fract_x
_atom_site_fract_y
_atom_site_fract_z
Si Si1 0.501524 0.189932 0.982478
Si Si2 0.907078 0.258424 0.136160
Si Si3 0.027890 0.587148 0.381358
Si Si4 0.698974 0.846585 0.484771
Si Si5 0.365325 0.737837 0.245779
Si Si6 0.658403 0.064797 0.242317
Si Si7 0.838509 0.223889 0.679820
Si Si8 0.500000 0.500000 0.500000
O O1 0.249950 0.512542 0.942353
O O2 0.507636 0.034398 0.873497
O O3 0.720405 0.214339 0.082874
O O4 0.500000 0.000000 0.000000
O O5 0.981385 0.409125 0.261751
O O6 0.155068 0.951261 0.148131
O O7 0.073751 0.444139 0.446776
O O8 0.275627 0.544552 0.462527
O O9 0.803091 0.918951 0.346129
O O10 0.563202 0.797299 0.353029
O O11 0.500000 0.000000 0.500000
O O12 0.750788 0.081158 0.549196
O O13 0.513403 0.395282 0.233771
O O14 0.206963 0.835525 0.274771
O O15 0.893154 0.897974 0.250167
O O16 0.627446 0.544911 0.640181
#
# Coordination Sequence:
#
# PCOD9096470 Si02
#       8
#     2   2   2   2   2   2   2   1
#     4  10  22  41  65  90 115 160 208 261 315 372
#     4  10  20  38  66  86 118 164 205 247 321 367
#     4  10  18  35  57  88 122 160 198 244 295 367
#     4  10  17  32  58  84 118 166 194 224 306 361
#     4  11  20  37  62  89 123 160 196 253 305 358
#     4  10  24  36  59  93 118 150 215 253 297 368
#     4  10  19  35  58  80 123 165 195 247 296 356
#     4  10  16  30  54  88 114 154 210 234 282 364
#
# _framework density 25.784807000000001
#
# number of rings (size 3 to 8) (size 9 to 14) (size 15 to 20)
#    0.000    1.867    5.333    0.800    0.000    1.600 
#    0.000    0.667    8.800    0.000    0.000    0.000 
#    0.000    0.000    0.000    0.000    0.000    0.000 
#
# Total GULP energy -83603.171487 kJ/mol
# GULP energy per Si atom -5573.544766 kJ/mol
# Density = 2.572612 g / cm^3
# Si number density = 25.784807 Si / 1000 Ang^3
#
#
#
# Elastic Constant Matrix: (Units=GPa)
#
#
# Indices 1 2 3 4 5 6 
#
# 1 102.3547 47.6640 33.2133 -8.0389 20.7971 22.2302
# 2 47.6640 197.0428 69.6368 -36.9117 20.2499 14.8283
# 3 33.2133 69.6368 126.3524 -22.9340 34.3800 -2.9825
# 4 -8.0389 -36.9117 -22.9340 53.2023 9.1628 3.3608
# 5 20.7971 20.2499 34.3800 9.1628 33.2018 -6.4344
# 6 22.2302 14.8283 -2.9825 3.3608 -6.4344 30.8152
#
#
#
# Elastic Compliance Matrix: (Units=1/GPa)
#
#
# Indices 1 2 3 4 5 6 
#
# 1 0.016950 -0.000313 0.001008 0.006627 -0.016426 -0.016132
# 2 -0.000313 0.007879 -0.001856 0.005894 -0.005382 -0.005512
# 3 0.001008 -0.001856 0.015122 0.008709 -0.018165 -0.003114
# 4 0.006627 0.005894 0.008709 0.033731 -0.029283 -0.016567
# 5 -0.016426 -0.005382 -0.018165 -0.029283 0.076764 0.031904
# 6 -0.016132 -0.005512 -0.003114 -0.016567 0.031904 0.054908
#
#
# Mechanical properties :
#
#
# Convention : Reuss Voigt Hill
#
# Bulk Modulus (GPa) = 26.57464 80.75312 53.66388
# Shear Modulus (GPa) = 22.70478 41.79293 32.24886
#
# Velocity S-wave (km/s) = 2.97062 4.03033 3.54035
# Velocity P-wave (km/s) = 4.70051 7.28314 6.12940
#
# Compressibility (1/GPa) = 0.03762986
#
# Stress axis : x y z
#
# Youngs Moduli (GPa) = 58.99652 126.92596 66.12926
#
# Poissons Ratio (x) = 0.03975 -0.06668
# Poissons Ratio (y) = 0.01848 0.12271
# Poissons Ratio (z) = -0.05949 0.23552
#
# Static dielectric constant tensor:
#      x y z
#    x 2.126820 -0.071740 -0.121040 
#    y -0.071740 1.495300 0.250420 
#    z -0.121040 0.250420 1.969430 
# 
# From -- ./inp_files/611562.got.cif
#   From: 2010.05.17/outbox.cif.g08.bks.cpg/sg2_306_cif.got.tgz:611562.got - 2010.06.03 11:33:40.
