data_PCOD9096704
_publ_section_title
;
Structure prediction by ZEFSAII (Michael W. Deem and Ramdas Pophale) SiO2 
 PCOD9096704
Probable space group: P -1
;
_chemical_formula_sum "Si O2"
_cell_formula_units_Z 16
_cell_length_a 8.532978
_cell_length_b 16.905375
_cell_length_c 12.244058
_cell_angle_alpha 39.157659
_cell_angle_beta 94.198167
_cell_angle_gamma 121.888528
_cell_volume 737.361998
_symmetry_space_group_name_H-M "P -1"
_symmetry_group_IT_number 2
_symmetry_cell_setting 'triclinic'
loop_
_space_group_symop_operation_xyz
x,y,z
-x,-y,-z
loop_
_atom_site_type_symbol
_atom_site_label
_atom_site_fract_x
_atom_site_fract_y
_atom_site_fract_z
Si Si1 0.023308 0.379045 0.451194
Si Si2 0.288104 0.459685 0.584087
Si Si3 0.943717 0.922520 0.954448
Si Si4 0.479190 0.001141 0.128517
Si Si5 0.310220 0.785915 0.756936
Si Si6 0.538216 0.274093 0.968514
Si Si7 0.841015 0.473842 0.175071
Si Si8 0.566594 0.773602 0.441329
O O1 0.131149 0.442759 0.508750
O O2 0.799671 0.154369 0.686471
O O3 0.927816 0.445965 0.314600
O O4 0.264714 0.498404 0.268710
O O5 0.500000 0.500000 0.500000
O O6 0.426419 0.637895 0.475381
O O7 0.103494 0.254798 0.850572
O O8 0.704263 0.825452 0.989189
O O9 0.160965 0.095126 0.705604
O O10 0.000000 0.000000 0.000000
O O11 0.559884 0.921149 0.276556
O O12 0.604798 0.197250 0.973965
O O13 0.500000 0.000000 0.000000
O O14 0.446972 0.774599 0.858711
O O15 0.219136 0.659748 0.780615
O O16 0.500000 0.000000 0.500000
O O17 0.069383 0.685976 0.915527
O O18 0.585849 0.372598 0.309383
#
# Coordination Sequence:
#
# PCOD9096704 Si02
#       8
#     2   2   2   2   2   2   2   2
#     4  10  20  36  57  86 121 151 202 239 294 354
#     4  12  22  36  59  87 127 168 199 233 290 365
#     4  12  23  39  60  89 129 168 201 234 294 370
#     4  11  22  35  57  88 123 157 199 251 294 354
#     4  10  20  40  66  88 114 149 206 259 314 354
#     4  11  23  38  62  90 115 161 203 245 307 357
#     4   9  22  39  60  90 118 150 199 267 303 347
#     4  11  24  39  57  90 128 160 202 248 299 357
#
# _framework density 21.698975000000001
#
# number of rings (size 3 to 8) (size 9 to 14) (size 15 to 20)
#    0.000    1.250    2.500    4.500    0.000    9.500 
#    0.000    0.625    0.000    1.500    0.000    0.000 
#    0.000    0.000    0.000    0.000    0.000    0.000 
#
# Total GULP energy -89196.178930 kJ/mol
# GULP energy per Si atom -5574.761183 kJ/mol
# Density = 2.164959 g / cm^3
# Si number density = 21.698975 Si / 1000 Ang^3
#
#
#
# Elastic Constant Matrix: (Units=GPa)
#
#
# Indices 1 2 3 4 5 6 
#
# 1 49.1889 36.6801 29.0685 4.0059 -14.6608 9.9657
# 2 36.6801 65.9477 34.4901 -10.8196 -5.2405 14.0886
# 3 29.0685 34.4901 176.1153 -8.3581 -25.2952 12.7179
# 4 4.0059 -10.8196 -8.3581 30.1494 -0.6981 -5.2221
# 5 -14.6608 -5.2405 -25.2952 -0.6981 38.3151 -5.4775
# 6 9.9657 14.0886 12.7179 -5.2221 -5.4775 22.7276
#
#
#
# Elastic Compliance Matrix: (Units=1/GPa)
#
#
# Indices 1 2 3 4 5 6 
#
# 1 0.046187 -0.025789 -0.001248 -0.016195 0.012412 -0.004297
# 2 -0.025789 0.033847 -0.002298 0.013534 -0.007523 -0.007091
# 3 -0.001248 -0.002298 0.006983 0.001233 0.003733 -0.000753
# 4 -0.016195 0.013534 0.001233 0.041723 -0.001744 0.007188
# 5 0.012412 -0.007523 0.003733 -0.001744 0.032920 0.004665
# 6 -0.004297 -0.007091 -0.000753 0.007188 0.004665 0.053476
#
#
# Mechanical properties :
#
#
# Convention : Reuss Voigt Hill
#
# Bulk Modulus (GPa) = 35.27823 54.63659 44.95741
# Shear Modulus (GPa) = 17.65186 30.97262 24.31224
#
# Velocity S-wave (km/s) = 2.85527 3.78216 3.35092
# Velocity P-wave (km/s) = 5.21185 6.65635 5.97789
#
# Compressibility (1/GPa) = 0.02834610
#
# Stress axis : x y z
#
# Youngs Moduli (GPa) = 21.65090 29.54501 143.19939
#
# Poissons Ratio (x) = 0.76194 0.17877
# Poissons Ratio (y) = 0.55836 0.32908
# Poissons Ratio (z) = 0.02703 0.06790
#
# Static dielectric constant tensor:
#      x y z
#    x 1.915180 0.020860 -0.069100 
#    y 0.020860 1.771120 0.003020 
#    z -0.069100 0.003020 1.893740 
# 
# From -- ./inp_files/399353.got.cif
#   From: 2010.05.17/outbox.cif.g08.bks.cpg/sg2_200_cif.got.tgz:399353.got - 2010.06.03 11:33:40.
