data_PCOD9096088
_publ_section_title
;
Structure prediction by ZEFSAII (Michael W. Deem and Ramdas Pophale) SiO2 
 PCOD9096088
Probable space group: P -1
;
_chemical_formula_sum "Si O2"
_cell_formula_units_Z 16
_cell_length_a 10.373148
_cell_length_b 15.031084
_cell_length_c 20.175029
_cell_angle_alpha 35.300103
_cell_angle_beta 154.760447
_cell_angle_gamma 145.180158
_cell_volume 730.107008
_symmetry_space_group_name_H-M "P -1"
_symmetry_group_IT_number 2
_symmetry_cell_setting 'triclinic'
loop_
_space_group_symop_operation_xyz
x,y,z
-x,-y,-z
loop_
_atom_site_type_symbol
_atom_site_label
_atom_site_fract_x
_atom_site_fract_y
_atom_site_fract_z
Si Si1 0.905514 0.131259 0.078749
Si Si2 0.211666 0.397961 0.688833
Si Si3 0.591077 0.735270 0.273392
Si Si4 0.050823 0.391827 0.242341
Si Si5 0.565738 0.557243 0.919989
Si Si6 0.723182 0.717168 0.721499
Si Si7 0.850520 0.232512 0.386179
Si Si8 0.289939 0.908143 0.352776
O O1 0.144911 0.273551 0.057952
O O2 0.971831 0.203206 0.139552
O O3 0.561240 0.123149 0.897183
O O4 0.056040 0.989322 0.230133
O O5 0.319859 0.320646 0.722246
O O6 0.525066 0.543781 0.769574
O O7 0.000000 0.500000 0.500000
O O8 0.967181 0.249824 0.707326
O O9 0.319873 0.568633 0.274298
O O10 0.884825 0.787623 0.428448
O O11 0.181740 0.314234 0.289209
O O12 0.987340 0.287370 0.343363
O O13 0.721227 0.422475 0.049160
O O14 0.265395 0.621020 0.726592
O O15 0.500000 0.500000 0.000000
O O16 0.494501 0.828200 0.543576
O O17 0.556716 0.060213 0.349461
#
# Coordination Sequence:
#
# PCOD9096088 Si02
#       8
#     2   2   2   2   2   2   2   2
#     4  10  21  36  61  88 118 151 201 245 291 350
#     4   9  21  36  55  84 123 147 194 240 295 356
#     4  10  21  35  57  90 119 153 198 237 293 350
#     4   9  19  38  58  87 121 150 200 245 292 350
#     4   8  17  33  56  87 112 150 193 237 282 343
#     4  10  21  38  61  89 116 155 194 248 302 344
#     4  10  20  35  62  87 117 161 194 241 291 349
#     4  10  22  38  60  86 117 158 200 241 295 355
#
# _framework density 21.914594000000001
#
# number of rings (size 3 to 8) (size 9 to 14) (size 15 to 20)
#    0.000    2.500    0.000    0.750    8.750    5.500 
#    0.000    0.000    0.000    0.750    0.000    0.000 
#    0.000    0.000    0.000    0.000    0.000    0.000 
#
# Total GULP energy -89127.268865 kJ/mol
# GULP energy per Si atom -5570.454304 kJ/mol
# Density = 2.186472 g / cm^3
# Si number density = 21.914594 Si / 1000 Ang^3
#
#
#
# Elastic Constant Matrix: (Units=GPa)
#
#
# Indices 1 2 3 4 5 6 
#
# 1 57.9233 37.8863 40.7661 -3.9635 10.6932 7.8403
# 2 37.8863 134.8423 26.9032 -0.2448 -6.2097 20.1491
# 3 40.7661 26.9032 165.7613 -3.8921 8.4318 -12.1991
# 4 -3.9635 -0.2448 -3.8921 27.7669 1.7925 5.5135
# 5 10.6932 -6.2097 8.4318 1.7925 23.9718 -6.4694
# 6 7.8403 20.1491 -12.1991 5.5135 -6.4694 21.5178
#
#
#
# Elastic Compliance Matrix: (Units=1/GPa)
#
#
# Indices 1 2 3 4 5 6 
#
# 1 0.032959 -0.005880 -0.007341 0.008579 -0.019324 -0.018673
# 2 -0.005880 0.010512 -0.000973 0.000309 0.003718 -0.007214
# 3 -0.007341 -0.000973 0.008526 -0.001983 0.002809 0.009772
# 4 0.008579 0.000309 -0.001983 0.041352 -0.011129 -0.018482
# 5 -0.019324 0.003718 0.002809 -0.011129 0.058009 0.025445
# 6 -0.018673 -0.007214 0.009772 -0.018482 0.025445 0.077958
#
#
# Mechanical properties :
#
#
# Convention : Reuss Voigt Hill
#
# Bulk Modulus (GPa) = 42.35682 63.29313 52.82497
# Shear Modulus (GPa) = 18.82726 31.51605 25.17166
#
# Velocity S-wave (km/s) = 2.93425 3.79638 3.39281
# Velocity P-wave (km/s) = 5.55427 6.93982 6.28534
#
# Compressibility (1/GPa) = 0.02360895
#
# Stress axis : x y z
#
# Youngs Moduli (GPa) = 30.34110 95.13033 117.29090
#
# Poissons Ratio (x) = 0.55933 0.86105
# Poissons Ratio (y) = 0.17839 0.11411
# Poissons Ratio (z) = 0.22274 0.09255
#
# Static dielectric constant tensor:
#      x y z
#    x 1.840060 -0.030190 -0.020980 
#    y -0.030190 1.905220 0.055120 
#    z -0.020980 0.055120 1.936150 
# 
# From -- ./inp_files/188726.got.cif
#   From: 2010.05.17/outbox.cif.g08.bks.cpg/sg2_95_cif.got.tgz:188726.got - 2010.06.03 11:33:40.
