data_PCOD9096712
_publ_section_title
;
Structure prediction by ZEFSAII (Michael W. Deem and Ramdas Pophale) SiO2 
 PCOD9096712
Probable space group: P -1
;
_chemical_formula_sum "Si O2"
_cell_formula_units_Z 14
_cell_length_a 16.631261
_cell_length_b 23.325536
_cell_length_c 23.288953
_cell_angle_alpha 12.112331
_cell_angle_beta 158.081249
_cell_angle_gamma 157.990972
_cell_volume 684.043947
_symmetry_space_group_name_H-M "P -1"
_symmetry_group_IT_number 2
_symmetry_cell_setting 'triclinic'
loop_
_space_group_symop_operation_xyz
x,y,z
-x,-y,-z
loop_
_atom_site_type_symbol
_atom_site_label
_atom_site_fract_x
_atom_site_fract_y
_atom_site_fract_z
Si Si1 0.869811 0.732444 0.136387
Si Si2 0.057032 0.290541 0.288812
Si Si3 0.993517 0.363415 0.802897
Si Si4 0.417282 0.888349 0.418558
Si Si5 0.722212 0.033798 0.575927
Si Si6 0.400657 0.848353 0.838780
Si Si7 0.513896 0.418640 0.425785
O O1 0.745431 0.431098 0.378417
O O2 0.004478 0.654465 0.248188
O O3 0.690785 0.886012 0.841768
O O4 0.000000 0.000000 0.000000
O O5 0.322856 0.404858 0.361055
O O6 0.866953 0.272245 0.228842
O O7 0.000000 0.000000 0.500000
O O8 0.000000 0.500000 0.000000
O O9 0.755720 0.412148 0.614758
O O10 0.174998 0.632445 0.683093
O O11 0.079825 0.097662 0.141322
O O12 0.633872 0.888465 0.599074
O O13 0.479729 0.042603 0.248096
O O14 0.500000 0.000000 0.500000
O O15 0.432988 0.126835 0.624666
O O16 0.504233 0.647313 0.145410
#
# Coordination Sequence:
#
# PCOD9096712 Si02
#       7
#     2   2   2   2   2   2   2
#     4  12  24  38  56  85 116 149 184 242 303 342
#     4   8  16  32  56  81 113 149 179 221 286 358
#     4  12  23  39  60  82 114 151 200 242 274 338
#     4  12  24  38  59  82 116 153 198 238 277 346
#     4  12  23  42  60  76 109 164 209 231 271 330
#     4  10  20  36  57  87 118 145 183 235 295 349
#     4  10  20  36  58  88 116 145 185 235 296 346
#
# _framework density 20.466521
#
# number of rings (size 3 to 8) (size 9 to 14) (size 15 to 20)
#    0.000    1.143    2.857    4.286    0.000    2.286 
#    0.000    0.000    0.000    1.714    0.000    0.000 
#    0.000    0.000    0.000    0.000    0.000    0.143 
#
# Total GULP energy -77942.149976 kJ/mol
# GULP energy per Si atom -5567.296427 kJ/mol
# Density = 2.041994 g / cm^3
# Si number density = 20.466521 Si / 1000 Ang^3
#
#
#
# Elastic Constant Matrix: (Units=GPa)
#
#
# Indices 1 2 3 4 5 6 
#
# 1 32.6460 25.0733 9.9807 -0.5073 -8.4646 9.0645
# 2 25.0733 93.6900 10.9898 10.2023 1.8712 19.7220
# 3 9.9807 10.9898 132.6769 -9.5054 -8.7108 10.5115
# 4 -0.5073 10.2023 -9.5054 45.4705 1.5388 8.6872
# 5 -8.4646 1.8712 -8.7108 1.5388 23.6580 2.8671
# 6 9.0645 19.7220 10.5115 8.6872 2.8671 28.2326
#
#
#
# Elastic Compliance Matrix: (Units=1/GPa)
#
#
# Indices 1 2 3 4 5 6 
#
# 1 0.047134 -0.011237 -0.000254 0.004354 0.018639 -0.010422
# 2 -0.011237 0.015286 -0.000439 -0.002403 -0.004543 -0.005706
# 3 -0.000254 -0.000439 0.008283 0.002438 0.003293 -0.003780
# 4 0.004354 -0.002403 0.002438 0.024627 0.002064 -0.008415
# 5 0.018639 -0.004543 0.003293 0.002064 0.051576 -0.009909
# 6 -0.010422 -0.005706 -0.003780 -0.008415 -0.009909 0.047755
#
#
# Mechanical properties :
#
#
# Convention : Reuss Voigt Hill
#
# Bulk Modulus (GPa) = 21.34783 39.01118 30.17950
# Shear Modulus (GPa) = 21.35525 33.67016 27.51270
#
# Velocity S-wave (km/s) = 3.23371 4.06042 3.67042
# Velocity P-wave (km/s) = 4.93921 6.40976 5.72193
#
# Compressibility (1/GPa) = 0.04684317
#
# Stress axis : x y z
#
# Youngs Moduli (GPa) = 21.21631 65.42060 120.72995
#
# Poissons Ratio (x) = 0.73512 0.03061
# Poissons Ratio (y) = 0.23840 0.05303
# Poissons Ratio (z) = 0.00538 0.02874
#
# Static dielectric constant tensor:
#      x y z
#    x 1.750100 0.084400 0.006500 
#    y 0.084400 1.854670 0.067470 
#    z 0.006500 0.067470 1.721740 
# 
# From -- ./inp_files/438660.got.cif
#   From: 2010.05.17/outbox.cif.g08.bks.cpg/sg2_220_cif.got.tgz:438660.got - 2010.06.03 11:33:40.
