data_PCOD9096174
_publ_section_title
;
Structure prediction by ZEFSAII (Michael W. Deem and Ramdas Pophale) SiO2 
 PCOD9096174
Probable space group: P -1
;
_chemical_formula_sum "Si O2"
_cell_formula_units_Z 14
_cell_length_a 5.105345
_cell_length_b 20.897412
_cell_length_c 11.175800
_cell_angle_alpha 31.659092
_cell_angle_beta 112.717658
_cell_angle_gamma 114.831197
_cell_volume 566.919379
_symmetry_space_group_name_H-M "P -1"
_symmetry_group_IT_number 2
_symmetry_cell_setting 'triclinic'
loop_
_space_group_symop_operation_xyz
x,y,z
-x,-y,-z
loop_
_atom_site_type_symbol
_atom_site_label
_atom_site_fract_x
_atom_site_fract_y
_atom_site_fract_z
Si Si1 0.308125 0.866130 0.810560
Si Si2 0.602225 0.528238 0.336767
Si Si3 0.136260 0.706189 0.241457
Si Si4 0.912343 0.809587 0.470659
Si Si5 0.321778 0.866332 0.225069
Si Si6 0.300820 0.679344 0.885914
Si Si7 0.747398 0.883474 0.565154
O O1 0.333018 0.780535 0.838439
O O2 0.972803 0.881968 0.714199
O O3 0.442372 0.011093 0.612628
O O4 0.355924 0.790246 0.056203
O O5 0.500000 0.500000 0.500000
O O6 0.744158 0.413812 0.503058
O O7 0.856482 0.648247 0.205946
O O8 0.359204 0.557763 0.156418
O O9 0.099390 0.796877 0.198000
O O10 0.136704 0.863165 0.319378
O O11 0.024865 0.692567 0.737128
O O12 0.582124 0.788375 0.402596
O O13 0.898557 0.903434 0.430685
O O14 0.500000 0.000000 0.000000
O O15 0.565878 0.744295 0.747523
#
# Coordination Sequence:
#
# PCOD9096174 Si02
#       7
#     2   2   2   2   2   2   2
#     4  10  20  35  63 106 133 177 227 298 368 423
#     4  11  24  46  70 106 139 186 244 304 360 421
#     4  11  25  42  72 102 145 184 243 295 367 417
#     4  11  25  45  69 102 143 192 237 284 357 428
#     4  12  27  49  73 105 149 196 240 289 353 437
#     4  11  21  41  72  97 148 180 240 299 363 418
#     4  10  20  39  64 101 140 179 227 295 360 428
#
# _framework density 24.694870000000002
#
# number of rings (size 3 to 8) (size 9 to 14) (size 15 to 20)
#    0.000    1.143    4.286    1.714    2.000    0.000 
#    2.571    1.429    0.000    0.000    0.000    0.000 
#    0.000    0.000    0.000    0.000    0.000    0.000 
#
# Total GULP energy -78126.264442 kJ/mol
# GULP energy per Si atom -5580.447460 kJ/mol
# Density = 2.463866 g / cm^3
# Si number density = 24.694870 Si / 1000 Ang^3
#
#
#
# Elastic Constant Matrix: (Units=GPa)
#
#
# Indices 1 2 3 4 5 6 
#
# 1 87.6233 8.6091 19.1246 11.0695 -2.4868 -11.1192
# 2 8.6091 88.9598 14.9779 4.7771 -6.9612 -13.9991
# 3 19.1246 14.9779 129.3750 16.2943 4.5260 -3.4737
# 4 11.0695 4.7771 16.2943 25.9231 -0.4217 -0.4395
# 5 -2.4868 -6.9612 4.5260 -0.4217 31.7481 18.0883
# 6 -11.1192 -13.9991 -3.4737 -0.4395 18.0883 35.2088
#
#
#
# Elastic Compliance Matrix: (Units=1/GPa)
#
#
# Indices 1 2 3 4 5 6 
#
# 1 0.012804 -0.000201 -0.001101 -0.004686 -0.001569 0.004603
# 2 -0.000201 0.012257 -0.001097 -0.001403 0.000199 0.004582
# 3 -0.001101 -0.001097 0.008743 -0.004841 -0.002330 0.001215
# 4 -0.004686 -0.001403 -0.004841 0.043863 0.002431 -0.003216
# 5 -0.001569 0.000199 -0.002330 0.002431 0.045432 -0.023956
# 6 0.004603 0.004582 0.001215 -0.003216 -0.023956 0.044065
#
#
# Mechanical properties :
#
#
# Convention : Reuss Voigt Hill
#
# Bulk Modulus (GPa) = 34.47327 43.48679 38.98003
# Shear Modulus (GPa) = 27.52863 36.12575 31.82719
#
# Velocity S-wave (km/s) = 3.34241 3.82892 3.59391
# Velocity P-wave (km/s) = 5.37453 6.09880 5.74808
#
# Compressibility (1/GPa) = 0.02900798
#
# Stress axis : x y z
#
# Youngs Moduli (GPa) = 78.10051 81.58568 114.37783
#
# Poissons Ratio (x) = 0.01636 0.12591
# Poissons Ratio (y) = 0.01566 0.12543
# Poissons Ratio (z) = 0.08598 0.08947
#
# Static dielectric constant tensor:
#      x y z
#    x 2.097010 0.018510 -0.066300 
#    y 0.018510 1.998940 0.011470 
#    z -0.066300 0.011470 2.070930 
# 
# From -- ./inp_files/369978.got.cif
#   From: 2010.05.17/outbox.cif.g08.bks.cpg/sg2_185_cif.got.tgz:369978.got - 2010.06.03 11:33:40.
