data_PCOD9096452
_publ_section_title
;
Structure prediction by ZEFSAII (Michael W. Deem and Ramdas Pophale) SiO2 
 PCOD9096452
Probable space group: P -1
;
_chemical_formula_sum "Si O2"
_cell_formula_units_Z 16
_cell_length_a 11.268833
_cell_length_b 9.097543
_cell_length_c 12.347497
_cell_angle_alpha 131.311685
_cell_angle_beta 47.812462
_cell_angle_gamma 119.646399
_cell_volume 701.507613
_symmetry_space_group_name_H-M "P -1"
_symmetry_group_IT_number 2
_symmetry_cell_setting 'triclinic'
loop_
_space_group_symop_operation_xyz
x,y,z
-x,-y,-z
loop_
_atom_site_type_symbol
_atom_site_label
_atom_site_fract_x
_atom_site_fract_y
_atom_site_fract_z
Si Si1 0.201530 0.074340 0.981265
Si Si2 0.113972 0.327728 0.341445
Si Si3 0.451128 0.544079 0.673184
Si Si4 0.040701 0.275146 0.000504
Si Si5 0.114253 0.363634 0.757736
Si Si6 0.544680 0.427858 0.774214
Si Si7 0.256471 0.143849 0.363211
Si Si8 0.439006 0.793586 0.133884
O O1 0.088732 0.185609 0.185882
O O2 0.116189 0.856253 0.922322
O O3 0.380734 0.093543 0.929607
O O4 0.187715 0.190046 0.932974
O O5 0.285012 0.447499 0.276114
O O6 0.131896 0.196109 0.372938
O O7 0.000000 0.500000 0.500000
O O8 0.500000 0.500000 0.500000
O O9 0.259465 0.527964 0.783946
O O10 0.491636 0.387744 0.664188
O O11 0.570700 0.737741 0.717547
O O12 0.057419 0.258137 0.852309
O O13 0.018307 0.504257 0.145680
O O14 0.188385 0.226609 0.556986
O O15 0.568376 0.253910 0.757058
O O16 0.434584 0.585463 0.973053
O O17 0.301406 0.923293 0.241608
#
# Coordination Sequence:
#
# PCOD9096452 Si02
#       8
#     2   2   2   2   2   2   2   2
#     4  10  21  37  56  80 108 147 184 222 273 324
#     4  10  21  38  58  81 113 146 178 224 279 332
#     4   9  18  34  55  81 110 143 180 224 274 320
#     4  10  21  36  56  79 110 145 183 221 270 335
#     4  10  20  36  55  81 111 142 180 227 273 321
#     4   9  20  36  58  83 110 146 185 227 277 325
#     4  10  21  36  58  84 109 142 186 228 273 329
#     4  10  20  37  58  82 110 142 187 235 271 319
#
# _framework density 22.808019999999999
#
# number of rings (size 3 to 8) (size 9 to 14) (size 15 to 20)
#    0.000    2.250    0.000    2.250    0.000    6.500 
#    0.000   14.375    0.000    0.000    0.000    0.000 
#    0.000    0.000    0.000    0.000    0.000    0.000 
#
# Total GULP energy -89281.995652 kJ/mol
# GULP energy per Si atom -5580.124728 kJ/mol
# Density = 2.275611 g / cm^3
# Si number density = 22.808020 Si / 1000 Ang^3
#
#
#
# Elastic Constant Matrix: (Units=GPa)
#
#
# Indices 1 2 3 4 5 6 
#
# 1 74.2253 39.6685 26.3190 7.2632 -0.0168 -31.7773
# 2 39.6685 89.5920 39.3897 -0.7292 -5.5806 -39.5737
# 3 26.3190 39.3897 71.3874 1.6729 -7.3235 -33.0974
# 4 7.2632 -0.7292 1.6729 30.4428 -10.5034 -5.2737
# 5 -0.0168 -5.5806 -7.3235 -10.5034 26.9684 2.6643
# 6 -31.7773 -39.5737 -33.0974 -5.2737 2.6643 47.7314
#
#
#
# Elastic Compliance Matrix: (Units=1/GPa)
#
#
# Indices 1 2 3 4 5 6 
#
# 1 0.020771 -0.005321 -0.001205 -0.005032 -0.004191 0.008260
# 2 -0.005321 0.020399 -0.003875 0.005313 0.004144 0.011038
# 3 -0.001205 -0.003875 0.022411 0.002763 0.005219 0.011539
# 4 -0.005032 0.005313 0.002763 0.041095 0.017205 0.006551
# 5 -0.004191 0.004144 0.005219 0.017205 0.045696 0.003615
# 6 0.008260 0.011038 0.011539 0.006551 0.003615 0.044124
#
#
# Mechanical properties :
#
#
# Convention : Reuss Voigt Hill
#
# Bulk Modulus (GPa) = 23.37593 49.55100 36.46347
# Shear Modulus (GPa) = 21.78106 29.68370 25.73238
#
# Velocity S-wave (km/s) = 3.09362 3.61149 3.36254
# Velocity P-wave (km/s) = 4.79915 6.25802 5.57650
#
# Compressibility (1/GPa) = 0.04277904
#
# Stress axis : x y z
#
# Youngs Moduli (GPa) = 48.14482 49.02308 44.62096
#
# Poissons Ratio (x) = 0.26084 0.05375
# Poissons Ratio (y) = 0.25616 0.17292
# Poissons Ratio (z) = 0.05799 0.18998
#
# Static dielectric constant tensor:
#      x y z
#    x 2.158510 -0.191150 -0.196320 
#    y -0.191150 2.046260 0.148100 
#    z -0.196320 0.148100 2.027090 
# 
# From -- ./inp_files/257182.got.cif
#   From: 2010.05.17/outbox.cif.g08.bks.cpg/sg2_129_cif.got.tgz:257182.got - 2010.06.03 11:33:40.
