data_PCOD9096474
_publ_section_title
;
Structure prediction by ZEFSAII (Michael W. Deem and Ramdas Pophale) SiO2 
 PCOD9096474
Probable space group: P -1
;
_chemical_formula_sum "Si O2"
_cell_formula_units_Z 12
_cell_length_a 7.353755
_cell_length_b 10.214688
_cell_length_c 6.919867
_cell_angle_alpha 63.063399
_cell_angle_beta 89.312257
_cell_angle_gamma 95.119714
_cell_volume 460.747479
_symmetry_space_group_name_H-M "P -1"
_symmetry_group_IT_number 2
_symmetry_cell_setting 'triclinic'
loop_
_space_group_symop_operation_xyz
x,y,z
-x,-y,-z
loop_
_atom_site_type_symbol
_atom_site_label
_atom_site_fract_x
_atom_site_fract_y
_atom_site_fract_z
Si Si1 0.154269 0.537015 0.201380
Si Si2 0.712893 0.053682 0.462502
Si Si3 0.851108 0.916596 0.194029
Si Si4 0.611892 0.349026 0.223696
Si Si5 0.771175 0.611397 0.299647
Si Si6 0.180954 0.236594 0.317973
O O1 0.240695 0.472300 0.437863
O O2 0.090977 0.385752 0.179473
O O3 0.982522 0.615347 0.225094
O O4 0.301601 0.629902 0.004396
O O5 0.717718 0.222471 0.408979
O O6 0.182947 0.070141 0.343438
O O7 0.500000 0.000000 0.500000
O O8 0.764487 0.036796 0.246633
O O9 0.725154 0.781869 0.180172
O O10 0.905600 0.812880 0.439649
O O11 0.000000 0.000000 0.000000
O O12 0.652639 0.502755 0.230418
O O13 0.396915 0.293964 0.270962
#
# Coordination Sequence:
#
# PCOD9096474 Si02
#       6
#     2   2   2   2   2   2
#     4  10  20  36  55  85 120 146 183 241 294 328
#     4   8  17  34  55  80 113 154 181 226 292 340
#     4   9  17  33  55  80 112 150 185 228 284 336
#     4  11  19  36  64  83 110 153 194 233 284 343
#     4  10  22  35  58  89 112 146 199 236 277 344
#     4   8  19  35  57  82 112 150 186 231 288 335
#
# _framework density 26.044632
#
# number of rings (size 3 to 8) (size 9 to 14) (size 15 to 20)
#    1.000    1.667    0.000    2.000    0.000    2.667 
#    0.000    0.833   11.000    5.000    0.000    0.000 
#    0.000    0.000    0.000    0.000    0.000    0.000 
#
# Total GULP energy -66843.626276 kJ/mol
# GULP energy per Si atom -5570.302190 kJ/mol
# Density = 2.598535 g / cm^3
# Si number density = 26.044632 Si / 1000 Ang^3
#
#
#
# Elastic Constant Matrix: (Units=GPa)
#
#
# Indices 1 2 3 4 5 6 
#
# 1 73.9164 27.3088 49.1726 5.4588 -33.8916 0.9119
# 2 27.3088 54.0875 -26.1630 -22.0547 14.7064 -3.7477
# 3 49.1726 -26.1630 161.8149 16.6797 -22.4001 19.1075
# 4 5.4588 -22.0547 16.6797 46.0098 -8.2327 -5.1422
# 5 -33.8916 14.7064 -22.4001 -8.2327 45.2856 -11.6265
# 6 0.9119 -3.7477 19.1075 -5.1422 -11.6265 39.3256
#
#
#
# Elastic Compliance Matrix: (Units=1/GPa)
#
#
# Indices 1 2 3 4 5 6 
#
# 1 -0.266905 0.272511 0.091912 0.076015 -0.248484 -0.076024
# 2 0.272511 -0.252959 -0.091678 -0.067008 0.248828 0.078923
# 3 0.091912 -0.091678 -0.024344 -0.027795 0.087413 0.023169
# 4 0.076015 -0.067008 -0.027795 0.006917 0.073333 0.027942
# 5 -0.248484 0.248828 0.087413 0.073333 -0.204518 -0.063874
# 6 -0.076024 0.078923 0.023169 0.027942 -0.063874 0.008225
#
#
# Mechanical properties :
#
#
# Convention : Reuss Voigt Hill
#
# Bulk Modulus (GPa) = 779.49777 43.38396 411.44086
# Shear Modulus (GPa) = -3.91038 42.09090 19.09026
#
# Velocity S-wave (km/s) = -1.22665 4.02444 2.71030
# Velocity P-wave (km/s) = 17.26084 6.18778 12.96582
#
# Compressibility (1/GPa) = 0.00128288
#
# Stress axis : x y z
#
# Youngs Moduli (GPa) = -3.74665 -3.95320 -41.07835
#
# Poissons Ratio (x) = 1.07729 3.77561
# Poissons Ratio (y) = 1.02100 -3.76598
# Poissons Ratio (z) = 0.34436 -0.36242
#
# Static dielectric constant tensor:
#      x y z
#    x 2.052370 0.064120 0.063150 
#    y 0.064120 2.246770 0.039460 
#    z 0.063150 0.039460 2.025080 
# 
# From -- ./inp_files/167382.got.cif
#   From: 2010.05.17/outbox.cif.g08.bks.cpg/sg2_84_cif.got.tgz:167382.got - 2010.06.03 11:33:40.
