data_PCOD9096646
_publ_section_title
;
Structure prediction by ZEFSAII (Michael W. Deem and Ramdas Pophale) SiO2 
 PCOD9096646
Probable space group: P -1
;
_chemical_formula_sum "Si O2"
_cell_formula_units_Z 16
_cell_length_a 26.037031
_cell_length_b 7.105909
_cell_length_c 7.940740
_cell_angle_alpha 40.720977
_cell_angle_beta 50.990363
_cell_angle_gamma 49.296598
_cell_volume 698.922572
_symmetry_space_group_name_H-M "P -1"
_symmetry_group_IT_number 2
_symmetry_cell_setting 'triclinic'
loop_
_space_group_symop_operation_xyz
x,y,z
-x,-y,-z
loop_
_atom_site_type_symbol
_atom_site_label
_atom_site_fract_x
_atom_site_fract_y
_atom_site_fract_z
Si Si1 0.563757 0.532386 0.453031
Si Si2 0.436935 0.803704 0.978990
Si Si3 0.798213 0.728917 0.523774
Si Si4 0.202689 0.608882 0.607058
Si Si5 0.958578 0.145739 0.225471
Si Si6 0.717919 0.348324 0.105923
Si Si7 0.040620 0.521338 0.639447
Si Si8 0.283386 0.983761 0.020932
O O1 0.500000 0.500000 0.500000
O O2 0.637703 0.463349 0.252679
O O3 0.542762 0.893291 0.295717
O O4 0.576496 0.283853 0.743864
O O5 0.364059 0.867979 0.988334
O O6 0.500000 0.500000 0.000000
O O7 0.798357 0.559354 0.457469
O O8 0.878861 0.615404 0.492688
O O9 0.766811 0.088753 0.305010
O O10 0.748805 0.616442 0.823505
O O11 0.122145 0.745128 0.739314
O O12 0.251774 0.345833 0.805245
O O13 0.235878 0.868293 0.323337
O O14 0.958156 0.313000 0.294301
O O15 0.992122 0.786441 0.439432
O O16 0.006845 0.264495 0.924253
O O17 0.720247 0.177982 0.039034
#
# Coordination Sequence:
#
# PCOD9096646 Si02
#       8
#     2   2   2   2   2   2   2   2
#     4  12  26  44  66  92 122 155 196 242 295 354
#     4  12  26  44  66  92 122 155 196 242 295 354
#     4   9  17  29  48  75 110 152 192 234 288 345
#     4   9  17  29  48  75 110 152 192 234 288 345
#     4   9  15  23  38  65 105 148 186 228 283 341
#     4  10  20  36  57  82 115 153 193 237 290 348
#     4   9  15  23  38  65 105 148 186 228 283 341
#     4  10  20  36  57  82 115 153 193 237 290 348
#
# _framework density 22.892378999999998
#
# number of rings (size 3 to 8) (size 9 to 14) (size 15 to 20)
#    0.000    2.000    0.000    4.500    0.000    9.000 
#    0.000    0.000    0.000    0.000    0.000    0.000 
#    0.000   70.000    0.000    0.000    0.000    0.000 
#
# Total GULP energy -89612.634083 kJ/mol
# GULP energy per Si atom -5600.789630 kJ/mol
# Density = 2.284028 g / cm^3
# Si number density = 22.892379 Si / 1000 Ang^3
#
#
#
# Elastic Constant Matrix: (Units=GPa)
#
#
# Indices 1 2 3 4 5 6 
#
# 1 73.7885 52.3788 37.3503 -0.4365 -0.3775 -29.9438
# 2 52.3788 93.8099 42.8205 -9.4722 -7.1068 -38.8181
# 3 37.3503 42.8205 131.2642 -8.3261 -1.1085 -26.6997
# 4 -0.4365 -9.4722 -8.3261 45.9496 -6.5472 -4.6183
# 5 -0.3775 -7.1068 -1.1085 -6.5472 39.8339 -0.8405
# 6 -29.9438 -38.8181 -26.6997 -4.6183 -0.8405 58.2288
#
#
#
# Elastic Compliance Matrix: (Units=1/GPa)
#
#
# Indices 1 2 3 4 5 6 
#
# 1 0.024371 -0.011359 -0.002701 -0.002565 -0.002219 0.003486
# 2 -0.011359 0.022470 -0.001900 0.005774 0.004983 0.008797
# 3 -0.002701 -0.001900 0.009472 0.001507 0.000185 0.001809
# 4 -0.002565 0.005774 0.001507 0.024466 0.005180 0.005236
# 5 -0.002219 0.004983 0.000185 0.005180 0.026893 0.003065
# 6 0.003486 0.008797 0.001809 0.005236 0.003065 0.026120
#
#
# Mechanical properties :
#
#
# Convention : Reuss Voigt Hill
#
# Bulk Modulus (GPa) = 40.99806 62.66244 51.83025
# Shear Modulus (GPa) = 28.76117 39.89000 34.32558
#
# Velocity S-wave (km/s) = 3.54837 4.17886 3.87645
# Velocity P-wave (km/s) = 5.89371 7.12150 6.53650
#
# Compressibility (1/GPa) = 0.02439140
#
# Stress axis : x y z
#
# Youngs Moduli (GPa) = 41.03224 44.50311 105.57409
#
# Poissons Ratio (x) = 0.50552 0.28521
# Poissons Ratio (y) = 0.46609 0.20063
# Poissons Ratio (z) = 0.11085 0.08457
#
# Static dielectric constant tensor:
#      x y z
#    x 1.863370 0.080200 0.027560 
#    y 0.080200 1.862120 0.024300 
#    z 0.027560 0.024300 1.811910 
# 
# From -- ./inp_files/140497.got.cif
#   From: 2010.05.17/outbox.cif.g08.bks.cpg/sg2_71_cif.got.tgz:140497.got - 2010.06.03 11:33:40.
