data_PCOD9096251
_publ_section_title
;
Structure prediction by ZEFSAII (Michael W. Deem and Ramdas Pophale) SiO2 
 PCOD9096251
Probable space group: P -1
;
_chemical_formula_sum "Si O2"
_cell_formula_units_Z 16
_cell_length_a 20.992520
_cell_length_b 5.065549
_cell_length_c 7.409470
_cell_angle_alpha 106.314798
_cell_angle_beta 95.186642
_cell_angle_gamma 53.788899
_cell_volume 607.214394
_symmetry_space_group_name_H-M "P -1"
_symmetry_group_IT_number 2
_symmetry_cell_setting 'triclinic'
loop_
_space_group_symop_operation_xyz
x,y,z
-x,-y,-z
loop_
_atom_site_type_symbol
_atom_site_label
_atom_site_fract_x
_atom_site_fract_y
_atom_site_fract_z
Si Si1 0.783380 0.245022 0.081314
Si Si2 0.261336 0.229113 0.129627
Si Si3 0.083759 0.787458 0.721927
Si Si4 0.621086 0.817369 0.293456
Si Si5 0.616526 0.437716 0.530869
Si Si6 0.201998 0.127982 0.442738
Si Si7 0.061961 0.107758 0.385946
Si Si8 0.427610 0.517855 0.067762
O O1 0.872021 0.107157 0.123667
O O2 0.716915 0.530093 0.257238
O O3 0.775949 0.938449 0.013548
O O4 0.751408 0.472759 0.935552
O O5 0.352687 0.914182 0.107443
O O6 0.222842 0.304214 0.331237
O O7 0.149469 0.377153 0.642597
O O8 0.992797 0.938553 0.767534
O O9 0.079793 0.905226 0.537253
O O10 0.593366 0.747828 0.458056
O O11 0.603654 0.184579 0.370601
O O12 0.588681 0.715287 0.100009
O O13 0.571959 0.551800 0.732616
O O14 0.711708 0.205075 0.547307
O O15 0.139661 0.067060 0.332520
O O16 0.000000 0.500000 0.500000
O O17 0.500000 0.500000 0.000000
#
# Coordination Sequence:
#
# PCOD9096251 Si02
#       8
#     2   2   2   2   2   2   2   2
#     4  11  22  41  64  94 125 168 217 270 325 384
#     4  10  25  41  64  92 127 165 215 268 331 388
#     4  10  20  35  64  86 122 167 214 264 321 384
#     4  11  23  43  68  99 135 174 231 279 331 406
#     4  11  24  42  71 102 130 184 233 273 339 403
#     4  10  21  37  62  88 123 166 219 270 314 394
#     4   9  20  35  58  92 124 160 214 262 325 383
#     4  10  25  46  69 102 144 178 221 286 345 403
#
# _framework density 26.349837999999998
#
# number of rings (size 3 to 8) (size 9 to 14) (size 15 to 20)
#    0.000    1.750    1.250    2.250    5.250    7.000 
#    0.000   10.000    0.000    0.000    0.000    0.000 
#    0.000    0.000    0.000    0.000    0.000    0.000 
#
# Total GULP energy -89648.550937 kJ/mol
# GULP energy per Si atom -5603.034434 kJ/mol
# Density = 2.628986 g / cm^3
# Si number density = 26.349838 Si / 1000 Ang^3
#
#
#
# Elastic Constant Matrix: (Units=GPa)
#
#
# Indices 1 2 3 4 5 6 
#
# 1 178.6099 22.3034 37.4469 6.3862 -2.6558 -24.2092
# 2 22.3034 58.7014 8.9839 8.0051 -13.0666 -14.3362
# 3 37.4469 8.9839 94.3149 -4.5205 -12.1695 -5.3749
# 4 6.3862 8.0051 -4.5205 26.7521 4.8754 -2.4239
# 5 -2.6558 -13.0666 -12.1695 4.8754 47.2446 -0.6209
# 6 -24.2092 -14.3362 -5.3749 -2.4239 -0.6209 29.7839
#
#
#
# Elastic Compliance Matrix: (Units=1/GPa)
#
#
# Indices 1 2 3 4 5 6 
#
# 1 0.006908 -0.001033 -0.002491 -0.001285 -0.000346 0.004557
# 2 -0.001033 0.022254 -0.000635 -0.006908 0.006769 0.009337
# 3 -0.002491 -0.000635 0.012102 0.002373 0.002558 0.000100
# 4 -0.001285 -0.006908 0.002373 0.041115 -0.005624 -0.000713
# 5 -0.000346 0.006769 0.002558 -0.005624 0.024304 0.003487
# 6 0.004557 0.009337 0.000100 -0.000713 0.003487 0.041806
#
#
# Mechanical properties :
#
#
# Convention : Reuss Voigt Hill
#
# Bulk Modulus (GPa) = 30.35287 52.12162 41.23724
# Shear Modulus (GPa) = 29.79917 38.28225 34.04071
#
# Velocity S-wave (km/s) = 3.36654 3.81576 3.59817
# Velocity P-wave (km/s) = 5.16291 6.26394 5.73988
#
# Compressibility (1/GPa) = 0.03294581
#
# Stress axis : x y z
#
# Youngs Moduli (GPa) = 144.74925 44.93612 82.63193
#
# Poissons Ratio (x) = 0.04640 0.20585
# Poissons Ratio (y) = 0.14946 0.05251
# Poissons Ratio (z) = 0.36060 0.02855
#
# Static dielectric constant tensor:
#      x y z
#    x 2.101950 0.000290 0.057870 
#    y 0.000290 2.066960 0.013080 
#    z 0.057870 0.013080 2.099250 
# 
# From -- ./inp_files/340403.got.cif
#   From: 2010.05.17/outbox.cif.g08.bks.cpg/sg2_171_cif.got.tgz:340403.got - 2010.06.03 11:33:40.
