data_PCOD9096750
_publ_section_title
;
Structure prediction by ZEFSAII (Michael W. Deem and Ramdas Pophale) SiO2 
 PCOD9096750
Probable space group: P -1
;
_chemical_formula_sum "Si O2"
_cell_formula_units_Z 16
_cell_length_a 7.138671
_cell_length_b 5.718907
_cell_length_c 24.552105
_cell_angle_alpha 47.925315
_cell_angle_beta 107.639216
_cell_angle_gamma 110.188095
_cell_volume 694.591784
_symmetry_space_group_name_H-M "P -1"
_symmetry_group_IT_number 2
_symmetry_cell_setting 'triclinic'
loop_
_space_group_symop_operation_xyz
x,y,z
-x,-y,-z
loop_
_atom_site_type_symbol
_atom_site_label
_atom_site_fract_x
_atom_site_fract_y
_atom_site_fract_z
Si Si1 0.540930 0.340482 0.584438
Si Si2 0.274942 0.057580 0.967863
Si Si3 0.785624 0.096021 0.311378
Si Si4 0.446889 0.364516 0.285377
Si Si5 0.202235 0.214078 0.183316
Si Si6 0.819516 0.486005 0.678924
Si Si7 0.626526 0.257437 0.162932
Si Si8 0.149427 0.566938 0.944458
O O1 0.500000 0.500000 0.500000
O O2 0.333852 0.228405 0.618826
O O3 0.729459 0.537628 0.603956
O O4 0.601774 0.994761 0.637454
O O5 0.278308 0.362877 0.881382
O O6 0.200878 0.211623 0.993097
O O7 0.154835 0.742227 0.975996
O O8 0.500000 0.000000 0.000000
O O9 0.666244 0.367630 0.281376
O O10 0.740447 0.086324 0.244693
O O11 0.012685 0.225326 0.328885
O O12 0.384085 0.574472 0.293842
O O13 0.304929 0.394181 0.217538
O O14 0.113459 0.852806 0.252990
O O15 0.390850 0.213034 0.160334
O O16 0.042386 0.384897 0.114706
O O17 0.671361 0.208581 0.111205
#
# Coordination Sequence:
#
# PCOD9096750 Si02
#       8
#     2   2   2   2   2   2   2   2
#     4   9  21  40  52  81 122 150 200 249 297 373
#     4  10  22  42  62  86 127 165 200 249 309 369
#     4   9  19  39  54  90 112 151 204 246 307 359
#     4   8  20  36  54  86 117 143 201 249 298 365
#     4  10  20  36  57  93 116 152 198 257 301 360
#     4  11  19  35  62  77 119 158 192 255 308 358
#     4   9  20  37  60  89 120 152 201 255 304 359
#     4  10  22  38  63  89 120 163 205 249 310 368
#
# _framework density 23.035114
#
# number of rings (size 3 to 8) (size 9 to 14) (size 15 to 20)
#    1.500    1.000    1.250    1.875    1.750    4.000 
#    4.500    1.875    0.000    0.000    0.000    0.000 
#    0.000    0.000    0.000    0.000    0.000    0.000 
#
# Total GULP energy -89071.678216 kJ/mol
# GULP energy per Si atom -5566.979888 kJ/mol
# Density = 2.298269 g / cm^3
# Si number density = 23.035114 Si / 1000 Ang^3
#
#
#
# Elastic Constant Matrix: (Units=GPa)
#
#
# Indices 1 2 3 4 5 6 
#
# 1 65.4717 27.5828 13.4196 6.0060 20.0862 1.8811
# 2 27.5828 79.1316 16.0789 0.6344 15.5220 1.4735
# 3 13.4196 16.0789 100.8582 18.1380 3.3519 1.1150
# 4 6.0060 0.6344 18.1380 9.9643 7.5463 -1.2709
# 5 20.0862 15.5220 3.3519 7.5463 31.9064 -0.5035
# 6 1.8811 1.4735 1.1150 -1.2709 -0.5035 47.1813
#
#
#
# Elastic Compliance Matrix: (Units=1/GPa)
#
#
# Indices 1 2 3 4 5 6 
#
# 1 0.020992 -0.005095 -0.001131 -0.002832 -0.009961 -0.000834
# 2 -0.005095 0.016958 -0.004877 0.017443 -0.008653 0.000166
# 3 -0.001131 -0.004877 0.017510 -0.038930 0.010434 -0.001154
# 4 -0.002832 0.017443 -0.038930 0.212516 -0.052787 0.005649
# 5 -0.009961 -0.008653 0.010434 -0.052787 0.053204 -0.000433
# 6 -0.000834 0.000166 -0.001154 0.005649 -0.000433 0.021398
#
#
# Mechanical properties :
#
#
# Convention : Reuss Voigt Hill
#
# Bulk Modulus (GPa) = 30.07152 39.95822 35.01487
# Shear Modulus (GPa) = 13.30252 30.36907 21.83580
#
# Velocity S-wave (km/s) = 2.40571 3.63489 3.08220
# Velocity P-wave (km/s) = 4.56065 5.91616 5.28207
#
# Compressibility (1/GPa) = 0.03325405
#
# Stress axis : x y z
#
# Youngs Moduli (GPa) = 47.63739 58.96756 57.11046
#
# Poissons Ratio (x) = 0.30045 0.06461
# Poissons Ratio (y) = 0.24272 0.27851
# Poissons Ratio (z) = 0.05389 0.28757
#
# Static dielectric constant tensor:
#      x y z
#    x 1.926240 -0.023560 -0.046970 
#    y -0.023560 1.920020 -0.032430 
#    z -0.046970 -0.032430 1.815170 
# 
# From -- ./inp_files/616239.got.cif
#   From: 2010.05.17/outbox.cif.g08.bks.cpg/sg2_309_cif.got.tgz:616239.got - 2010.06.03 11:33:40.
