data_PCOD9096664
_publ_section_title
;
Structure prediction by ZEFSAII (Michael W. Deem and Ramdas Pophale) SiO2 
 PCOD9096664
Probable space group: P -1
;
_chemical_formula_sum "Si O2"
_cell_formula_units_Z 14
_cell_length_a 22.732866
_cell_length_b 8.522901
_cell_length_c 9.292889
_cell_angle_alpha 135.678947
_cell_angle_beta 30.829239
_cell_angle_gamma 140.694577
_cell_volume 577.245532
_symmetry_space_group_name_H-M "P -1"
_symmetry_group_IT_number 2
_symmetry_cell_setting 'triclinic'
loop_
_space_group_symop_operation_xyz
x,y,z
-x,-y,-z
loop_
_atom_site_type_symbol
_atom_site_label
_atom_site_fract_x
_atom_site_fract_y
_atom_site_fract_z
Si Si1 0.877210 0.750608 0.250230
Si Si2 0.584074 0.366642 0.674511
Si Si3 0.503995 0.523794 0.333966
Si Si4 0.889358 0.882885 0.802437
Si Si5 0.030319 0.633155 0.180770
Si Si6 0.614184 0.201763 0.794386
Si Si7 0.239426 0.083060 0.629926
O O1 0.735516 0.562078 0.481357
O O2 0.862442 0.934098 0.284838
O O3 0.975897 0.928413 0.277914
O O4 0.925720 0.554101 0.953926
O O5 0.522082 0.286784 0.591998
O O6 0.577641 0.171268 0.683350
O O7 0.500000 0.500000 0.000000
O O8 0.500000 0.500000 0.500000
O O9 0.372496 0.279202 0.412578
O O10 0.620851 0.468955 0.000153
O O11 0.920892 0.682090 0.522124
O O12 0.864994 0.078572 0.879882
O O13 0.791304 0.805255 0.088450
O O14 0.000000 0.500000 0.000000
O O15 0.736788 0.152305 0.531240
O O16 0.500000 0.000000 0.000000
#
# Coordination Sequence:
#
# PCOD9096664 Si02
#       7
#     2   2   2   2   2   2   2
#     4  10  20  37  59  85 124 153 198 253 306 363
#     4   9  18  36  62  83 115 162 197 245 311 357
#     4   9  19  38  55  87 122 156 202 249 304 365
#     4  10  20  38  59  88 116 154 209 243 305 367
#     4   9  20  39  58  80 122 157 196 253 300 359
#     4   9  18  36  61  81 118 158 199 252 300 354
#     4  10  20  36  57  83 119 154 200 254 299 358
#
# _framework density 24.25311
#
# number of rings (size 3 to 8) (size 9 to 14) (size 15 to 20)
#    0.000    2.571    0.000    2.143    0.000    0.571 
#   25.714    2.857    0.000    0.000    0.000    0.000 
#    0.000    0.000    0.000    0.000    0.000    0.000 
#
# Total GULP energy -77953.875368 kJ/mol
# GULP energy per Si atom -5568.133955 kJ/mol
# Density = 2.419791 g / cm^3
# Si number density = 24.253110 Si / 1000 Ang^3
#
#
#
# Elastic Constant Matrix: (Units=GPa)
#
#
# Indices 1 2 3 4 5 6 
#
# 1 149.2947 52.7826 34.9671 20.3428 -2.1409 -43.8030
# 2 52.7826 79.2462 45.2349 10.9901 -1.6609 -17.3127
# 3 34.9671 45.2349 154.9298 12.8080 -9.4263 -6.4852
# 4 20.3428 10.9901 12.8080 37.3244 -4.3059 0.7174
# 5 -2.1409 -1.6609 -9.4263 -4.3059 39.0353 1.1878
# 6 -43.8030 -17.3127 -6.4852 0.7174 1.1878 47.4602
#
#
#
# Elastic Compliance Matrix: (Units=1/GPa)
#
#
# Indices 1 2 3 4 5 6 
#
# 1 0.011983 -0.004989 -0.000467 -0.005140 -0.000517 0.009267
# 2 -0.004989 0.018950 -0.004251 -0.001519 -0.000715 0.001769
# 3 -0.000467 -0.004251 0.007945 -0.001015 0.001628 -0.000921
# 4 -0.005140 -0.001519 -0.001015 0.030849 0.002993 -0.005978
# 5 -0.000517 -0.000715 0.001628 0.002993 0.026319 -0.001219
# 6 0.009267 0.001769 -0.000921 -0.005978 -0.001219 0.030263
#
#
# Mechanical properties :
#
#
# Convention : Reuss Voigt Hill
#
# Bulk Modulus (GPa) = 51.37103 72.15998 61.76551
# Shear Modulus (GPa) = 32.84924 41.46308 37.15616
#
# Velocity S-wave (km/s) = 3.68426 4.13921 3.91834
# Velocity P-wave (km/s) = 6.27101 7.25683 6.78186
#
# Compressibility (1/GPa) = 0.01946622
#
# Stress axis : x y z
#
# Youngs Moduli (GPa) = 83.45251 52.77042 125.85894
#
# Poissons Ratio (x) = 0.26325 0.05873
# Poissons Ratio (y) = 0.41630 0.53501
# Poissons Ratio (z) = 0.03894 0.22432
#
# Static dielectric constant tensor:
#      x y z
#    x 2.074260 -0.068340 -0.020300 
#    y -0.068340 2.059490 -0.004760 
#    z -0.020300 -0.004760 1.974050 
# 
# From -- ./inp_files/351880.got.cif
#   From: 2010.05.17/outbox.cif.g08.bks.cpg/sg2_176_cif.got.tgz:351880.got - 2010.06.03 11:33:40.
