data_PCOD9096800
_publ_section_title
;
Structure prediction by ZEFSAII (Michael W. Deem and Ramdas Pophale) SiO2 
 PCOD9096800
Probable space group: P -1
;
_chemical_formula_sum "Si O2"
_cell_formula_units_Z 14
_cell_length_a 7.704002
_cell_length_b 20.776966
_cell_length_c 5.465529
_cell_angle_alpha 87.869712
_cell_angle_beta 62.804937
_cell_angle_gamma 121.859081
_cell_volume 614.393103
_symmetry_space_group_name_H-M "P -1"
_symmetry_group_IT_number 2
_symmetry_cell_setting 'triclinic'
loop_
_space_group_symop_operation_xyz
x,y,z
-x,-y,-z
loop_
_atom_site_type_symbol
_atom_site_label
_atom_site_fract_x
_atom_site_fract_y
_atom_site_fract_z
Si Si1 0.552483 0.233830 0.277814
Si Si2 0.677730 0.495013 0.127482
Si Si3 0.138889 0.591339 0.155576
Si Si4 0.926815 0.932416 0.353658
Si Si5 0.839260 0.626156 0.640978
Si Si6 0.257995 0.793664 0.337252
Si Si7 0.396174 0.031035 0.749287
O O1 0.258214 0.163187 0.449135
O O2 0.638183 0.225966 0.491073
O O3 0.672570 0.328018 0.141148
O O4 0.659508 0.213182 0.984769
O O5 0.393102 0.426191 0.383653
O O6 0.879047 0.525230 0.199587
O O7 0.737043 0.452632 0.887642
O O8 0.731225 0.575367 0.966507
O O9 0.058262 0.621335 0.423161
O O10 0.757405 0.942136 0.283646
O O11 0.000000 0.000000 0.500000
O O12 0.183463 0.960375 0.071022
O O13 0.965679 0.720950 0.553680
O O14 0.373954 0.887191 0.284110
O O15 0.500000 0.000000 0.500000
#
# Coordination Sequence:
#
# PCOD9096800 Si02
#       7
#     2   2   2   2   2   2   2
#     4  10  20  38  64  88 124 164 203 251 312 363
#     4  10  20  36  58  85 112 157 202 244 306 364
#     4  10  20  36  58  85 117 154 200 252 300 358
#     4  10  20  40  63  88 121 165 203 253 310 374
#     4  10  20  36  58  82 118 156 200 247 304 360
#     4  10  20  39  62  89 124 164 201 253 313 363
#     4  10  22  40  63  92 124 163 206 258 309 370
#
# _framework density 22.786714
#
# number of rings (size 3 to 8) (size 9 to 14) (size 15 to 20)
#    0.000    2.000    2.857    0.857    0.000    0.571 
#    2.571    2.857    3.143    0.000    0.000    0.000 
#    0.000    0.000    0.000    0.000    0.000    0.000 
#
# Total GULP energy -78046.288514 kJ/mol
# GULP energy per Si atom -5574.734894 kJ/mol
# Density = 2.273485 g / cm^3
# Si number density = 22.786714 Si / 1000 Ang^3
#
#
#
# Elastic Constant Matrix: (Units=GPa)
#
#
# Indices 1 2 3 4 5 6 
#
# 1 56.1870 29.3383 33.8840 -8.2671 -0.4402 -3.8354
# 2 29.3383 121.3068 54.3931 -27.8876 -25.7156 24.3300
# 3 33.8840 54.3931 109.4184 -17.0669 -24.1057 11.1527
# 4 -8.2671 -27.8876 -17.0669 56.1530 8.4589 -7.4105
# 5 -0.4402 -25.7156 -24.1057 8.4589 30.3402 4.2067
# 6 -3.8354 24.3300 11.1527 -7.4105 4.2067 26.2269
#
#
#
# Elastic Compliance Matrix: (Units=1/GPa)
#
#
# Indices 1 2 3 4 5 6 
#
# 1 0.033105 -0.012464 -0.011484 0.002091 -0.023344 0.025622
# 2 -0.012464 0.020543 0.001023 0.002399 0.020697 -0.023957
# 3 -0.011484 0.001023 0.016944 -0.000065 0.015901 -0.012403
# 4 0.002091 0.002399 -0.000065 0.020554 -0.004358 0.004614
# 5 -0.023344 0.020697 0.015901 -0.004358 0.069807 -0.041803
# 6 0.025622 -0.023957 -0.012403 0.004614 -0.041803 0.077383
#
#
# Mechanical properties :
#
#
# Convention : Reuss Voigt Hill
#
# Bulk Modulus (GPa) = 40.41580 58.01589 49.21585
# Shear Modulus (GPa) = 17.09795 33.83047 25.46421
#
# Velocity S-wave (km/s) = 2.74222 3.85731 3.34653
# Velocity P-wave (km/s) = 5.27271 6.73454 6.04795
#
# Compressibility (1/GPa) = 0.02474280
#
# Stress axis : x y z
#
# Youngs Moduli (GPa) = 30.20674 48.67810 59.01821
#
# Poissons Ratio (x) = 0.60672 0.67777
# Poissons Ratio (y) = 0.37650 -0.06039
# Poissons Ratio (z) = 0.34690 -0.04981
#
# Static dielectric constant tensor:
#      x y z
#    x 1.809490 -0.003890 -0.015810 
#    y -0.003890 1.895850 -0.021190 
#    z -0.015810 -0.021190 1.911770 
# 
# From -- ./inp_files/8147.got.cif
#   From: 2010.05.17/outbox.cif.g08.bks.cpg/sg2_5_cif.got.tgz:8147.got - 2010.06.03 11:33:40.
