data_PCOD9096196
_publ_section_title
;
Structure prediction by ZEFSAII (Michael W. Deem and Ramdas Pophale) SiO2 
 PCOD9096196
Probable space group: P -1
;
_chemical_formula_sum "Si O2"
_cell_formula_units_Z 14
_cell_length_a 7.770212
_cell_length_b 10.975547
_cell_length_c 14.525504
_cell_angle_alpha 53.492911
_cell_angle_beta 41.415330
_cell_angle_gamma 52.546645
_cell_volume 627.368122
_symmetry_space_group_name_H-M "P -1"
_symmetry_group_IT_number 2
_symmetry_cell_setting 'triclinic'
loop_
_space_group_symop_operation_xyz
x,y,z
-x,-y,-z
loop_
_atom_site_type_symbol
_atom_site_label
_atom_site_fract_x
_atom_site_fract_y
_atom_site_fract_z
Si Si1 0.807468 0.141415 0.812208
Si Si2 0.944424 0.188861 0.341544
Si Si3 0.560302 0.613885 0.610873
Si Si4 0.819964 0.600175 0.199787
Si Si5 0.919162 0.438418 0.704403
Si Si6 0.257867 0.821704 0.380765
Si Si7 0.158869 0.210104 0.059059
O O1 0.859953 0.200441 0.662239
O O2 0.884739 0.261831 0.794825
O O3 0.923646 0.950347 0.856204
O O4 0.483576 0.171574 0.936022
O O5 0.646167 0.210050 0.404547
O O6 0.860131 0.246110 0.453932
O O7 0.085971 0.258939 0.171624
O O8 0.151879 0.011885 0.348766
O O9 0.369097 0.506080 0.707749
O O10 0.808963 0.575532 0.457433
O O11 0.676811 0.562327 0.688774
O O12 0.036320 0.524058 0.225477
O O13 0.584723 0.749279 0.274202
O O14 0.952979 0.658675 0.032760
#
# Coordination Sequence:
#
# PCOD9096196 Si02
#       7
#     2   2   2   2   2   2   2
#     4   9  18  38  63  87 116 161 205 243 285 362
#     4  10  20  35  63  89 123 156 193 251 313 339
#     4  11  23  38  62  91 121 158 201 250 296 351
#     4  11  21  40  67  87 118 164 204 240 293 366
#     4  11  22  37  65  90 118 156 214 242 285 362
#     4   9  18  37  62  89 112 157 206 240 294 349
#     4   9  19  37  61  87 123 157 196 245 304 354
#
# _framework density 22.315446999999999
#
# number of rings (size 3 to 8) (size 9 to 14) (size 15 to 20)
#    0.000    2.000    4.286    1.286    0.000    1.143 
#    0.000    3.571    9.429    0.000    0.000    0.000 
#    0.000    0.000    0.000    0.000    0.000    0.000 
#
# Total GULP energy -78034.497373 kJ/mol
# GULP energy per Si atom -5573.892669 kJ/mol
# Density = 2.226466 g / cm^3
# Si number density = 22.315447 Si / 1000 Ang^3
#
#
#
# Elastic Constant Matrix: (Units=GPa)
#
#
# Indices 1 2 3 4 5 6 
#
# 1 104.2822 10.5747 43.2744 -19.0331 28.4434 -9.6883
# 2 10.5747 55.3407 25.7206 -7.4333 -4.9148 -10.8921
# 3 43.2744 25.7206 131.1323 -14.1302 41.3094 7.0085
# 4 -19.0331 -7.4333 -14.1302 39.5426 2.4389 -0.9457
# 5 28.4434 -4.9148 41.3094 2.4389 31.2703 -3.8788
# 6 -9.6883 -10.8921 7.0085 -0.9457 -3.8788 24.4120
#
#
#
# Elastic Compliance Matrix: (Units=1/GPa)
#
#
# Indices 1 2 3 4 5 6 
#
# 1 0.015944 -0.004676 0.002699 0.008975 -0.019413 0.000730
# 2 -0.004676 0.036598 -0.020271 -0.004473 0.040425 0.026543
# 3 0.002699 -0.020271 0.027091 0.009403 -0.044958 -0.022530
# 4 0.008975 -0.004473 0.009403 0.033543 -0.024365 -0.003706
# 5 -0.019413 0.040425 -0.044958 -0.024365 0.122461 0.041754
# 6 0.000730 0.026543 -0.022530 -0.003706 0.041754 0.066055
#
#
# Mechanical properties :
#
#
# Convention : Reuss Voigt Hill
#
# Bulk Modulus (GPa) = 28.45936 49.98829 39.22383
# Shear Modulus (GPa) = 13.97036 33.12401 23.54719
#
# Velocity S-wave (km/s) = 2.50479 3.85691 3.25190
# Velocity P-wave (km/s) = 4.59850 6.50259 5.63160
#
# Compressibility (1/GPa) = 0.03513783
#
# Stress axis : x y z
#
# Youngs Moduli (GPa) = 62.71854 27.32380 36.91234
#
# Poissons Ratio (x) = 0.12777 -0.09962
# Poissons Ratio (y) = 0.29327 0.74824
# Poissons Ratio (z) = -0.16927 0.55388
#
# Static dielectric constant tensor:
#      x y z
#    x 1.813330 -0.012740 0.033070 
#    y -0.012740 1.997260 -0.025460 
#    z 0.033070 -0.025460 1.823220 
# 
# From -- ./inp_files/281245.got.cif
#   From: 2010.05.17/outbox.cif.g08.bks.cpg/sg2_141_cif.got.tgz:281245.got - 2010.06.03 11:33:40.
