data_PCOD9096504
_publ_section_title
;
Structure prediction by ZEFSAII (Michael W. Deem and Ramdas Pophale) SiO2 
 PCOD9096504
Probable space group: P -1
;
_chemical_formula_sum "Si O2"
_cell_formula_units_Z 16
_cell_length_a 11.233115
_cell_length_b 21.946653
_cell_length_c 18.961864
_cell_angle_alpha 158.250005
_cell_angle_beta 25.146186
_cell_angle_gamma 142.144462
_cell_volume 696.038796
_symmetry_space_group_name_H-M "P -1"
_symmetry_group_IT_number 2
_symmetry_cell_setting 'triclinic'
loop_
_space_group_symop_operation_xyz
x,y,z
-x,-y,-z
loop_
_atom_site_type_symbol
_atom_site_label
_atom_site_fract_x
_atom_site_fract_y
_atom_site_fract_z
Si Si1 0.063323 0.651224 0.353184
Si Si2 0.205897 0.248748 0.063138
Si Si3 0.898467 0.028521 0.264319
Si Si4 0.210866 0.481209 0.524305
Si Si5 0.461705 0.758674 0.724841
Si Si6 0.713896 0.766498 0.442318
Si Si7 0.307863 0.565078 0.976194
Si Si8 0.710148 0.876452 0.965729
O O1 0.047544 0.526080 0.291004
O O2 0.712462 0.763245 0.650236
O O3 0.173312 0.566269 0.128038
O O4 0.231849 0.785017 0.428751
O O5 0.136243 0.185947 0.109063
O O6 0.931155 0.390526 0.325832
O O7 0.444635 0.344664 0.050757
O O8 0.292688 0.082495 0.785306
O O9 0.076537 0.070528 0.146674
O O10 0.136865 0.901359 0.053781
O O11 0.425827 0.569096 0.540635
O O12 0.355887 0.288419 0.209932
O O13 0.584615 0.780961 0.606070
O O14 0.063166 0.681223 0.177216
O O15 0.608363 0.629324 0.307075
O O16 0.581579 0.958435 0.688499
#
# Coordination Sequence:
#
# PCOD9096504 Si02
#       8
#     2   2   2   2   2   2   2   2
#     4  10  20  36  56  78 112 152 184 223 271 328
#     4  11  22  36  55  82 117 149 180 226 275 331
#     4   9  20  35  56  85 110 139 185 233 281 327
#     4  10  21  35  58  88 113 140 184 232 280 329
#     4   9  17  35  60  84 109 138 183 239 281 313
#     4   9  20  39  61  84 108 143 188 230 272 329
#     4  10  22  39  57  80 115 153 183 217 274 335
#     4  10  20  37  61  85 109 139 184 240 283 314
#
# _framework density 22.987224000000001
#
# number of rings (size 3 to 8) (size 9 to 14) (size 15 to 20)
#    0.000    2.250    0.000    2.250    0.000    6.500 
#    0.000    2.500    0.000    0.000    0.000    0.000 
#    0.000    0.000    0.000    0.000    0.000    0.000 
#
# Total GULP energy -89394.748391 kJ/mol
# GULP energy per Si atom -5587.171774 kJ/mol
# Density = 2.293490 g / cm^3
# Si number density = 22.987224 Si / 1000 Ang^3
#
#
#
# Elastic Constant Matrix: (Units=GPa)
#
#
# Indices 1 2 3 4 5 6 
#
# 1 113.7800 35.1518 42.1128 18.6172 2.8213 -4.0383
# 2 35.1518 58.7027 20.5296 21.3780 -3.8269 14.4435
# 3 42.1128 20.5296 65.3980 26.6659 -1.6864 -2.8027
# 4 18.6172 21.3780 26.6659 32.1006 4.1384 8.1968
# 5 2.8213 -3.8269 -1.6864 4.1384 26.1302 11.5048
# 6 -4.0383 14.4435 -2.8027 8.1968 11.5048 49.4090
#
#
#
# Elastic Compliance Matrix: (Units=1/GPa)
#
#
# Indices 1 2 3 4 5 6 
#
# 1 0.013889 -0.008177 -0.007846 0.003654 -0.005428 0.003738
# 2 -0.008177 0.030253 0.002448 -0.016601 0.012273 -0.009477
# 3 -0.007846 0.002448 0.029064 -0.022634 0.005442 0.002779
# 4 0.003654 -0.016601 -0.022634 0.061372 -0.012509 -0.003401
# 5 -0.005428 0.012273 0.005442 -0.012509 0.048704 -0.012988
# 6 0.003738 -0.009477 0.002779 -0.003401 -0.012988 0.027061
#
#
# Mechanical properties :
#
#
# Convention : Reuss Voigt Hill
#
# Bulk Modulus (GPa) = 21.71324 48.16322 34.93823
# Shear Modulus (GPa) = 19.77497 30.86705 25.32101
#
# Velocity S-wave (km/s) = 2.93620 3.66839 3.32252
# Velocity P-wave (km/s) = 4.57835 6.24023 5.47274
#
# Compressibility (1/GPa) = 0.04605486
#
# Stress axis : x y z
#
# Youngs Moduli (GPa) = 72.00140 33.05472 34.40732
#
# Poissons Ratio (x) = 0.27028 0.26997
# Poissons Ratio (y) = 0.58875 -0.08423
# Poissons Ratio (z) = 0.56494 -0.08092
#
# Static dielectric constant tensor:
#      x y z
#    x 1.857210 0.001070 -0.013950 
#    y 0.001070 1.871130 -0.012720 
#    z -0.013950 -0.012720 1.907490 
# 
# From -- ./inp_files/471086.got.cif
#   From: 2010.05.17/outbox.cif.g08.bks.cpg/sg2_236_cif.got.tgz:471086.got - 2010.06.03 11:33:40.
