data_PCOD9096184
_publ_section_title
;
Structure prediction by ZEFSAII (Michael W. Deem and Ramdas Pophale) SiO2 
 PCOD9096184
Probable space group: P -1
;
_chemical_formula_sum "Si O2"
_cell_formula_units_Z 12
_cell_length_a 8.911505
_cell_length_b 9.066177
_cell_length_c 10.553137
_cell_angle_alpha 57.637420
_cell_angle_beta 89.679609
_cell_angle_gamma 131.924262
_cell_volume 437.278234
_symmetry_space_group_name_H-M "P -1"
_symmetry_group_IT_number 2
_symmetry_cell_setting 'triclinic'
loop_
_space_group_symop_operation_xyz
x,y,z
-x,-y,-z
loop_
_atom_site_type_symbol
_atom_site_label
_atom_site_fract_x
_atom_site_fract_y
_atom_site_fract_z
Si Si1 0.173015 0.492314 0.072907
Si Si2 0.774757 0.722493 0.265919
Si Si3 0.606066 0.878026 0.318656
Si Si4 0.680050 0.118409 0.560884
Si Si5 0.012669 0.379862 0.845868
Si Si6 0.850313 0.889190 0.680882
O O1 0.205556 0.701684 0.053686
O O2 0.297731 0.428022 0.145882
O O3 0.182678 0.524776 0.906853
O O4 0.875688 0.174905 0.237775
O O5 0.662324 0.815350 0.221652
O O6 0.542258 0.387717 0.462498
O O7 0.931278 0.762118 0.143034
O O8 0.958382 0.906071 0.299671
O O9 0.425327 0.876499 0.320294
O O10 0.922006 0.440670 0.359404
O O11 0.707882 0.939182 0.654877
O O12 0.500000 0.000000 0.500000
O O13 0.000000 0.000000 0.500000
#
# Coordination Sequence:
#
# PCOD9096184 Si02
#       6
#     2   2   2   2   2   2
#     4  10  20  38  60  87 118 155 190 229 291 343
#     4   9  20  35  59  88 113 152 196 236 280 340
#     4   9  18  34  57  83 113 148 191 233 277 343
#     4  11  19  36  61  82 110 152 195 237 286 337
#     4  10  20  35  63  85 117 155 191 229 288 352
#     4  11  21  37  58  87 116 150 196 242 281 343
#
# _framework density 27.442485000000001
#
# number of rings (size 3 to 8) (size 9 to 14) (size 15 to 20)
#    0.000    2.000    3.333    1.000    0.000    5.333 
#    0.000    0.833    0.000    7.000    0.000    0.000 
#    0.000    0.000    0.000    0.000    0.000    0.000 
#
# Total GULP energy -66963.580189 kJ/mol
# GULP energy per Si atom -5580.298349 kJ/mol
# Density = 2.738002 g / cm^3
# Si number density = 27.442485 Si / 1000 Ang^3
#
#
#
# Elastic Constant Matrix: (Units=GPa)
#
#
# Indices 1 2 3 4 5 6 
#
# 1 215.2079 79.6848 58.9877 11.7109 14.2507 -88.9979
# 2 79.6848 142.7385 42.8249 27.2100 -9.4433 -58.1327
# 3 58.9877 42.8249 135.7065 30.9282 -23.3072 -41.2941
# 4 11.7109 27.2100 30.9282 43.9170 -21.4964 -12.4135
# 5 14.2507 -9.4433 -23.3072 -21.4964 50.1900 -1.4343
# 6 -88.9979 -58.1327 -41.2941 -12.4135 -1.4343 90.2626
#
#
#
# Elastic Compliance Matrix: (Units=1/GPa)
#
#
# Indices 1 2 3 4 5 6 
#
# 1 0.008808 -0.001987 -0.001884 0.000398 -0.003392 0.006544
# 2 -0.001987 0.010829 -0.000059 -0.004529 0.000760 0.004377
# 3 -0.001884 -0.000059 0.010566 -0.004476 0.003581 0.002380
# 4 0.000398 -0.004529 -0.004476 0.034462 0.011726 0.000354
# 5 -0.003392 0.000760 0.003581 0.011726 0.027739 0.000837
# 6 0.006544 0.004377 0.002380 0.000354 0.000837 0.021501
#
#
# Mechanical properties :
#
#
# Convention : Reuss Voigt Hill
#
# Bulk Modulus (GPa) = 44.75651 95.18307 69.96979
# Shear Modulus (GPa) = 38.69608 57.68429 48.19018
#
# Velocity S-wave (km/s) = 3.75918 4.58974 4.19506
# Velocity P-wave (km/s) = 5.93182 7.92764 7.00121
#
# Compressibility (1/GPa) = 0.02234312
#
# Stress axis : x y z
#
# Youngs Moduli (GPa) = 113.53619 92.34264 94.64765
#
# Poissons Ratio (x) = 0.18350 0.17827
# Poissons Ratio (y) = 0.22562 0.00558
# Poissons Ratio (z) = 0.21385 0.00545
#
# Static dielectric constant tensor:
#      x y z
#    x 2.229800 -0.056890 0.025850 
#    y -0.056890 2.253190 -0.135900 
#    z 0.025850 -0.135900 2.289690 
# 
# From -- ./inp_files/157235.got.cif
#   From: 2010.05.17/outbox.cif.g08.bks.cpg/sg2_79_cif.got.tgz:157235.got - 2010.06.03 11:33:40.
