data_PCOD9096590
_publ_section_title
;
Structure prediction by ZEFSAII (Michael W. Deem and Ramdas Pophale) SiO2 
 PCOD9096590
Probable space group: P -1
;
_chemical_formula_sum "Si O2"
_cell_formula_units_Z 12
_cell_length_a 20.457145
_cell_length_b 9.641715
_cell_length_c 7.269482
_cell_angle_alpha 46.521659
_cell_angle_beta 137.979458
_cell_angle_gamma 141.931584
_cell_volume 573.021521
_symmetry_space_group_name_H-M "P -1"
_symmetry_group_IT_number 2
_symmetry_cell_setting 'triclinic'
loop_
_space_group_symop_operation_xyz
x,y,z
-x,-y,-z
loop_
_atom_site_type_symbol
_atom_site_label
_atom_site_fract_x
_atom_site_fract_y
_atom_site_fract_z
Si Si1 0.098644 0.998034 0.592780
Si Si2 0.522672 0.586563 0.760654
Si Si3 0.317281 0.393338 0.215392
Si Si4 0.032588 0.516374 0.267820
Si Si5 0.744796 0.024377 0.742766
Si Si6 0.905270 0.739307 0.970460
O O1 0.028607 0.750968 0.565827
O O2 0.150071 0.212422 0.367410
O O3 0.000000 0.000000 0.500000
O O4 0.189551 0.008386 0.918905
O O5 0.405567 0.488453 0.485061
O O6 0.599873 0.510056 0.881837
O O7 0.607527 0.868646 0.659274
O O8 0.500000 0.500000 0.000000
O O9 0.255770 0.117968 0.304178
O O10 0.207429 0.411922 0.994787
O O11 0.174124 0.706968 0.386228
O O12 0.000000 0.500000 0.000000
O O13 0.969585 0.618333 0.151892
O O14 0.000000 0.000000 0.000000
#
# Coordination Sequence:
#
# PCOD9096590 Si02
#       6
#     2   2   2   2   2   2
#     4  11  20  34  59  85 118 163 193 228 303 355
#     4   9  17  34  57  86 111 159 203 235 298 352
#     4   9  19  32  56  88 118 153 194 250 290 346
#     4  10  20  36  56  88 123 152 198 238 291 363
#     4   9  17  35  54  86 118 147 195 244 281 348
#     4  12  20  36  56  88 129 150 193 250 294 349
#
# _framework density 20.94162
#
# number of rings (size 3 to 8) (size 9 to 14) (size 15 to 20)
#    1.000    1.000    5.000    1.000    0.000    0.667 
#    0.000    0.000    0.000    4.000    4.333   10.500 
#    0.000    0.000    0.000    0.000    0.000    0.000 
#
# Total GULP energy -66809.082345 kJ/mol
# GULP energy per Si atom -5567.423529 kJ/mol
# Density = 2.089396 g / cm^3
# Si number density = 20.941620 Si / 1000 Ang^3
#
#
#
# Elastic Constant Matrix: (Units=GPa)
#
#
# Indices 1 2 3 4 5 6 
#
# 1 140.6528 39.2537 38.3786 7.8548 9.2186 5.4199
# 2 39.2537 130.1756 46.1018 15.7043 5.6096 -0.3896
# 3 38.3786 46.1018 71.2106 5.2506 -16.6000 6.3906
# 4 7.8548 15.7043 5.2506 39.8400 0.4879 2.1848
# 5 9.2186 5.6096 -16.6000 0.4879 23.9842 1.9441
# 6 5.4199 -0.3896 6.3906 2.1848 1.9441 33.9410
#
#
#
# Elastic Compliance Matrix: (Units=1/GPa)
#
#
# Indices 1 2 3 4 5 6 
#
# 1 0.009692 0.000192 -0.007391 -0.000926 -0.008901 0.000416
# 2 0.000192 0.012172 -0.010376 -0.003500 -0.010264 0.002876
# 3 -0.007391 -0.010376 0.031691 0.001392 0.027707 -0.006582
# 4 -0.000926 -0.003500 0.001392 0.026565 0.001757 -0.001965
# 5 -0.008901 -0.010264 0.027707 0.001757 0.067295 -0.007881
# 6 0.000416 0.002876 -0.006582 -0.001965 -0.007881 0.031247
#
#
# Mechanical properties :
#
#
# Convention : Reuss Voigt Hill
#
# Bulk Modulus (GPa) = 54.33884 65.50080 59.91982
# Shear Modulus (GPa) = 22.73260 34.10671 28.41965
#
# Velocity S-wave (km/s) = 3.29830 4.04004 3.68787
# Velocity P-wave (km/s) = 6.36468 7.28754 6.84169
#
# Compressibility (1/GPa) = 0.01840304
#
# Stress axis : x y z
#
# Youngs Moduli (GPa) = 103.17653 82.15554 31.55501
#
# Poissons Ratio (x) = -0.01574 0.23324
# Poissons Ratio (y) = -0.01977 0.32742
# Poissons Ratio (z) = 0.76262 0.85245
#
# Static dielectric constant tensor:
#      x y z
#    x 1.808580 0.020730 -0.045300 
#    y 0.020730 1.793640 -0.013140 
#    z -0.045300 -0.013140 1.809740 
# 
# From -- ./inp_files/342489.got.cif
#   From: 2010.05.17/outbox.cif.g08.bks.cpg/sg2_172_cif.got.tgz:342489.got - 2010.06.03 11:33:40.
