data_PCOD9096038
_publ_section_title
;
Structure prediction by ZEFSAII (Michael W. Deem and Ramdas Pophale) SiO2 
 PCOD9096038
Probable space group: P -1
;
_chemical_formula_sum "Si O2"
_cell_formula_units_Z 14
_cell_length_a 8.752742
_cell_length_b 8.672231
_cell_length_c 9.176152
_cell_angle_alpha 118.694236
_cell_angle_beta 88.611611
_cell_angle_gamma 87.703802
_cell_volume 609.744517
_symmetry_space_group_name_H-M "P -1"
_symmetry_group_IT_number 2
_symmetry_cell_setting 'triclinic'
loop_
_space_group_symop_operation_xyz
x,y,z
-x,-y,-z
loop_
_atom_site_type_symbol
_atom_site_label
_atom_site_fract_x
_atom_site_fract_y
_atom_site_fract_z
Si Si1 0.346769 0.495170 0.901459
Si Si2 0.606697 0.896504 0.335253
Si Si3 0.931160 0.852232 0.834025
Si Si4 0.587308 0.982523 0.839921
Si Si5 0.500517 0.378489 0.305978
Si Si6 0.893947 0.131342 0.461891
Si Si7 0.812246 0.498731 0.797428
O O1 0.364710 0.621911 0.818199
O O2 0.333102 0.305259 0.736763
O O3 0.500000 0.500000 0.000000
O O4 0.213655 0.523620 0.038329
O O5 0.485999 0.870766 0.195240
O O6 0.749470 0.018190 0.370511
O O7 0.500000 0.000000 0.500000
O O8 0.765243 0.942252 0.833676
O O9 0.912937 0.665257 0.831562
O O10 0.024441 0.821876 0.669298
O O11 0.000000 0.000000 0.000000
O O12 0.519583 0.806343 0.702050
O O13 0.500000 0.000000 0.000000
O O14 0.500000 0.500000 0.500000
O O15 0.349882 0.435559 0.242160
O O16 0.857610 0.311781 0.635326
O O17 0.000000 0.000000 0.500000
#
# Coordination Sequence:
#
# PCOD9096038 Si02
#       7
#     2   2   2   2   2   2   2
#     4  10  20  38  62  91 129 168 211 269 327 385
#     4  12  23  41  66  96 130 168 216 270 322 388
#     4  11  24  44  67  96 134 172 216 270 333 400
#     4  11  22  39  65  95 124 164 210 260 320 387
#     4  10  20  35  61  96 126 158 208 266 323 379
#     4  12  26  44  65  95 131 175 223 276 334 391
#     4  10  22  43  63  87 129 177 217 265 325 396
#
# _framework density 22.960435
#
# number of rings (size 3 to 8) (size 9 to 14) (size 15 to 20)
#    0.000    1.143    0.000    9.000    0.000    2.286 
#    0.000    7.143    0.000    0.000    0.000    0.000 
#    0.000    0.000    0.000    0.000    0.000    0.000 
#
# Total GULP energy -78160.864929 kJ/mol
# GULP energy per Si atom -5582.918923 kJ/mol
# Density = 2.290818 g / cm^3
# Si number density = 22.960435 Si / 1000 Ang^3
#
#
#
# Elastic Constant Matrix: (Units=GPa)
#
#
# Indices 1 2 3 4 5 6 
#
# 1 94.4061 43.4537 30.2849 -1.0404 -10.9754 21.1310
# 2 43.4537 115.4972 40.5439 14.6334 -1.4421 17.0586
# 3 30.2849 40.5439 135.9331 6.8949 -20.1032 26.5033
# 4 -1.0404 14.6334 6.8949 56.8305 6.6853 -1.4949
# 5 -10.9754 -1.4421 -20.1032 6.6853 39.6409 -4.4414
# 6 21.1310 17.0586 26.5033 -1.4949 -4.4414 37.6232
#
#
#
# Elastic Compliance Matrix: (Units=1/GPa)
#
#
# Indices 1 2 3 4 5 6 
#
# 1 0.014360 -0.004557 -0.000438 0.001018 0.002821 -0.005317
# 2 -0.004557 0.011713 -0.002321 -0.002652 -0.001725 -0.001425
# 3 -0.000438 -0.002321 0.009878 -0.001267 0.004436 -0.005187
# 4 0.001018 -0.002652 -0.001267 0.018905 -0.003436 0.001869
# 5 0.002821 -0.001725 0.004436 -0.003436 0.028698 -0.000676
# 6 -0.005317 -0.001425 -0.005187 0.001869 -0.000676 0.033860
#
#
# Mechanical properties :
#
#
# Convention : Reuss Voigt Hill
#
# Bulk Modulus (GPa) = 46.90763 63.82238 55.36501
# Shear Modulus (GPa) = 35.93196 42.25585 39.09391
#
# Velocity S-wave (km/s) = 3.96024 4.29462 4.13081
# Velocity P-wave (km/s) = 6.43315 7.24214 6.84960
#
# Compressibility (1/GPa) = 0.02131849
#
# Stress axis : x y z
#
# Youngs Moduli (GPa) = 69.63818 85.37871 101.23520
#
# Poissons Ratio (x) = 0.38911 0.04432
# Poissons Ratio (y) = 0.31737 0.23495
# Poissons Ratio (z) = 0.03049 0.19815
#
# Static dielectric constant tensor:
#      x y z
#    x 2.103100 -0.924200 -0.276590 
#    y -0.924200 5.644920 1.155060 
#    z -0.276590 1.155060 2.171340 
# 
# From -- ./inp_files/156700.got.cif
#   From: 2010.05.17/outbox.cif.g08.bks.cpg/sg2_79_cif.got.tgz:156700.got - 2010.06.03 11:33:40.
