data_PCOD9096100
_publ_section_title
;
Structure prediction by ZEFSAII (Michael W. Deem and Ramdas Pophale) SiO2 
 PCOD9096100
Probable space group: P -1
;
_chemical_formula_sum "Si O2"
_cell_formula_units_Z 14
_cell_length_a 11.058905
_cell_length_b 7.335844
_cell_length_c 8.610323
_cell_angle_alpha 74.120637
_cell_angle_beta 125.340521
_cell_angle_gamma 88.973083
_cell_volume 534.065374
_symmetry_space_group_name_H-M "P -1"
_symmetry_group_IT_number 2
_symmetry_cell_setting 'triclinic'
loop_
_space_group_symop_operation_xyz
x,y,z
-x,-y,-z
loop_
_atom_site_type_symbol
_atom_site_label
_atom_site_fract_x
_atom_site_fract_y
_atom_site_fract_z
Si Si1 0.083372 0.784181 0.433984
Si Si2 0.197393 0.873162 0.827879
Si Si3 0.493051 0.378526 0.867047
Si Si4 0.441036 0.317521 0.409768
Si Si5 0.205202 0.386756 0.477656
Si Si6 0.019889 0.276543 0.106579
Si Si7 0.731352 0.020104 0.725952
O O1 0.157355 0.776622 0.660963
O O2 0.090672 0.575428 0.413253
O O3 0.194164 0.878323 0.383966
O O4 0.912542 0.913222 0.296146
O O5 0.137966 0.773691 0.956496
O O6 0.377737 0.820093 0.983292
O O7 0.527809 0.535115 0.730718
O O8 0.331563 0.326845 0.719467
O O9 0.500000 0.500000 0.000000
O O10 0.314888 0.425458 0.411031
O O11 0.365099 0.146997 0.328363
O O12 0.595070 0.197819 0.635234
O O13 0.113012 0.252267 0.347184
O O14 0.110099 0.133674 0.075481
O O15 0.000000 0.500000 0.000000
#
# Coordination Sequence:
#
# PCOD9096100 Si02
#       7
#     2   2   2   2   2   2   2
#     4  10  20  38  61  91 118 165 203 249 302 363
#     4  10  21  39  64  84 128 164 197 246 318 357
#     4  12  22  39  64  95 123 157 205 254 303 362
#     4  10  20  35  62  88 120 162 199 246 307 349
#     4  11  22  39  64  94 121 155 214 250 296 362
#     4  10  22  41  61  90 123 163 203 250 303 367
#     4   9  18  36  59  85 119 161 195 247 302 360
#
# _framework density 26.214016999999998
#
# number of rings (size 3 to 8) (size 9 to 14) (size 15 to 20)
#    0.000    1.714    2.857    2.143    0.000    0.571 
#    2.571    2.143    0.000   21.429    0.000    0.000 
#    0.000    0.000    0.000    0.000    0.000    0.000 
#
# Total GULP energy -78088.629436 kJ/mol
# GULP energy per Si atom -5577.759245 kJ/mol
# Density = 2.615435 g / cm^3
# Si number density = 26.214017 Si / 1000 Ang^3
#
#
#
# Elastic Constant Matrix: (Units=GPa)
#
#
# Indices 1 2 3 4 5 6 
#
# 1 86.5377 17.9679 26.4128 -10.0843 15.3688 -6.3117
# 2 17.9679 106.2085 22.6742 -5.8417 21.4910 -24.7050
# 3 26.4128 22.6742 99.8595 0.3071 30.9488 -16.3713
# 4 -10.0843 -5.8417 0.3071 47.2438 -7.0004 11.8979
# 5 15.3688 21.4910 30.9488 -7.0004 51.9497 -4.0524
# 6 -6.3117 -24.7050 -16.3713 11.8979 -4.0524 49.9962
#
#
#
# Elastic Compliance Matrix: (Units=1/GPa)
#
#
# Indices 1 2 3 4 5 6 
#
# 1 0.013216 -0.001366 -0.002900 0.002651 -0.001314 -0.000694
# 2 -0.001366 0.011715 -0.000155 -0.000808 -0.004035 0.005431
# 3 -0.002900 -0.000155 0.013785 -0.002864 -0.007352 0.004157
# 4 0.002651 -0.000808 -0.002864 0.023840 0.003973 -0.006354
# 5 -0.001314 -0.004035 -0.007352 0.003973 0.025957 -0.003409
# 6 -0.000694 0.005431 0.004157 -0.006354 -0.003409 0.025194
#
#
# Mechanical properties :
#
#
# Convention : Reuss Voigt Hill
#
# Bulk Modulus (GPa) = 33.47548 47.41281 40.44415
# Shear Modulus (GPa) = 37.73334 44.87467 41.30400
#
# Velocity S-wave (km/s) = 3.79810 4.14195 3.97375
# Velocity P-wave (km/s) = 5.65967 6.40316 6.04286
#
# Compressibility (1/GPa) = 0.02987261
#
# Stress axis : x y z
#
# Youngs Moduli (GPa) = 75.66487 85.36075 72.54129
#
# Poissons Ratio (x) = 0.11664 0.21038
# Poissons Ratio (y) = 0.10339 0.01127
# Poissons Ratio (z) = 0.21944 0.01326
#
# Static dielectric constant tensor:
#      x y z
#    x 2.043570 0.002100 0.013020 
#    y 0.002100 2.079100 0.017440 
#    z 0.013020 0.017440 2.185060 
# 
# From -- ./inp_files/202628.got.cif
#   From: 2010.05.17/outbox.cif.g08.bks.cpg/sg2_102_cif.got.tgz:202628.got - 2010.06.03 11:33:40.
