data_PCOD9096275
_publ_section_title
;
Structure prediction by ZEFSAII (Michael W. Deem and Ramdas Pophale) SiO2 
 PCOD9096275
Probable space group: P -1
;
_chemical_formula_sum "Si O2"
_cell_formula_units_Z 16
_cell_length_a 9.233870
_cell_length_b 14.204315
_cell_length_c 9.340132
_cell_angle_alpha 96.767416
_cell_angle_beta 87.334047
_cell_angle_gamma 39.796142
_cell_volume 760.328808
_symmetry_space_group_name_H-M "P -1"
_symmetry_group_IT_number 2
_symmetry_cell_setting 'triclinic'
loop_
_space_group_symop_operation_xyz
x,y,z
-x,-y,-z
loop_
_atom_site_type_symbol
_atom_site_label
_atom_site_fract_x
_atom_site_fract_y
_atom_site_fract_z
Si Si1 0.459514 0.814566 0.128446
Si Si2 0.393868 0.027469 0.356065
Si Si3 0.994438 0.053369 0.737845
Si Si4 0.145312 0.469748 0.355454
Si Si5 0.138209 0.655168 0.569480
Si Si6 0.541524 0.129318 0.180699
Si Si7 0.757137 0.558682 0.261136
Si Si8 0.706599 0.239224 0.523123
O O1 0.633464 0.640070 0.129721
O O2 0.199099 0.906496 0.161041
O O3 0.476333 0.884967 0.265001
O O4 0.502910 0.840952 0.980194
O O5 0.458029 0.076570 0.250063
O O6 0.116854 0.170364 0.402913
O O7 0.500000 0.000000 0.500000
O O8 0.845782 0.190500 0.655558
O O9 0.185803 0.002220 0.820305
O O10 0.146819 0.908441 0.602562
O O11 0.169823 0.565324 0.420181
O O12 0.386545 0.293861 0.284118
O O13 0.000000 0.500000 0.500000
O O14 0.963987 0.529802 0.252769
O O15 0.151037 0.588773 0.706298
O O16 0.307434 0.657894 0.548032
O O17 0.537355 0.680699 0.402552
#
# Coordination Sequence:
#
# PCOD9096275 Si02
#       8
#     2   2   2   2   2   2   2   2
#     4  11  25  42  62  93 130 164 207 254 317 375
#     4  12  24  40  67  95 124 159 212 265 304 367
#     4  10  21  38  63  93 125 161 211 254 312 365
#     4  10  20  37  60  90 121 157 213 248 305 364
#     4  11  20  37  61  92 123 154 206 263 306 356
#     4  12  24  41  64  90 130 171 200 256 322 368
#     4  10  21  37  59  87 125 161 201 253 302 374
#     4  10  20  35  64  95 120 157 210 267 304 354
#
# _framework density 21.043527000000001
#
# number of rings (size 3 to 8) (size 9 to 14) (size 15 to 20)
#    0.000    1.250    3.750    4.125    5.250    0.500 
#    0.000    0.000    0.000    2.250    0.000    0.000 
#    0.000    0.000    0.000    0.000    0.000    0.000 
#
# Total GULP energy -89241.336076 kJ/mol
# GULP energy per Si atom -5577.583505 kJ/mol
# Density = 2.099563 g / cm^3
# Si number density = 21.043527 Si / 1000 Ang^3
#
#
#
# Elastic Constant Matrix: (Units=GPa)
#
#
# Indices 1 2 3 4 5 6 
#
# 1 70.9211 2.7222 14.7559 -11.9938 -8.1610 -1.3136
# 2 2.7222 82.3841 17.1362 -17.3994 0.7161 -13.5311
# 3 14.7559 17.1362 61.1260 -19.2028 -12.3490 -0.9240
# 4 -11.9938 -17.3994 -19.2028 25.5329 6.3729 0.1473
# 5 -8.1610 0.7161 -12.3490 6.3729 24.7155 -2.6918
# 6 -1.3136 -13.5311 -0.9240 0.1473 -2.6918 36.7914
#
#
#
# Elastic Compliance Matrix: (Units=1/GPa)
#
#
# Indices 1 2 3 4 5 6 
#
# 1 0.015817 0.001336 -0.001574 0.006433 0.002870 0.001201
# 2 0.001336 0.015661 -0.001931 0.010593 -0.003111 0.005489
# 3 -0.001574 -0.001931 0.023022 0.013353 0.007631 0.000317
# 4 0.006433 0.010593 0.013353 0.061142 -0.006872 0.003713
# 5 0.002870 -0.003111 0.007631 -0.006872 0.047371 0.002643
# 6 0.001201 0.005489 0.000317 0.003713 0.002643 0.029428
#
#
# Mechanical properties :
#
#
# Convention : Reuss Voigt Hill
#
# Bulk Modulus (GPa) = 19.93524 31.51774 25.72649
# Shear Modulus (GPa) = 23.41926 29.39576 26.40751
#
# Velocity S-wave (km/s) = 3.33963 3.74157 3.54630
# Velocity P-wave (km/s) = 4.93606 5.80308 5.38704
#
# Compressibility (1/GPa) = 0.05016243
#
# Stress axis : x y z
#
# Youngs Moduli (GPa) = 63.22416 63.85101 43.43652
#
# Poissons Ratio (x) = -0.08528 0.06836
# Poissons Ratio (y) = -0.08444 0.08387
# Poissons Ratio (z) = 0.09950 0.12329
#
# Static dielectric constant tensor:
#      x y z
#    x 1.790920 -0.029220 0.030940 
#    y -0.029220 1.821280 -0.032880 
#    z 0.030940 -0.032880 1.782810 
# 
# From -- ./inp_files/207771.got.cif
#   From: 2010.05.17/outbox.cif.g08.bks.cpg/sg2_104_cif.got.tgz:207771.got - 2010.06.03 11:33:40.
