data_PCOD9096680
_publ_section_title
;
Structure prediction by ZEFSAII (Michael W. Deem and Ramdas Pophale) SiO2 
 PCOD9096680
Probable space group: P -1
;
_chemical_formula_sum "Si O2"
_cell_formula_units_Z 16
_cell_length_a 9.110807
_cell_length_b 12.176766
_cell_length_c 18.321367
_cell_angle_alpha 40.192934
_cell_angle_beta 123.865569
_cell_angle_gamma 142.903648
_cell_volume 784.089521
_symmetry_space_group_name_H-M "P -1"
_symmetry_group_IT_number 2
_symmetry_cell_setting 'triclinic'
loop_
_space_group_symop_operation_xyz
x,y,z
-x,-y,-z
loop_
_atom_site_type_symbol
_atom_site_label
_atom_site_fract_x
_atom_site_fract_y
_atom_site_fract_z
Si Si1 0.831336 0.104921 0.949864
Si Si2 0.845073 0.850056 0.461429
Si Si3 0.040864 0.761538 0.248657
Si Si4 0.394563 0.322053 0.814178
Si Si5 0.907573 0.739755 0.796053
Si Si6 0.248725 0.272010 0.082343
Si Si7 0.395004 0.046677 0.833569
Si Si8 0.674792 0.378837 0.601880
O O1 0.592882 0.059747 0.920059
O O2 0.937253 0.224757 0.840176
O O3 0.042854 0.247387 0.996183
O O4 0.718970 0.840314 0.061721
O O5 0.033276 0.966718 0.665203
O O6 0.832989 0.645413 0.537205
O O7 0.558448 0.712660 0.463472
O O8 0.000000 0.000000 0.500000
O O9 0.758673 0.606793 0.272009
O O10 0.163623 0.670192 0.357783
O O11 0.189093 0.032331 0.174149
O O12 0.686697 0.516287 0.801154
O O13 0.324760 0.154318 0.812428
O O14 0.771095 0.712131 0.845027
O O15 0.144631 0.793293 0.863435
O O16 0.500000 0.500000 0.000000
O O17 0.539077 0.216032 0.718491
#
# Coordination Sequence:
#
# PCOD9096680 Si02
#       8
#     2   2   2   2   2   2   2   2
#     4  10  20  36  57  84 124 162 199 242 294 355
#     4  10  21  43  66  88 116 152 204 259 313 352
#     4  10  20  39  59  87 122 163 200 243 304 358
#     4  11  20  35  57  82 127 157 191 243 296 350
#     4  11  22  36  61  89 115 161 203 246 296 363
#     4  11  21  38  59  89 130 166 199 243 294 361
#     4  10  20  38  57  89 118 154 204 247 295 357
#     4   9  21  41  66  85 117 153 199 257 309 358
#
# _framework density 20.405835
#
# number of rings (size 3 to 8) (size 9 to 14) (size 15 to 20)
#    0.000    1.750    2.500    4.125    0.000    0.500 
#   13.500    1.250    0.000    0.000    0.000    0.000 
#    0.000    0.000    0.000    0.000    0.000    0.000 
#
# Total GULP energy -89177.550175 kJ/mol
# GULP energy per Si atom -5573.596886 kJ/mol
# Density = 2.035939 g / cm^3
# Si number density = 20.405835 Si / 1000 Ang^3
#
#
#
# Elastic Constant Matrix: (Units=GPa)
#
#
# Indices 1 2 3 4 5 6 
#
# 1 90.3139 22.1030 19.2166 15.1003 20.8286 21.4843
# 2 22.1030 114.5944 20.0762 4.3639 11.2346 24.7909
# 3 19.2166 20.0762 32.5273 5.7842 11.9644 8.2001
# 4 15.1003 4.3639 5.7842 22.1456 5.3738 -6.0314
# 5 20.8286 11.2346 11.9644 5.3738 37.6202 3.8822
# 6 21.4843 24.7909 8.2001 -6.0314 3.8822 31.7802
#
#
#
# Elastic Compliance Matrix: (Units=1/GPa)
#
#
# Indices 1 2 3 4 5 6 
#
# 1 0.018957 0.001366 -0.003309 -0.014954 -0.006156 -0.015113
# 2 0.001366 0.011564 -0.004316 -0.004374 -0.001231 -0.009510
# 3 -0.003309 -0.004316 0.041025 -0.007016 -0.008378 -0.005290
# 4 -0.014954 -0.004374 -0.007016 0.065744 -0.000450 0.027864
# 5 -0.006156 -0.001231 -0.008378 -0.000450 0.032756 0.003196
# 6 -0.015113 -0.009510 -0.005290 0.027864 0.003196 0.055364
#
#
# Mechanical properties :
#
#
# Convention : Reuss Voigt Hill
#
# Bulk Modulus (GPa) = 16.94141 40.02524 28.48332
# Shear Modulus (GPa) = 19.40947 30.04518 24.72732
#
# Velocity S-wave (km/s) = 3.08745 3.84133 3.48484
# Velocity P-wave (km/s) = 4.58586 6.27149 5.49371
#
# Compressibility (1/GPa) = 0.05902697
#
# Stress axis : x y z
#
# Youngs Moduli (GPa) = 52.74964 86.47712 24.37527
#
# Poissons Ratio (x) = -0.11811 0.08067
# Poissons Ratio (y) = -0.07204 0.10521
# Poissons Ratio (z) = 0.17456 0.37325
#
# Static dielectric constant tensor:
#      x y z
#    x 1.767800 0.041770 0.032360 
#    y 0.041770 1.752790 0.026710 
#    z 0.032360 0.026710 1.766230 
# 
# From -- ./inp_files/558458.got.cif
#   From: 2010.05.17/outbox.cif.g08.bks.cpg/sg2_280_cif.got.tgz:558458.got - 2010.06.03 11:33:40.
