data_PCOD9096946
_publ_section_title
;
Structure prediction by ZEFSAII (Michael W. Deem and Ramdas Pophale) SiO2 
 PCOD9096946
Probable space group: P -1
;
_chemical_formula_sum "Si O2"
_cell_formula_units_Z 14
_cell_length_a 9.554584
_cell_length_b 5.128059
_cell_length_c 16.328738
_cell_angle_alpha 132.037543
_cell_angle_beta 99.753113
_cell_angle_gamma 76.211805
_cell_volume 577.026228
_symmetry_space_group_name_H-M "P -1"
_symmetry_group_IT_number 2
_symmetry_cell_setting 'triclinic'
loop_
_space_group_symop_operation_xyz
x,y,z
-x,-y,-z
loop_
_atom_site_type_symbol
_atom_site_label
_atom_site_fract_x
_atom_site_fract_y
_atom_site_fract_z
Si Si1 0.645175 0.622723 0.340811
Si Si2 0.314167 0.222887 0.809622
Si Si3 0.575799 0.607366 0.914685
Si Si4 0.326772 0.789622 0.312837
Si Si5 0.144865 0.288752 0.265088
Si Si6 0.066671 0.345990 0.558835
Si Si7 0.139677 0.644025 0.013279
O O1 0.691943 0.751239 0.283830
O O2 0.478711 0.810003 0.375816
O O3 0.760797 0.716809 0.437213
O O4 0.670680 0.190632 0.252051
O O5 0.464675 0.350036 0.874172
O O6 0.184470 0.505450 0.896911
O O7 0.614820 0.539952 0.810531
O O8 0.721724 0.552645 0.966588
O O9 0.500000 0.000000 0.000000
O O10 0.203368 0.646056 0.320938
O O11 0.257643 0.089072 0.302918
O O12 0.994304 0.377541 0.316760
O O13 0.131219 0.045583 0.132291
O O14 0.000000 0.500000 0.500000
O O15 0.000000 0.000000 0.500000
O O16 0.000000 0.500000 0.000000
#
# Coordination Sequence:
#
# PCOD9096946 Si02
#       7
#     2   2   2   2   2   2   2
#     4  11  23  43  69  97 129 170 219 258 309 390
#     4  11  22  39  64  96 133 179 216 254 305 377
#     4  10  20  36  58  89 133 181 219 249 297 372
#     4  10  21  40  65  93 127 168 210 265 313 363
#     4  11  24  43  64  94 132 166 211 270 321 371
#     4  12  27  49  71  94 125 167 211 269 339 396
#     4  11  22  36  59  95 133 171 211 257 309 369
#
# _framework density 24.262326999999999
#
# number of rings (size 3 to 8) (size 9 to 14) (size 15 to 20)
#    0.000    1.143    0.000    8.143    0.000    3.429 
#    0.000   10.714    0.000    0.000    0.000    0.000 
#    0.000    0.000    0.000    0.000    0.000    0.000 
#
# Total GULP energy -78311.072690 kJ/mol
# GULP energy per Si atom -5593.648049 kJ/mol
# Density = 2.420710 g / cm^3
# Si number density = 24.262327 Si / 1000 Ang^3
#
#
#
# Elastic Constant Matrix: (Units=GPa)
#
#
# Indices 1 2 3 4 5 6 
#
# 1 137.8150 -3.5369 8.9463 -8.6811 8.2039 3.2066
# 2 -3.5369 82.7268 -0.5174 -9.9657 9.9637 8.0667
# 3 8.9463 -0.5174 53.2473 6.1252 -3.4067 5.7814
# 4 -8.6811 -9.9657 6.1252 31.8257 -0.7028 -0.6275
# 5 8.2039 9.9637 -3.4067 -0.7028 55.4992 -4.8161
# 6 3.2066 8.0667 5.7814 -0.6275 -4.8161 36.4047
#
#
#
# Elastic Compliance Matrix: (Units=1/GPa)
#
#
# Indices 1 2 3 4 5 6 
#
# 1 0.007649 0.000878 -0.001586 0.002620 -0.001418 -0.000759
# 2 0.000878 0.013298 -0.000341 0.004344 -0.002766 -0.003261
# 3 -0.001586 -0.000341 0.019939 -0.004407 0.001215 -0.002867
# 4 0.002620 0.004344 -0.004407 0.034321 -0.001006 -0.000035
# 5 -0.001418 -0.002766 0.001215 -0.001006 0.019051 0.003048
# 6 -0.000759 -0.003261 -0.002867 -0.000035 0.003048 0.029116
#
#
# Mechanical properties :
#
#
# Convention : Reuss Voigt Hill
#
# Bulk Modulus (GPa) = 25.78208 31.50811 28.64509
# Shear Modulus (GPa) = 36.12663 42.67239 39.39951
#
# Velocity S-wave (km/s) = 3.86294 4.19835 4.03413
# Velocity P-wave (km/s) = 5.52683 6.04286 5.79060
#
# Compressibility (1/GPa) = 0.03878664
#
# Stress axis : x y z
#
# Youngs Moduli (GPa) = 130.74075 75.20093 50.15197
#
# Poissons Ratio (x) = -0.06599 0.07956
# Poissons Ratio (y) = -0.11473 0.01709
# Poissons Ratio (z) = 0.20740 0.02563
#
# Static dielectric constant tensor:
#      x y z
#    x 1.943410 -0.028470 -0.004560 
#    y -0.028470 1.831980 -0.030000 
#    z -0.004560 -0.030000 2.089940 
# 
# From -- ./inp_files/553106.got.cif
#   From: 2010.05.17/outbox.cif.g08.bks.cpg/sg2_277_cif.got.tgz:553106.got - 2010.06.03 11:33:40.
