data_PCOD9096476
_publ_section_title
;
Structure prediction by ZEFSAII (Michael W. Deem and Ramdas Pophale) SiO2 
 PCOD9096476
Probable space group: P -1
;
_chemical_formula_sum "Si O2"
_cell_formula_units_Z 16
_cell_length_a 9.573353
_cell_length_b 15.840940
_cell_length_c 8.283784
_cell_angle_alpha 126.744960
_cell_angle_beta 73.210782
_cell_angle_gamma 64.937852
_cell_volume 606.151009
_symmetry_space_group_name_H-M "P -1"
_symmetry_group_IT_number 2
_symmetry_cell_setting 'triclinic'
loop_
_space_group_symop_operation_xyz
x,y,z
-x,-y,-z
loop_
_atom_site_type_symbol
_atom_site_label
_atom_site_fract_x
_atom_site_fract_y
_atom_site_fract_z
Si Si1 0.454090 0.808099 0.651100
Si Si2 0.071953 0.357561 0.708777
Si Si3 0.858839 0.473839 0.569797
Si Si4 0.294878 0.795574 0.132197
Si Si5 0.238042 0.115710 0.914047
Si Si6 0.301657 0.688666 0.714986
Si Si7 0.287505 0.041019 0.440179
Si Si8 0.633994 0.323944 0.687452
O O1 0.673908 0.751350 0.560953
O O2 0.390319 0.760591 0.751680
O O3 0.505394 0.701289 0.359765
O O4 0.257515 0.000828 0.886287
O O5 0.922295 0.420895 0.674418
O O6 0.112251 0.228655 0.648210
O O7 0.000000 0.500000 0.000000
O O8 0.000000 0.500000 0.500000
O O9 0.580636 0.629460 0.836099
O O10 0.988129 0.311966 0.232806
O O11 0.166587 0.788092 0.040881
O O12 0.240939 0.948116 0.304262
O O13 0.237971 0.791339 0.329973
O O14 0.451387 0.073225 0.838435
O O15 0.295834 0.047288 0.636987
O O16 0.500000 0.500000 0.500000
O O17 0.255216 0.702505 0.552827
O O18 0.500000 0.500000 0.000000
#
# Coordination Sequence:
#
# PCOD9096476 Si02
#       8
#     2   2   2   2   2   2   2   2
#     4   9  20  35  58  86 119 158 200 245 292 359
#     4  11  23  36  55  90 127 160 193 239 293 368
#     4  12  24  36  56  89 131 161 199 237 303 362
#     4  12  21  40  63  94 120 165 197 253 303 356
#     4  10  20  36  55  85 123 162 196 245 289 366
#     4  10  21  36  63  90 113 152 211 259 296 354
#     4  10  21  36  59  82 122 163 206 232 293 362
#     4  10  20  37  62  91 115 149 209 264 301 344
#
# _framework density 26.396061
#
# number of rings (size 3 to 8) (size 9 to 14) (size 15 to 20)
#    0.750    0.750    3.750    2.250    3.500    1.000 
#    0.000    0.000    0.000    3.000    0.000    5.250 
#    0.000    0.000    0.000    0.000    0.000    0.000 
#
# Total GULP energy -89370.460160 kJ/mol
# GULP energy per Si atom -5585.653760 kJ/mol
# Density = 2.633598 g / cm^3
# Si number density = 26.396061 Si / 1000 Ang^3
#
#
#
# Elastic Constant Matrix: (Units=GPa)
#
#
# Indices 1 2 3 4 5 6 
#
# 1 93.0531 27.8630 54.2065 -3.5649 -3.0053 -10.6993
# 2 27.8630 135.7983 39.4137 5.4275 2.6047 2.6965
# 3 54.2065 39.4137 159.7989 11.4472 13.8428 -14.0195
# 4 -3.5649 5.4275 11.4472 52.0799 -6.8739 18.7726
# 5 -3.0053 2.6047 13.8428 -6.8739 55.2317 -2.7036
# 6 -10.6993 2.6965 -14.0195 18.7726 -2.7036 39.4020
#
#
#
# Elastic Compliance Matrix: (Units=1/GPa)
#
#
# Indices 1 2 3 4 5 6 
#
# 1 0.014290 -0.001746 -0.004614 0.001901 0.002332 0.001613
# 2 -0.001746 0.008209 -0.001545 -0.000101 -0.000183 -0.001550
# 3 -0.004614 -0.001545 0.009042 -0.003842 -0.002741 0.003713
# 4 0.001901 -0.000101 -0.003842 0.025204 0.003591 -0.012606
# 5 0.002332 -0.000183 -0.002741 0.003591 0.019340 -0.000713
# 6 0.001613 -0.001550 0.003713 -0.012606 -0.000713 0.033202
#
#
# Mechanical properties :
#
#
# Convention : Reuss Voigt Hill
#
# Bulk Modulus (GPa) = 63.56379 70.17962 66.87171
# Shear Modulus (GPa) = 38.36076 47.15386 42.75731
#
# Velocity S-wave (km/s) = 3.81632 4.23117 4.02909
# Velocity P-wave (km/s) = 6.59940 7.10741 6.85811
#
# Compressibility (1/GPa) = 0.01573223
#
# Stress axis : x y z
#
# Youngs Moduli (GPa) = 69.97693 121.81865 110.58899
#
# Poissons Ratio (x) = 0.21267 0.51021
# Poissons Ratio (y) = 0.12216 0.17091
# Poissons Ratio (z) = 0.32285 0.18826
#
# Static dielectric constant tensor:
#      x y z
#    x 2.330400 -0.083150 0.099020 
#    y -0.083150 2.118520 -0.094310 
#    z 0.099020 -0.094310 2.217430 
# 
# From -- ./inp_files/311782.got.cif
#   From: 2010.05.17/outbox.cif.g08.bks.cpg/sg2_156_cif.got.tgz:311782.got - 2010.06.03 11:33:40.
