data_PCOD9096259
_publ_section_title
;
Structure prediction by ZEFSAII (Michael W. Deem and Ramdas Pophale) SiO2 
 PCOD9096259
Probable space group: P -1
;
_chemical_formula_sum "Si O2"
_cell_formula_units_Z 16
_cell_length_a 12.515862
_cell_length_b 16.256245
_cell_length_c 9.465411
_cell_angle_alpha 72.600538
_cell_angle_beta 106.635363
_cell_angle_gamma 156.464392
_cell_volume 733.465144
_symmetry_space_group_name_H-M "P -1"
_symmetry_group_IT_number 2
_symmetry_cell_setting 'triclinic'
loop_
_space_group_symop_operation_xyz
x,y,z
-x,-y,-z
loop_
_atom_site_type_symbol
_atom_site_label
_atom_site_fract_x
_atom_site_fract_y
_atom_site_fract_z
Si Si1 0.505510 0.311952 0.672414
Si Si2 0.335892 0.098971 0.971019
Si Si3 0.141916 0.806694 0.944721
Si Si4 0.771737 0.447003 0.182932
Si Si5 0.340459 0.215532 0.349401
Si Si6 0.649092 0.571680 0.758539
Si Si7 0.059901 0.124475 0.859801
Si Si8 0.965961 0.417235 0.171825
O O1 0.375517 0.208107 0.525584
O O2 0.594423 0.473627 0.649571
O O3 0.760905 0.430504 0.739771
O O4 0.301818 0.140146 0.807092
O O5 0.568200 0.304489 0.045827
O O6 0.097985 0.916544 0.085612
O O7 0.385306 0.040252 0.953464
O O8 0.900009 0.701099 0.860379
O O9 0.186520 0.773536 0.848478
O O10 0.034666 0.679060 0.105229
O O11 0.611100 0.379721 0.281853
O O12 0.833256 0.388291 0.249482
O O13 0.307929 0.296137 0.303998
O O14 0.097953 0.000479 0.282314
O O15 0.369896 0.363796 0.843705
O O16 0.000000 0.000000 0.000000
O O17 0.000000 0.500000 0.000000
#
# Coordination Sequence:
#
# PCOD9096259 Si02
#       8
#     2   2   2   2   2   2   2   2
#     4  11  22  41  56  90 120 151 194 239 289 350
#     4  11  20  36  60  86 119 147 196 238 286 343
#     4  10  20  35  64  90 108 153 196 242 286 335
#     4  10  20  41  59  88 115 148 198 242 285 343
#     4  11  25  37  60  84 122 160 187 235 297 342
#     4  11  21  40  59  84 120 155 197 233 286 351
#     4  11  21  38  57  85 115 156 195 240 276 337
#     4   9  18  39  64  85 115 146 195 249 283 336
#
# _framework density 21.814260000000001
#
# number of rings (size 3 to 8) (size 9 to 14) (size 15 to 20)
#    0.000    1.500    5.000    2.625    0.000    3.000 
#    4.500    0.000    0.000    0.750    0.000    0.000 
#    0.000    0.000    0.000    0.000    0.000    0.000 
#
# Total GULP energy -89287.596814 kJ/mol
# GULP energy per Si atom -5580.474801 kJ/mol
# Density = 2.176461 g / cm^3
# Si number density = 21.814260 Si / 1000 Ang^3
#
#
#
# Elastic Constant Matrix: (Units=GPa)
#
#
# Indices 1 2 3 4 5 6 
#
# 1 135.2276 18.4305 33.7674 9.8769 6.7026 -7.7533
# 2 18.4305 64.3729 28.4479 11.5894 0.0492 -13.1462
# 3 33.7674 28.4479 106.1875 25.8061 -7.9104 -1.4139
# 4 9.8769 11.5894 25.8061 23.2415 -4.8132 -1.8652
# 5 6.7026 0.0492 -7.9104 -4.8132 23.7712 4.8399
# 6 -7.7533 -13.1462 -1.4139 -1.8652 4.8399 43.5469
#
#
#
# Elastic Compliance Matrix: (Units=1/GPa)
#
#
# Indices 1 2 3 4 5 6 
#
# 1 0.008478 -0.000818 -0.002466 -0.001109 -0.003750 0.001552
# 2 -0.000818 0.019633 -0.003865 -0.005382 -0.003367 0.005799
# 3 -0.002466 -0.003865 0.014529 -0.012618 0.003401 -0.002053
# 4 -0.001109 -0.005382 -0.012618 0.061966 0.008785 -0.000554
# 5 -0.003750 -0.003367 0.003401 0.008785 0.047358 -0.006461
# 6 0.001552 0.005799 -0.002053 -0.000554 -0.006461 0.025618
#
#
# Mechanical properties :
#
#
# Convention : Reuss Voigt Hill
#
# Bulk Modulus (GPa) = 35.28362 51.89774 43.59068
# Shear Modulus (GPa) = 24.83502 33.12139 28.97821
#
# Velocity S-wave (km/s) = 3.37779 3.90081 3.64869
# Velocity P-wave (km/s) = 5.60556 6.64310 6.14626
#
# Compressibility (1/GPa) = 0.02834177
#
# Stress axis : x y z
#
# Youngs Moduli (GPa) = 117.95158 50.93539 68.82605
#
# Poissons Ratio (x) = 0.04167 0.16973
# Poissons Ratio (y) = 0.09650 0.26601
# Poissons Ratio (z) = 0.29087 0.19687
#
# Static dielectric constant tensor:
#      x y z
#    x 1.973950 0.046530 -0.007880 
#    y 0.046530 1.826870 0.006080 
#    z -0.007880 0.006080 1.760020 
# 
# From -- ./inp_files/272635.got.cif
#   From: 2010.05.17/outbox.cif.g08.bks.cpg/sg2_137_cif.got.tgz:272635.got - 2010.06.03 11:33:40.
