data_PCOD9096398
_publ_section_title
;
Structure prediction by ZEFSAII (Michael W. Deem and Ramdas Pophale) SiO2 
 PCOD9096398
Probable space group: P -1
;
_chemical_formula_sum "Si O2"
_cell_formula_units_Z 14
_cell_length_a 7.355230
_cell_length_b 19.596307
_cell_length_c 11.929902
_cell_angle_alpha 149.184910
_cell_angle_beta 79.912141
_cell_angle_gamma 79.773482
_cell_volume 658.834230
_symmetry_space_group_name_H-M "P -1"
_symmetry_group_IT_number 2
_symmetry_cell_setting 'triclinic'
loop_
_space_group_symop_operation_xyz
x,y,z
-x,-y,-z
loop_
_atom_site_type_symbol
_atom_site_label
_atom_site_fract_x
_atom_site_fract_y
_atom_site_fract_z
Si Si1 0.879098 0.951065 0.608569
Si Si2 0.443887 0.542425 0.370384
Si Si3 0.966321 0.196415 0.842682
Si Si4 0.670347 0.132389 0.097101
Si Si5 0.692731 0.318429 0.660949
Si Si6 0.019206 0.646619 0.719892
Si Si7 0.782527 0.994659 0.123057
O O1 0.860989 0.884452 0.398491
O O2 0.067063 0.788230 0.440029
O O3 0.983333 0.046946 0.694246
O O4 0.659458 0.083224 0.903431
O O5 0.510872 0.661524 0.568835
O O6 0.293964 0.631941 0.397314
O O7 0.277086 0.563747 0.517215
O O8 0.685067 0.344205 0.043089
O O9 0.001855 0.294903 0.067738
O O10 0.681282 0.031442 0.060035
O O11 0.941365 0.074115 0.996240
O O12 0.635778 0.186042 0.466872
O O13 0.500000 0.500000 0.000000
O O14 0.000000 0.500000 0.500000
O O15 0.819445 0.833461 0.944036
#
# Coordination Sequence:
#
# PCOD9096398 Si02
#       7
#     2   2   2   2   2   2   2
#     4  10  18  29  50  81 110 132 159 232 276 299
#     4  10  19  32  55  84  99 133 186 223 252 310
#     4  11  20  31  51  83 111 129 175 224 269 302
#     4   8  14  28  51  74  98 124 172 227 257 291
#     4  10  16  30  54  83 104 130 174 232 269 298
#     4  11  21  34  52  75 114 149 173 204 263 331
#     4   8  15  29  48  73  99 133 178 206 253 309
#
# _framework density 21.249655000000001
#
# number of rings (size 3 to 8) (size 9 to 14) (size 15 to 20)
#    0.000    2.286    5.714    3.000    0.000    0.000 
#    0.000    0.000    0.000   14.571    0.000    0.000 
#    0.000    0.000    0.000    0.000    0.000    0.000 
#
# Total GULP energy -77992.122314 kJ/mol
# GULP energy per Si atom -5570.865880 kJ/mol
# Density = 2.120129 g / cm^3
# Si number density = 21.249655 Si / 1000 Ang^3
#
#
#
# Elastic Constant Matrix: (Units=GPa)
#
#
# Indices 1 2 3 4 5 6 
#
# 1 35.2700 17.1493 12.7744 1.5871 15.0409 -1.9984
# 2 17.1493 132.7968 44.8534 -16.9556 21.3207 -6.4967
# 3 12.7744 44.8534 123.7154 -14.2334 24.0103 3.0012
# 4 1.5871 -16.9556 -14.2334 52.1220 -3.5738 7.5722
# 5 15.0409 21.3207 24.0103 -3.5738 25.1010 1.5558
# 6 -1.9984 -6.4967 3.0012 7.5722 1.5558 -3.0916
#
#
#
# Elastic Compliance Matrix: (Units=1/GPa)
#
#
# Indices 1 2 3 4 5 6 
#
# 1 0.036086 -0.003294 0.001769 0.000393 -0.019018 -0.023295
# 2 -0.003294 0.008966 -0.001660 0.003864 -0.002865 -0.010301
# 3 0.001769 -0.001660 0.010271 0.000344 -0.009932 0.008161
# 4 0.000393 0.003864 0.000344 0.016011 -0.003394 0.029469
# 5 -0.019018 -0.002865 -0.009932 -0.003394 0.060768 0.030941
# 6 -0.023295 -0.010301 0.008161 0.029469 0.030941 -0.191083
#
#
# Mechanical properties :
#
#
# Convention : Reuss Voigt Hill
#
# Bulk Modulus (GPa) = 20.42708 49.03740 34.73224
# Shear Modulus (GPa) = -137.76741 29.29329 -54.23706
#
# Velocity S-wave (km/s) = -8.06062 3.71688 -5.05758
# Velocity P-wave (km/s) = 8.77483 6.44571 4.21013
#
# Compressibility (1/GPa) = 0.04895462
#
# Stress axis : x y z
#
# Youngs Moduli (GPa) = 27.71145 111.53607 97.35732
#
# Poissons Ratio (x) = 0.36738 -0.17226
# Poissons Ratio (y) = 0.09128 0.16161
# Poissons Ratio (z) = -0.04903 0.18514
#
# Static dielectric constant tensor:
#      x y z
#    x 1.787950 -0.018800 -0.000830 
#    y -0.018800 1.827210 0.002990 
#    z -0.000830 0.002990 1.861200 
# 
# From -- ./inp_files/404354.got.cif
#   From: 2010.05.17/outbox.cif.g08.bks.cpg/sg2_203_cif.got.tgz:404354.got - 2010.06.03 11:33:40.
