data_PCOD9096625
_publ_section_title
;
Structure prediction by ZEFSAII (Michael W. Deem and Ramdas Pophale) SiO2 
 PCOD9096625
Probable space group: P -1
;
_chemical_formula_sum "Si O2"
_cell_formula_units_Z 12
_cell_length_a 8.375412
_cell_length_b 21.596025
_cell_length_c 10.236930
_cell_angle_alpha 151.249575
_cell_angle_beta 38.489029
_cell_angle_gamma 143.701117
_cell_volume 508.043472
_symmetry_space_group_name_H-M "P -1"
_symmetry_group_IT_number 2
_symmetry_cell_setting 'triclinic'
loop_
_space_group_symop_operation_xyz
x,y,z
-x,-y,-z
loop_
_atom_site_type_symbol
_atom_site_label
_atom_site_fract_x
_atom_site_fract_y
_atom_site_fract_z
Si Si1 0.329376 0.807270 0.370662
Si Si2 0.363114 0.832212 0.804022
Si Si3 0.205252 0.418709 0.736247
Si Si4 0.635271 0.126976 0.828952
Si Si5 0.725684 0.650913 0.875069
Si Si6 0.240483 0.304280 0.782364
O O1 0.997610 0.729635 0.469453
O O2 0.378288 0.807796 0.182649
O O3 0.525315 0.734840 0.165751
O O4 0.442001 0.964625 0.640082
O O5 0.508117 0.743955 0.475486
O O6 0.418624 0.814960 0.891471
O O7 0.036130 0.757669 0.836650
O O8 0.500000 0.000000 0.000000
O O9 0.472125 0.487881 0.334855
O O10 0.221200 0.387708 0.821633
O O11 0.000000 0.500000 0.000000
O O12 0.963370 0.158868 0.691784
O O13 0.763400 0.613147 0.931119
#
# Coordination Sequence:
#
# PCOD9096625 Si02
#       6
#     2   2   2   2   2   2
#     4   9  17  35  58  79 108 147 180 221 274 320
#     4  11  22  35  56  85 112 142 181 224 272 324
#     4   9  19  36  58  80 107 146 184 221 270 322
#     4   9  19  36  57  80 110 142 181 227 271 319
#     4  10  20  36  57  80 111 143 181 226 269 321
#     4  10  20  36  59  83 109 143 181 224 273 321
#
# _framework density 23.620024999999998
#
# number of rings (size 3 to 8) (size 9 to 14) (size 15 to 20)
#    0.000    2.333    0.000    2.500    0.000    3.333 
#    0.000   18.333    0.000   20.000    0.000    0.000 
#    0.000    0.000    0.000    0.000    0.000    0.000 
#
# Total GULP energy -66912.096428 kJ/mol
# GULP energy per Si atom -5576.008036 kJ/mol
# Density = 2.356626 g / cm^3
# Si number density = 23.620025 Si / 1000 Ang^3
#
#
#
# Elastic Constant Matrix: (Units=GPa)
#
#
# Indices 1 2 3 4 5 6 
#
# 1 114.8832 54.7135 26.0897 -10.2580 1.7752 20.1893
# 2 54.7135 159.1816 23.3965 3.7940 -4.2703 67.7907
# 3 26.0897 23.3965 22.4843 -7.6137 -2.8726 -0.3996
# 4 -10.2580 3.7940 -7.6137 22.0828 -0.6719 -3.8223
# 5 1.7752 -4.2703 -2.8726 -0.6719 31.1522 -4.7885
# 6 20.1893 67.7907 -0.3996 -3.8223 -4.7885 54.8009
#
#
#
# Elastic Compliance Matrix: (Units=1/GPa)
#
#
# Indices 1 2 3 4 5 6 
#
# 1 0.013293 -0.000120 -0.015867 -0.000258 -0.003034 -0.005148
# 2 -0.000120 0.029299 -0.040649 -0.026021 -0.006259 -0.038857
# 3 -0.015867 -0.040649 0.127128 0.054794 0.017834 0.062437
# 4 -0.000258 -0.026021 0.054794 0.075509 0.009084 0.038744
# 5 -0.003034 -0.006259 0.017834 0.009084 0.035208 0.012701
# 6 -0.005148 -0.038857 0.062437 0.038744 0.012701 0.072480
#
#
# Mechanical properties :
#
#
# Convention : Reuss Voigt Hill
#
# Bulk Modulus (GPa) = 17.71555 56.10539 36.91047
# Shear Modulus (GPa) = 10.30918 34.43045 22.36982
#
# Velocity S-wave (km/s) = 2.09143 3.82210 3.08079
# Velocity P-wave (km/s) = 3.65357 6.57897 5.32125
#
# Compressibility (1/GPa) = 0.05644757
#
# Stress axis : x y z
#
# Youngs Moduli (GPa) = 75.22508 34.13140 7.86611
#
# Poissons Ratio (x) = 0.00410 0.12481
# Poissons Ratio (y) = 0.00904 0.31975
# Poissons Ratio (z) = 1.19356 1.38742
#
# Static dielectric constant tensor:
#      x y z
#    x 1.913550 -0.009690 0.050380 
#    y -0.009690 2.011310 -0.006160 
#    z 0.050380 -0.006160 1.871440 
# 
# From -- ./inp_files/87457.got.cif
#   From: 2010.05.17/outbox.cif.g08.bks.cpg/sg2_44_cif.got.tgz:87457.got - 2010.06.03 11:33:40.
