data_PCOD9096252
_publ_section_title
;
Structure prediction by ZEFSAII (Michael W. Deem and Ramdas Pophale) SiO2 
 PCOD9096252
Probable space group: P -1
;
_chemical_formula_sum "Si O2"
_cell_formula_units_Z 16
_cell_length_a 8.947047
_cell_length_b 11.778411
_cell_length_c 20.244309
_cell_angle_alpha 149.531550
_cell_angle_beta 53.814977
_cell_angle_gamma 127.812499
_cell_volume 844.325652
_symmetry_space_group_name_H-M "P -1"
_symmetry_group_IT_number 2
_symmetry_cell_setting 'triclinic'
loop_
_space_group_symop_operation_xyz
x,y,z
-x,-y,-z
loop_
_atom_site_type_symbol
_atom_site_label
_atom_site_fract_x
_atom_site_fract_y
_atom_site_fract_z
Si Si1 0.514309 0.270837 0.418623
Si Si2 0.053920 0.672138 0.656660
Si Si3 0.692563 0.668176 0.093414
Si Si4 0.830281 0.985515 0.087354
Si Si5 0.808369 0.162796 0.486472
Si Si6 0.029382 0.945527 0.226921
Si Si7 0.443764 0.948826 0.381444
Si Si8 0.422277 0.874455 0.132140
O O1 0.500000 0.500000 0.500000
O O2 0.393258 0.153324 0.454137
O O3 0.730309 0.326383 0.418400
O O4 0.463961 0.064530 0.274905
O O5 0.912341 0.423089 0.570356
O O6 0.978734 0.843134 0.714022
O O7 0.097029 0.778964 0.771985
O O8 0.774578 0.795638 0.066868
O O9 0.529948 0.779424 0.225744
O O10 0.623285 0.392516 0.966657
O O11 0.870411 0.733098 0.130755
O O12 0.630776 0.940037 0.076553
O O13 0.000000 0.000000 0.000000
O O14 0.622109 0.058757 0.438104
O O15 0.956233 0.012197 0.350823
O O16 0.733462 0.159794 0.579300
O O17 0.238616 0.905893 0.156847
#
# Coordination Sequence:
#
# PCOD9096252 Si02
#       8
#     2   2   2   2   2   2   2   2
#     4  11  22  38  59  89 121 158 204 246 302 362
#     4  10  20  38  59  84 119 162 197 247 301 358
#     4  10  20  41  61  84 122 160 200 246 301 366
#     4  10  22  38  59  87 116 155 204 245 299 361
#     4  10  20  35  64  88 115 163 201 248 295 357
#     4  10  20  38  60  90 122 157 207 243 303 362
#     4  10  21  38  59  91 119 155 205 247 299 358
#     4  11  22  36  65  87 117 166 194 247 308 353
#
# _framework density 18.950035
#
# number of rings (size 3 to 8) (size 9 to 14) (size 15 to 20)
#    0.000    1.750    5.000    1.875    3.500    0.000 
#    0.000    7.500    2.750    0.000    0.000    0.000 
#    0.000    0.000    0.000    0.000    0.000    0.000 
#
# Total GULP energy -89077.593839 kJ/mol
# GULP energy per Si atom -5567.349615 kJ/mol
# Density = 1.890690 g / cm^3
# Si number density = 18.950035 Si / 1000 Ang^3
#
#
#
# Elastic Constant Matrix: (Units=GPa)
#
#
# Indices 1 2 3 4 5 6 
#
# 1 90.1541 34.1508 37.8437 -1.0690 -14.7226 10.7709
# 2 34.1508 101.4062 64.5283 -5.6505 5.0571 6.4567
# 3 37.8437 64.5283 87.5514 13.8727 4.8265 5.0977
# 4 -1.0690 -5.6505 13.8727 42.1136 6.5083 -0.1319
# 5 -14.7226 5.0571 4.8265 6.5083 22.8757 5.9950
# 6 10.7709 6.4567 5.0977 -0.1319 5.9950 31.0381
#
#
#
# Elastic Compliance Matrix: (Units=1/GPa)
#
#
# Indices 1 2 3 4 5 6 
#
# 1 0.018202 -0.002187 -0.006652 -0.000086 0.015669 -0.007796
# 2 -0.002187 0.021623 -0.016119 0.008980 -0.005335 -0.000023
# 3 -0.006652 -0.016119 0.028027 -0.010943 -0.003985 0.001782
# 4 -0.000086 0.008980 -0.010943 0.029903 -0.008702 0.001767
# 5 0.015669 -0.005335 -0.003985 -0.008702 0.062428 -0.015768
# 6 -0.007796 -0.000023 0.001782 0.001767 -0.015768 0.037689
#
#
# Mechanical properties :
#
#
# Convention : Reuss Voigt Hill
#
# Bulk Modulus (GPa) = 55.75302 61.35082 58.55192
# Shear Modulus (GPa) = 19.70316 28.71141 24.20729
#
# Velocity S-wave (km/s) = 3.22800 3.89667 3.57799
# Velocity P-wave (km/s) = 6.58622 7.25883 6.93069
#
# Compressibility (1/GPa) = 0.01793625
#
# Stress axis : x y z
#
# Youngs Moduli (GPa) = 54.93862 46.24787 35.67945
#
# Poissons Ratio (x) = 0.10112 0.23736
# Poissons Ratio (y) = 0.12013 0.57511
# Poissons Ratio (z) = 0.36548 0.74546
#
# Static dielectric constant tensor:
#      x y z
#    x 1.699330 -0.007050 -0.003880 
#    y -0.007050 1.670890 -0.024250 
#    z -0.003880 -0.024250 1.713840 
# 
# From -- ./inp_files/295788.got.cif
#   From: 2010.05.17/outbox.cif.g08.bks.cpg/sg2_148_cif.got.tgz:295788.got - 2010.06.03 11:33:40.
