data_PCOD9096439
_publ_section_title
;
Structure prediction by ZEFSAII (Michael W. Deem and Ramdas Pophale) SiO2 
 PCOD9096439
Probable space group: P -1
;
_chemical_formula_sum "Si O2"
_cell_formula_units_Z 12
_cell_length_a 7.285409
_cell_length_b 21.694131
_cell_length_c 10.194712
_cell_angle_alpha 35.080490
_cell_angle_beta 60.593150
_cell_angle_gamma 36.479786
_cell_volume 480.338289
_symmetry_space_group_name_H-M "P -1"
_symmetry_group_IT_number 2
_symmetry_cell_setting 'triclinic'
loop_
_space_group_symop_operation_xyz
x,y,z
-x,-y,-z
loop_
_atom_site_type_symbol
_atom_site_label
_atom_site_fract_x
_atom_site_fract_y
_atom_site_fract_z
Si Si1 0.134644 0.136689 0.973606
Si Si2 0.375448 0.087901 0.585571
Si Si3 0.219716 0.464223 0.367080
Si Si4 0.777652 0.636957 0.965160
Si Si5 0.287331 0.572511 0.592195
Si Si6 0.068560 0.936997 0.236786
O O1 0.015369 0.063506 0.120712
O O2 0.273393 0.095441 0.143955
O O3 0.500000 0.000000 0.000000
O O4 0.519543 0.261546 0.559554
O O5 0.079134 0.253469 0.502660
O O6 0.175325 0.065056 0.638910
O O7 0.439362 0.169305 0.338267
O O8 0.155288 0.666572 0.331730
O O9 0.440414 0.468116 0.349977
O O10 0.000000 0.500000 0.500000
O O11 0.000011 0.583833 0.107018
O O12 0.613915 0.591935 0.148226
O O13 0.000000 0.500000 0.000000
O O14 0.000000 0.000000 0.000000
#
# Coordination Sequence:
#
# PCOD9096439 Si02
#       6
#     2   2   2   2   2   2
#     4  10  16  30  54  86 110 138 191 247 276 325
#     4   9  19  30  53  88 113 141 189 250 287 324
#     4  11  23  37  57  88 124 154 190 239 297 350
#     4  10  21  37  57  87 121 150 193 244 294 341
#     4   9  19  33  57  87 112 152 197 240 285 342
#     4  11  18  32  58  88 111 146 198 241 280 338
#
# _framework density 24.982395
#
# number of rings (size 3 to 8) (size 9 to 14) (size 15 to 20)
#    0.000    2.000    5.000    3.000    0.000    8.000 
#    0.000    0.000    0.000    2.000    0.000    0.000 
#    0.000    0.000    0.000    0.000    0.000    0.000 
#
# Total GULP energy -67106.218755 kJ/mol
# GULP energy per Si atom -5592.184896 kJ/mol
# Density = 2.492553 g / cm^3
# Si number density = 24.982395 Si / 1000 Ang^3
#
#
#
# Elastic Constant Matrix: (Units=GPa)
#
#
# Indices 1 2 3 4 5 6 
#
# 1 144.5792 36.6506 85.5416 -14.4930 -9.0569 7.9051
# 2 36.6506 108.0533 37.8383 -6.5763 1.4999 11.1507
# 3 85.5416 37.8383 170.6307 -11.2210 -6.2938 -7.1753
# 4 -14.4930 -6.5763 -11.2210 36.1335 7.2059 3.9307
# 5 -9.0569 1.4999 -6.2938 7.2059 56.6724 -3.2873
# 6 7.9051 11.1507 -7.1753 3.9307 -3.2873 22.2799
#
#
#
# Elastic Compliance Matrix: (Units=1/GPa)
#
#
# Indices 1 2 3 4 5 6 
#
# 1 0.010944 -0.001131 -0.005247 0.003052 0.000491 -0.005473
# 2 -0.001131 0.011167 -0.002103 0.001884 -0.001320 -0.006392
# 3 -0.005247 -0.002103 0.009208 -0.000414 0.000643 0.006048
# 4 0.003052 0.001884 -0.000414 0.030801 -0.003999 -0.008183
# 5 0.000491 -0.001320 0.000643 -0.003999 0.018579 0.004141
# 6 -0.005473 -0.006392 0.006048 -0.008183 0.004141 0.054027
#
#
# Mechanical properties :
#
#
# Convention : Reuss Voigt Hill
#
# Bulk Modulus (GPa) = 69.65005 82.59158 76.12082
# Shear Modulus (GPa) = 31.95428 40.56600 36.26014
#
# Velocity S-wave (km/s) = 3.58029 4.03399 3.81389
# Velocity P-wave (km/s) = 6.71055 7.40467 7.06614
#
# Compressibility (1/GPa) = 0.01435749
#
# Stress axis : x y z
#
# Youngs Moduli (GPa) = 91.37839 89.54609 108.59926
#
# Poissons Ratio (x) = 0.10127 0.56980
# Poissons Ratio (y) = 0.10334 0.22839
# Poissons Ratio (z) = 0.47945 0.18832
#
# Static dielectric constant tensor:
#      x y z
#    x 1.939430 -0.094450 -0.057380 
#    y -0.094450 2.309380 0.314790 
#    z -0.057380 0.314790 2.308530 
# 
# From -- ./inp_files/45348.got.cif
#   From: 2010.05.17/outbox.cif.g08.bks.cpg/sg2_23_cif.got.tgz:45348.got - 2010.06.03 11:33:40.
