data_PCOD9096669
_publ_section_title
;
Structure prediction by ZEFSAII (Michael W. Deem and Ramdas Pophale) SiO2 
 PCOD9096669
Probable space group: P -1
;
_chemical_formula_sum "Si O2"
_cell_formula_units_Z 14
_cell_length_a 9.480400
_cell_length_b 13.121882
_cell_length_c 7.403142
_cell_angle_alpha 81.042818
_cell_angle_beta 134.778262
_cell_angle_gamma 104.407492
_cell_volume 632.913850
_symmetry_space_group_name_H-M "P -1"
_symmetry_group_IT_number 2
_symmetry_cell_setting 'triclinic'
loop_
_space_group_symop_operation_xyz
x,y,z
-x,-y,-z
loop_
_atom_site_type_symbol
_atom_site_label
_atom_site_fract_x
_atom_site_fract_y
_atom_site_fract_z
Si Si1 0.759041 0.511660 0.509530
Si Si2 0.109957 0.091825 0.710080
Si Si3 0.504547 0.358801 0.601583
Si Si4 0.773783 0.220544 0.358397
Si Si5 0.505006 0.850537 0.187282
Si Si6 0.447532 0.052891 0.256903
Si Si7 0.213183 0.551854 0.828191
O O1 0.610528 0.415421 0.503442
O O2 0.710703 0.610445 0.553214
O O3 0.723892 0.518262 0.258735
O O4 0.995368 0.505814 0.732672
O O5 0.303093 0.157718 0.760247
O O6 0.958262 0.168130 0.598427
O O7 0.471409 0.027687 0.781477
O O8 0.000000 0.000000 0.500000
O O9 0.497445 0.234661 0.634885
O O10 0.634777 0.410564 0.880557
O O11 0.582470 0.168175 0.321521
O O12 0.812946 0.344660 0.338474
O O13 0.701497 0.181687 0.102184
O O14 0.215878 0.050467 0.991834
O O15 0.500000 0.000000 0.500000
#
# Coordination Sequence:
#
# PCOD9096669 Si02
#       7
#     2   2   2   2   2   2   2
#     4  10  21  38  59  86 113 150 193 241 293 344
#     4  11  18  37  60  77 110 156 194 224 277 346
#     4  10  21  37  61  84 117 150 195 235 296 346
#     4  10  20  37  59  81 111 154 191 226 286 346
#     4  10  20  36  57  84 110 154 188 233 281 348
#     4  11  23  35  55  85 122 145 186 239 285 333
#     4  10  21  37  61  85 116 150 191 244 289 346
#
# _framework density 22.119914999999999
#
# number of rings (size 3 to 8) (size 9 to 14) (size 15 to 20)
#    0.000    1.714    2.857    2.571    2.000    0.571 
#    0.000    0.000    3.143    0.000    0.000    0.000 
#    0.000    0.000    0.000    0.000    0.000    0.000 
#
# Total GULP energy -78043.577301 kJ/mol
# GULP energy per Si atom -5574.541236 kJ/mol
# Density = 2.206957 g / cm^3
# Si number density = 22.119915 Si / 1000 Ang^3
#
#
#
# Elastic Constant Matrix: (Units=GPa)
#
#
# Indices 1 2 3 4 5 6 
#
# 1 95.3134 9.8741 28.9526 0.0428 -1.3183 5.2433
# 2 9.8741 61.3264 2.7035 -14.9697 -0.2014 8.2717
# 3 28.9526 2.7035 98.8486 -13.8366 9.2035 8.6270
# 4 0.0428 -14.9697 -13.8366 29.5639 6.0859 -4.2811
# 5 -1.3183 -0.2014 9.2035 6.0859 31.8657 -4.3063
# 6 5.2433 8.2717 8.6270 -4.2811 -4.3063 19.2668
#
#
#
# Elastic Compliance Matrix: (Units=1/GPa)
#
#
# Indices 1 2 3 4 5 6 
#
# 1 0.012101 -0.002616 -0.004177 -0.003872 0.002344 -0.000636
# 2 -0.002616 0.020404 0.002846 0.011380 -0.004014 -0.007691
# 3 -0.004177 0.002846 0.013516 0.008263 -0.006412 -0.005734
# 4 -0.003872 0.011380 0.008263 0.045786 -0.011200 0.000139
# 5 0.002344 -0.004014 -0.006412 -0.011200 0.036753 0.009682
# 6 -0.000636 -0.007691 -0.005734 0.000139 0.009682 0.060140
#
#
# Mechanical properties :
#
#
# Convention : Reuss Voigt Hill
#
# Bulk Modulus (GPa) = 26.22862 37.61654 31.92258
# Shear Modulus (GPa) = 23.88885 30.40316 27.14600
#
# Velocity S-wave (km/s) = 3.28985 3.71141 3.50697
# Velocity P-wave (km/s) = 5.12972 5.95052 5.55530
#
# Compressibility (1/GPa) = 0.03812629
#
# Stress axis : x y z
#
# Youngs Moduli (GPa) = 82.63915 49.01021 73.98529
#
# Poissons Ratio (x) = 0.12820 0.30907
# Poissons Ratio (y) = 0.21617 -0.21056
# Poissons Ratio (z) = 0.34522 -0.13948
#
# Static dielectric constant tensor:
#      x y z
#    x 1.924270 -0.076720 -0.105260 
#    y -0.076720 1.871840 0.073710 
#    z -0.105260 0.073710 1.967930 
# 
# From -- ./inp_files/201104.got.cif
#   From: 2010.05.17/outbox.cif.g08.bks.cpg/sg2_101_cif.got.tgz:201104.got - 2010.06.03 11:33:40.
