data_PCOD9096234
_publ_section_title
;
Structure prediction by ZEFSAII (Michael W. Deem and Ramdas Pophale) SiO2 
 PCOD9096234
Probable space group: P -1
;
_chemical_formula_sum "Si O2"
_cell_formula_units_Z 16
_cell_length_a 10.205222
_cell_length_b 16.689417
_cell_length_c 7.164299
_cell_angle_alpha 73.592802
_cell_angle_beta 99.979830
_cell_angle_gamma 146.135662
_cell_volume 647.956595
_symmetry_space_group_name_H-M "P -1"
_symmetry_group_IT_number 2
_symmetry_cell_setting 'triclinic'
loop_
_space_group_symop_operation_xyz
x,y,z
-x,-y,-z
loop_
_atom_site_type_symbol
_atom_site_label
_atom_site_fract_x
_atom_site_fract_y
_atom_site_fract_z
Si Si1 0.138573 0.437788 0.092385
Si Si2 0.053939 0.942716 0.866895
Si Si3 0.012111 0.806549 0.614103
Si Si4 0.390154 0.373152 0.833280
Si Si5 0.227437 0.036345 0.241526
Si Si6 0.666341 0.305397 0.425529
Si Si7 0.483616 0.591661 0.574390
Si Si8 0.161942 0.610932 0.198379
O O1 0.380011 0.513910 0.050991
O O2 0.007902 0.302472 0.283848
O O3 0.236827 0.580521 0.085632
O O4 0.945872 0.363373 0.940744
O O5 0.955653 0.981666 0.745216
O O6 0.132684 0.921781 0.735929
O O7 0.827207 0.784589 0.020864
O O8 0.240557 0.047898 0.013029
O O9 0.745999 0.703831 0.626418
O O10 0.116869 0.893547 0.388759
O O11 0.327286 0.431799 0.700594
O O12 0.492652 0.386347 0.657270
O O13 0.473615 0.170918 0.323865
O O14 0.605323 0.371083 0.383238
O O15 0.935543 0.441032 0.334941
O O16 0.670377 0.279762 0.659784
#
# Coordination Sequence:
#
# PCOD9096234 Si02
#       8
#     2   2   2   2   2   2   2   2
#     4  10  22  41  63  92 124 161 206 269 304 363
#     4  11  23  37  64  96 131 167 199 245 318 399
#     4  11  23  41  64  95 131 164 199 259 321 372
#     4  10  20  36  62  98 127 154 197 260 328 363
#     4  11  24  41  58  95 131 167 204 251 310 379
#     4  11  22  40  65  87 121 169 206 259 306 371
#     4  10  20  35  63  96 126 158 193 264 324 372
#     4  10  23  42  63  90 118 163 220 255 307 358
#
# _framework density 24.693013000000001
#
# number of rings (size 3 to 8) (size 9 to 14) (size 15 to 20)
#    0.000    1.500    3.750    1.125    1.750    1.000 
#    6.750    1.250    0.000    0.000    0.000    0.000 
#    0.000    0.000    0.000    0.000    0.000    0.000 
#
# Total GULP energy -89425.598336 kJ/mol
# GULP energy per Si atom -5589.099896 kJ/mol
# Density = 2.463681 g / cm^3
# Si number density = 24.693013 Si / 1000 Ang^3
#
#
#
# Elastic Constant Matrix: (Units=GPa)
#
#
# Indices 1 2 3 4 5 6 
#
# 1 37.6264 -0.8710 11.0984 0.4461 9.5763 0.3315
# 2 -0.8710 97.8331 45.9361 14.5806 12.3405 8.1570
# 3 11.0984 45.9361 140.8820 12.0785 23.2156 4.7604
# 4 0.4461 14.5806 12.0785 56.9289 0.6213 1.7958
# 5 9.5763 12.3405 23.2156 0.6213 41.0724 6.9858
# 6 0.3315 8.1570 4.7604 1.7958 6.9858 8.0881
#
#
#
# Elastic Compliance Matrix: (Units=1/GPa)
#
#
# Indices 1 2 3 4 5 6 
#
# 1 0.028877 0.001668 -0.001790 -0.000332 -0.006941 0.004257
# 2 0.001668 0.013300 -0.003856 -0.002270 -0.000410 -0.010354
# 3 -0.001790 -0.003856 0.009158 -0.000968 -0.003961 0.002209
# 4 -0.000332 -0.002270 -0.000968 0.018417 0.001447 -0.002467
# 5 -0.006941 -0.000410 -0.003961 0.001447 0.032640 -0.025484
# 6 0.004257 -0.010354 0.002209 -0.002467 -0.025484 0.155164
#
#
# Mechanical properties :
#
#
# Convention : Reuss Voigt Hill
#
# Bulk Modulus (GPa) = 23.05332 43.18536 33.11934
# Shear Modulus (GPa) = 17.85893 35.89642 26.87767
#
# Velocity S-wave (km/s) = 2.69223 3.81689 3.30278
# Velocity P-wave (km/s) = 4.36123 6.07879 5.29018
#
# Compressibility (1/GPa) = 0.04337770
#
# Stress axis : x y z
#
# Youngs Moduli (GPa) = 34.62993 75.18654 109.19936
#
# Poissons Ratio (x) = -0.12539 0.19549
# Poissons Ratio (y) = -0.05775 0.42107
# Poissons Ratio (z) = 0.06199 0.28992
#
# Static dielectric constant tensor:
#      x y z
#    x 1.964390 -0.020770 -0.080740 
#    y -0.020770 2.043980 0.077560 
#    z -0.080740 0.077560 2.078310 
# 
# From -- ./inp_files/277633.got.cif
#   From: 2010.05.17/outbox.cif.g08.bks.cpg/sg2_139_cif.got.tgz:277633.got - 2010.06.03 11:33:40.
