data_PCOD9096844
_publ_section_title
;
Structure prediction by ZEFSAII (Michael W. Deem and Ramdas Pophale) SiO2 
 PCOD9096844
Probable space group: P -1
;
_chemical_formula_sum "Si O2"
_cell_formula_units_Z 14
_cell_length_a 10.415612
_cell_length_b 9.180290
_cell_length_c 14.462164
_cell_angle_alpha 97.237860
_cell_angle_beta 30.359443
_cell_angle_gamma 83.117560
_cell_volume 617.136126
_symmetry_space_group_name_H-M "P -1"
_symmetry_group_IT_number 2
_symmetry_cell_setting 'triclinic'
loop_
_space_group_symop_operation_xyz
x,y,z
-x,-y,-z
loop_
_atom_site_type_symbol
_atom_site_label
_atom_site_fract_x
_atom_site_fract_y
_atom_site_fract_z
Si Si1 0.809102 0.990070 0.291537
Si Si2 0.065718 0.473426 0.063541
Si Si3 0.446444 0.436395 0.265110
Si Si4 0.153707 0.162420 0.095688
Si Si5 0.621588 0.107636 0.217948
Si Si6 0.836076 0.612312 0.743385
Si Si7 0.054449 0.294356 0.695864
O O1 0.811044 0.004815 0.179830
O O2 0.883979 0.133537 0.289972
O O3 0.500000 0.000000 0.500000
O O4 0.019255 0.829173 0.207232
O O5 0.369831 0.477333 0.880554
O O6 0.072895 0.309859 0.085369
O O7 0.848286 0.620764 0.275673
O O8 0.000000 0.500000 0.000000
O O9 0.635653 0.276129 0.196476
O O10 0.326236 0.374349 0.249088
O O11 0.168300 0.555063 0.506477
O O12 0.272201 0.224715 0.113340
O O13 0.341891 0.000360 0.904945
O O14 0.298061 0.182374 0.464493
O O15 0.841988 0.456346 0.784342
#
# Coordination Sequence:
#
# PCOD9096844 Si02
#       7
#     2   2   2   2   2   2   2
#     4  10  20  36  58  84 120 156 189 241 300 345
#     4  11  22  37  61  92 118 151 197 246 294 347
#     4  10  21  41  62  81 121 159 192 240 296 351
#     4  11  22  35  57  89 117 148 202 244 282 351
#     4  10  20  36  58  85 116 154 189 239 299 344
#     4   9  22  41  60  85 114 160 203 236 284 346
#     4   9  20  37  58  83 119 156 189 233 297 351
#
# _framework density 22.685431000000001
#
# number of rings (size 3 to 8) (size 9 to 14) (size 15 to 20)
#    0.000    2.000    0.000    3.000    0.000    7.429 
#    0.000   10.000    0.000    8.571    0.000    0.000 
#    0.000    0.000    0.000    0.000    0.000    0.000 
#
# Total GULP energy -78058.607921 kJ/mol
# GULP energy per Si atom -5575.614851 kJ/mol
# Density = 2.263380 g / cm^3
# Si number density = 22.685431 Si / 1000 Ang^3
#
#
#
# Elastic Constant Matrix: (Units=GPa)
#
#
# Indices 1 2 3 4 5 6 
#
# 1 72.2284 12.1711 19.9106 4.1251 20.3713 12.1859
# 2 12.1711 140.2578 28.2094 -23.2651 -3.0928 3.1125
# 3 19.9106 28.2094 89.3514 -5.5082 10.4108 6.3776
# 4 4.1251 -23.2651 -5.5082 44.7200 3.4390 11.9448
# 5 20.3713 -3.0928 10.4108 3.4390 36.5438 0.1565
# 6 12.1859 3.1125 6.3776 11.9448 0.1565 31.5650
#
#
#
# Elastic Compliance Matrix: (Units=1/GPa)
#
#
# Indices 1 2 3 4 5 6 
#
# 1 0.018506 -0.001274 -0.002129 -0.000148 -0.009776 -0.006484
# 2 -0.001274 0.008516 -0.002194 0.004593 0.001631 -0.001651
# 3 -0.002129 -0.002194 0.012923 0.001423 -0.002805 -0.002097
# 4 -0.000148 0.004593 0.001423 0.028160 -0.002535 -0.011327
# 5 -0.009776 0.001631 -0.002805 -0.002535 0.033968 0.004971
# 6 -0.006484 -0.001651 -0.002097 -0.011327 0.004971 0.039032
#
#
# Mechanical properties :
#
#
# Convention : Reuss Voigt Hill
#
# Bulk Modulus (GPa) = 34.78038 46.93555 40.85796
# Shear Modulus (GPa) = 30.88646 38.66884 34.77765
#
# Velocity S-wave (km/s) = 3.69387 4.13312 3.91965
# Velocity P-wave (km/s) = 5.79291 6.59633 6.20763
#
# Compressibility (1/GPa) = 0.02875184
#
# Stress axis : x y z
#
# Youngs Moduli (GPa) = 54.03632 117.42619 77.38126
#
# Poissons Ratio (x) = 0.14960 0.16474
# Poissons Ratio (y) = 0.06884 0.16975
# Poissons Ratio (z) = 0.11504 0.25760
#
# Static dielectric constant tensor:
#      x y z
#    x 1.850610 -0.028330 -0.024650 
#    y -0.028330 1.860450 0.022000 
#    z -0.024650 0.022000 1.971010 
# 
# From -- ./inp_files/438050.got.cif
#   From: 2010.05.17/outbox.cif.g08.bks.cpg/sg2_220_cif.got.tgz:438050.got - 2010.06.03 11:33:40.
