data_PCOD9096378
_publ_section_title
;
Structure prediction by ZEFSAII (Michael W. Deem and Ramdas Pophale) SiO2 
 PCOD9096378
Probable space group: P -1
;
_chemical_formula_sum "Si O2"
_cell_formula_units_Z 16
_cell_length_a 12.282749
_cell_length_b 5.156537
_cell_length_c 17.690327
_cell_angle_alpha 51.535100
_cell_angle_beta 111.701107
_cell_angle_gamma 101.100640
_cell_volume 814.034585
_symmetry_space_group_name_H-M "P -1"
_symmetry_group_IT_number 2
_symmetry_cell_setting 'triclinic'
loop_
_space_group_symop_operation_xyz
x,y,z
-x,-y,-z
loop_
_atom_site_type_symbol
_atom_site_label
_atom_site_fract_x
_atom_site_fract_y
_atom_site_fract_z
Si Si1 0.645056 0.604461 0.592861
Si Si2 0.425838 0.397039 0.137982
Si Si3 0.656099 0.985090 0.267581
Si Si4 0.636999 0.355837 0.473462
Si Si5 0.739122 0.722697 0.010233
Si Si6 0.658385 0.713738 0.158653
Si Si7 0.755326 0.444006 0.810249
Si Si8 0.006150 0.397087 0.933370
O O1 0.673626 0.394202 0.563249
O O2 0.505035 0.601710 0.571169
O O3 0.711024 0.485766 0.706597
O O4 0.669738 0.991695 0.516442
O O5 0.515004 0.074127 0.215538
O O6 0.517003 0.681788 0.125916
O O7 0.333552 0.371959 0.186507
O O8 0.359398 0.452381 0.031695
O O9 0.682223 0.656900 0.381680
O O10 0.691117 0.924580 0.200716
O O11 0.703003 0.325376 0.250193
O O12 0.701822 0.806368 0.070510
O O13 0.865587 0.528275 0.077615
O O14 0.751977 0.062992 0.905604
O O15 0.889045 0.545619 0.836103
O O16 0.000000 0.500000 0.000000
O O17 0.000000 0.000000 0.000000
#
# Coordination Sequence:
#
# PCOD9096378 Si02
#       8
#     2   2   2   2   2   2   2   2
#     4  10  22  31  55  79 108 148 179 221 278 333
#     4  10  21  32  56  77 121 143 182 215 279 318
#     4  10  22  37  51  81 113 145 181 226 268 335
#     4  10  20  36  52  78 111 143 181 223 279 332
#     4  11  22  37  56  79 115 150 185 228 264 326
#     4  10  23  34  55  82 110 152 185 215 277 325
#     4  11  23  36  56  83 117 148 185 227 275 329
#     4  10  22  39  56  77 107 153 190 226 269 315
#
# _framework density 19.655186
#
# number of rings (size 3 to 8) (size 9 to 14) (size 15 to 20)
#    0.750    1.000    1.250    3.375    8.750    1.000 
#    0.000    0.000    0.000    0.000    0.000    5.250 
#    0.000    0.000    0.000    0.000    0.000    0.000 
#
# Total GULP energy -89322.290296 kJ/mol
# GULP energy per Si atom -5582.643143 kJ/mol
# Density = 1.961045 g / cm^3
# Si number density = 19.655186 Si / 1000 Ang^3
#
#
#
# Elastic Constant Matrix: (Units=GPa)
#
#
# Indices 1 2 3 4 5 6 
#
# 1 57.0000 5.6983 27.0602 11.4516 7.8131 -13.1728
# 2 5.6983 71.6628 8.2814 9.4373 3.5447 -15.0074
# 3 27.0602 8.2814 94.1838 17.0346 -8.6833 0.7177
# 4 11.4516 9.4373 17.0346 35.3046 5.4064 -9.1458
# 5 7.8131 3.5447 -8.6833 5.4064 15.7584 0.7179
# 6 -13.1728 -15.0074 0.7177 -9.1458 0.7179 21.0090
#
#
#
# Elastic Compliance Matrix: (Units=1/GPa)
#
#
# Indices 1 2 3 4 5 6 
#
# 1 0.033024 0.005656 -0.014055 0.006517 -0.028949 0.029053
# 2 0.005656 0.018068 -0.004697 0.001887 -0.010915 0.017808
# 3 -0.014055 -0.004697 0.019630 -0.012235 0.023904 -0.018981
# 4 0.006517 0.001887 -0.012235 0.042079 -0.025975 0.025057
# 5 -0.028949 -0.010915 0.023904 -0.025975 0.104246 -0.041635
# 6 0.029053 0.017808 -0.018981 0.025057 -0.041635 0.091515
#
#
# Mechanical properties :
#
#
# Convention : Reuss Voigt Hill
#
# Bulk Modulus (GPa) = 22.45646 33.88072 28.16859
# Shear Modulus (GPa) = 14.30222 26.53485 20.41853
#
# Velocity S-wave (km/s) = 2.70044 3.67824 3.22660
# Velocity P-wave (km/s) = 4.60143 5.94258 5.31448
#
# Compressibility (1/GPa) = 0.04453061
#
# Stress axis : x y z
#
# Youngs Moduli (GPa) = 30.28126 55.34662 50.94284
#
# Poissons Ratio (x) = -0.31305 0.71598
# Poissons Ratio (y) = -0.17127 0.23928
# Poissons Ratio (z) = 0.42559 0.25996
#
# Static dielectric constant tensor:
#      x y z
#    x 1.700730 0.024610 0.004870 
#    y 0.024610 1.746460 -0.039830 
#    z 0.004870 -0.039830 1.692090 
# 
# From -- ./inp_files/563977.got.cif
#   From: 2010.05.17/outbox.cif.g08.bks.cpg/sg2_282_cif.got.tgz:563977.got - 2010.06.03 11:33:40.
