data_PCOD9096099
_publ_section_title
;
Structure prediction by ZEFSAII (Michael W. Deem and Ramdas Pophale) SiO2 
 PCOD9096099
Probable space group: P -1
;
_chemical_formula_sum "Si O2"
_cell_formula_units_Z 16
_cell_length_a 11.809559
_cell_length_b 9.601984
_cell_length_c 9.617714
_cell_angle_alpha 54.956724
_cell_angle_beta 129.925493
_cell_angle_gamma 121.717046
_cell_volume 662.931160
_symmetry_space_group_name_H-M "P -1"
_symmetry_group_IT_number 2
_symmetry_cell_setting 'triclinic'
loop_
_space_group_symop_operation_xyz
x,y,z
-x,-y,-z
loop_
_atom_site_type_symbol
_atom_site_label
_atom_site_fract_x
_atom_site_fract_y
_atom_site_fract_z
Si Si1 0.648996 0.069951 0.446936
Si Si2 0.655014 0.480841 0.555655
Si Si3 0.080566 0.774613 0.640967
Si Si4 0.386140 0.567702 0.774868
Si Si5 0.804315 0.164009 0.807271
Si Si6 0.924039 0.986950 0.236364
Si Si7 0.750486 0.757088 0.687567
Si Si8 0.130863 0.412426 0.874846
O O1 0.771433 0.155812 0.377586
O O2 0.556619 0.219240 0.290562
O O3 0.711112 0.086972 0.642887
O O4 0.617821 0.861703 0.511239
O O5 0.500000 0.500000 0.500000
O O6 0.626792 0.487327 0.364926
O O7 0.727214 0.312063 0.727382
O O8 0.765683 0.646644 0.625673
O O9 0.106565 0.901925 0.719897
O O10 0.073513 0.577965 0.790159
O O11 0.943420 0.805404 0.418412
O O12 0.220614 0.482273 0.764444
O O13 0.500000 0.500000 0.000000
O O14 0.975595 0.258700 0.833838
O O15 0.815144 0.012442 0.011857
O O16 0.093439 0.091585 0.262970
O O17 0.754156 0.639351 0.893473
#
# Coordination Sequence:
#
# PCOD9096099 Si02
#       8
#     2   2   2   2   2   2   2   2
#     4   9  21  38  58  82 118 155 191 241 289 345
#     4  11  23  39  62  87 116 153 197 242 289 349
#     4   9  17  30  49  83 116 152 186 232 288 332
#     4  10  22  42  63  86 117 155 196 241 292 344
#     4  10  21  38  59  87 117 155 197 235 288 346
#     4   9  18  31  54  84 122 154 186 235 289 343
#     4  10  20  37  59  86 116 152 194 238 290 345
#     4  10  20  35  62  88 118 154 195 240 285 344
#
# _framework density 24.135238999999999
#
# number of rings (size 3 to 8) (size 9 to 14) (size 15 to 20)
#    0.000    2.250    0.000    2.250    0.000   13.000 
#    0.000    8.750    0.000    0.000    0.000    0.000 
#    0.000    0.000    0.000    0.000    0.000    0.000 
#
# Total GULP energy -89314.937975 kJ/mol
# GULP energy per Si atom -5582.183623 kJ/mol
# Density = 2.408031 g / cm^3
# Si number density = 24.135239 Si / 1000 Ang^3
#
#
#
# Elastic Constant Matrix: (Units=GPa)
#
#
# Indices 1 2 3 4 5 6 
#
# 1 111.2765 20.6431 26.2121 -8.3964 -11.8950 -15.0964
# 2 20.6431 83.4842 25.9365 -18.5894 7.0419 -25.4168
# 3 26.2121 25.9365 134.0751 -23.5054 1.0644 -12.2258
# 4 -8.3964 -18.5894 -23.5054 20.8820 0.6044 3.6602
# 5 -11.8950 7.0419 1.0644 0.6044 32.3002 -0.7912
# 6 -15.0964 -25.4168 -12.2258 3.6602 -0.7912 39.8898
#
#
#
# Elastic Compliance Matrix: (Units=1/GPa)
#
#
# Indices 1 2 3 4 5 6 
#
# 1 0.010471 -0.001601 -0.001435 0.000601 0.004303 0.002533
# 2 -0.001601 0.019158 0.000203 0.014991 -0.004804 0.010192
# 3 -0.001435 0.000203 0.009643 0.010210 -0.001043 0.001584
# 4 0.000601 0.014991 0.010210 0.072012 -0.004579 0.006210
# 5 0.004303 -0.004804 -0.001043 -0.004579 0.033695 -0.000663
# 6 0.002533 0.010192 0.001584 0.006210 -0.000663 0.032424
#
#
# Mechanical properties :
#
#
# Convention : Reuss Voigt Hill
#
# Bulk Modulus (GPa) = 29.75904 52.71324 41.23614
# Shear Modulus (GPa) = 25.73732 35.68400 30.71066
#
# Velocity S-wave (km/s) = 3.26909 3.84930 3.57100
# Velocity P-wave (km/s) = 5.15811 6.45324 5.84168
#
# Compressibility (1/GPa) = 0.03360323
#
# Stress axis : x y z
#
# Youngs Moduli (GPa) = 95.50486 52.19876 103.70734
#
# Poissons Ratio (x) = 0.08359 0.14884
# Poissons Ratio (y) = 0.15294 -0.02103
# Poissons Ratio (z) = 0.13707 -0.01059
#
# Static dielectric constant tensor:
#      x y z
#    x 2.064150 0.036060 0.068260 
#    y 0.036060 2.012200 -0.033470 
#    z 0.068260 -0.033470 1.903200 
# 
# From -- ./inp_files/242708.got.cif
#   From: 2010.05.17/outbox.cif.g08.bks.cpg/sg2_122_cif.got.tgz:242708.got - 2010.06.03 11:33:40.
