data_PCOD9096908
_publ_section_title
;
Structure prediction by ZEFSAII (Michael W. Deem and Ramdas Pophale) SiO2 
 PCOD9096908
Probable space group: P -1
;
_chemical_formula_sum "Si O2"
_cell_formula_units_Z 14
_cell_length_a 22.289944
_cell_length_b 5.305842
_cell_length_c 5.182685
_cell_angle_alpha 96.700902
_cell_angle_beta 118.902402
_cell_angle_gamma 78.843653
_cell_volume 526.263269
_symmetry_space_group_name_H-M "P -1"
_symmetry_group_IT_number 2
_symmetry_cell_setting 'triclinic'
loop_
_space_group_symop_operation_xyz
x,y,z
-x,-y,-z
loop_
_atom_site_type_symbol
_atom_site_label
_atom_site_fract_x
_atom_site_fract_y
_atom_site_fract_z
Si Si1 0.207809 0.847279 0.457880
Si Si2 0.660042 0.280018 0.987842
Si Si3 0.512499 0.155014 0.794150
Si Si4 0.926259 0.972454 0.946946
Si Si5 0.080177 0.494528 0.765269
Si Si6 0.636443 0.561608 0.469195
Si Si7 0.225966 0.292193 0.150366
O O1 0.265302 0.867184 0.793141
O O2 0.216092 0.557561 0.332150
O O3 0.215870 0.047326 0.269553
O O4 0.128858 0.936800 0.380837
O O5 0.653463 0.531135 0.196532
O O6 0.592012 0.184529 0.942115
O O7 0.653877 0.325618 0.676932
O O8 0.447040 0.382286 0.678717
O O9 0.500000 0.000000 0.500000
O O10 0.500000 0.000000 0.000000
O O11 0.922813 0.688944 0.010497
O O12 0.913304 0.206573 0.152168
O O13 0.000000 0.000000 0.000000
O O14 0.000000 0.500000 0.500000
O O15 0.159971 0.366783 0.824904
O O16 0.690150 0.735607 0.725676
#
# Coordination Sequence:
#
# PCOD9096908 Si02
#       7
#     2   2   2   2   2   2   2
#     4   9  20  39  61  88 126 170 216 267 325 388
#     4  11  23  42  65  93 129 174 219 270 327 391
#     4  12  24  40  64  96 132 174 219 272 327 390
#     4  10  20  36  58  87 124 164 211 265 322 385
#     4  10  20  36  58  87 124 164 211 265 322 385
#     4  11  23  42  65  93 129 174 219 270 327 391
#     4   9  20  39  61  88 126 170 216 267 325 388
#
# _framework density 26.602654999999999
#
# number of rings (size 3 to 8) (size 9 to 14) (size 15 to 20)
#    0.000    1.714    0.000    4.286    0.000    3.429 
#    0.000    7.143    0.000    0.000    0.000    0.000 
#    0.000    0.000    0.000    0.000    0.000    0.000 
#
# Total GULP energy -78050.383769 kJ/mol
# GULP energy per Si atom -5575.027412 kJ/mol
# Density = 2.654211 g / cm^3
# Si number density = 26.602655 Si / 1000 Ang^3
#
#
#
# Elastic Constant Matrix: (Units=GPa)
#
#
# Indices 1 2 3 4 5 6 
#
# 1 110.9028 16.6397 48.0701 -17.3639 43.8846 12.0482
# 2 16.6397 111.5898 37.5450 -6.9042 -3.1539 16.7413
# 3 48.0701 37.5450 167.5797 -12.3339 47.2621 -8.3567
# 4 -17.3639 -6.9042 -12.3339 51.2910 -1.5105 13.3471
# 5 43.8846 -3.1539 47.2621 -1.5105 78.2031 0.2733
# 6 12.0482 16.7413 -8.3567 13.3471 0.2733 33.2893
#
#
#
# Elastic Compliance Matrix: (Units=1/GPa)
#
#
# Indices 1 2 3 4 5 6 
#
# 1 0.014507 0.000050 -0.002252 0.006349 -0.006626 -0.008332
# 2 0.000050 0.011584 -0.003545 0.002859 0.002664 -0.007902
# 3 -0.002252 -0.003545 0.008813 -0.000565 -0.004234 0.005071
# 4 0.006349 0.002859 -0.000565 0.025482 -0.002565 -0.014073
# 5 -0.006626 0.002664 -0.004234 -0.002565 0.019119 0.000867
# 6 -0.008332 -0.007902 0.005071 -0.014073 0.000867 0.043937
#
#
# Mechanical properties :
#
#
# Convention : Reuss Voigt Hill
#
# Bulk Modulus (GPa) = 42.71579 66.06464 54.39021
# Shear Modulus (GPa) = 35.02909 51.74450 43.38679
#
# Velocity S-wave (km/s) = 3.63264 4.41510 4.04285
# Velocity P-wave (km/s) = 5.80402 7.13292 6.50251
#
# Compressibility (1/GPa) = 0.02341055
#
# Stress axis : x y z
#
# Youngs Moduli (GPa) = 68.93400 86.32463 113.47040
#
# Poissons Ratio (x) = -0.00433 0.25553
# Poissons Ratio (y) = -0.00346 0.40222
# Poissons Ratio (z) = 0.15524 0.30600
#
# Static dielectric constant tensor:
#      x y z
#    x 2.282110 -0.141550 0.056100 
#    y -0.141550 2.217450 0.193660 
#    z 0.056100 0.193660 2.434890 
# 
# From -- ./inp_files/14365.got.cif
#   From: 2010.05.17/outbox.cif.g08.bks.cpg/sg2_8_cif.got.tgz:14365.got - 2010.06.03 11:33:40.
