data_PCOD9096098
_publ_section_title
;
Structure prediction by ZEFSAII (Michael W. Deem and Ramdas Pophale) SiO2 
 PCOD9096098
Probable space group: P -1
;
_chemical_formula_sum "Si O2"
_cell_formula_units_Z 16
_cell_length_a 17.438254
_cell_length_b 10.463812
_cell_length_c 24.324351
_cell_angle_alpha 156.425548
_cell_angle_beta 154.880172
_cell_angle_gamma 35.433163
_cell_volume 750.592053
_symmetry_space_group_name_H-M "P -1"
_symmetry_group_IT_number 2
_symmetry_cell_setting 'triclinic'
loop_
_space_group_symop_operation_xyz
x,y,z
-x,-y,-z
loop_
_atom_site_type_symbol
_atom_site_label
_atom_site_fract_x
_atom_site_fract_y
_atom_site_fract_z
Si Si1 0.390051 0.164008 0.287590
Si Si2 0.478935 0.246528 0.705422
Si Si3 0.329806 0.710477 0.306482
Si Si4 0.163238 0.651056 0.628375
Si Si5 0.872019 0.601506 0.109178
Si Si6 0.271623 0.360957 0.475304
Si Si7 0.084507 0.335970 0.240309
Si Si8 0.869811 0.767953 0.941568
O O1 0.500000 0.500000 0.500000
O O2 0.208490 0.166032 0.209229
O O3 0.324417 0.164619 0.183453
O O4 0.509218 0.894677 0.281184
O O5 0.344091 0.518576 0.718093
O O6 0.404872 0.940039 0.497948
O O7 0.685002 0.398129 0.890441
O O8 0.512095 0.578370 0.349630
O O9 0.186398 0.412417 0.109728
O O10 0.249651 0.972880 0.318580
O O11 0.157500 0.515119 0.508986
O O12 0.000000 0.500000 0.500000
O O13 0.159329 0.029791 0.772472
O O14 0.946584 0.522748 0.187973
O O15 0.032169 0.502447 0.134711
O O16 0.227808 0.497537 0.440840
O O17 0.980578 0.093793 0.121065
#
# Coordination Sequence:
#
# PCOD9096098 Si02
#       8
#     2   2   2   2   2   2   2   2
#     4  11  18  31  60  94 118 150 184 241 299 335
#     4  11  19  38  60  88 116 148 196 239 290 337
#     4  10  20  35  62  88 117 154 191 245 293 340
#     4  11  26  42  61  82 111 162 204 238 285 353
#     4  11  21  37  60  87 123 156 188 239 290 346
#     4  10  21  40  56  83 120 153 199 237 292 347
#     4  11  21  35  59  92 124 148 189 247 294 346
#     4  11  19  34  60  96 121 143 193 242 295 342
#
# _framework density 21.316507000000001
#
# number of rings (size 3 to 8) (size 9 to 14) (size 15 to 20)
#    0.000    1.250    5.000    2.625    1.750    1.000 
#    0.000    5.000    0.000    1.500    0.000    0.000 
#    0.000    0.000    0.000    0.000    0.000    0.000 
#
# Total GULP energy -89154.099728 kJ/mol
# GULP energy per Si atom -5572.131233 kJ/mol
# Density = 2.126799 g / cm^3
# Si number density = 21.316507 Si / 1000 Ang^3
#
#
#
# Elastic Constant Matrix: (Units=GPa)
#
#
# Indices 1 2 3 4 5 6 
#
# 1 56.9514 26.5027 4.7207 -0.6144 12.2950 -0.2541
# 2 26.5027 149.3636 30.0137 -2.7370 -5.5756 17.3539
# 3 4.7207 30.0137 54.6547 6.3986 21.4833 9.0280
# 4 -0.6144 -2.7370 6.3986 36.2227 9.0236 -6.9726
# 5 12.2950 -5.5756 21.4833 9.0236 37.3499 0.4243
# 6 -0.2541 17.3539 9.0280 -6.9726 0.4243 29.0782
#
#
#
# Elastic Compliance Matrix: (Units=1/GPa)
#
#
# Indices 1 2 3 4 5 6 
#
# 1 0.022378 -0.005710 0.005074 0.002526 -0.011779 0.002805
# 2 -0.005710 0.009905 -0.007241 -0.000774 0.007756 -0.004011
# 3 0.005074 -0.007241 0.030784 -0.001971 -0.019920 -0.005373
# 4 0.002526 -0.000774 -0.001971 0.031500 -0.007523 0.008759
# 5 -0.011779 0.007756 -0.019920 -0.007523 0.045096 -0.001009
# 6 0.002805 -0.004011 -0.005373 0.008759 -0.001009 0.040592
#
#
# Mechanical properties :
#
#
# Convention : Reuss Voigt Hill
#
# Bulk Modulus (GPa) = 21.13658 42.60488 31.87073
# Shear Modulus (GPa) = 23.60948 33.84567 28.72757
#
# Velocity S-wave (km/s) = 3.33162 3.98900 3.67504
# Velocity P-wave (km/s) = 4.97361 6.42234 5.74383
#
# Compressibility (1/GPa) = 0.04731135
#
# Stress axis : x y z
#
# Youngs Moduli (GPa) = 44.68668 100.96236 32.48486
#
# Poissons Ratio (x) = 0.57645 -0.16481
# Poissons Ratio (y) = 0.25514 0.23524
# Poissons Ratio (z) = -0.22672 0.73111
#
# Static dielectric constant tensor:
#      x y z
#    x 1.803670 0.041640 -0.007340 
#    y 0.041640 1.762730 -0.051510 
#    z -0.007340 -0.051510 1.899540 
# 
# From -- ./inp_files/259147.got.cif
#   From: 2010.05.17/outbox.cif.g08.bks.cpg/sg2_130_cif.got.tgz:259147.got - 2010.06.03 11:33:40.
