data_PCOD9096348
_publ_section_title
;
Structure prediction by ZEFSAII (Michael W. Deem and Ramdas Pophale) SiO2 
 PCOD9096348
Probable space group: P -1
;
_chemical_formula_sum "Si O2"
_cell_formula_units_Z 14
_cell_length_a 9.038169
_cell_length_b 11.133502
_cell_length_c 9.659151
_cell_angle_alpha 56.727788
_cell_angle_beta 134.032286
_cell_angle_gamma 105.362072
_cell_volume 573.182569
_symmetry_space_group_name_H-M "P -1"
_symmetry_group_IT_number 2
_symmetry_cell_setting 'triclinic'
loop_
_space_group_symop_operation_xyz
x,y,z
-x,-y,-z
loop_
_atom_site_type_symbol
_atom_site_label
_atom_site_fract_x
_atom_site_fract_y
_atom_site_fract_z
Si Si1 0.940106 0.074748 0.562707
Si Si2 0.104848 0.768058 0.979870
Si Si3 0.156323 0.400720 0.915810
Si Si4 0.582404 0.405458 0.890479
Si Si5 0.507589 0.842434 0.667773
Si Si6 0.186294 0.336282 0.566891
Si Si7 0.508682 0.676258 0.483542
O O1 0.073108 0.199963 0.602650
O O2 0.697100 0.148780 0.377245
O O3 0.000000 0.000000 0.500000
O O4 0.988400 0.935151 0.786593
O O5 0.229362 0.724596 0.945968
O O6 0.284357 0.744299 0.228350
O O7 0.963027 0.647940 0.995400
O O8 0.977018 0.508915 0.647307
O O9 0.328194 0.500569 0.995865
O O10 0.285684 0.239169 0.065434
O O11 0.361226 0.355767 0.781770
O O12 0.548096 0.508288 0.665191
O O13 0.506642 0.751787 0.583256
O O14 0.500000 0.000000 0.500000
O O15 0.311454 0.303895 0.521572
#
# Coordination Sequence:
#
# PCOD9096348 Si02
#       7
#     2   2   2   2   2   2   2
#     4  12  27  43  65  97 138 175 213 277 344 382
#     4  11  20  40  69 101 127 177 220 267 328 384
#     4  11  21  39  74  94 128 177 223 270 319 384
#     4  10  20  35  68 105 122 166 231 263 311 395
#     4  11  24  42  65 101 129 172 228 269 320 403
#     4  11  22  42  66 100 137 169 214 277 326 388
#     4  10  21  39  70 101 127 169 233 266 310 402
#
# _framework density 24.425028000000001
#
# number of rings (size 3 to 8) (size 9 to 14) (size 15 to 20)
#    0.000    1.143    4.286    3.000    4.000    3.429 
#    0.000    4.286    0.000    0.000    0.000    0.000 
#    0.000    0.000    0.000    0.000    0.000    0.000 
#
# Total GULP energy -78238.469293 kJ/mol
# GULP energy per Si atom -5588.462092 kJ/mol
# Density = 2.436944 g / cm^3
# Si number density = 24.425028 Si / 1000 Ang^3
#
#
#
# Elastic Constant Matrix: (Units=GPa)
#
#
# Indices 1 2 3 4 5 6 
#
# 1 112.3384 27.5085 55.0272 1.8088 10.9475 19.5821
# 2 27.5085 103.9772 43.1414 -20.6056 15.4555 32.4598
# 3 55.0272 43.1414 110.6025 -18.2219 29.3596 0.1566
# 4 1.8088 -20.6056 -18.2219 39.4144 0.3258 8.5630
# 5 10.9475 15.4555 29.3596 0.3258 48.5018 -0.6174
# 6 19.5821 32.4598 0.1566 8.5630 -0.6174 31.3692
#
#
#
# Elastic Compliance Matrix: (Units=1/GPa)
#
#
# Indices 1 2 3 4 5 6 
#
# 1 0.014487 0.003734 -0.008842 -0.000016 0.000729 -0.012845
# 2 0.003734 0.027763 -0.008182 0.018461 -0.005321 -0.036163
# 3 -0.008842 -0.008182 0.018669 0.001938 -0.006543 0.013235
# 4 -0.000016 0.018461 0.001938 0.042699 -0.007733 -0.030911
# 5 0.000729 -0.005321 -0.006543 -0.007733 0.026259 0.007712
# 6 -0.012845 -0.036163 0.013235 -0.030911 0.007712 0.085840
#
#
# Mechanical properties :
#
#
# Convention : Reuss Voigt Hill
#
# Bulk Modulus (GPa) = 29.12068 64.25248 46.68658
# Shear Modulus (GPa) = 19.70497 37.27314 28.48905
#
# Velocity S-wave (km/s) = 2.84342 3.91067 3.41895
# Velocity P-wave (km/s) = 4.76743 6.83771 5.89418
#
# Compressibility (1/GPa) = 0.03433986
#
# Stress axis : x y z
#
# Youngs Moduli (GPa) = 69.02978 36.01895 53.56423
#
# Poissons Ratio (x) = -0.13451 0.47361
# Poissons Ratio (y) = -0.25779 0.43826
# Poissons Ratio (z) = 0.61036 0.29471
#
# Static dielectric constant tensor:
#      x y z
#    x 2.007920 -0.080100 0.038660 
#    y -0.080100 2.236090 -0.122580 
#    z 0.038660 -0.122580 2.035820 
# 
# From -- ./inp_files/295583.got.cif
#   From: 2010.05.17/outbox.cif.g08.bks.cpg/sg2_148_cif.got.tgz:295583.got - 2010.06.03 11:33:40.
