data_PCOD9096387
_publ_section_title
;
Structure prediction by ZEFSAII (Michael W. Deem and Ramdas Pophale) SiO2 
 PCOD9096387
Probable space group: P -1
;
_chemical_formula_sum "Si O2"
_cell_formula_units_Z 16
_cell_length_a 9.284707
_cell_length_b 11.807458
_cell_length_c 19.904517
_cell_angle_alpha 32.575904
_cell_angle_beta 43.591497
_cell_angle_gamma 65.887550
_cell_volume 679.959080
_symmetry_space_group_name_H-M "P -1"
_symmetry_group_IT_number 2
_symmetry_cell_setting 'triclinic'
loop_
_space_group_symop_operation_xyz
x,y,z
-x,-y,-z
loop_
_atom_site_type_symbol
_atom_site_label
_atom_site_fract_x
_atom_site_fract_y
_atom_site_fract_z
Si Si1 0.081177 0.773930 0.558109
Si Si2 0.179945 0.527356 0.325742
Si Si3 0.508194 0.584791 0.378121
Si Si4 0.102792 0.459213 0.817438
Si Si5 0.543196 0.528797 0.891675
Si Si6 0.289537 0.398850 0.918558
Si Si7 0.458791 0.920595 0.843419
Si Si8 0.010233 0.817495 0.314523
O O1 0.138001 0.699260 0.647304
O O2 0.328032 0.984554 0.332550
O O3 0.976012 0.542000 0.655817
O O4 0.820738 0.756134 0.664874
O O5 0.190877 0.756840 0.243923
O O6 0.017527 0.283594 0.550062
O O7 0.444841 0.559275 0.212945
O O8 0.500000 0.500000 0.500000
O O9 0.738850 0.619173 0.241197
O O10 0.520258 0.842975 0.247015
O O11 0.259023 0.367507 0.535119
O O12 0.201144 0.504108 0.837335
O O13 0.812058 0.245533 0.016098
O O14 0.345178 0.522764 0.911733
O O15 0.519186 0.261789 0.021641
O O16 0.500000 0.500000 0.000000
O O17 0.095179 0.102027 0.137930
#
# Coordination Sequence:
#
# PCOD9096387 Si02
#       8
#     2   2   2   2   2   2   2   2
#     4  10  21  41  64  88 123 165 206 250 306 371
#     4  10  20  36  53  83 123 162 205 248 287 365
#     4  12  21  36  58  94 138 171 199 232 296 380
#     4  11  23  37  58  95 131 165 202 245 295 377
#     4  10  25  46  67  90 117 156 215 271 316 361
#     4  11  23  36  61  88 121 161 201 258 315 352
#     4  11  22  40  65  90 127 172 207 245 303 364
#     4  11  21  33  55  88 125 163 204 243 293 364
#
# _framework density 23.530828
#
# number of rings (size 3 to 8) (size 9 to 14) (size 15 to 20)
#    0.000    1.250    3.750    2.250    1.750    3.500 
#    0.000    2.500    0.000    1.500    0.000    0.000 
#    0.000    0.000    0.000    0.000    0.000    0.000 
#
# Total GULP energy -89500.619228 kJ/mol
# GULP energy per Si atom -5593.788702 kJ/mol
# Density = 2.347727 g / cm^3
# Si number density = 23.530828 Si / 1000 Ang^3
#
#
#
# Elastic Constant Matrix: (Units=GPa)
#
#
# Indices 1 2 3 4 5 6 
#
# 1 161.2742 9.2945 37.8990 6.1350 5.6883 37.0408
# 2 9.2945 38.6745 8.7595 20.4996 -9.2102 8.7304
# 3 37.8990 8.7595 130.0554 8.1035 -16.6588 10.5290
# 4 6.1350 20.4996 8.1035 30.3308 -5.2340 3.0939
# 5 5.6883 -9.2102 -16.6588 -5.2340 39.5756 10.8948
# 6 37.0408 8.7304 10.5290 3.0939 10.8948 39.0025
#
#
#
# Elastic Compliance Matrix: (Units=1/GPa)
#
#
# Indices 1 2 3 4 5 6 
#
# 1 0.008348 0.000559 -0.001791 -0.000792 0.000150 -0.007549
# 2 0.000559 0.045527 0.000782 -0.028131 0.010312 -0.011582
# 3 -0.001791 0.000782 0.009012 -0.001571 0.004594 -0.002066
# 4 -0.000792 -0.028131 -0.001571 0.051972 -0.001238 0.003696
# 5 0.000150 0.010312 0.004594 -0.001238 0.032938 -0.012793
# 6 -0.007549 -0.011582 -0.002066 0.003696 -0.012793 0.039239
#
#
# Mechanical properties :
#
#
# Convention : Reuss Voigt Hill
#
# Bulk Modulus (GPa) = 16.13246 49.10112 32.61679
# Shear Modulus (GPa) = 23.96974 40.05185 32.01079
#
# Velocity S-wave (km/s) = 3.19510 4.13013 3.69233
# Velocity P-wave (km/s) = 4.52574 6.60727 5.66296
#
# Compressibility (1/GPa) = 0.06198681
#
# Stress axis : x y z
#
# Youngs Moduli (GPa) = 119.79229 21.96522 110.96733
#
# Poissons Ratio (x) = -0.01228 0.19870
# Poissons Ratio (y) = -0.06695 -0.08679
# Poissons Ratio (z) = 0.21450 -0.01718
#
# Static dielectric constant tensor:
#      x y z
#    x 1.887850 0.022080 -0.009330 
#    y 0.022080 2.025970 0.007150 
#    z -0.009330 0.007150 1.875570 
# 
# From -- ./inp_files/261088.got.cif
#   From: 2010.05.17/outbox.cif.g08.bks.cpg/sg2_131_cif.got.tgz:261088.got - 2010.06.03 11:33:40.
