data_PCOD9096611
_publ_section_title
;
Structure prediction by ZEFSAII (Michael W. Deem and Ramdas Pophale) SiO2 
 PCOD9096611
Probable space group: P -1
;
_chemical_formula_sum "Si O2"
_cell_formula_units_Z 15
_cell_length_a 5.082878
_cell_length_b 10.774551
_cell_length_c 14.009203
_cell_angle_alpha 57.560376
_cell_angle_beta 77.219242
_cell_angle_gamma 88.292957
_cell_volume 627.769192
_symmetry_space_group_name_H-M "P -1"
_symmetry_group_IT_number 2
_symmetry_cell_setting 'triclinic'
loop_
_space_group_symop_operation_xyz
x,y,z
-x,-y,-z
loop_
_atom_site_type_symbol
_atom_site_label
_atom_site_fract_x
_atom_site_fract_y
_atom_site_fract_z
Si Si1 0.600630 0.705768 0.452729
Si Si2 0.805380 0.282088 0.159384
Si Si3 0.423081 0.008390 0.302479
Si Si4 0.702386 0.615607 0.040726
Si Si5 0.137296 0.686500 0.637279
Si Si6 0.000000 0.000000 0.500000
Si Si7 0.868717 0.376637 0.829986
Si Si8 0.820029 0.259926 0.674817
O O1 0.603371 0.886192 0.384705
O O2 0.407789 0.646154 0.578914
O O3 0.428577 0.668737 0.384499
O O4 0.903348 0.672121 0.426096
O O5 0.700450 0.441927 0.085736
O O6 0.795773 0.260742 0.282583
O O7 0.620542 0.143153 0.190394
O O8 0.111771 0.295983 0.090063
O O9 0.247623 0.912351 0.277249
O O10 0.235032 0.061969 0.378267
O O11 0.402977 0.649276 0.075506
O O12 0.878605 0.639410 0.114328
O O13 0.916915 0.546288 0.720010
O O14 0.044630 0.829538 0.534602
O O15 0.847992 0.280319 0.776322
#
# Coordination Sequence:
#
# PCOD9096611 Si02
#       8
#     2   2   2   2   2   1   2   2
#     4   9  22  38  58  94 126 161 211 239 321 367
#     4  10  22  41  65  94 131 159 218 260 331 366
#     4   9  22  35  61  92 126 170 196 261 309 376
#     4  10  24  43  66  97 119 169 213 278 305 375
#     4  10  23  36  67  97 127 172 198 266 319 383
#     4  10  20  36  56  98 130 158 208 244 312 390
#     4  11  23  44  66  89 130 167 220 256 320 358
#     4  10  22  41  60  90 131 168 206 260 296 387
#
# _framework density 23.894134999999999
#
# number of rings (size 3 to 8) (size 9 to 14) (size 15 to 20)
#    0.800    1.333    0.000    1.600    3.733   10.133 
#    0.000    1.333    0.000    0.000    0.000    0.000 
#    0.000    0.000    0.000    0.000    0.000    0.000 
#
# Total GULP energy -83703.707727 kJ/mol
# GULP energy per Si atom -5580.247182 kJ/mol
# Density = 2.383975 g / cm^3
# Si number density = 23.894135 Si / 1000 Ang^3
#
#
#
# Elastic Constant Matrix: (Units=GPa)
#
#
# Indices 1 2 3 4 5 6 
#
# 1 81.5455 35.1340 24.9201 -3.8140 -11.6419 11.1271
# 2 35.1340 101.8585 50.6799 3.3615 -18.6010 21.1840
# 3 24.9201 50.6799 128.0919 4.3219 -25.8142 18.6666
# 4 -3.8140 3.3615 4.3219 34.9354 9.1006 -2.5987
# 5 -11.6419 -18.6010 -25.8142 9.1006 38.7112 2.6179
# 6 11.1271 21.1840 18.6666 -2.5987 2.6179 28.6323
#
#
#
# Elastic Compliance Matrix: (Units=1/GPa)
#
#
# Indices 1 2 3 4 5 6 
#
# 1 0.014853 -0.003991 -0.000590 0.001372 0.002002 -0.002493
# 2 -0.003991 0.015701 -0.002752 -0.003861 0.006038 -0.009174
# 3 -0.000590 -0.002752 0.011560 -0.003649 0.007492 -0.006287
# 4 0.001372 -0.003861 -0.003649 0.033472 -0.012345 0.008869
# 5 0.002002 0.006038 0.007492 -0.012345 0.038230 -0.014745
# 6 -0.002493 -0.009174 -0.006287 0.008869 -0.014745 0.048934
#
#
# Mechanical properties :
#
#
# Convention : Reuss Voigt Hill
#
# Bulk Modulus (GPa) = 36.43218 59.21823 47.82520
# Shear Modulus (GPa) = 26.80019 33.83992 30.32005
#
# Velocity S-wave (km/s) = 3.35270 3.76738 3.56607
# Velocity P-wave (km/s) = 5.50162 6.61526 6.08397
#
# Compressibility (1/GPa) = 0.02744826
#
# Stress axis : x y z
#
# Youngs Moduli (GPa) = 67.32627 63.68910 86.50846
#
# Poissons Ratio (x) = 0.25417 0.05105
# Poissons Ratio (y) = 0.26868 0.23806
# Poissons Ratio (z) = 0.03973 0.17527
#
# Static dielectric constant tensor:
#      x y z
#    x 1.962450 0.050280 0.049080 
#    y 0.050280 1.894720 -0.005990 
#    z 0.049080 -0.005990 1.889850 
# 
# From -- ./inp_files/481551.got.cif
#   From: 2010.05.17/outbox.cif.g08.bks.cpg/sg2_241_cif.got.tgz:481551.got - 2010.06.03 11:33:40.
