data_PCOD9096746
_publ_section_title
;
Structure prediction by ZEFSAII (Michael W. Deem and Ramdas Pophale) SiO2 
 PCOD9096746
Probable space group: P -1
;
_chemical_formula_sum "Si O2"
_cell_formula_units_Z 16
_cell_length_a 13.254227
_cell_length_b 18.463243
_cell_length_c 11.019898
_cell_angle_alpha 147.081507
_cell_angle_beta 26.183852
_cell_angle_gamma 138.688170
_cell_volume 646.644603
_symmetry_space_group_name_H-M "P -1"
_symmetry_group_IT_number 2
_symmetry_cell_setting 'triclinic'
loop_
_space_group_symop_operation_xyz
x,y,z
-x,-y,-z
loop_
_atom_site_type_symbol
_atom_site_label
_atom_site_fract_x
_atom_site_fract_y
_atom_site_fract_z
Si Si1 0.483697 0.772065 0.413080
Si Si2 0.698830 0.707780 0.336508
Si Si3 0.941839 0.311975 0.902819
Si Si4 0.798627 0.436262 0.710741
Si Si5 0.116527 0.236059 0.217219
Si Si6 0.331110 0.026991 0.833159
Si Si7 0.576703 0.225705 0.032500
Si Si8 0.312359 0.424900 0.473976
O O1 0.569084 0.778418 0.466412
O O2 0.379510 0.632626 0.284761
O O3 0.303433 0.887326 0.733718
O O4 0.716808 0.791921 0.113917
O O5 0.574793 0.763232 0.668055
O O6 0.960734 0.729085 0.129739
O O7 0.706915 0.553455 0.063220
O O8 0.137454 0.382121 0.709943
O O9 0.828755 0.204831 0.784990
O O10 0.746213 0.425098 0.287746
O O11 0.000000 0.500000 0.500000
O O12 0.896761 0.314915 0.517039
O O13 0.249426 0.339629 0.304984
O O14 0.113820 0.103590 0.116786
O O15 0.500000 0.000000 0.500000
O O16 0.466681 0.121093 0.913145
O O17 0.551401 0.368487 0.189324
#
# Coordination Sequence:
#
# PCOD9096746 Si02
#       8
#     2   2   2   2   2   2   2   2
#     4  11  25  42  66  91 133 177 213 267 314 377
#     4  11  24  38  63  97 129 164 214 262 330 387
#     4  10  20  36  57  91 131 163 206 260 323 381
#     4  12  25  40  65 100 131 170 216 261 331 386
#     4  10  21  40  66  93 128 166 215 262 312 380
#     4   9  22  47  66  93 126 171 226 255 315 385
#     4  10  22  38  65  90 126 172 209 268 320 373
#     4   9  19  34  54  92 125 162 207 255 319 382
#
# _framework density 24.743110000000001
#
# number of rings (size 3 to 8) (size 9 to 14) (size 15 to 20)
#    0.000    1.750    2.500    0.750    3.500    4.000 
#    0.000    6.875    0.000    0.000    0.000    0.000 
#    0.000    0.000    0.000    0.000    0.000    0.000 
#
# Total GULP energy -89348.946853 kJ/mol
# GULP energy per Si atom -5584.309178 kJ/mol
# Density = 2.468679 g / cm^3
# Si number density = 24.743110 Si / 1000 Ang^3
#
#
#
# Elastic Constant Matrix: (Units=GPa)
#
#
# Indices 1 2 3 4 5 6 
#
# 1 202.5145 38.6189 48.3601 11.1366 -1.7189 14.5148
# 2 38.6189 58.8321 20.6711 11.6913 -0.1266 15.5255
# 3 48.3601 20.6711 79.5294 11.0786 15.4935 -15.9931
# 4 11.1366 11.6913 11.0786 23.5882 -1.7634 -4.6587
# 5 -1.7189 -0.1266 15.4935 -1.7634 53.4179 6.6982
# 6 14.5148 15.5255 -15.9931 -4.6587 6.6982 37.7465
#
#
#
# Elastic Compliance Matrix: (Units=1/GPa)
#
#
# Indices 1 2 3 4 5 6 
#
# 1 0.006801 -0.001206 -0.005088 -0.001003 0.002261 -0.004800
# 2 -0.001206 0.027957 -0.009182 -0.012039 0.004450 -0.017201
# 3 -0.005088 -0.009182 0.023485 -0.001378 -0.009193 0.017145
# 4 -0.001003 -0.012039 -0.001378 0.051707 0.000664 0.011017
# 5 0.002261 0.004450 -0.009193 0.000664 0.022816 -0.010561
# 6 -0.004800 -0.017201 0.017145 0.011017 -0.010561 0.045912
#
#
# Mechanical properties :
#
#
# Convention : Reuss Voigt Hill
#
# Bulk Modulus (GPa) = 36.64266 61.79735 49.22001
# Shear Modulus (GPa) = 22.85946 38.49892 30.67919
#
# Velocity S-wave (km/s) = 3.04282 3.94883 3.52505
# Velocity P-wave (km/s) = 5.21406 6.76910 6.04182
#
# Compressibility (1/GPa) = 0.02729059
#
# Stress axis : x y z
#
# Youngs Moduli (GPa) = 147.03013 35.76965 42.57985
#
# Poissons Ratio (x) = 0.04313 0.21666
# Poissons Ratio (y) = 0.17730 0.39097
# Poissons Ratio (z) = 0.74814 0.32844
#
# Static dielectric constant tensor:
#      x y z
#    x 1.975080 -0.010370 -0.049530 
#    y -0.010370 2.021030 -0.010570 
#    z -0.049530 -0.010570 2.056260 
# 
# From -- ./inp_files/113398.got.cif
#   From: 2010.05.17/outbox.cif.g08.bks.cpg/sg2_57_cif.got.tgz:113398.got - 2010.06.03 11:33:40.
