data_PCOD9096781
_publ_section_title
;
Structure prediction by ZEFSAII (Michael W. Deem and Ramdas Pophale) SiO2 
 PCOD9096781
Probable space group: P -1
;
_chemical_formula_sum "Si O2"
_cell_formula_units_Z 16
_cell_length_a 11.683477
_cell_length_b 14.279512
_cell_length_c 20.796051
_cell_angle_alpha 42.284048
_cell_angle_beta 29.711581
_cell_angle_gamma 31.045236
_cell_volume 886.697574
_symmetry_space_group_name_H-M "P -1"
_symmetry_group_IT_number 2
_symmetry_cell_setting 'triclinic'
loop_
_space_group_symop_operation_xyz
x,y,z
-x,-y,-z
loop_
_atom_site_type_symbol
_atom_site_label
_atom_site_fract_x
_atom_site_fract_y
_atom_site_fract_z
Si Si1 0.758740 0.283019 0.985167
Si Si2 0.674308 0.155491 0.644131
Si Si3 0.972224 0.151311 0.279863
Si Si4 0.672082 0.055164 0.553213
Si Si5 0.109556 0.306789 0.906670
Si Si6 0.160815 0.370231 0.048404
Si Si7 0.816931 0.990704 0.893771
Si Si8 0.809373 0.998110 0.188333
O O1 0.021934 0.249502 0.917094
O O2 0.500000 0.500000 0.000000
O O3 0.676356 0.172863 0.119154
O O4 0.909821 0.178663 0.897658
O O5 0.607979 0.152687 0.603694
O O6 0.382671 0.300178 0.754737
O O7 0.790877 0.968630 0.716918
O O8 0.976016 0.130909 0.517472
O O9 0.951591 0.322776 0.195682
O O10 0.691833 0.166905 0.432224
O O11 0.095968 0.047688 0.204052
O O12 0.440415 0.023090 0.668793
O O13 0.840571 0.509215 0.958601
O O14 0.185666 0.165377 0.996860
O O15 0.490186 0.184247 0.966502
O O16 0.000000 0.500000 0.000000
O O17 0.061032 0.981517 0.820968
#
# Coordination Sequence:
#
# PCOD9096781 Si02
#       8
#     2   2   2   2   2   2   2   2
#     4  10  21  36  56  88 115 145 193 239 280 344
#     4   9  18  36  60  80 114 146 191 239 277 333
#     4  10  20  36  58  81 122 147 187 241 279 336
#     4   9  19  37  61  82 112 157 192 231 283 345
#     4  11  20  35  60  85 116 146 188 247 289 332
#     4  12  22  34  60  88 115 152 189 239 298 333
#     4  11  21  37  56  89 116 148 194 237 285 345
#     4  10  21  37  62  79 115 160 185 231 296 335
#
# _framework density 18.044484000000001
#
# number of rings (size 3 to 8) (size 9 to 14) (size 15 to 20)
#    0.750    1.000    3.750    1.875    0.000    1.500 
#    0.000    1.875    0.000    0.750    0.000    0.000 
#    0.000    0.000    0.000    0.000    0.000    0.000 
#
# Total GULP energy -89080.460735 kJ/mol
# GULP energy per Si atom -5567.528796 kJ/mol
# Density = 1.800341 g / cm^3
# Si number density = 18.044484 Si / 1000 Ang^3
#
#
#
# Elastic Constant Matrix: (Units=GPa)
#
#
# Indices 1 2 3 4 5 6 
#
# 1 74.1949 14.7222 43.3333 -2.2653 2.6217 9.9523
# 2 14.7222 97.1313 40.9321 -4.0043 6.5521 6.6916
# 3 43.3333 40.9321 135.1924 -7.4786 -2.0680 -0.2620
# 4 -2.2653 -4.0043 -7.4786 14.0745 2.7787 -2.2487
# 5 2.6217 6.5521 -2.0680 2.7787 32.9747 2.9207
# 6 9.9523 6.6916 -0.2620 -2.2487 2.9207 22.6076
#
#
#
# Elastic Compliance Matrix: (Units=1/GPa)
#
#
# Indices 1 2 3 4 5 6 
#
# 1 0.017978 0.000369 -0.005976 -0.001259 -0.001056 -0.008082
# 2 0.000369 0.012310 -0.003808 0.001501 -0.002542 -0.003373
# 3 -0.005976 -0.003808 0.010717 0.004074 0.001194 0.004133
# 4 -0.001259 0.001501 0.004074 0.076232 -0.007134 0.008661
# 5 -0.001056 -0.002542 0.001194 -0.007134 0.031910 -0.003601
# 6 -0.008082 -0.003373 0.004133 0.008661 -0.003601 0.050163
#
#
# Mechanical properties :
#
#
# Convention : Reuss Voigt Hill
#
# Bulk Modulus (GPa) = 45.09383 56.05489 50.57436
# Shear Modulus (GPa) = 22.17000 27.76677 24.96838
#
# Velocity S-wave (km/s) = 3.50898 3.92700 3.72386
# Velocity P-wave (km/s) = 6.43909 7.18986 6.82481
#
# Compressibility (1/GPa) = 0.02217598
#
# Stress axis : x y z
#
# Youngs Moduli (GPa) = 55.62436 81.23681 93.31160
#
# Poissons Ratio (x) = -0.03001 0.55761
# Poissons Ratio (y) = -0.02055 0.35531
# Poissons Ratio (z) = 0.33240 0.30933
#
# Static dielectric constant tensor:
#      x y z
#    x 1.637260 -0.010160 0.002630 
#    y -0.010160 1.616620 0.013900 
#    z 0.002630 0.013900 1.640390 
# 
# From -- ./inp_files/595365.got.cif
#   From: 2010.05.17/outbox.cif.g08.bks.cpg/sg2_298_cif.got.tgz:595365.got - 2010.06.03 11:33:40.
