data_PCOD9096192
_publ_section_title
;
Structure prediction by ZEFSAII (Michael W. Deem and Ramdas Pophale) SiO2 
 PCOD9096192
Probable space group: P -1
;
_chemical_formula_sum "Si O2"
_cell_formula_units_Z 16
_cell_length_a 17.706098
_cell_length_b 12.075875
_cell_length_c 11.299612
_cell_angle_alpha 134.972578
_cell_angle_beta 149.321624
_cell_angle_gamma 43.071961
_cell_volume 820.190855
_symmetry_space_group_name_H-M "P -1"
_symmetry_group_IT_number 2
_symmetry_cell_setting 'triclinic'
loop_
_space_group_symop_operation_xyz
x,y,z
-x,-y,-z
loop_
_atom_site_type_symbol
_atom_site_label
_atom_site_fract_x
_atom_site_fract_y
_atom_site_fract_z
Si Si1 0.784606 0.580438 0.671923
Si Si2 0.277630 0.601075 0.936616
Si Si3 0.208999 0.772261 0.562414
Si Si4 0.013679 0.182228 0.154484
Si Si5 0.034548 0.189428 0.926507
Si Si6 0.683209 0.124366 0.977199
Si Si7 0.531709 0.508650 0.411923
Si Si8 0.326477 0.257017 0.608979
O O1 0.837614 0.383631 0.568240
O O2 0.655899 0.601935 0.617745
O O3 0.707172 0.673163 0.517474
O O4 0.915041 0.659769 0.940202
O O5 0.307863 0.418134 0.786996
O O6 0.099557 0.699454 0.811830
O O7 0.324176 0.711935 0.983687
O O8 0.384120 0.585101 0.184860
O O9 0.374117 0.677690 0.648822
O O10 0.081265 0.855974 0.353858
O O11 0.240262 0.872946 0.789365
O O12 0.191141 0.182818 0.406025
O O13 0.960001 0.245585 0.996638
O O14 0.000000 0.000000 0.000000
O O15 0.195257 0.034444 0.042893
O O16 0.504822 0.130862 0.757310
O O17 0.500000 0.500000 0.500000
#
# Coordination Sequence:
#
# PCOD9096192 Si02
#       8
#     2   2   2   2   2   2   2   2
#     4   9  20  36  61  87 114 159 207 249 287 366
#     4  12  20  41  63  93 122 159 206 253 302 364
#     4  10  20  39  59  88 118 158 207 244 296 362
#     4  11  25  40  59  92 128 157 195 257 316 359
#     4  11  23  38  59  89 127 160 201 248 308 357
#     4  12  21  38  67  89 122 159 205 256 299 359
#     4  10  20  35  63  88 121 155 200 252 300 354
#     4  11  21  41  64  92 116 160 211 252 297 361
#
# _framework density 19.507653999999999
#
# number of rings (size 3 to 8) (size 9 to 14) (size 15 to 20)
#    0.750    0.500    5.000    2.250    0.000    3.000 
#    0.000    0.000    0.000    1.500    0.000    0.000 
#    0.000    0.000    0.000    0.000    0.000    0.000 
#
# Total GULP energy -89221.399995 kJ/mol
# GULP energy per Si atom -5576.337500 kJ/mol
# Density = 1.946325 g / cm^3
# Si number density = 19.507654 Si / 1000 Ang^3
#
#
#
# Elastic Constant Matrix: (Units=GPa)
#
#
# Indices 1 2 3 4 5 6 
#
# 1 92.3114 -8.8459 29.0255 2.1459 10.2121 -7.7290
# 2 -8.8459 41.5738 -9.5896 -5.4915 10.0593 -7.8254
# 3 29.0255 -9.5896 52.0075 -16.5681 -2.3134 6.6604
# 4 2.1459 -5.4915 -16.5681 28.0347 -3.5035 3.5582
# 5 10.2121 10.0593 -2.3134 -3.5035 34.2607 2.8062
# 6 -7.7290 -7.8254 6.6604 3.5582 2.8062 28.1338
#
#
#
# Elastic Compliance Matrix: (Units=1/GPa)
#
#
# Indices 1 2 3 4 5 6 
#
# 1 0.018622 0.003308 -0.015978 -0.013046 -0.009955 0.012461
# 2 0.003308 0.030457 0.004075 0.005801 -0.009769 0.008656
# 3 -0.015978 0.004075 0.041239 0.030025 0.010887 -0.017902
# 4 -0.013046 0.005801 0.030025 0.059267 0.011727 -0.017744
# 5 -0.009955 -0.009769 0.010887 0.011727 0.038048 -0.013308
# 6 0.012461 0.008656 -0.017902 -0.017744 -0.013308 0.049185
#
#
# Mechanical properties :
#
#
# Convention : Reuss Voigt Hill
#
# Bulk Modulus (GPa) = 13.67477 23.00809 18.34143
# Shear Modulus (GPa) = 17.96083 29.77268 23.86676
#
# Velocity S-wave (km/s) = 3.03761 3.91091 3.50159
# Velocity P-wave (km/s) = 4.39635 5.67570 5.07649
#
# Compressibility (1/GPa) = 0.07312739
#
# Stress axis : x y z
#
# Youngs Moduli (GPa) = 53.70076 32.83344 24.24905
#
# Poissons Ratio (x) = -0.10861 0.38744
# Poissons Ratio (y) = -0.17764 -0.09881
# Poissons Ratio (z) = 0.85801 -0.13379
#
# Static dielectric constant tensor:
#      x y z
#    x 1.674560 -0.000310 0.001490 
#    y -0.000310 1.702870 -0.016460 
#    z 0.001490 -0.016460 1.702860 
# 
# From -- ./inp_files/465944.got.cif
#   From: 2010.05.17/outbox.cif.g08.bks.cpg/sg2_233_cif.got.tgz:465944.got - 2010.06.03 11:33:40.
