data_PCOD9096009
_publ_section_title
;
Structure prediction by ZEFSAII (Michael W. Deem and Ramdas Pophale) SiO2 
 PCOD9096009
Probable space group: P -1
;
_chemical_formula_sum "Si O2"
_cell_formula_units_Z 16
_cell_length_a 16.975497
_cell_length_b 11.898475
_cell_length_c 11.978134
_cell_angle_alpha 36.380360
_cell_angle_beta 33.818231
_cell_angle_gamma 28.903962
_cell_volume 623.034098
_symmetry_space_group_name_H-M "P -1"
_symmetry_group_IT_number 2
_symmetry_cell_setting 'triclinic'
loop_
_space_group_symop_operation_xyz
x,y,z
-x,-y,-z
loop_
_atom_site_type_symbol
_atom_site_label
_atom_site_fract_x
_atom_site_fract_y
_atom_site_fract_z
Si Si1 0.011423 0.307679 0.720388
Si Si2 0.321939 0.715456 0.103703
Si Si3 0.900671 0.322035 0.190974
Si Si4 0.385386 0.663130 0.336682
Si Si5 0.760149 0.612441 0.520904
Si Si6 0.794945 0.216508 0.187715
Si Si7 0.434588 0.022994 0.718669
Si Si8 0.257251 0.150441 0.048773
O O1 0.082287 0.368889 0.693788
O O2 0.000000 0.500000 0.500000
O O3 0.148722 0.033732 0.728917
O O4 0.839630 0.330617 0.945464
O O5 0.358465 0.692495 0.211215
O O6 0.190890 0.643378 0.304572
O O7 0.500000 0.500000 0.000000
O O8 0.311814 0.941126 0.897254
O O9 0.759623 0.345051 0.424231
O O10 0.917236 0.168114 0.189559
O O11 0.081179 0.215479 0.135562
O O12 0.814138 0.589294 0.033212
O O13 0.410844 0.581594 0.691076
O O14 0.337225 0.922587 0.217514
O O15 0.630501 0.803332 0.618220
O O16 0.637565 0.735859 0.456126
O O17 0.410696 0.067059 0.842125
#
# Coordination Sequence:
#
# PCOD9096009 Si02
#       8
#     2   2   2   2   2   2   2   2
#     4  11  28  44  66  93 137 181 224 276 337 409
#     4   9  20  34  61  99 127 159 211 276 326 382
#     4  11  24  45  68  99 138 181 221 284 338 400
#     4  11  24  42  71 101 135 178 227 277 333 410
#     4  10  20  35  61  92 123 168 217 264 332 385
#     4  11  28  47  66  97 141 181 228 276 339 406
#     4   9  19  34  60  95 125 160 205 280 321 390
#     4  10  23  41  69  99 132 169 233 280 334 392
#
# _framework density 25.680776999999999
#
# number of rings (size 3 to 8) (size 9 to 14) (size 15 to 20)
#    0.000    1.750    0.000    2.250   12.250    5.500 
#    0.000    0.000    0.000    0.000    0.000    0.000 
#    0.000    0.000    0.000    0.000    0.000    0.000 
#
# Total GULP energy -89406.279266 kJ/mol
# GULP energy per Si atom -5587.892454 kJ/mol
# Density = 2.562233 g / cm^3
# Si number density = 25.680777 Si / 1000 Ang^3
#
#
#
# Elastic Constant Matrix: (Units=GPa)
#
#
# Indices 1 2 3 4 5 6 
#
# 1 35.8492 -0.3645 18.5712 -4.8339 -1.7571 10.0527
# 2 -0.3645 111.9258 62.0581 -21.5180 -5.2803 3.7330
# 3 18.5712 62.0581 145.4138 -14.2790 -9.2699 1.5894
# 4 -4.8339 -21.5180 -14.2790 49.8141 6.4694 -2.0572
# 5 -1.7571 -5.2803 -9.2699 6.4694 32.8630 -4.4757
# 6 10.0527 3.7330 1.5894 -2.0572 -4.4757 31.5613
#
#
#
# Elastic Compliance Matrix: (Units=1/GPa)
#
#
# Indices 1 2 3 4 5 6 
#
# 1 0.034493 0.004309 -0.005887 0.003226 -0.001280 -0.011171
# 2 0.004309 0.012989 -0.005668 0.004366 -0.000469 -0.002405
# 3 -0.005887 -0.005668 0.010122 -0.000283 0.001999 0.002301
# 4 0.003226 0.004366 -0.000283 0.022655 -0.003745 -0.000584
# 5 -0.001280 -0.000469 0.001999 -0.003745 0.032225 0.004688
# 6 -0.011171 -0.002405 0.002301 -0.000584 0.004688 0.036038
#
#
# Mechanical properties :
#
#
# Convention : Reuss Voigt Hill
#
# Bulk Modulus (GPa) = 23.19600 50.41315 36.80457
# Shear Modulus (GPa) = 28.18732 37.04263 32.61497
#
# Velocity S-wave (km/s) = 3.31660 3.80205 3.56759
# Velocity P-wave (km/s) = 4.87017 6.24079 5.59759
#
# Compressibility (1/GPa) = 0.04311089
#
# Stress axis : x y z
#
# Youngs Moduli (GPa) = 28.99162 76.98946 98.79156
#
# Poissons Ratio (x) = -0.33172 0.58156
# Poissons Ratio (y) = -0.12491 0.55999
# Poissons Ratio (z) = 0.17066 0.43641
#
# Static dielectric constant tensor:
#      x y z
#    x 2.214900 -0.028230 -0.018730 
#    y -0.028230 2.017690 -0.029410 
#    z -0.018730 -0.029410 1.965870 
# 
# From -- ./inp_files/463480.got.cif
#   From: 2010.05.17/outbox.cif.g08.bks.cpg/sg2_232_cif.got.tgz:463480.got - 2010.06.03 11:33:40.
