data_PCOD9096717
_publ_section_title
;
Structure prediction by ZEFSAII (Michael W. Deem and Ramdas Pophale) SiO2 
 PCOD9096717
Probable space group: P -1
;
_chemical_formula_sum "Si O2"
_cell_formula_units_Z 16
_cell_length_a 13.414135
_cell_length_b 8.381597
_cell_length_c 7.971936
_cell_angle_alpha 123.351938
_cell_angle_beta 75.355394
_cell_angle_gamma 129.094858
_cell_volume 574.934772
_symmetry_space_group_name_H-M "P -1"
_symmetry_group_IT_number 2
_symmetry_cell_setting 'triclinic'
loop_
_space_group_symop_operation_xyz
x,y,z
-x,-y,-z
loop_
_atom_site_type_symbol
_atom_site_label
_atom_site_fract_x
_atom_site_fract_y
_atom_site_fract_z
Si Si1 0.034924 0.873782 0.669197
Si Si2 0.709282 0.168147 0.219998
Si Si3 0.791455 0.818551 0.657451
Si Si4 0.976821 0.501971 0.733575
Si Si5 0.285446 0.271245 0.992247
Si Si6 0.755111 0.224585 0.877572
Si Si7 0.483819 0.166586 0.403789
Si Si8 0.405230 0.479753 0.730673
O O1 0.936788 0.905885 0.643932
O O2 0.086030 0.768154 0.459419
O O3 0.955371 0.650764 0.702464
O O4 0.145989 0.098978 0.858769
O O5 0.867698 0.355241 0.262189
O O6 0.612194 0.185189 0.382253
O O7 0.674520 0.907859 0.113370
O O8 0.689118 0.226449 0.074276
O O9 0.715687 0.669681 0.436301
O O10 0.788289 0.042161 0.800498
O O11 0.731856 0.682395 0.782548
O O12 0.894228 0.467188 0.910528
O O13 0.369737 0.477948 0.937421
O O14 0.647994 0.103664 0.707804
O O15 0.460145 0.324097 0.618768
O O16 0.495213 0.279163 0.277316
#
# Coordination Sequence:
#
# PCOD9096717 Si02
#       8
#     2   2   2   2   2   2   2   2
#     4  10  20  36  57  87 122 155 199 249 294 354
#     4  10  21  38  60  89 120 156 200 247 296 354
#     4  10  21  38  60  87 121 157 198 246 297 352
#     4  10  21  36  59  87 119 157 199 245 297 353
#     4  10  22  39  60  89 122 156 200 248 296 353
#     4  10  21  38  58  88 124 156 198 249 295 353
#     4  10  21  39  60  86 122 158 199 247 295 353
#     4  10  22  40  60  85 119 157 199 247 295 352
#
# _framework density 27.829245
#
# number of rings (size 3 to 8) (size 9 to 14) (size 15 to 20)
#    0.000    2.000    0.000    3.375    0.000    4.500 
#    0.000   13.750    0.000    0.000    0.000    0.000 
#    0.000    0.000    0.000    0.000    0.000    0.000 
#
# Total GULP energy -89561.899631 kJ/mol
# GULP energy per Si atom -5597.618727 kJ/mol
# Density = 2.776590 g / cm^3
# Si number density = 27.829245 Si / 1000 Ang^3
#
#
#
# Elastic Constant Matrix: (Units=GPa)
#
#
# Indices 1 2 3 4 5 6 
#
# 1 142.0541 29.5204 35.0608 4.1731 -10.5582 13.3399
# 2 29.5204 76.7382 27.3231 -22.7678 6.8225 8.3189
# 3 35.0608 27.3231 78.2283 -24.4365 2.1308 -1.2572
# 4 4.1731 -22.7678 -24.4365 57.3130 -6.4352 4.3425
# 5 -10.5582 6.8225 2.1308 -6.4352 40.3921 8.2784
# 6 13.3399 8.3189 -1.2572 4.3425 8.2784 38.4567
#
#
#
# Elastic Compliance Matrix: (Units=1/GPa)
#
#
# Indices 1 2 3 4 5 6 
#
# 1 0.009325 -0.002938 -0.004246 -0.003050 0.003308 -0.003106
# 2 -0.002938 0.017474 -0.002934 0.005916 -0.001987 -0.003097
# 3 -0.004246 -0.002934 0.017788 0.006455 -0.000969 0.002169
# 4 -0.003050 0.005916 0.006455 0.023256 0.002206 -0.003112
# 5 0.003308 -0.001987 -0.000969 0.002206 0.027791 -0.006981
# 6 -0.003106 -0.003097 0.002169 -0.003112 -0.006981 0.029676
#
#
# Mechanical properties :
#
#
# Convention : Reuss Voigt Hill
#
# Bulk Modulus (GPa) = 41.06480 53.42547 47.24514
# Shear Modulus (GPa) = 32.53877 40.90679 36.72278
#
# Velocity S-wave (km/s) = 3.42311 3.83811 3.63654
# Velocity P-wave (km/s) = 5.51467 6.23544 5.88610
#
# Compressibility (1/GPa) = 0.02435176
#
# Stress axis : x y z
#
# Youngs Moduli (GPa) = 107.23667 57.22865 56.21615
#
# Poissons Ratio (x) = 0.16812 0.23869
# Poissons Ratio (y) = 0.31503 0.16495
# Poissons Ratio (z) = 0.45532 0.16792
#
# Static dielectric constant tensor:
#      x y z
#    x 2.161810 0.027900 0.024970 
#    y 0.027900 2.181880 -0.001680 
#    z 0.024970 -0.001680 2.208020 
# 
# From -- ./inp_files/299128.got.cif
#   From: 2010.05.17/outbox.cif.g08.bks.cpg/sg2_150_cif.got.tgz:299128.got - 2010.06.03 11:33:40.
