data_PCOD9096247
_publ_section_title
;
Structure prediction by ZEFSAII (Michael W. Deem and Ramdas Pophale) SiO2 
 PCOD9096247
Probable space group: P -1
;
_chemical_formula_sum "Si O2"
_cell_formula_units_Z 16
_cell_length_a 18.794984
_cell_length_b 8.635566
_cell_length_c 6.327438
_cell_angle_alpha 113.665199
_cell_angle_beta 63.543290
_cell_angle_gamma 126.443674
_cell_volume 726.168497
_symmetry_space_group_name_H-M "P -1"
_symmetry_group_IT_number 2
_symmetry_cell_setting 'triclinic'
loop_
_space_group_symop_operation_xyz
x,y,z
-x,-y,-z
loop_
_atom_site_type_symbol
_atom_site_label
_atom_site_fract_x
_atom_site_fract_y
_atom_site_fract_z
Si Si1 0.093321 0.721928 0.685219
Si Si2 0.590773 0.448530 0.119268
Si Si3 0.533785 0.237837 0.695998
Si Si4 0.246290 0.941404 0.256946
Si Si5 0.594789 0.762803 0.505043
Si Si6 0.122384 0.015351 0.190410
Si Si7 0.375785 0.844102 0.826212
Si Si8 0.953199 0.699964 0.530557
O O1 0.084515 0.514078 0.644631
O O2 0.998575 0.686474 0.684027
O O3 0.164332 0.795725 0.436026
O O4 0.122283 0.891806 0.916625
O O5 0.644496 0.654984 0.276660
O O6 0.486207 0.366344 0.293604
O O7 0.623160 0.305113 0.088150
O O8 0.582904 0.434902 0.872522
O O9 0.460320 0.214291 0.603869
O O10 0.611539 0.221054 0.458099
O O11 0.470360 0.055774 0.833982
O O12 0.331595 0.054260 0.364155
O O13 0.211078 0.066322 0.244394
O O14 0.284965 0.853889 0.984473
O O15 0.033843 0.856692 0.356523
O O16 0.110898 0.205554 0.284018
#
# Coordination Sequence:
#
# PCOD9096247 Si02
#       8
#     2   2   2   2   2   2   2   2
#     4  10  21  39  67  94 123 163 194 246 301 356
#     4  10  20  39  59  80 107 156 212 253 299 354
#     4  10  20  35  64  79 102 161 214 251 300 353
#     4  11  24  39  53  90 131 154 193 253 311 352
#     4  10  22  37  57  82 116 152 201 260 299 356
#     4  10  21  40  66  93 125 163 193 244 301 357
#     4  10  22  36  57  83 113 152 204 254 298 357
#     4   9  20  42  68  95 119 154 213 234 280 381
#
# _framework density 22.033456000000001
#
# number of rings (size 3 to 8) (size 9 to 14) (size 15 to 20)
#    0.000    2.000    1.250    1.500    5.250    0.000 
#    4.500    0.000    0.000    0.000    0.000    0.000 
#    0.000    0.000    0.000    0.000    0.000    0.000 
#
# Total GULP energy -89227.578888 kJ/mol
# GULP energy per Si atom -5576.723681 kJ/mol
# Density = 2.198331 g / cm^3
# Si number density = 22.033456 Si / 1000 Ang^3
#
#
#
# Elastic Constant Matrix: (Units=GPa)
#
#
# Indices 1 2 3 4 5 6 
#
# 1 74.5896 25.3305 44.8728 7.5680 -19.0179 -29.4059
# 2 25.3305 48.4772 19.8506 15.9352 -7.8145 -27.5437
# 3 44.8728 19.8506 112.5390 23.6138 -10.6705 -11.7242
# 4 7.5680 15.9352 23.6138 26.3802 -2.2261 -4.9151
# 5 -19.0179 -7.8145 -10.6705 -2.2261 32.5925 7.3908
# 6 -29.4059 -27.5437 -11.7242 -4.9151 7.3908 28.3388
#
#
#
# Elastic Compliance Matrix: (Units=1/GPa)
#
#
# Indices 1 2 3 4 5 6 
#
# 1 0.033648 0.008167 -0.010664 0.002565 0.010053 0.036264
# 2 0.008167 0.061450 -0.001894 -0.025936 0.003018 0.062131
# 3 -0.010664 -0.001894 0.014761 -0.010643 -0.000649 -0.008477
# 4 0.002565 -0.025936 -0.010643 0.059244 -0.000403 -0.016570
# 5 0.010053 0.003018 -0.000649 -0.000403 0.036220 0.003580
# 6 0.036264 0.062131 -0.008477 -0.016570 0.003580 0.125990
#
#
# Mechanical properties :
#
#
# Convention : Reuss Voigt Hill
#
# Bulk Modulus (GPa) = 9.89363 46.19041 28.04202
# Shear Modulus (GPa) = 13.37655 27.16576 20.27115
#
# Velocity S-wave (km/s) = 2.46662 3.51512 3.03647
# Velocity P-wave (km/s) = 3.55138 6.12242 5.00481
#
# Compressibility (1/GPa) = 0.10107510
#
# Stress axis : x y z
#
# Youngs Moduli (GPa) = 29.71926 16.27330 67.74741
#
# Poissons Ratio (x) = -0.13290 0.72247
# Poissons Ratio (y) = -0.24270 0.12834
# Poissons Ratio (z) = 0.31693 0.03083
#
# Static dielectric constant tensor:
#      x y z
#    x 1.808420 -0.037620 -0.005330 
#    y -0.037620 1.888830 0.025590 
#    z -0.005330 0.025590 1.823420 
# 
# From -- ./inp_files/107334.got.cif
#   From: 2010.05.17/outbox.cif.g08.bks.cpg/sg2_54_cif.got.tgz:107334.got - 2010.06.03 11:33:40.
