data_PCOD9096898
_publ_section_title
;
Structure prediction by ZEFSAII (Michael W. Deem and Ramdas Pophale) SiO2 
 PCOD9096898
Probable space group: P -1
;
_chemical_formula_sum "Si O2"
_cell_formula_units_Z 16
_cell_length_a 16.946935
_cell_length_b 10.279397
_cell_length_c 20.338403
_cell_angle_alpha 155.616780
_cell_angle_beta 147.325329
_cell_angle_gamma 31.721119
_cell_volume 731.508989
_symmetry_space_group_name_H-M "P -1"
_symmetry_group_IT_number 2
_symmetry_cell_setting 'triclinic'
loop_
_space_group_symop_operation_xyz
x,y,z
-x,-y,-z
loop_
_atom_site_type_symbol
_atom_site_label
_atom_site_fract_x
_atom_site_fract_y
_atom_site_fract_z
Si Si1 0.652905 0.657397 0.246284
Si Si2 0.450505 0.298379 0.006860
Si Si3 0.923346 0.594028 0.795979
Si Si4 0.866903 0.352451 0.136769
Si Si5 0.936353 0.768185 0.139900
Si Si6 0.371088 0.380492 0.138858
Si Si7 0.387074 0.303915 0.315869
Si Si8 0.216535 0.884013 0.364180
O O1 0.583925 0.406611 0.117283
O O2 0.799906 0.477443 0.218909
O O3 0.505500 0.913534 0.217412
O O4 0.706467 0.878645 0.437910
O O5 0.430038 0.396127 0.114326
O O6 0.285611 0.503307 0.950704
O O7 0.489315 0.892994 0.846750
O O8 0.739785 0.653399 0.696111
O O9 0.004864 0.524723 0.750454
O O10 0.009026 0.329686 0.791314
O O11 0.931861 0.945648 0.990928
O O12 0.026668 0.019414 0.299693
O O13 0.756253 0.802595 0.034537
O O14 0.000000 0.500000 0.000000
O O15 0.285901 0.753793 0.281365
O O16 0.500000 0.500000 0.500000
O O17 0.281413 0.514763 0.278413
#
# Coordination Sequence:
#
# PCOD9096898 Si02
#       8
#     2   2   2   2   2   2   2   2
#     4  11  22  36  59  87 121 150 192 241 293 347
#     4  11  22  36  60  89 114 149 200 246 287 334
#     4  10  20  36  58  87 115 151 196 236 294 336
#     4  11  22  35  59  87 119 147 192 248 288 340
#     4   9  18  35  61  80 108 155 196 229 276 352
#     4  10  21  38  61  83 115 151 197 242 282 346
#     4   9  18  35  58  85 117 150 186 232 293 353
#     4   9  20  37  59  84 114 155 190 230 297 351
#
# _framework density 21.872595
#
# number of rings (size 3 to 8) (size 9 to 14) (size 15 to 20)
#    0.000    2.000    2.500    1.125    5.250    0.500 
#    0.000    6.250    5.500    0.000    0.000    0.000 
#    0.000    0.000    0.000    0.000    0.000    0.000 
#
# Total GULP energy -89184.328032 kJ/mol
# GULP energy per Si atom -5574.020502 kJ/mol
# Density = 2.182281 g / cm^3
# Si number density = 21.872595 Si / 1000 Ang^3
#
#
#
# Elastic Constant Matrix: (Units=GPa)
#
#
# Indices 1 2 3 4 5 6 
#
# 1 176.3793 4.3954 38.1583 6.3834 0.7659 -16.3003
# 2 4.3954 16.4552 0.8832 1.6685 -5.4771 3.0733
# 3 38.1583 0.8832 66.2106 -7.1695 3.2071 -0.5457
# 4 6.3834 1.6685 -7.1695 21.2206 -6.6414 5.3831
# 5 0.7659 -5.4771 3.2071 -6.6414 23.5439 -0.9613
# 6 -16.3003 3.0733 -0.5457 5.3831 -0.9613 25.3234
#
#
#
# Elastic Compliance Matrix: (Units=1/GPa)
#
#
# Indices 1 2 3 4 5 6 
#
# 1 0.007586 -0.002903 -0.004830 -0.005798 -0.001642 0.006301
# 2 -0.002903 0.068623 0.000233 0.003342 0.016550 -0.010274
# 3 -0.004830 0.000233 0.018817 0.008964 -0.000012 -0.004638
# 4 -0.005798 0.003342 0.008964 0.060843 0.016244 -0.016262
# 5 -0.001642 0.016550 -0.000012 0.016244 0.050774 -0.004592
# 6 0.006301 -0.010274 -0.004638 -0.016262 -0.004592 0.047975
#
#
# Mechanical properties :
#
#
# Convention : Reuss Voigt Hill
#
# Bulk Modulus (GPa) = 12.49580 38.43541 25.46560
# Shear Modulus (GPa) = 16.87531 28.39148 22.63339
#
# Velocity S-wave (km/s) = 2.78065 3.60674 3.22029
# Velocity P-wave (km/s) = 4.00434 5.91230 5.04926
#
# Compressibility (1/GPa) = 0.08002690
#
# Stress axis : x y z
#
# Youngs Moduli (GPa) = 131.81991 14.57246 53.14439
#
# Poissons Ratio (x) = 0.04230 0.25667
# Poissons Ratio (y) = 0.38265 -0.01239
# Poissons Ratio (z) = 0.63664 -0.00340
#
# Static dielectric constant tensor:
#      x y z
#    x 1.831080 -0.024580 -0.008560 
#    y -0.024580 1.909180 -0.003210 
#    z -0.008560 -0.003210 1.767730 
# 
# From -- ./inp_files/398828.got.cif
#   From: 2010.05.17/outbox.cif.g08.bks.cpg/sg2_200_cif.got.tgz:398828.got - 2010.06.03 11:33:40.
