data_PCOD9096122
_publ_section_title
;
Structure prediction by ZEFSAII (Michael W. Deem and Ramdas Pophale) SiO2 
 PCOD9096122
Probable space group: P -1
;
_chemical_formula_sum "Si O2"
_cell_formula_units_Z 14
_cell_length_a 14.325901
_cell_length_b 16.443371
_cell_length_c 7.868216
_cell_angle_alpha 134.163456
_cell_angle_beta 31.218224
_cell_angle_gamma 146.505227
_cell_volume 529.270374
_symmetry_space_group_name_H-M "P -1"
_symmetry_group_IT_number 2
_symmetry_cell_setting 'triclinic'
loop_
_space_group_symop_operation_xyz
x,y,z
-x,-y,-z
loop_
_atom_site_type_symbol
_atom_site_label
_atom_site_fract_x
_atom_site_fract_y
_atom_site_fract_z
Si Si1 0.777771 0.244721 0.781125
Si Si2 0.332327 0.538885 0.369002
Si Si3 0.012249 0.135349 0.218907
Si Si4 0.186318 0.531095 0.118164
Si Si5 0.248013 0.750392 0.787508
Si Si6 0.657604 0.642066 0.274128
Si Si7 0.024148 0.141304 0.618573
O O1 0.676488 0.300657 0.902290
O O2 0.059457 0.392397 0.565254
O O3 0.778007 0.116646 0.529871
O O4 0.682492 0.212119 0.070110
O O5 0.383431 0.686604 0.427888
O O6 0.403924 0.577162 0.511988
O O7 0.500000 0.500000 0.000000
O O8 0.058447 0.167394 0.397986
O O9 0.177604 0.247444 0.973659
O O10 0.000000 0.000000 0.000000
O O11 0.000000 0.500000 0.500000
O O12 0.013498 0.403394 0.063541
O O13 0.327789 0.486968 0.918283
O O14 0.193450 0.861735 0.989375
O O15 0.758971 0.729816 0.418087
O O16 0.000000 0.000000 0.500000
#
# Coordination Sequence:
#
# PCOD9096122 Si02
#       7
#     2   2   2   2   2   2   2
#     4  10  20  38  58  85 116 158 198 235 300 356
#     4  11  19  35  60  88 125 154 184 249 310 353
#     4  11  20  36  61  85 115 153 204 245 285 356
#     4  10  16  30  53  83 110 143 194 234 278 354
#     4   9  21  36  57  84 117 155 198 239 290 364
#     4  11  21  35  59  92 114 154 197 246 303 338
#     4  10  21  38  62  87 112 160 209 242 285 356
#
# _framework density 26.451509000000001
#
# number of rings (size 3 to 8) (size 9 to 14) (size 15 to 20)
#    0.000    1.714    4.286    2.571    0.000    0.000 
#    0.000   12.143    0.000    0.857    0.000    0.000 
#    0.000    0.000    0.000    0.000    0.000    0.000 
#
# Total GULP energy -78022.836164 kJ/mol
# GULP energy per Si atom -5573.059726 kJ/mol
# Density = 2.639130 g / cm^3
# Si number density = 26.451509 Si / 1000 Ang^3
#
#
#
# Elastic Constant Matrix: (Units=GPa)
#
#
# Indices 1 2 3 4 5 6 
#
# 1 136.0248 33.5429 33.1002 16.2864 -16.3882 -21.8068
# 2 33.5429 64.7880 63.3313 33.6224 -10.2095 -35.9758
# 3 33.1002 63.3313 160.2337 49.9031 -21.1161 -15.1522
# 4 16.2864 33.6224 49.9031 61.7266 -16.8739 -15.3607
# 5 -16.3882 -10.2095 -21.1161 -16.8739 58.3291 15.9410
# 6 -21.8068 -35.9758 -15.1522 -15.3607 15.9410 43.4866
#
#
#
# Elastic Compliance Matrix: (Units=1/GPa)
#
#
# Indices 1 2 3 4 5 6 
#
# 1 0.008607 -0.004347 -0.000004 0.000657 0.001763 0.000305
# 2 -0.004347 0.065439 -0.018732 -0.011297 -0.012382 0.045979
# 3 -0.000004 -0.018732 0.013966 -0.003189 0.004520 -0.013416
# 4 0.000657 -0.011297 -0.003189 0.025430 0.005248 -0.003069
# 5 0.001763 -0.012382 0.004520 0.005248 0.022502 -0.014180
# 6 0.000305 0.045979 -0.013416 -0.003069 -0.014180 0.060626
#
#
# Mechanical properties :
#
#
# Convention : Reuss Voigt Hill
#
# Bulk Modulus (GPa) = 23.89663 68.99948 46.44805
# Shear Modulus (GPa) = 19.47928 48.11326 33.79627
#
# Velocity S-wave (km/s) = 2.71664 4.26951 3.57833
# Velocity P-wave (km/s) = 4.34671 7.10260 5.88816
#
# Compressibility (1/GPa) = 0.04184691
#
# Stress axis : x y z
#
# Youngs Moduli (GPa) = 116.18597 15.28133 71.60439
#
# Poissons Ratio (x) = 0.06642 0.00025
# Poissons Ratio (y) = 0.50504 1.34130
# Poissons Ratio (z) = 0.00041 0.28625
#
# Static dielectric constant tensor:
#      x y z
#    x 2.160750 0.025920 0.005320 
#    y 0.025920 2.126870 0.022740 
#    z 0.005320 0.022740 2.231280 
# 
# From -- ./inp_files/318120.got.cif
#   From: 2010.05.17/outbox.cif.g08.bks.cpg/sg2_160_cif.got.tgz:318120.got - 2010.06.03 11:33:40.
