data_PCOD9096227
_publ_section_title
;
Structure prediction by ZEFSAII (Michael W. Deem and Ramdas Pophale) SiO2 
 PCOD9096227
Probable space group: P -1
;
_chemical_formula_sum "Si O2"
_cell_formula_units_Z 15
_cell_length_a 5.403650
_cell_length_b 7.183399
_cell_length_c 16.419789
_cell_angle_alpha 63.111968
_cell_angle_beta 74.272056
_cell_angle_gamma 74.260335
_cell_volume 538.905266
_symmetry_space_group_name_H-M "P -1"
_symmetry_group_IT_number 2
_symmetry_cell_setting 'triclinic'
loop_
_space_group_symop_operation_xyz
x,y,z
-x,-y,-z
loop_
_atom_site_type_symbol
_atom_site_label
_atom_site_fract_x
_atom_site_fract_y
_atom_site_fract_z
Si Si1 0.184660 0.747999 0.695279
Si Si2 0.261882 0.184194 0.403013
Si Si3 0.839089 0.786918 0.009479
Si Si4 0.500000 0.500000 0.000000
Si Si5 0.819590 0.480472 0.852621
Si Si6 0.407590 0.769560 0.359912
Si Si7 0.620774 0.131962 0.842798
Si Si8 0.130683 0.230735 0.592550
O O1 0.490960 0.704073 0.660290
O O2 0.007096 0.730881 0.635141
O O3 0.069897 0.586352 0.795767
O O4 0.122239 0.996075 0.678895
O O5 0.224842 0.172617 0.504365
O O6 0.336613 0.955220 0.397180
O O7 0.683590 0.616345 0.020396
O O8 0.652847 0.877204 0.084069
O O9 0.123114 0.682600 0.041375
O O10 0.830809 0.956467 0.905240
O O11 0.414486 0.362246 0.116951
O O12 0.731841 0.345769 0.814876
O O13 0.426394 0.860752 0.250215
O O14 0.681688 0.656895 0.391894
O O15 0.164507 0.647990 0.406166
#
# Coordination Sequence:
#
# PCOD9096227 Si02
#       8
#     2   2   2   1   2   2   2   2
#     4  10  21  34  65  93 126 165 211 269 321 388
#     4  10  20  39  64  98 129 166 211 279 334 380
#     4  10  23  44  64  87 130 176 214 274 323 386
#     4  10  24  40  64  96 124 162 220 282 322 380
#     4  11  24  42  63  91 133 173 219 267 332 386
#     4  10  20  35  63  95 124 164 217 267 312 393
#     4  10  24  41  62  91 130 177 223 257 327 394
#     4  10  20  38  65  97 130 163 216 275 333 383
#
# _framework density 27.834202999999999
#
# number of rings (size 3 to 8) (size 9 to 14) (size 15 to 20)
#    0.000    1.867    0.000    4.800    9.333    1.067 
#    0.000    0.000    0.000    8.800    0.000    0.000 
#    0.000    0.000    0.000    0.000    0.000    0.000 
#
# Total GULP energy -83817.923170 kJ/mol
# GULP energy per Si atom -5587.861545 kJ/mol
# Density = 2.777085 g / cm^3
# Si number density = 27.834203 Si / 1000 Ang^3
#
#
#
# Elastic Constant Matrix: (Units=GPa)
#
#
# Indices 1 2 3 4 5 6 
#
# 1 161.8685 38.6079 36.8369 2.2608 7.9078 41.2079
# 2 38.6079 69.5574 29.5255 3.7325 2.5017 -1.0564
# 3 36.8369 29.5255 120.6742 7.4124 5.9460 9.7759
# 4 2.2608 3.7325 7.4124 36.1786 8.6986 -2.5190
# 5 7.9078 2.5017 5.9460 8.6986 60.4271 -6.9596
# 6 41.2079 -1.0564 9.7759 -2.5190 -6.9596 40.3494
#
#
#
# Elastic Compliance Matrix: (Units=1/GPa)
#
#
# Indices 1 2 3 4 5 6 
#
# 1 0.010718 -0.005671 -0.000844 -0.000130 -0.002368 -0.011307
# 2 -0.005671 0.019141 -0.003565 -0.000678 0.001242 0.007328
# 3 -0.000844 -0.003565 0.009689 -0.001525 -0.000682 -0.001792
# 4 -0.000130 -0.000678 -0.001525 0.029059 -0.003799 0.001643
# 5 -0.002368 0.001242 -0.000682 -0.003799 0.018054 0.005494
# 6 -0.011307 0.007328 -0.001792 0.001643 0.005494 0.038007
#
#
# Mechanical properties :
#
#
# Convention : Reuss Voigt Hill
#
# Bulk Modulus (GPa) = 51.57671 62.44896 57.01284
# Shear Modulus (GPa) = 33.04885 43.86632 38.45759
#
# Velocity S-wave (km/s) = 3.44953 3.97418 3.72111
# Velocity P-wave (km/s) = 5.86821 6.59875 6.24417
#
# Compressibility (1/GPa) = 0.01938860
#
# Stress axis : x y z
#
# Youngs Moduli (GPa) = 93.29681 52.24508 103.20814
#
# Poissons Ratio (x) = 0.29627 0.08709
# Poissons Ratio (y) = 0.52906 0.36797
# Poissons Ratio (z) = 0.07872 0.18627
#
# Static dielectric constant tensor:
#      x y z
#    x 1.980410 0.125730 0.156780 
#    y 0.125730 2.012060 -0.194290 
#    z 0.156780 -0.194290 2.071980 
# 
# From -- ./inp_files/90512.got.cif
#   From: 2010.05.17/outbox.cif.g08.bks.cpg/sg2_46_cif.got.tgz:90512.got - 2010.06.03 11:33:40.
