data_PCOD9096420
_publ_section_title
;
Structure prediction by ZEFSAII (Michael W. Deem and Ramdas Pophale) SiO2 
 PCOD9096420
Probable space group: P -1
;
_chemical_formula_sum "Si O2"
_cell_formula_units_Z 15
_cell_length_a 9.322906
_cell_length_b 11.027950
_cell_length_c 8.479978
_cell_angle_alpha 42.809629
_cell_angle_beta 65.334035
_cell_angle_gamma 77.179673
_cell_volume 533.381716
_symmetry_space_group_name_H-M "P -1"
_symmetry_group_IT_number 2
_symmetry_cell_setting 'triclinic'
loop_
_space_group_symop_operation_xyz
x,y,z
-x,-y,-z
loop_
_atom_site_type_symbol
_atom_site_label
_atom_site_fract_x
_atom_site_fract_y
_atom_site_fract_z
Si Si1 0.370445 0.363150 0.095036
Si Si2 0.016421 0.229840 0.421621
Si Si3 0.389991 0.565136 0.338918
Si Si4 0.165070 0.934862 0.757806
Si Si5 0.668649 0.866008 0.208231
Si Si6 0.084793 0.695253 0.254992
Si Si7 0.500000 0.000000 0.500000
Si Si8 0.670872 0.147599 0.651218
O O1 0.178642 0.369236 0.187630
O O2 0.397080 0.168990 0.336495
O O3 0.500000 0.500000 0.000000
O O4 0.437071 0.390989 0.860865
O O5 0.084372 0.042049 0.562734
O O6 0.960284 0.225022 0.634935
O O7 0.842974 0.224613 0.427932
O O8 0.331515 0.350139 0.581910
O O9 0.268421 0.663228 0.197927
O O10 0.380946 0.683645 0.387384
O O11 0.210114 0.039705 0.806754
O O12 0.328645 0.868228 0.702561
O O13 0.036666 0.777718 0.035789
O O14 0.494209 0.908518 0.317817
O O15 0.682302 0.978300 0.929245
O O16 0.000000 0.500000 0.500000
#
# Coordination Sequence:
#
# PCOD9096420 Si02
#       8
#     2   2   2   2   2   2   1   2
#     4  11  21  36  57  86 120 157 189 238 298 351
#     4  10  22  36  57  88 118 147 194 240 294 341
#     4  11  21  37  60  84 115 159 199 233 292 354
#     4  11  20  36  61  87 118 154 192 239 295 349
#     4  11  21  39  63  85 115 158 200 240 291 347
#     4  11  20  32  54  89 120 145 188 246 287 340
#     4  10  20  36  54  86 122 148 190 232 290 352
#     4  10  23  41  60  87 117 154 199 248 287 346
#
# _framework density 28.122451999999999
#
# number of rings (size 3 to 8) (size 9 to 14) (size 15 to 20)
#    0.000    1.333    4.000    4.000    1.867    0.000 
#    0.000    0.667    0.000   12.800    0.000    0.000 
#    0.000    0.000    0.000    0.000    0.000    0.000 
#
# Total GULP energy -83588.359187 kJ/mol
# GULP energy per Si atom -5572.557279 kJ/mol
# Density = 2.805844 g / cm^3
# Si number density = 28.122452 Si / 1000 Ang^3
#
#
#
# Elastic Constant Matrix: (Units=GPa)
#
#
# Indices 1 2 3 4 5 6 
#
# 1 159.5181 20.0386 44.2069 9.9171 -24.3365 -32.5204
# 2 20.0386 101.4850 30.7888 6.5722 -15.9756 -14.2379
# 3 44.2069 30.7888 131.0261 1.8815 -19.3584 -14.1087
# 4 9.9171 6.5722 1.8815 41.0673 -22.6951 -13.2507
# 5 -24.3365 -15.9756 -19.3584 -22.6951 52.4402 12.6179
# 6 -32.5204 -14.2379 -14.1087 -13.2507 12.6179 34.4545
#
#
#
# Elastic Compliance Matrix: (Units=1/GPa)
#
#
# Indices 1 2 3 4 5 6 
#
# 1 0.008439 0.000126 -0.001806 0.001548 0.002263 0.007044
# 2 0.000126 0.011212 -0.002005 0.000543 0.002164 0.003348
# 3 -0.001806 -0.002005 0.009183 0.002124 0.002598 0.001093
# 4 0.001548 0.000543 0.002124 0.035190 0.014285 0.010858
# 5 0.002263 0.002164 0.002598 0.014285 0.028088 -0.000699
# 6 0.007044 0.003348 0.001093 0.010858 -0.000699 0.041935
#
#
# Mechanical properties :
#
#
# Convention : Reuss Voigt Hill
#
# Bulk Modulus (GPa) = 46.58907 64.67754 55.63331
# Shear Modulus (GPa) = 33.65375 45.39206 39.52290
#
# Velocity S-wave (km/s) = 3.46307 4.02193 3.75291
# Velocity P-wave (km/s) = 5.70902 6.67955 6.21326
#
# Compressibility (1/GPa) = 0.02146426
#
# Stress axis : x y z
#
# Youngs Moduli (GPa) = 118.50280 89.18930 108.89099
#
# Poissons Ratio (x) = -0.01123 0.19667
# Poissons Ratio (y) = -0.01492 0.21831
# Poissons Ratio (z) = 0.21403 0.17881
#
# Static dielectric constant tensor:
#      x y z
#    x 2.489950 0.069570 -0.225890 
#    y 0.069570 1.807780 -0.016820 
#    z -0.225890 -0.016820 2.544060 
# 
# From -- ./inp_files/432249.got.cif
#   From: 2010.05.17/outbox.cif.g08.bks.cpg/sg2_217_cif.got.tgz:432249.got - 2010.06.03 11:33:40.
