data_PCOD9096288
_publ_section_title
;
Structure prediction by ZEFSAII (Michael W. Deem and Ramdas Pophale) SiO2 
 PCOD9096288
Probable space group: P -1
;
_chemical_formula_sum "Si O2"
_cell_formula_units_Z 16
_cell_length_a 14.978663
_cell_length_b 15.695288
_cell_length_c 5.253957
_cell_angle_alpha 96.906863
_cell_angle_beta 89.276682
_cell_angle_gamma 39.360074
_cell_volume 766.636476
_symmetry_space_group_name_H-M "P -1"
_symmetry_group_IT_number 2
_symmetry_cell_setting 'triclinic'
loop_
_space_group_symop_operation_xyz
x,y,z
-x,-y,-z
loop_
_atom_site_type_symbol
_atom_site_label
_atom_site_fract_x
_atom_site_fract_y
_atom_site_fract_z
Si Si1 0.718490 0.631707 0.881706
Si Si2 0.279615 0.872950 0.332440
Si Si3 0.173673 0.672418 0.707055
Si Si4 0.091388 0.363614 0.282729
Si Si5 0.597618 0.643788 0.415088
Si Si6 0.135406 0.153917 0.449792
Si Si7 0.949227 0.344412 0.903946
Si Si8 0.840649 0.119264 0.165387
O O1 0.787390 0.673845 0.881414
O O2 0.608278 0.696578 0.681332
O O3 0.852068 0.467966 0.753019
O O4 0.661618 0.644149 0.162938
O O5 0.437619 0.739486 0.383047
O O6 0.175565 0.921216 0.585262
O O7 0.249923 0.996215 0.335145
O O8 0.252013 0.847523 0.055036
O O9 0.308486 0.511407 0.581944
O O10 0.200154 0.752668 0.717646
O O11 0.020234 0.763971 0.615621
O O12 0.140376 0.667783 0.995140
O O13 0.160268 0.231532 0.380185
O O14 0.000000 0.500000 0.500000
O O15 0.981158 0.396760 0.117628
O O16 0.100821 0.194028 0.761432
O O17 0.000000 0.000000 0.000000
#
# Coordination Sequence:
#
# PCOD9096288 Si02
#       8
#     2   2   2   2   2   2   2   2
#     4  11  21  40  65  91 131 171 213 262 319 384
#     4  12  28  45  65  96 134 172 211 268 327 383
#     4  10  22  39  66  95 126 172 215 266 323 377
#     4  11  21  36  62 105 128 162 220 278 316 369
#     4  11  25  44  64  92 135 176 211 260 325 388
#     4  11  22  39  64  93 132 165 215 270 325 371
#     4  10  20  35  64  98 130 161 212 277 321 368
#     4  12  25  44  72  98 128 164 222 271 319 388
#
# _framework density 20.870386
#
# number of rings (size 3 to 8) (size 9 to 14) (size 15 to 20)
#    0.000    1.000    3.750    3.750    5.250    1.000 
#    0.000    1.250    0.000    0.000    0.000    0.000 
#    0.000    0.000    0.000    0.000    0.000    0.000 
#
# Total GULP energy -89220.883629 kJ/mol
# GULP energy per Si atom -5576.305227 kJ/mol
# Density = 2.082288 g / cm^3
# Si number density = 20.870386 Si / 1000 Ang^3
#
#
#
# Elastic Constant Matrix: (Units=GPa)
#
#
# Indices 1 2 3 4 5 6 
#
# 1 52.2575 19.1812 14.4298 0.9460 2.9836 23.5645
# 2 19.1812 80.5250 4.0301 4.5911 9.3602 15.2559
# 3 14.4298 4.0301 60.1018 -4.8282 13.5544 12.0416
# 4 0.9460 4.5911 -4.8282 22.9070 -1.5606 1.0565
# 5 2.9836 9.3602 13.5544 -1.5606 28.0504 -3.6803
# 6 23.5645 15.2559 12.0416 1.0565 -3.6803 41.8963
#
#
#
# Elastic Compliance Matrix: (Units=1/GPa)
#
#
# Indices 1 2 3 4 5 6 
#
# 1 0.027519 -0.003598 -0.003304 -0.000626 -0.001919 -0.013371
# 2 -0.003598 0.014899 0.001956 -0.002647 -0.006265 -0.004448
# 3 -0.003304 0.001956 0.021345 0.003760 -0.011202 -0.006067
# 4 -0.000626 -0.002647 0.003760 0.045144 0.001544 -0.000767
# 5 -0.001919 -0.006265 -0.011202 0.001544 0.044819 0.010478
# 6 -0.013371 -0.004448 -0.006067 -0.000767 0.010478 0.035692
#
#
# Mechanical properties :
#
#
# Convention : Reuss Voigt Hill
#
# Bulk Modulus (GPa) = 18.56278 29.79628 24.17953
# Shear Modulus (GPa) = 23.01308 28.92030 25.96669
#
# Velocity S-wave (km/s) = 3.32424 3.72655 3.53113
# Velocity P-wave (km/s) = 4.86290 5.72923 5.31375
#
# Compressibility (1/GPa) = 0.05387124
#
# Stress axis : x y z
#
# Youngs Moduli (GPa) = 36.33793 67.11683 46.85020
#
# Poissons Ratio (x) = 0.24147 0.15481
# Poissons Ratio (y) = 0.13074 -0.09164
# Poissons Ratio (z) = 0.12008 -0.13129
#
# Static dielectric constant tensor:
#      x y z
#    x 1.751450 -0.008700 -0.030230 
#    y -0.008700 1.763310 -0.033650 
#    z -0.030230 -0.033650 1.895260 
# 
# From -- ./inp_files/90067.got.cif
#   From: 2010.05.17/outbox.cif.g08.bks.cpg/sg2_46_cif.got.tgz:90067.got - 2010.06.03 11:33:40.
