data_PCOD9096214
_publ_section_title
;
Structure prediction by ZEFSAII (Michael W. Deem and Ramdas Pophale) SiO2 
 PCOD9096214
Probable space group: P -1
;
_chemical_formula_sum "Si O2"
_cell_formula_units_Z 16
_cell_length_a 7.587398
_cell_length_b 19.259634
_cell_length_c 11.579691
_cell_angle_alpha 151.746621
_cell_angle_beta 62.372272
_cell_angle_gamma 108.182661
_cell_volume 690.667965
_symmetry_space_group_name_H-M "P -1"
_symmetry_group_IT_number 2
_symmetry_cell_setting 'triclinic'
loop_
_space_group_symop_operation_xyz
x,y,z
-x,-y,-z
loop_
_atom_site_type_symbol
_atom_site_label
_atom_site_fract_x
_atom_site_fract_y
_atom_site_fract_z
Si Si1 0.650504 0.901999 0.433685
Si Si2 0.523895 0.200334 0.228630
Si Si3 0.500509 0.789443 0.998073
Si Si4 0.464492 0.414100 0.001117
Si Si5 0.779724 0.896445 0.652724
Si Si6 0.939604 0.286368 0.024378
Si Si7 0.903415 0.375485 0.907515
Si Si8 0.737381 0.472353 0.561445
O O1 0.550180 0.758643 0.259880
O O2 0.721305 0.917803 0.568058
O O3 0.515452 0.071228 0.705423
O O4 0.863140 0.850870 0.224895
O O5 0.375058 0.188331 0.360474
O O6 0.588009 0.356507 0.430388
O O7 0.417743 0.180096 0.108842
O O8 0.724589 0.061239 0.969307
O O9 0.336635 0.589248 0.986818
O O10 0.270525 0.767553 0.013029
O O11 0.364872 0.365715 0.223313
O O12 0.500000 0.500000 0.000000
O O13 0.264424 0.499179 0.258702
O O14 0.000325 0.784914 0.418369
O O15 0.913732 0.389747 0.298379
O O16 0.960126 0.365730 0.011471
O O17 0.000000 0.500000 0.000000
#
# Coordination Sequence:
#
# PCOD9096214 Si02
#       8
#     2   2   2   2   2   2   2   2
#     4  10  22  39  59  90 127 162 195 247 308 369
#     4   9  17  34  61  92 120 149 203 261 297 343
#     4  10  20  35  63  93 118 157 204 252 302 350
#     4  12  25  42  61  87 127 165 199 246 313 369
#     4   9  19  35  62  91 116 159 207 251 297 351
#     4  10  20  39  64  92 118 153 211 257 291 355
#     4  11  22  37  64  93 118 158 209 253 296 361
#     4  11  22  37  63  91 121 158 204 253 303 353
#
# _framework density 23.165980000000001
#
# number of rings (size 3 to 8) (size 9 to 14) (size 15 to 20)
#    0.000    1.750    1.250    4.875    1.750    2.000 
#    0.000    0.000    2.750    7.500    0.000    0.000 
#    0.000    0.000    0.000    0.000    0.000    0.000 
#
# Total GULP energy -89365.113451 kJ/mol
# GULP energy per Si atom -5585.319591 kJ/mol
# Density = 2.311325 g / cm^3
# Si number density = 23.165980 Si / 1000 Ang^3
#
#
#
# Elastic Constant Matrix: (Units=GPa)
#
#
# Indices 1 2 3 4 5 6 
#
# 1 59.3696 1.0988 28.1264 -1.2434 -9.2631 4.8313
# 2 1.0988 99.6846 58.0196 -5.9559 -15.6342 -3.8965
# 3 28.1264 58.0196 189.2652 -0.0055 -20.3592 2.6502
# 4 -1.2434 -5.9559 -0.0055 42.0962 12.8444 -1.2356
# 5 -9.2631 -15.6342 -20.3592 12.8444 27.7272 0.4392
# 6 4.8313 -3.8965 2.6502 -1.2356 0.4392 23.6422
#
#
#
# Elastic Compliance Matrix: (Units=1/GPa)
#
#
# Indices 1 2 3 4 5 6 
#
# 1 0.019374 0.002212 -0.002842 -0.001108 0.006201 -0.003449
# 2 0.002212 0.013149 -0.003840 0.000429 0.005102 0.002073
# 3 -0.002842 -0.003840 0.007210 -0.001543 0.002910 -0.000995
# 4 -0.001108 0.000429 -0.001543 0.028234 -0.014376 0.002213
# 5 0.006201 0.005102 0.002910 -0.014376 0.049849 -0.002430
# 6 -0.003449 0.002073 -0.000995 0.002213 -0.002430 0.043616
#
#
# Mechanical properties :
#
#
# Convention : Reuss Voigt Hill
#
# Bulk Modulus (GPa) = 32.47422 58.08992 45.28207
# Shear Modulus (GPa) = 27.67994 36.09810 31.88902
#
# Velocity S-wave (km/s) = 3.46041 3.95173 3.71421
# Velocity P-wave (km/s) = 5.47854 6.77876 6.16304
#
# Compressibility (1/GPa) = 0.03079366
#
# Stress axis : x y z
#
# Youngs Moduli (GPa) = 51.61547 76.05145 138.69695
#
# Poissons Ratio (x) = -0.16823 0.39417
# Poissons Ratio (y) = -0.11418 0.53256
# Poissons Ratio (z) = 0.14669 0.29202
#
# Static dielectric constant tensor:
#      x y z
#    x 1.906670 -0.022200 0.005730 
#    y -0.022200 1.922630 0.000550 
#    z 0.005730 0.000550 1.960930 
# 
# From -- ./inp_files/437843.got.cif
#   From: 2010.05.17/outbox.cif.g08.bks.cpg/sg2_219_cif.got.tgz:437843.got - 2010.06.03 11:33:40.
