data_PCOD9096613
_publ_section_title
;
Structure prediction by ZEFSAII (Michael W. Deem and Ramdas Pophale) SiO2 
 PCOD9096613
Probable space group: P -1
;
_chemical_formula_sum "Si O2"
_cell_formula_units_Z 12
_cell_length_a 13.507140
_cell_length_b 7.306834
_cell_length_c 9.916652
_cell_angle_alpha 58.108347
_cell_angle_beta 73.829053
_cell_angle_gamma 119.836182
_cell_volume 488.754457
_symmetry_space_group_name_H-M "P -1"
_symmetry_group_IT_number 2
_symmetry_cell_setting 'triclinic'
loop_
_space_group_symop_operation_xyz
x,y,z
-x,-y,-z
loop_
_atom_site_type_symbol
_atom_site_label
_atom_site_fract_x
_atom_site_fract_y
_atom_site_fract_z
Si Si1 0.483939 0.227759 0.946148
Si Si2 0.068597 0.885803 0.979553
Si Si3 0.249191 0.179572 0.158271
Si Si4 0.771747 0.404761 0.080762
Si Si5 0.680428 0.823386 0.440133
Si Si6 0.994179 0.339211 0.333587
O O1 0.615829 0.513160 0.901453
O O2 0.532306 0.442614 0.710902
O O3 0.311600 0.048684 0.136370
O O4 0.500000 0.000000 0.000000
O O5 0.244422 0.160893 0.729256
O O6 0.934695 0.603205 0.024992
O O7 0.157274 0.505433 0.133967
O O8 0.000000 0.000000 0.000000
O O9 0.069202 0.865113 0.423412
O O10 0.261428 0.397608 0.963077
O O11 0.041971 0.669656 0.191227
O O12 0.644134 0.011507 0.335916
O O13 0.828116 0.052394 0.410624
#
# Coordination Sequence:
#
# PCOD9096613 Si02
#       6
#     2   2   2   2   2   2
#     4  10  22  38  53  73 104 143 181 210 252 308
#     4   9  17  30  53  80 104 133 164 208 263 313
#     4  10  20  36  57  75 104 142 169 215 264 299
#     4   9  17  34  55  79 104 130 171 213 262 310
#     4   8  17  34  53  72 104 138 167 208 255 311
#     4   8  16  32  54  77 103 135 162 203 271 316
#
# _framework density 24.552205000000001
#
# number of rings (size 3 to 8) (size 9 to 14) (size 15 to 20)
#    0.000    3.000    0.000    2.500    2.333    0.667 
#    6.000    1.667    0.000    0.000    0.000    0.000 
#    0.000    0.000    0.000    0.000    0.000    0.000 
#
# Total GULP energy -66930.019324 kJ/mol
# GULP energy per Si atom -5577.501610 kJ/mol
# Density = 2.449632 g / cm^3
# Si number density = 24.552205 Si / 1000 Ang^3
#
#
#
# Elastic Constant Matrix: (Units=GPa)
#
#
# Indices 1 2 3 4 5 6 
#
# 1 85.5235 30.7490 20.4756 -7.0141 20.9043 -10.9782
# 2 30.7490 95.4387 21.4072 -7.6985 11.4292 -37.2620
# 3 20.4756 21.4072 125.7265 -1.3989 30.4510 -17.2783
# 4 -7.0141 -7.6985 -1.3989 16.9954 -2.1624 10.9097
# 5 20.9043 11.4292 30.4510 -2.1624 28.5845 -15.7830
# 6 -10.9782 -37.2620 -17.2783 10.9097 -15.7830 56.9793
#
#
#
# Elastic Compliance Matrix: (Units=1/GPa)
#
#
# Indices 1 2 3 4 5 6 
#
# 1 0.016443 -0.005314 0.000761 0.005864 -0.012903 -0.004773
# 2 -0.005314 0.015976 -0.001619 -0.001225 0.004949 0.010538
# 3 0.000761 -0.001619 0.010895 -0.000513 -0.012018 -0.000839
# 4 0.005864 -0.001225 -0.000513 0.069393 -0.006190 -0.014828
# 5 -0.012903 0.004949 -0.012018 -0.006190 0.063553 0.015895
# 6 -0.004773 0.010538 -0.000839 -0.014828 0.015895 0.030510
#
#
# Mechanical properties :
#
#
# Convention : Reuss Voigt Hill
#
# Bulk Modulus (GPa) = 32.28718 50.21691 41.25205
# Shear Modulus (GPa) = 21.79253 36.11563 28.95408
#
# Velocity S-wave (km/s) = 2.98249 3.83949 3.43780
# Velocity P-wave (km/s) = 5.00393 6.33665 5.70931
#
# Compressibility (1/GPa) = 0.03097205
#
# Stress axis : x y z
#
# Youngs Moduli (GPa) = 60.81573 62.59367 91.78325
#
# Poissons Ratio (x) = 0.33261 -0.06988
# Poissons Ratio (y) = 0.32316 0.14858
# Poissons Ratio (z) = -0.04630 0.10133
#
# Static dielectric constant tensor:
#      x y z
#    x 1.978660 0.104750 0.009110 
#    y 0.104750 2.097610 -0.017370 
#    z 0.009110 -0.017370 1.964330 
# 
# From -- ./inp_files/432010.got.cif
#   From: 2010.05.17/outbox.cif.g08.bks.cpg/sg2_217_cif.got.tgz:432010.got - 2010.06.03 11:33:40.
