data_PCOD9096963
_publ_section_title
;
Structure prediction by ZEFSAII (Michael W. Deem and Ramdas Pophale) SiO2 
 PCOD9096963
Probable space group: P -1
;
_chemical_formula_sum "Si O2"
_cell_formula_units_Z 16
_cell_length_a 5.519133
_cell_length_b 14.959282
_cell_length_c 9.328172
_cell_angle_alpha 96.213155
_cell_angle_beta 67.903559
_cell_angle_gamma 93.888246
_cell_volume 709.090090
_symmetry_space_group_name_H-M "P -1"
_symmetry_group_IT_number 2
_symmetry_cell_setting 'triclinic'
loop_
_space_group_symop_operation_xyz
x,y,z
-x,-y,-z
loop_
_atom_site_type_symbol
_atom_site_label
_atom_site_fract_x
_atom_site_fract_y
_atom_site_fract_z
Si Si1 0.086531 0.332581 0.902866
Si Si2 0.531066 0.766267 0.887488
Si Si3 0.411106 0.598945 0.072467
Si Si4 0.341805 0.068197 0.955272
Si Si5 0.880700 0.023595 0.261072
Si Si6 0.031120 0.165983 0.688157
Si Si7 0.102096 0.734012 0.769039
Si Si8 0.347699 0.809782 0.484593
O O1 0.392074 0.362537 0.841651
O O2 0.030933 0.231023 0.839835
O O3 0.903750 0.393717 0.854697
O O4 0.002291 0.332206 0.091133
O O5 0.319383 0.792249 0.822572
O O6 0.829612 0.768162 0.771040
O O7 0.467708 0.666953 0.939698
O O8 0.535835 0.833453 0.032084
O O9 0.500000 0.500000 0.000000
O O10 0.335368 0.033439 0.790572
O O11 0.500000 0.000000 0.000000
O O12 0.064044 0.064952 0.100301
O O13 0.020998 0.940816 0.292969
O O14 0.768248 0.099974 0.399028
O O15 0.338328 0.178152 0.579114
O O16 0.817474 0.197917 0.626974
O O17 0.268691 0.722839 0.586132
#
# Coordination Sequence:
#
# PCOD9096963 Si02
#       8
#     2   2   2   2   2   2   2   2
#     4  10  22  40  65  93 127 157 208 246 313 375
#     4  10  20  36  58  91 121 151 202 253 305 365
#     4  10  20  36  65 100 128 151 193 265 320 364
#     4  11  24  35  64  89 121 163 214 264 304 349
#     4  11  25  39  56  86 123 168 216 260 304 359
#     4  12  27  41  60  88 128 175 198 262 310 366
#     4  10  20  39  63  85 115 156 208 257 285 365
#     4  12  25  42  59  86 127 169 219 248 310 358
#
# _framework density 22.564128
#
# number of rings (size 3 to 8) (size 9 to 14) (size 15 to 20)
#    0.000    1.250    1.250    4.875   10.500    0.000 
#    0.000    0.000    0.000    0.000    0.000   70.000 
#    0.000    0.000    0.000    0.000    0.000    0.000 
#
# Total GULP energy -89108.118765 kJ/mol
# GULP energy per Si atom -5569.257423 kJ/mol
# Density = 2.251277 g / cm^3
# Si number density = 22.564128 Si / 1000 Ang^3
#
#
#
# Elastic Constant Matrix: (Units=GPa)
#
#
# Indices 1 2 3 4 5 6 
#
# 1 181.4104 4.4265 24.7873 -0.0800 8.7216 -9.5882
# 2 4.4265 79.5438 11.9443 3.3482 -4.4259 -7.8816
# 3 24.7873 11.9443 59.8035 -8.7893 5.3697 0.1312
# 4 -0.0800 3.3482 -8.7893 12.9828 -4.1317 -0.0044
# 5 8.7216 -4.4259 5.3697 -4.1317 32.6166 3.4370
# 6 -9.5882 -7.8816 0.1312 -0.0044 3.4370 28.7040
#
#
#
# Elastic Compliance Matrix: (Units=1/GPa)
#
#
# Indices 1 2 3 4 5 6 
#
# 1 0.006092 0.000325 -0.002809 -0.002483 -0.001683 0.002338
# 2 0.000325 0.013822 -0.003868 -0.005767 0.001298 0.003765
# 3 -0.002809 -0.003868 0.020939 0.014792 -0.001141 -0.001957
# 4 -0.002483 -0.005767 0.014792 0.091507 0.009416 -0.003594
# 5 -0.001683 0.001298 -0.001141 0.009416 0.033105 -0.004163
# 6 0.002338 0.003765 -0.001957 -0.003594 -0.004163 0.037160
#
#
# Mechanical properties :
#
#
# Convention : Reuss Voigt Hill
#
# Bulk Modulus (GPa) = 35.52366 44.78599 40.15483
# Shear Modulus (GPa) = 22.25084 33.50064 27.87574
#
# Velocity S-wave (km/s) = 3.14365 3.85734 3.51864
# Velocity P-wave (km/s) = 5.38092 6.30319 5.86023
#
# Compressibility (1/GPa) = 0.02815025
#
# Stress axis : x y z
#
# Youngs Moduli (GPa) = 164.16032 72.34594 47.75820
#
# Poissons Ratio (x) = -0.02353 0.13414
# Poissons Ratio (y) = -0.05340 0.18472
# Poissons Ratio (z) = 0.46108 0.27983
#
# Static dielectric constant tensor:
#      x y z
#    x 2.036210 0.045600 -0.131660 
#    y 0.045600 1.903590 -0.058110 
#    z -0.131660 -0.058110 1.993610 
# 
# From -- ./inp_files/51173.got.cif
#   From: 2010.05.17/outbox.cif.g08.bks.cpg/sg2_26_cif.got.tgz:51173.got - 2010.06.03 11:33:40.
