data_PCOD9096429
_publ_section_title
;
Structure prediction by ZEFSAII (Michael W. Deem and Ramdas Pophale) SiO2 
 PCOD9096429
Probable space group: P -1
;
_chemical_formula_sum "Si O2"
_cell_formula_units_Z 16
_cell_length_a 10.544483
_cell_length_b 15.707532
_cell_length_c 10.732295
_cell_angle_alpha 137.664911
_cell_angle_beta 135.717799
_cell_angle_gamma 73.080126
_cell_volume 720.663755
_symmetry_space_group_name_H-M "P -1"
_symmetry_group_IT_number 2
_symmetry_cell_setting 'triclinic'
loop_
_space_group_symop_operation_xyz
x,y,z
-x,-y,-z
loop_
_atom_site_type_symbol
_atom_site_label
_atom_site_fract_x
_atom_site_fract_y
_atom_site_fract_z
Si Si1 0.697308 0.666710 0.396739
Si Si2 0.572175 0.723418 0.960147
Si Si3 0.548553 0.836181 0.320665
Si Si4 0.169571 0.229488 0.026576
Si Si5 0.062220 0.915391 0.053145
Si Si6 0.139584 0.510146 0.274860
Si Si7 0.158868 0.550699 0.785042
Si Si8 0.593441 0.437665 0.701319
O O1 0.687751 0.761972 0.381574
O O2 0.691414 0.517434 0.202857
O O3 0.509758 0.644995 0.333103
O O4 0.920971 0.753814 0.722189
O O5 0.758777 0.819691 0.098703
O O6 0.347158 0.621863 0.623478
O O7 0.627315 0.600198 0.912096
O O8 0.548901 0.820047 0.154699
O O9 0.311004 0.725781 0.077629
O O10 0.686808 0.993784 0.653903
O O11 0.084817 0.340583 0.058898
O O12 0.393493 0.345244 0.370759
O O13 0.031729 0.106101 0.896445
O O14 0.000000 0.000000 0.000000
O O15 0.216261 0.558280 0.237770
O O16 0.956576 0.507574 0.226515
O O17 0.000000 0.500000 0.500000
#
# Coordination Sequence:
#
# PCOD9096429 Si02
#       8
#     2   2   2   2   2   2   2   2
#     4  10  20  36  55  75 104 141 171 211 263 303
#     4   9  15  28  51  77 102 130 170 214 255 298
#     4  11  21  32  52  80 106 133 177 215 250 306
#     4   8  15  30  51  73 102 137 169 207 259 303
#     4   9  19  34  50  75 102 139 176 212 250 306
#     4   9  17  30  51  78 107 130 167 213 259 303
#     4  12  20  32  53  82 107 130 172 220 257 302
#     4   8  14  29  51  73  99 135 167 205 255 305
#
# _framework density 22.201757000000001
#
# number of rings (size 3 to 8) (size 9 to 14) (size 15 to 20)
#    0.000    2.500    2.500    3.375    0.000    0.500 
#    0.000    3.125    0.000    0.000    0.000   16.625 
#    0.000    0.000    0.000    0.000    0.000    0.000 
#
# Total GULP energy -89073.878433 kJ/mol
# GULP energy per Si atom -5567.117402 kJ/mol
# Density = 2.215122 g / cm^3
# Si number density = 22.201757 Si / 1000 Ang^3
#
#
#
# Elastic Constant Matrix: (Units=GPa)
#
#
# Indices 1 2 3 4 5 6 
#
# 1 83.2685 14.7056 14.2337 -2.8435 6.1561 23.9128
# 2 14.7056 51.1541 1.2904 7.6751 7.2521 12.2788
# 3 14.2337 1.2904 118.1325 6.1975 9.9955 4.1812
# 4 -2.8435 7.6751 6.1975 24.1050 0.8872 5.1665
# 5 6.1561 7.2521 9.9955 0.8872 35.6516 -3.5900
# 6 23.9128 12.2788 4.1812 5.1665 -3.5900 32.6761
#
#
#
# Elastic Compliance Matrix: (Units=1/GPa)
#
#
# Indices 1 2 3 4 5 6 
#
# 1 0.016705 -0.002154 -0.001565 0.005868 -0.003414 -0.012518
# 2 -0.002154 0.023504 0.001024 -0.006316 -0.005240 -0.006964
# 3 -0.001565 0.001024 0.008996 -0.002685 -0.002417 -0.000232
# 4 0.005868 -0.006316 -0.002685 0.046869 -0.001059 -0.009104
# 5 -0.003414 -0.005240 -0.002417 -0.001059 0.031252 0.008378
# 6 -0.012518 -0.006964 -0.000232 -0.009104 0.008378 0.044770
#
#
# Mechanical properties :
#
#
# Convention : Reuss Voigt Hill
#
# Bulk Modulus (GPa) = 22.82355 34.77938 28.80147
# Shear Modulus (GPa) = 26.02908 33.30824 29.66866
#
# Velocity S-wave (km/s) = 3.42773 3.87751 3.65954
# Velocity P-wave (km/s) = 5.09590 5.97879 5.55491
#
# Compressibility (1/GPa) = 0.04381439
#
# Stress axis : x y z
#
# Youngs Moduli (GPa) = 59.86240 42.54522 111.16041
#
# Poissons Ratio (x) = 0.09166 0.17398
# Poissons Ratio (y) = 0.12897 -0.11383
# Poissons Ratio (z) = 0.09369 -0.04357
#
# Static dielectric constant tensor:
#      x y z
#    x 1.849280 0.025410 -0.007260 
#    y 0.025410 1.876100 -0.041400 
#    z -0.007260 -0.041400 1.904120 
# 
# From -- ./inp_files/436921.got.cif
#   From: 2010.05.17/outbox.cif.g08.bks.cpg/sg2_219_cif.got.tgz:436921.got - 2010.06.03 11:33:40.
