data_PCOD9096151
_publ_section_title
;
Structure prediction by ZEFSAII (Michael W. Deem and Ramdas Pophale) SiO2 
 PCOD9096151
Probable space group: P -1
;
_chemical_formula_sum "Si O2"
_cell_formula_units_Z 14
_cell_length_a 7.283131
_cell_length_b 11.603275
_cell_length_c 9.654245
_cell_angle_alpha 124.139222
_cell_angle_beta 95.313691
_cell_angle_gamma 106.309757
_cell_volume 615.105959
_symmetry_space_group_name_H-M "P -1"
_symmetry_group_IT_number 2
_symmetry_cell_setting 'triclinic'
loop_
_space_group_symop_operation_xyz
x,y,z
-x,-y,-z
loop_
_atom_site_type_symbol
_atom_site_label
_atom_site_fract_x
_atom_site_fract_y
_atom_site_fract_z
Si Si1 0.321081 0.657686 0.719002
Si Si2 0.966561 0.389157 0.584985
Si Si3 0.916163 0.835035 0.446492
Si Si4 0.898981 0.580690 0.941862
Si Si5 0.297534 0.834650 0.109572
Si Si6 0.484144 0.680356 0.239843
Si Si7 0.619966 0.817944 0.632243
O O1 0.208761 0.481185 0.637233
O O2 0.531112 0.713544 0.689271
O O3 0.161636 0.665596 0.599008
O O4 0.337276 0.764889 0.922208
O O5 0.935981 0.248490 0.586861
O O6 0.917305 0.515382 0.747598
O O7 0.721963 0.730291 0.273365
O O8 0.836672 0.841183 0.601360
O O9 0.000000 0.000000 0.500000
O O10 0.661209 0.497629 0.898320
O O11 0.000000 0.500000 0.000000
O O12 0.055055 0.755597 0.068658
O O13 0.405905 0.775046 0.194481
O O14 0.375693 0.015378 0.231604
O O15 0.480739 0.738325 0.436314
#
# Coordination Sequence:
#
# PCOD9096151 Si02
#       7
#     2   2   2   2   2   2   2
#     4  10  21  37  65  85 118 161 198 242 291 354
#     4  10  20  39  59  88 119 157 201 237 294 365
#     4  10  24  36  62  88 121 159 197 244 302 347
#     4   9  18  34  61  85 113 150 200 248 281 337
#     4  10  20  35  62  95 116 146 208 251 290 342
#     4   9  20  37  60  87 113 161 200 242 295 341
#     4  10  21  37  60  90 116 160 196 242 301 347
#
# _framework density 22.760306
#
# number of rings (size 3 to 8) (size 9 to 14) (size 15 to 20)
#    0.857    1.429    1.429    0.857    6.000    0.571 
#    0.000    7.143    0.000    0.000    0.000    0.000 
#    0.000    0.000    0.000    0.000    0.000    0.000 
#
# Total GULP energy -78086.058097 kJ/mol
# GULP energy per Si atom -5577.575578 kJ/mol
# Density = 2.270850 g / cm^3
# Si number density = 22.760306 Si / 1000 Ang^3
#
#
#
# Elastic Constant Matrix: (Units=GPa)
#
#
# Indices 1 2 3 4 5 6 
#
# 1 41.3233 3.0853 -1.9909 -2.7196 7.2137 15.6382
# 2 3.0853 78.0527 14.6285 12.0107 -2.5309 14.0257
# 3 -1.9909 14.6285 110.9544 -5.9257 -4.6157 0.7268
# 4 -2.7196 12.0107 -5.9257 26.2088 6.8626 -3.3198
# 5 7.2137 -2.5309 -4.6157 6.8626 32.3440 -1.5055
# 6 15.6382 14.0257 0.7268 -3.3198 -1.5055 36.9409
#
#
#
# Elastic Compliance Matrix: (Units=1/GPa)
#
#
# Indices 1 2 3 4 5 6 
#
# 1 0.030858 0.000226 0.000466 0.003682 -0.008192 -0.013161
# 2 0.000226 0.016030 -0.002462 -0.009413 0.002530 -0.006876
# 3 0.000466 -0.002462 0.009535 0.003338 0.000396 0.000866
# 4 0.003682 -0.009413 0.003338 0.047167 -0.010822 0.005747
# 5 -0.008192 0.002530 0.000396 -0.010822 0.035434 0.002971
# 6 -0.013161 -0.006876 0.000866 0.005747 0.002971 0.035873
#
#
# Mechanical properties :
#
#
# Convention : Reuss Voigt Hill
#
# Bulk Modulus (GPa) = 18.90974 29.08623 23.99799
# Shear Modulus (GPa) = 25.50174 33.40589 29.45382
#
# Velocity S-wave (km/s) = 3.35094 3.83525 3.60124
# Velocity P-wave (km/s) = 4.82680 5.69379 5.27813
#
# Compressibility (1/GPa) = 0.05288280
#
# Stress axis : x y z
#
# Youngs Moduli (GPa) = 32.40657 62.38114 104.87962
#
# Poissons Ratio (x) = -0.01408 -0.04887
# Poissons Ratio (y) = -0.00731 0.25820
# Poissons Ratio (z) = -0.01510 0.15357
#
# Static dielectric constant tensor:
#      x y z
#    x 2.004070 0.105650 -0.043330 
#    y 0.105650 1.844050 -0.023310 
#    z -0.043330 -0.023310 1.830530 
# 
# From -- ./inp_files/182734.got.cif
#   From: 2010.05.17/outbox.cif.g08.bks.cpg/sg2_92_cif.got.tgz:182734.got - 2010.06.03 11:33:40.
