data_PCOD9096744
_publ_section_title
;
Structure prediction by ZEFSAII (Michael W. Deem and Ramdas Pophale) SiO2 
 PCOD9096744
Probable space group: P -1
;
_chemical_formula_sum "Si O2"
_cell_formula_units_Z 16
_cell_length_a 10.724070
_cell_length_b 27.512615
_cell_length_c 9.588315
_cell_angle_alpha 28.138549
_cell_angle_beta 140.005466
_cell_angle_gamma 147.802810
_cell_volume 708.661331
_symmetry_space_group_name_H-M "P -1"
_symmetry_group_IT_number 2
_symmetry_cell_setting 'triclinic'
loop_
_space_group_symop_operation_xyz
x,y,z
-x,-y,-z
loop_
_atom_site_type_symbol
_atom_site_label
_atom_site_fract_x
_atom_site_fract_y
_atom_site_fract_z
Si Si1 0.430325 0.826744 0.914591
Si Si2 0.635719 0.114191 0.601033
Si Si3 0.735678 0.439531 0.477355
Si Si4 0.249255 0.356054 0.838175
Si Si5 0.789291 0.938131 0.171340
Si Si6 0.845593 0.108354 0.272408
Si Si7 0.579598 0.319765 0.362884
Si Si8 0.043409 0.620647 0.658526
O O1 0.415173 0.879402 0.622071
O O2 0.264438 0.839580 0.848513
O O3 0.339365 0.682936 0.188299
O O4 0.685753 0.897509 0.028190
O O5 0.768265 0.251542 0.427067
O O6 0.375700 0.008375 0.701589
O O7 0.798512 0.062442 0.890940
O O8 0.709896 0.536199 0.295024
O O9 0.582833 0.387203 0.336597
O O10 0.000000 0.500000 0.500000
O O11 0.187563 0.382861 0.566767
O O12 0.471379 0.349339 0.066584
O O13 0.031196 0.221080 0.047318
O O14 0.580255 0.825888 0.369738
O O15 0.012858 0.936953 0.406243
O O16 0.839389 0.367142 0.422078
O O17 0.000000 0.500000 0.000000
#
# Coordination Sequence:
#
# PCOD9096744 Si02
#       8
#     2   2   2   2   2   2   2   2
#     4  10  20  36  57  91 123 152 192 242 290 351
#     4  11  24  37  57  87 121 157 198 231 289 358
#     4  11  18  37  67  89 117 152 196 247 297 337
#     4  11  22  40  63  89 118 154 198 248 295 344
#     4   9  20  39  63  90 114 149 195 248 298 341
#     4  10  20  38  64  88 117 149 193 251 298 338
#     4  10  23  40  62  91 117 150 203 247 290 351
#     4  12  26  43  60  82 121 163 195 239 294 353
#
# _framework density 22.577781000000002
#
# number of rings (size 3 to 8) (size 9 to 14) (size 15 to 20)
#    0.000    1.500    2.500    4.125    0.000    5.500 
#    0.000    3.750    0.000    0.000    0.000    0.000 
#    0.000    0.000    0.000    0.000    0.000    0.000 
#
# Total GULP energy -89442.086804 kJ/mol
# GULP energy per Si atom -5590.130425 kJ/mol
# Density = 2.252639 g / cm^3
# Si number density = 22.577781 Si / 1000 Ang^3
#
#
#
# Elastic Constant Matrix: (Units=GPa)
#
#
# Indices 1 2 3 4 5 6 
#
# 1 18.6989 11.7856 13.3893 -1.2422 8.0882 -1.8094
# 2 11.7856 88.7717 54.4245 -12.3238 18.1189 -9.4974
# 3 13.3893 54.4245 162.3814 6.1205 24.7349 0.7620
# 4 -1.2422 -12.3238 6.1205 51.9125 4.3015 7.6980
# 5 8.0882 18.1189 24.7349 4.3015 28.5067 4.2012
# 6 -1.8094 -9.4974 0.7620 7.6980 4.2012 25.7160
#
#
#
# Elastic Compliance Matrix: (Units=1/GPa)
#
#
# Indices 1 2 3 4 5 6 
#
# 1 0.064290 -0.003469 -0.001868 0.001413 -0.015424 0.005395
# 2 -0.003469 0.017343 -0.004550 0.004276 -0.007659 0.006267
# 3 -0.001868 -0.004550 0.008439 -0.001684 -0.003501 -0.000986
# 4 0.001413 0.004276 -0.001684 0.021459 -0.004308 -0.003992
# 5 -0.015424 -0.007659 -0.003501 -0.004308 0.049577 -0.010620
# 6 0.005395 0.006267 -0.000986 -0.003992 -0.010620 0.044539
#
#
# Mechanical properties :
#
#
# Convention : Reuss Voigt Hill
#
# Bulk Modulus (GPa) = 14.22520 47.67232 30.94876
# Shear Modulus (GPa) = 20.09212 33.91055 27.00134
#
# Velocity S-wave (km/s) = 2.98637 3.87970 3.46197
# Velocity P-wave (km/s) = 4.26678 6.42105 5.45139
#
# Compressibility (1/GPa) = 0.07029779
#
# Stress axis : x y z
#
# Youngs Moduli (GPa) = 15.55443 57.66154 118.50000
#
# Poissons Ratio (x) = 0.20003 0.22130
# Poissons Ratio (y) = 0.05396 0.53923
# Poissons Ratio (z) = 0.02905 0.26239
#
# Static dielectric constant tensor:
#      x y z
#    x 1.824300 -0.015100 -0.022510 
#    y -0.015100 1.857420 0.008830 
#    z -0.022510 0.008830 1.844140 
# 
# From -- ./inp_files/285781.got.cif
#   From: 2010.05.17/outbox.cif.g08.bks.cpg/sg2_143_cif.got.tgz:285781.got - 2010.06.03 11:33:40.
