data_PCOD9096485
_publ_section_title
;
Structure prediction by ZEFSAII (Michael W. Deem and Ramdas Pophale) SiO2 
 PCOD9096485
Probable space group: P -1
;
_chemical_formula_sum "Si O2"
_cell_formula_units_Z 14
_cell_length_a 17.181988
_cell_length_b 5.396670
_cell_length_c 8.993729
_cell_angle_alpha 76.808205
_cell_angle_beta 123.695688
_cell_angle_gamma 110.086503
_cell_volume 650.880673
_symmetry_space_group_name_H-M "P -1"
_symmetry_group_IT_number 2
_symmetry_cell_setting 'triclinic'
loop_
_space_group_symop_operation_xyz
x,y,z
-x,-y,-z
loop_
_atom_site_type_symbol
_atom_site_label
_atom_site_fract_x
_atom_site_fract_y
_atom_site_fract_z
Si Si1 0.551766 0.219928 0.204265
Si Si2 0.886035 0.458853 0.872388
Si Si3 0.199556 0.061172 0.342690
Si Si4 0.637280 0.669988 0.020281
Si Si5 0.272397 0.608948 0.054843
Si Si6 0.395714 0.519730 0.450435
Si Si7 0.284378 0.964240 0.726249
O O1 0.571046 0.393770 0.048142
O O2 0.588443 0.356975 0.383051
O O3 0.614637 0.021958 0.254883
O O4 0.436085 0.149750 0.103949
O O5 0.861262 0.719846 0.741480
O O6 0.839258 0.178266 0.779997
O O7 0.831830 0.442620 0.975070
O O8 0.000000 0.500000 0.000000
O O9 0.309267 0.246593 0.402763
O O10 0.203613 0.916310 0.523417
O O11 0.696849 0.643799 0.943246
O O12 0.706430 0.759589 0.221461
O O13 0.270806 0.773075 0.880052
O O14 0.349403 0.690446 0.261816
O O15 0.500000 0.500000 0.500000
#
# Coordination Sequence:
#
# PCOD9096485 Si02
#       7
#     2   2   2   2   2   2   2
#     4  10  20  36  55  87 135 189 234 258 326 391
#     4  11  26  51  77 102 132 174 229 296 358 413
#     4  11  25  46  73 101 137 184 225 278 353 414
#     4  10  20  36  57  88 135 182 228 270 327 387
#     4  10  24  38  65  97 133 174 233 285 342 395
#     4  11  21  40  62 100 141 186 232 279 329 408
#     4  11  22  38  63  93 135 183 226 283 332 415
#
# _framework density 21.509319000000001
#
# number of rings (size 3 to 8) (size 9 to 14) (size 15 to 20)
#    0.000    1.429    2.857    2.571    6.000    1.143 
#    0.000    7.143    0.000    0.000    0.000    0.000 
#    0.000    0.000    0.000    0.000    0.000    0.000 
#
# Total GULP energy -77958.537010 kJ/mol
# GULP energy per Si atom -5568.466929 kJ/mol
# Density = 2.146036 g / cm^3
# Si number density = 21.509319 Si / 1000 Ang^3
#
#
#
# Elastic Constant Matrix: (Units=GPa)
#
#
# Indices 1 2 3 4 5 6 
#
# 1 163.0417 34.4771 88.2005 8.6353 6.2880 -8.9641
# 2 34.4771 69.6664 50.6011 -2.0204 0.5016 -3.3134
# 3 88.2005 50.6011 126.9105 -4.0870 -12.2345 4.6034
# 4 8.6353 -2.0204 -4.0870 49.0418 -5.6440 -8.6276
# 5 6.2880 0.5016 -12.2345 -5.6440 39.2795 0.0340
# 6 -8.9641 -3.3134 4.6034 -8.6276 0.0340 25.5355
#
#
#
# Elastic Compliance Matrix: (Units=1/GPa)
#
#
# Indices 1 2 3 4 5 6 
#
# 1 0.011447 0.001213 -0.009187 -0.002431 -0.005063 0.005017
# 2 0.001213 0.021127 -0.009773 0.000331 -0.003465 0.005045
# 3 -0.009187 -0.009773 0.019267 0.002481 0.007959 -0.007139
# 4 -0.002431 0.000331 0.002481 0.022672 0.004410 0.006396
# 5 -0.005063 -0.003465 0.007959 0.004410 0.029428 -0.002211
# 6 0.005017 0.005045 -0.007139 0.006396 -0.002211 0.045028
#
#
# Mechanical properties :
#
#
# Convention : Reuss Voigt Hill
#
# Bulk Modulus (GPa) = 61.17597 78.46400 69.81998
# Shear Modulus (GPa) = 26.32790 35.19403 30.76096
#
# Velocity S-wave (km/s) = 3.50240 4.04941 3.78580
# Velocity P-wave (km/s) = 6.69769 7.64342 7.18613
#
# Compressibility (1/GPa) = 0.01634629
#
# Stress axis : x y z
#
# Youngs Moduli (GPa) = 87.35981 47.33340 51.90149
#
# Poissons Ratio (x) = -0.05740 0.47684
# Poissons Ratio (y) = -0.10594 0.50722
# Poissons Ratio (z) = 0.80260 0.46257
#
# Static dielectric constant tensor:
#      x y z
#    x 1.764810 -0.018630 -0.009370 
#    y -0.018630 1.963800 -0.059300 
#    z -0.009370 -0.059300 1.821360 
# 
# From -- ./inp_files/47441.got.cif
#   From: 2010.05.17/outbox.cif.g08.bks.cpg/sg2_24_cif.got.tgz:47441.got - 2010.06.03 11:33:40.
