data_PCOD9096012
_publ_section_title
;
Structure prediction by ZEFSAII (Michael W. Deem and Ramdas Pophale) SiO2 
 PCOD9096012
Probable space group: P -1
;
_chemical_formula_sum "Si O2"
_cell_formula_units_Z 16
_cell_length_a 17.634521
_cell_length_b 12.165183
_cell_length_c 15.968726
_cell_angle_alpha 155.588795
_cell_angle_beta 150.650229
_cell_angle_gamma 29.679938
_cell_volume 644.505713
_symmetry_space_group_name_H-M "P -1"
_symmetry_group_IT_number 2
_symmetry_cell_setting 'triclinic'
loop_
_space_group_symop_operation_xyz
x,y,z
-x,-y,-z
loop_
_atom_site_type_symbol
_atom_site_label
_atom_site_fract_x
_atom_site_fract_y
_atom_site_fract_z
Si Si1 0.608340 0.130357 0.068206
Si Si2 0.276718 0.727806 0.365623
Si Si3 0.150657 0.611044 0.741032
Si Si4 0.078043 0.086388 0.866493
Si Si5 0.642046 0.698145 0.420117
Si Si6 0.650781 0.356250 0.426749
Si Si7 0.089646 0.573209 0.395847
Si Si8 0.756432 0.686018 0.215829
O O1 0.747638 0.894801 0.982748
O O2 0.599712 0.446395 0.250013
O O3 0.654886 0.102047 0.190848
O O4 0.423232 0.163383 0.892460
O O5 0.453727 0.557190 0.374605
O O6 0.305141 0.699574 0.473116
O O7 0.230825 0.064580 0.537791
O O8 0.106589 0.675053 0.145831
O O9 0.108011 0.915542 0.864642
O O10 0.308684 0.402090 0.695884
O O11 0.204269 0.580105 0.867815
O O12 0.000000 0.500000 0.500000
O O13 0.071748 0.863565 0.631685
O O14 0.808032 0.678037 0.616107
O O15 0.500000 0.000000 0.500000
O O16 0.794648 0.450311 0.588767
O O17 0.901659 0.598796 0.226460
#
# Coordination Sequence:
#
# PCOD9096012 Si02
#       8
#     2   2   2   2   2   2   2   2
#     4   9  21  36  50  79 114 133 173 221 262 311
#     4  10  19  34  61  79  94 140 185 214 263 308
#     4  10  16  30  53  77 103 134 183 213 238 317
#     4   8  17  32  52  77 102 139 175 210 250 312
#     4   9  18  31  53  74 101 144 174 209 262 302
#     4   9  20  37  54  79 105 133 180 222 254 322
#     4   8  17  32  50  74 104 136 178 208 253 314
#     4  11  20  33  55  80 107 141 174 217 264 303
#
# _framework density 24.825226000000001
#
# number of rings (size 3 to 8) (size 9 to 14) (size 15 to 20)
#    0.000    3.250    3.750    0.000    3.500    7.000 
#    0.000    1.875    0.000    3.000    0.000    0.000 
#    0.000    0.000    0.000    0.000    0.000    0.000 
#
# Total GULP energy -89228.152318 kJ/mol
# GULP energy per Si atom -5576.759520 kJ/mol
# Density = 2.476872 g / cm^3
# Si number density = 24.825226 Si / 1000 Ang^3
#
#
#
# Elastic Constant Matrix: (Units=GPa)
#
#
# Indices 1 2 3 4 5 6 
#
# 1 153.5976 46.5111 37.9215 -21.2575 18.0764 -2.3113
# 2 46.5111 120.8755 31.5893 -26.4283 22.8480 -27.5108
# 3 37.9215 31.5893 42.6196 -19.5887 4.5029 -9.7502
# 4 -21.2575 -26.4283 -19.5887 42.0111 -12.7712 13.2169
# 5 18.0764 22.8480 4.5029 -12.7712 32.2556 -10.5901
# 6 -2.3113 -27.5108 -9.7502 13.2169 -10.5901 35.8720
#
#
#
# Elastic Compliance Matrix: (Units=1/GPa)
#
#
# Indices 1 2 3 4 5 6 
#
# 1 0.009327 -0.001740 -0.007419 0.000156 -0.004229 -0.004056
# 2 -0.001740 0.013069 -0.005579 0.001206 -0.004890 0.006506
# 3 -0.007419 -0.005579 0.040099 0.012881 0.008936 0.004035
# 4 0.000156 0.001206 0.012881 0.035315 0.009331 -0.005821
# 5 -0.004229 -0.004890 0.008936 0.009331 0.041670 0.007270
# 6 -0.004056 0.006506 0.004035 -0.005821 0.007270 0.037993
#
#
# Mechanical properties :
#
#
# Convention : Reuss Voigt Hill
#
# Bulk Modulus (GPa) = 30.28505 61.01517 45.65011
# Shear Modulus (GPa) = 22.94048 35.43247 29.18647
#
# Velocity S-wave (km/s) = 3.04316 3.78203 3.43254
# Velocity P-wave (km/s) = 4.95718 6.61082 5.84280
#
# Compressibility (1/GPa) = 0.03301960
#
# Stress axis : x y z
#
# Youngs Moduli (GPa) = 107.21305 76.51471 24.93846
#
# Poissons Ratio (x) = 0.13312 0.18501
# Poissons Ratio (y) = 0.18652 0.13914
# Poissons Ratio (z) = 0.79539 0.42690
#
# Static dielectric constant tensor:
#      x y z
#    x 1.981760 -0.011050 0.061410 
#    y -0.011050 1.966460 -0.038410 
#    z 0.061410 -0.038410 2.194190 
# 
# From -- ./inp_files/311133.got.cif
#   From: 2010.05.17/outbox.cif.g08.bks.cpg/sg2_156_cif.got.tgz:311133.got - 2010.06.03 11:33:40.
