data_PCOD9096459
_publ_section_title
;
Structure prediction by ZEFSAII (Michael W. Deem and Ramdas Pophale) SiO2 
 PCOD9096459
Probable space group: P -1
;
_chemical_formula_sum "Si O2"
_cell_formula_units_Z 15
_cell_length_a 7.908661
_cell_length_b 10.760465
_cell_length_c 11.614019
_cell_angle_alpha 37.403651
_cell_angle_beta 80.054668
_cell_angle_gamma 85.951032
_cell_volume 587.662734
_symmetry_space_group_name_H-M "P -1"
_symmetry_group_IT_number 2
_symmetry_cell_setting 'triclinic'
loop_
_space_group_symop_operation_xyz
x,y,z
-x,-y,-z
loop_
_atom_site_type_symbol
_atom_site_label
_atom_site_fract_x
_atom_site_fract_y
_atom_site_fract_z
Si Si1 0.391447 0.317871 0.408758
Si Si2 0.003052 0.123785 0.594036
Si Si3 0.268910 0.855742 0.227854
Si Si4 0.500000 0.500000 0.500000
Si Si5 0.039521 0.493467 0.811565
Si Si6 0.468646 0.049744 0.282520
Si Si7 0.186313 0.303972 0.132068
Si Si8 0.277489 0.752694 0.054023
O O1 0.199352 0.209362 0.492207
O O2 0.429653 0.344636 0.520181
O O3 0.387009 0.553627 0.194835
O O4 0.521361 0.147334 0.492321
O O5 0.903027 0.295205 0.414791
O O6 0.930567 0.129851 0.727408
O O7 0.949473 0.901458 0.710513
O O8 0.332159 0.632882 0.402338
O O9 0.307648 0.894528 0.059955
O O10 0.366378 0.999354 0.209500
O O11 0.895590 0.544277 0.884336
O O12 0.925089 0.333215 0.861813
O O13 0.189291 0.403665 0.931258
O O14 0.363647 0.229846 0.210302
O O15 0.658596 0.132688 0.154157
#
# Coordination Sequence:
#
# PCOD9096459 Si02
#       8
#     2   2   2   1   2   2   2   2
#     4   9  19  34  54  80 109 142 181 220 265 322
#     4  10  20  38  59  81 110 145 181 225 272 321
#     4   9  19  34  55  83 112 144 181 217 269 329
#     4   8  16  30  48  76 112 138 168 214 256 314
#     4  10  22  38  58  80 108 144 183 229 274 317
#     4  10  20  36  56  78 112 147 178 224 271 318
#     4  10  22  39  57  81 107 142 189 228 269 323
#     4  10  20  36  55  82 112 144 181 221 270 325
#
# _framework density 25.524844999999999
#
# number of rings (size 3 to 8) (size 9 to 14) (size 15 to 20)
#    0.000    2.400    0.000    1.600    0.000    9.600 
#    0.000   14.000    0.000    0.000    0.000    0.000 
#    0.000    0.000    0.000    0.000    0.000    0.000 
#
# Total GULP energy -83508.698031 kJ/mol
# GULP energy per Si atom -5567.246535 kJ/mol
# Density = 2.546675 g / cm^3
# Si number density = 25.524845 Si / 1000 Ang^3
#
#
#
# Elastic Constant Matrix: (Units=GPa)
#
#
# Indices 1 2 3 4 5 6 
#
# 1 46.9980 -0.9725 6.4710 6.5371 14.8955 -0.0945
# 2 -0.9725 63.3444 -2.1864 -2.5419 3.3392 0.1588
# 3 6.4710 -2.1864 93.7719 -9.0859 24.1071 1.2802
# 4 6.5371 -2.5419 -9.0859 26.4544 -4.5326 1.4648
# 5 14.8955 3.3392 24.1071 -4.5326 34.2698 -8.7483
# 6 -0.0945 0.1588 1.2802 1.4648 -8.7483 40.3114
#
#
#
# Elastic Compliance Matrix: (Units=1/GPa)
#
#
# Indices 1 2 3 4 5 6 
#
# 1 0.026873 0.000872 0.001070 -0.008494 -0.014351 -0.002780
# 2 0.000872 0.016041 0.001164 0.001290 -0.002781 -0.000749
# 3 0.001070 0.001164 0.013638 0.002887 -0.010511 -0.002821
# 4 -0.008494 0.001290 0.002887 0.042237 0.007093 -0.000112
# 5 -0.014351 -0.002781 -0.010511 0.007093 0.046617 0.010170
# 6 -0.002780 -0.000749 -0.002821 -0.000112 0.010170 0.027104
#
#
# Mechanical properties :
#
#
# Convention : Reuss Voigt Hill
#
# Bulk Modulus (GPa) = 15.93267 23.41539 19.67403
# Shear Modulus (GPa) = 26.70699 33.59394 30.15047
#
# Velocity S-wave (km/s) = 3.23819 3.63178 3.44062
# Velocity P-wave (km/s) = 4.49852 5.17493 4.84854
#
# Compressibility (1/GPa) = 0.06276413
#
# Stress axis : x y z
#
# Youngs Moduli (GPa) = 37.21270 62.34194 73.32593
#
# Poissons Ratio (x) = -0.05437 -0.07849
# Poissons Ratio (y) = -0.03245 -0.08536
# Poissons Ratio (z) = -0.03983 -0.07257
#
# Static dielectric constant tensor:
#      x y z
#    x 2.052220 -0.023960 0.034530 
#    y -0.023960 1.986010 0.047920 
#    z 0.034530 0.047920 2.053630 
# 
# From -- ./inp_files/284554.got.cif
#   From: 2010.05.17/outbox.cif.g08.bks.cpg/sg2_143_cif.got.tgz:284554.got - 2010.06.03 11:33:40.
