data_PCOD9096235
_publ_section_title
;
Structure prediction by ZEFSAII (Michael W. Deem and Ramdas Pophale) SiO2 
 PCOD9096235
Probable space group: P -1
;
_chemical_formula_sum "Si O2"
_cell_formula_units_Z 16
_cell_length_a 20.185075
_cell_length_b 9.092440
_cell_length_c 9.300423
_cell_angle_alpha 63.821551
_cell_angle_beta 41.043537
_cell_angle_gamma 45.779506
_cell_volume 790.087728
_symmetry_space_group_name_H-M "P -1"
_symmetry_group_IT_number 2
_symmetry_cell_setting 'triclinic'
loop_
_space_group_symop_operation_xyz
x,y,z
-x,-y,-z
loop_
_atom_site_type_symbol
_atom_site_label
_atom_site_fract_x
_atom_site_fract_y
_atom_site_fract_z
Si Si1 0.071720 0.013841 0.009650
Si Si2 0.382587 0.847635 0.810131
Si Si3 0.670993 0.516856 0.441650
Si Si4 0.898011 0.455838 0.209137
Si Si5 0.736724 0.884692 0.369954
Si Si6 0.626754 0.285773 0.822099
Si Si7 0.687377 0.402860 0.141584
Si Si8 0.489337 0.840496 0.164991
O O1 0.982228 0.205564 0.184106
O O2 0.167810 0.060555 0.773326
O O3 0.161823 0.787779 0.034018
O O4 0.000000 0.000000 0.000000
O O5 0.534664 0.737220 0.611644
O O6 0.377196 0.684670 0.796871
O O7 0.296837 0.058331 0.768515
O O8 0.325411 0.863058 0.053676
O O9 0.794081 0.510589 0.233616
O O10 0.701695 0.355675 0.588385
O O11 0.657097 0.441317 0.344242
O O12 0.802360 0.642882 0.397551
O O13 0.000000 0.500000 0.000000
O O14 0.602210 0.043900 0.599006
O O15 0.582347 0.209315 0.803868
O O16 0.500000 0.500000 0.000000
O O17 0.625229 0.626471 0.079237
O O18 0.500000 0.000000 0.000000
#
# Coordination Sequence:
#
# PCOD9096235 Si02
#       8
#     2   2   2   2   2   2   2   2
#     4  10  20  37  65  92 114 166 221 259 289 357
#     4  10  20  35  63  97 127 155 206 256 320 379
#     4  11  19  34  67  87 126 162 204 257 309 371
#     4  10  23  39  57  94 125 164 216 254 300 356
#     4  10  23  39  63  91 133 160 202 263 313 377
#     4  10  21  36  58  93 131 161 200 247 320 389
#     4  11  20  37  63  97 121 157 212 257 304 381
#     4  12  25  39  60  98 136 160 193 262 337 375
#
# _framework density 20.250916
#
# number of rings (size 3 to 8) (size 9 to 14) (size 15 to 20)
#    0.000    1.500    5.000    1.875    3.500    1.500 
#    0.000    0.000    0.000   14.250    6.500    0.000 
#    0.000    0.000    0.000    0.000    0.000    0.000 
#
# Total GULP energy -89099.989142 kJ/mol
# GULP energy per Si atom -5568.749321 kJ/mol
# Density = 2.020482 g / cm^3
# Si number density = 20.250916 Si / 1000 Ang^3
#
#
#
# Elastic Constant Matrix: (Units=GPa)
#
#
# Indices 1 2 3 4 5 6 
#
# 1 82.9925 33.8369 32.6235 -0.8222 -3.8571 -12.9048
# 2 33.8369 160.4818 44.7207 12.9832 -0.5959 -3.9217
# 3 32.6235 44.7207 42.3590 -12.0305 6.7653 -13.7536
# 4 -0.8222 12.9832 -12.0305 21.6200 -5.8277 1.2070
# 5 -3.8571 -0.5959 6.7653 -5.8277 34.0149 5.9389
# 6 -12.9048 -3.9217 -13.7536 1.2070 5.9389 23.2810
#
#
#
# Elastic Compliance Matrix: (Units=1/GPa)
#
#
# Indices 1 2 3 4 5 6 
#
# 1 0.020255 0.004341 -0.026901 -0.014932 0.005983 -0.004685
# 2 0.004341 0.016686 -0.034337 -0.026579 0.005705 -0.015145
# 3 -0.026901 -0.034337 0.125028 0.079460 -0.024563 0.055313
# 4 -0.014932 -0.026579 0.079460 0.102641 -0.005670 0.030313
# 5 0.005983 0.005705 -0.024563 -0.005670 0.037497 -0.019505
# 6 -0.004685 -0.015145 0.055313 0.030313 -0.019505 0.073886
#
#
# Mechanical properties :
#
#
# Convention : Reuss Voigt Hill
#
# Bulk Modulus (GPa) = 20.75747 56.46616 38.61181
# Shear Modulus (GPa) = 9.88446 27.42666 18.65556
#
# Velocity S-wave (km/s) = 2.21169 3.68413 3.03845
# Velocity P-wave (km/s) = 4.09811 6.78534 5.60515
#
# Compressibility (1/GPa) = 0.04817544
#
# Stress axis : x y z
#
# Youngs Moduli (GPa) = 49.36947 59.93166 7.99823
#
# Poissons Ratio (x) = -0.26019 0.21516
# Poissons Ratio (y) = -0.21433 0.27463
# Poissons Ratio (z) = 1.32810 2.05786
#
# Static dielectric constant tensor:
#      x y z
#    x 1.764830 -0.029060 0.011320 
#    y -0.029060 1.889030 -0.044350 
#    z 0.011320 -0.044350 1.785130 
# 
# From -- ./inp_files/327413.got.cif
#   From: 2010.05.17/outbox.cif.g08.bks.cpg/sg2_164_cif.got.tgz:327413.got - 2010.06.03 11:33:40.
