data_PCOD9096498
_publ_section_title
;
Structure prediction by ZEFSAII (Michael W. Deem and Ramdas Pophale) SiO2 
 PCOD9096498
Probable space group: P -1
;
_chemical_formula_sum "Si O2"
_cell_formula_units_Z 16
_cell_length_a 20.265802
_cell_length_b 5.084532
_cell_length_c 30.512063
_cell_angle_alpha 89.169499
_cell_angle_beta 163.710189
_cell_angle_gamma 97.895456
_cell_volume 791.775442
_symmetry_space_group_name_H-M "P -1"
_symmetry_group_IT_number 2
_symmetry_cell_setting 'triclinic'
loop_
_space_group_symop_operation_xyz
x,y,z
-x,-y,-z
loop_
_atom_site_type_symbol
_atom_site_label
_atom_site_fract_x
_atom_site_fract_y
_atom_site_fract_z
Si Si1 0.736700 0.068165 0.493775
Si Si2 0.479354 0.115012 0.417197
Si Si3 0.593750 0.134668 0.989666
Si Si4 0.772040 0.396700 0.678179
Si Si5 0.743248 0.700305 0.029890
Si Si6 0.076503 0.714495 0.712291
Si Si7 0.923767 0.066804 0.065787
Si Si8 0.163969 0.829388 0.086762
O O1 0.663194 0.135584 0.494889
O O2 0.951520 0.386085 0.614338
O O3 0.461247 0.952478 0.293225
O O4 0.858323 0.837066 0.574329
O O5 0.606327 0.392581 0.529997
O O6 0.188799 0.056069 0.217952
O O7 0.418185 0.832103 0.408048
O O8 0.314490 0.937377 0.833880
O O9 0.586079 0.378134 0.951116
O O10 0.796158 0.279582 0.158654
O O11 0.686713 0.923075 0.023253
O O12 0.959238 0.257969 0.778936
O O13 0.963664 0.684059 0.825463
O O14 0.727161 0.779956 0.968117
O O15 0.818359 0.151022 0.954962
O O16 0.000000 0.500000 0.000000
O O17 0.000000 0.000000 0.000000
#
# Coordination Sequence:
#
# PCOD9096498 Si02
#       8
#     2   2   2   2   2   2   2   2
#     4  12  24  42  64  97 129 177 213 275 312 386
#     4  10  21  33  59  89 136 159 205 256 323 385
#     4  11  22  43  66  98 132 168 207 275 335 402
#     4  10  20  36  55  98 124 170 199 258 314 401
#     4  11  22  38  65  94 128 166 212 259 328 392
#     4  11  25  41  67  97 131 168 220 265 336 390
#     4  11  23  39  63  92 129 172 221 255 321 387
#     4  12  26  45  67  91 131 183 225 265 312 370
#
# _framework density 20.207750000000001
#
# number of rings (size 3 to 8) (size 9 to 14) (size 15 to 20)
#    0.000    1.000    2.500    4.875    3.500    2.000 
#    0.000    0.000    0.000    4.500    0.000    0.000 
#    0.000    0.000    0.000    0.000    0.000    0.000 
#
# Total GULP energy -89336.581609 kJ/mol
# GULP energy per Si atom -5583.536351 kJ/mol
# Density = 2.016176 g / cm^3
# Si number density = 20.207750 Si / 1000 Ang^3
#
#
#
# Elastic Constant Matrix: (Units=GPa)
#
#
# Indices 1 2 3 4 5 6 
#
# 1 90.9819 35.3936 30.6474 0.6863 0.7203 26.2194
# 2 35.3936 107.4460 21.1199 6.1314 -5.9947 7.8005
# 3 30.6474 21.1199 84.2457 -1.9097 -6.7931 12.6213
# 4 0.6863 6.1314 -1.9097 23.7530 5.4458 5.2078
# 5 0.7203 -5.9947 -6.7931 5.4458 28.5557 -1.9746
# 6 26.2194 7.8005 12.6213 5.2078 -1.9746 37.2706
#
#
#
# Elastic Compliance Matrix: (Units=1/GPa)
#
#
# Indices 1 2 3 4 5 6 
#
# 1 0.017012 -0.004521 -0.003705 0.003506 -0.003651 -0.010450
# 2 -0.004521 0.011316 -0.001334 -0.004041 0.003081 0.001991
# 3 -0.003705 -0.001334 0.014096 0.001373 0.002771 -0.001933
# 4 0.003506 -0.004041 0.001373 0.047552 -0.010320 -0.009277
# 5 -0.003651 0.003081 0.002771 -0.010320 0.038695 0.004477
# 6 -0.010450 0.001991 -0.001933 -0.009277 0.004477 0.035954
#
#
# Mechanical properties :
#
#
# Convention : Reuss Voigt Hill
#
# Bulk Modulus (GPa) = 42.90746 50.77727 46.84236
# Shear Modulus (GPa) = 26.10799 30.95002 28.52901
#
# Velocity S-wave (km/s) = 3.59831 3.91780 3.76145
# Velocity P-wave (km/s) = 6.20831 6.75631 6.48810
#
# Compressibility (1/GPa) = 0.02330597
#
# Stress axis : x y z
#
# Youngs Moduli (GPa) = 58.78292 88.36881 70.94029
#
# Poissons Ratio (x) = 0.39949 0.26281
# Poissons Ratio (y) = 0.26574 0.09462
# Poissons Ratio (z) = 0.21777 0.11787
#
# Static dielectric constant tensor:
#      x y z
#    x 1.733950 0.006150 -0.005150 
#    y 0.006150 1.805460 0.009350 
#    z -0.005150 0.009350 1.724380 
# 
# From -- ./inp_files/620097.got.cif
#   From: 2010.05.17/outbox.cif.g08.bks.cpg/sg2_311_cif.got.tgz:620097.got - 2010.06.03 11:33:40.
