data_PCOD9096507
_publ_section_title
;
Structure prediction by ZEFSAII (Michael W. Deem and Ramdas Pophale) SiO2 
 PCOD9096507
Probable space group: P -1
;
_chemical_formula_sum "Si O2"
_cell_formula_units_Z 14
_cell_length_a 6.589713
_cell_length_b 12.360513
_cell_length_c 11.164877
_cell_angle_alpha 104.274724
_cell_angle_beta 123.396768
_cell_angle_gamma 107.032367
_cell_volume 624.065437
_symmetry_space_group_name_H-M "P -1"
_symmetry_group_IT_number 2
_symmetry_cell_setting 'triclinic'
loop_
_space_group_symop_operation_xyz
x,y,z
-x,-y,-z
loop_
_atom_site_type_symbol
_atom_site_label
_atom_site_fract_x
_atom_site_fract_y
_atom_site_fract_z
Si Si1 0.445975 0.099102 0.434139
Si Si2 0.907372 0.405653 0.830916
Si Si3 0.582158 0.980809 0.848969
Si Si4 0.888900 0.692574 0.313493
Si Si5 0.519740 0.205149 0.838577
Si Si6 0.852757 0.218425 0.162978
Si Si7 0.652955 0.679466 0.482655
O O1 0.302843 0.037271 0.243020
O O2 0.296841 0.172491 0.462138
O O3 0.770996 0.213437 0.539392
O O4 0.500000 0.000000 0.500000
O O5 0.718138 0.265126 0.801529
O O6 0.686971 0.413381 0.671865
O O7 0.149113 0.408932 0.829473
O O8 0.000000 0.500000 0.000000
O O9 0.371953 0.850043 0.819117
O O10 0.410224 0.052365 0.775395
O O11 0.818366 0.093112 0.044002
O O12 0.731187 0.766888 0.241182
O O13 0.772321 0.646081 0.395595
O O14 0.724402 0.272852 0.039261
O O15 0.167561 0.314598 0.342607
#
# Coordination Sequence:
#
# PCOD9096507 Si02
#       7
#     2   2   2   2   2   2   2
#     4  11  21  29  52  86 114 151 190 221 263 315
#     4  10  22  41  61  83 102 136 191 242 290 324
#     4   9  18  34  52  81 119 155 179 212 258 331
#     4  10  20  36  56  79 110 140 184 236 275 322
#     4   9  20  37  55  82 112 147 186 225 263 333
#     4   9  19  36  52  81 119 154 185 207 271 330
#     4  10  21  36  55  81 112 146 186 230 269 331
#
# _framework density 22.433544999999999
#
# number of rings (size 3 to 8) (size 9 to 14) (size 15 to 20)
#    0.857    1.429    1.429    2.571    2.000    4.000 
#    2.571    0.714    0.000    1.714    0.000    0.000 
#    0.000    0.000    0.000    0.000    0.000    0.000 
#
# Total GULP energy -77968.308758 kJ/mol
# GULP energy per Si atom -5569.164911 kJ/mol
# Density = 2.238249 g / cm^3
# Si number density = 22.433545 Si / 1000 Ang^3
#
#
#
# Elastic Constant Matrix: (Units=GPa)
#
#
# Indices 1 2 3 4 5 6 
#
# 1 100.9037 6.0420 33.4944 0.7222 -25.4172 -13.7856
# 2 6.0420 35.1895 5.3447 -12.1925 -6.0850 1.6543
# 3 33.4944 5.3447 111.8563 -16.0138 -14.7245 -6.4636
# 4 0.7222 -12.1925 -16.0138 29.6896 -3.6551 -6.4287
# 5 -25.4172 -6.0850 -14.7245 -3.6551 48.1752 1.5684
# 6 -13.7856 1.6543 -6.4636 -6.4287 1.5684 19.0031
#
#
#
# Elastic Compliance Matrix: (Units=1/GPa)
#
#
# Indices 1 2 3 4 5 6 
#
# 1 0.013537 -0.001181 -0.002668 0.000347 0.005922 0.008644
# 2 -0.001181 0.034912 0.001881 0.016465 0.005550 0.001856
# 3 -0.002668 0.001881 0.011465 0.008317 0.002822 0.004381
# 4 0.000347 0.016465 0.008317 0.049765 0.008000 0.017823
# 5 0.005922 0.005550 0.002822 0.008000 0.025879 0.005344
# 6 0.008644 0.001856 0.004381 0.017823 0.005344 0.065811
#
#
# Mechanical properties :
#
#
# Convention : Reuss Voigt Hill
#
# Bulk Modulus (GPa) = 17.86465 37.52355 27.69410
# Shear Modulus (GPa) = 22.32490 32.91148 27.61819
#
# Velocity S-wave (km/s) = 3.15803 3.83438 3.51253
# Velocity P-wave (km/s) = 4.61283 6.03044 5.36863
#
# Compressibility (1/GPa) = 0.05597648
#
# Stress axis : x y z
#
# Youngs Moduli (GPa) = 73.87022 28.64329 87.22577
#
# Poissons Ratio (x) = 0.03383 0.23275
# Poissons Ratio (y) = 0.08724 -0.16403
# Poissons Ratio (z) = 0.19711 -0.05387
#
# Static dielectric constant tensor:
#      x y z
#    x 1.825820 -0.015720 -0.039730 
#    y -0.015720 1.879380 0.049800 
#    z -0.039730 0.049800 1.916780 
# 
# From -- ./inp_files/363057.got.cif
#   From: 2010.05.17/outbox.cif.g08.bks.cpg/sg2_182_cif.got.tgz:363057.got - 2010.06.03 11:33:40.
