data_PCOD9096554
_publ_section_title
;
Structure prediction by ZEFSAII (Michael W. Deem and Ramdas Pophale) SiO2 
 PCOD9096554
Probable space group: P -1
;
_chemical_formula_sum "Si O2"
_cell_formula_units_Z 14
_cell_length_a 8.858071
_cell_length_b 28.588260
_cell_length_c 5.204154
_cell_angle_alpha 54.195143
_cell_angle_beta 118.638674
_cell_angle_gamma 148.103929
_cell_volume 564.278275
_symmetry_space_group_name_H-M "P -1"
_symmetry_group_IT_number 2
_symmetry_cell_setting 'triclinic'
loop_
_space_group_symop_operation_xyz
x,y,z
-x,-y,-z
loop_
_atom_site_type_symbol
_atom_site_label
_atom_site_fract_x
_atom_site_fract_y
_atom_site_fract_z
Si Si1 0.056284 0.281794 0.798421
Si Si2 0.292977 0.390243 0.138508
Si Si3 0.254546 0.058257 0.325488
Si Si4 0.290942 0.894009 0.570538
Si Si5 0.479184 0.696805 0.906398
Si Si6 0.268172 0.599152 0.542482
Si Si7 0.853015 0.867958 0.302148
O O1 0.071016 0.318546 0.420511
O O2 0.134437 0.348479 0.870602
O O3 0.308931 0.301648 0.919293
O O4 0.802131 0.174856 0.057060
O O5 0.498840 0.389416 0.291702
O O6 0.500000 0.500000 0.000000
O O7 0.530516 0.096348 0.516054
O O8 0.323470 0.138433 0.006500
O O9 0.000000 0.000000 0.500000
O O10 0.108981 0.977843 0.252256
O O11 0.008454 0.851758 0.375117
O O12 0.500000 0.000000 0.500000
O O13 0.244771 0.618680 0.746311
O O14 0.663986 0.797674 0.613757
O O15 0.368204 0.673364 0.178080
O O16 0.000000 0.500000 0.500000
#
# Coordination Sequence:
#
# PCOD9096554 Si02
#       7
#     2   2   2   2   2   2   2
#     4   9  19  38  58  87 114 154 207 242 292 377
#     4  10  20  38  59  82 119 154 191 253 306 351
#     4  10  21  37  58  88 124 151 205 254 294 368
#     4   9  19  41  61  87 120 166 203 247 313 366
#     4   9  19  35  60  79 114 154 195 244 294 357
#     4  10  20  36  56  84 112 146 197 242 296 368
#     4   9  20  39  57  83 119 163 197 247 308 353
#
# _framework density 24.810452000000002
#
# number of rings (size 3 to 8) (size 9 to 14) (size 15 to 20)
#    0.000    2.571    0.000    0.857    2.000    0.571 
#   20.571    0.000    0.000    0.000    0.000    0.000 
#    0.000    0.000    0.000    0.000    0.000    0.000 
#
# Total GULP energy -78173.773708 kJ/mol
# GULP energy per Si atom -5583.840979 kJ/mol
# Density = 2.475398 g / cm^3
# Si number density = 24.810452 Si / 1000 Ang^3
#
#
#
# Elastic Constant Matrix: (Units=GPa)
#
#
# Indices 1 2 3 4 5 6 
#
# 1 90.2276 8.3202 35.6379 9.6901 8.6430 5.6574
# 2 8.3202 83.5685 4.2819 -21.1855 7.8437 -22.0386
# 3 35.6379 4.2819 90.0902 -16.0099 11.8384 -12.2468
# 4 9.6901 -21.1855 -16.0099 41.2975 -7.2736 3.6656
# 5 8.6430 7.8437 11.8384 -7.2736 27.5611 1.1864
# 6 5.6574 -22.0386 -12.2468 3.6656 1.1864 32.6546
#
#
#
# Elastic Compliance Matrix: (Units=1/GPa)
#
#
# Indices 1 2 3 4 5 6 
#
# 1 0.017260 -0.006174 -0.009406 -0.010367 -0.001945 -0.009451
# 2 -0.006174 0.019752 0.006250 0.011940 -0.003888 0.015545
# 3 -0.009406 0.006250 0.018635 0.010800 -0.004491 0.011787
# 4 -0.010367 0.011940 0.010800 0.036907 0.004541 0.009597
# 5 -0.001945 -0.003888 -0.004491 0.004541 0.041384 -0.005984
# 6 -0.009451 0.015545 0.011787 0.009597 -0.005984 0.046313
#
#
# Mechanical properties :
#
#
# Convention : Reuss Voigt Hill
#
# Bulk Modulus (GPa) = 27.03725 40.04070 33.53898
# Shear Modulus (GPa) = 23.66962 34.67907 29.17435
#
# Velocity S-wave (km/s) = 3.09207 3.74272 3.43284
# Velocity P-wave (km/s) = 4.86508 5.90347 5.40925
#
# Compressibility (1/GPa) = 0.03698600
#
# Stress axis : x y z
#
# Youngs Moduli (GPa) = 57.93833 50.62765 53.66131
#
# Poissons Ratio (x) = 0.31260 0.50472
# Poissons Ratio (y) = 0.35774 -0.33536
# Poissons Ratio (z) = 0.54495 -0.31640
#
# Static dielectric constant tensor:
#      x y z
#    x 2.017400 0.009570 -0.015480 
#    y 0.009570 2.012070 0.027150 
#    z -0.015480 0.027150 1.965420 
# 
# From -- ./inp_files/39067.got.cif
#   From: 2010.05.17/outbox.cif.g08.bks.cpg/sg2_20_cif.got.tgz:39067.got - 2010.06.03 11:33:40.
