data_PCOD9096509
_publ_section_title
;
Structure prediction by ZEFSAII (Michael W. Deem and Ramdas Pophale) SiO2 
 PCOD9096509
Probable space group: P -1
;
_chemical_formula_sum "Si O2"
_cell_formula_units_Z 16
_cell_length_a 14.998387
_cell_length_b 13.866843
_cell_length_c 9.330719
_cell_angle_alpha 156.840724
_cell_angle_beta 57.929910
_cell_angle_gamma 125.278470
_cell_volume 623.056469
_symmetry_space_group_name_H-M "P -1"
_symmetry_group_IT_number 2
_symmetry_cell_setting 'triclinic'
loop_
_space_group_symop_operation_xyz
x,y,z
-x,-y,-z
loop_
_atom_site_type_symbol
_atom_site_label
_atom_site_fract_x
_atom_site_fract_y
_atom_site_fract_z
Si Si1 0.892889 0.130469 0.311598
Si Si2 0.244733 0.594410 0.022088
Si Si3 0.922120 0.498301 0.201775
Si Si4 0.270760 0.332992 0.096271
Si Si5 0.886642 0.317659 0.281773
Si Si6 0.404357 0.294968 0.486579
Si Si7 0.591570 0.819639 0.990008
Si Si8 0.432196 0.111614 0.508045
O O1 0.836321 0.349546 0.713038
O O2 0.869351 0.105082 0.127987
O O3 0.019077 0.252022 0.413689
O O4 0.837692 0.900769 0.151952
O O5 0.338285 0.856694 0.277972
O O6 0.189698 0.523827 0.816914
O O7 0.295864 0.373916 0.729248
O O8 0.905355 0.285595 0.051830
O O9 0.000000 0.500000 0.000000
O O10 0.377952 0.333177 0.910717
O O11 0.219415 0.568807 0.467211
O O12 0.313706 0.240198 0.080276
O O13 0.000000 0.500000 0.500000
O O14 0.494865 0.560576 0.743374
O O15 0.382733 0.154145 0.162573
O O16 0.441547 0.143271 0.373602
O O17 0.543485 0.057680 0.397392
#
# Coordination Sequence:
#
# PCOD9096509 Si02
#       8
#     2   2   2   2   2   2   2   2
#     4   9  20  36  55  79 111 143 180 226 267 317
#     4   9  18  35  55  79 108 143 183 223 268 318
#     4   9  18  35  56  77 107 142 176 221 268 313
#     4  11  22  37  57  82 110 144 181 222 273 320
#     4  10  21  36  56  80 107 142 181 222 268 320
#     4  10  20  36  56  79 111 144 180 225 271 318
#     4  10  22  36  54  82 112 143 182 225 268 321
#     4  10  21  36  56  81 110 143 182 224 268 323
#
# _framework density 25.679855
#
# number of rings (size 3 to 8) (size 9 to 14) (size 15 to 20)
#    0.000    2.250    0.000    2.250    0.000    4.500 
#    0.000    2.500    0.000   13.500    0.000    0.000 
#    0.000    0.000    0.000    0.000    0.000    0.000 
#
# Total GULP energy -89284.479181 kJ/mol
# GULP energy per Si atom -5580.279949 kJ/mol
# Density = 2.562141 g / cm^3
# Si number density = 25.679855 Si / 1000 Ang^3
#
#
#
# Elastic Constant Matrix: (Units=GPa)
#
#
# Indices 1 2 3 4 5 6 
#
# 1 103.7371 28.0639 36.3514 3.5367 -27.7718 -23.0638
# 2 28.0639 119.3603 35.1745 -24.7206 -15.0245 -34.6240
# 3 36.3514 35.1745 58.9813 -4.3985 -34.0485 -5.1120
# 4 3.5367 -24.7206 -4.3985 23.4483 2.5104 6.8230
# 5 -27.7718 -15.0245 -34.0485 2.5104 48.7291 -1.5026
# 6 -23.0638 -34.6240 -5.1120 6.8230 -1.5026 54.2570
#
#
#
# Elastic Compliance Matrix: (Units=1/GPa)
#
#
# Indices 1 2 3 4 5 6 
#
# 1 0.014723 -0.000617 -0.006043 -0.006293 0.004494 0.006211
# 2 -0.000617 0.015527 -0.008358 0.013006 -0.001853 0.007172
# 3 -0.006043 -0.008358 0.036387 -0.002082 0.019398 -0.003675
# 4 -0.006293 0.013006 -0.002082 0.057926 -0.004076 -0.001969
# 5 0.004494 -0.001853 0.019398 -0.004076 0.036401 0.004076
# 6 0.006211 0.007172 -0.003675 -0.001969 0.004076 0.025662
#
#
# Mechanical properties :
#
#
# Convention : Reuss Voigt Hill
#
# Bulk Modulus (GPa) = 27.32025 53.47314 40.39669
# Shear Modulus (GPa) = 21.84725 37.45280 29.65003
#
# Velocity S-wave (km/s) = 2.91993 3.82311 3.40163
# Velocity P-wave (km/s) = 4.69360 6.35267 5.58508
#
# Compressibility (1/GPa) = 0.03660289
#
# Stress axis : x y z
#
# Youngs Moduli (GPa) = 67.92240 64.40484 27.48207
#
# Poissons Ratio (x) = 0.03972 0.16607
# Poissons Ratio (y) = 0.04188 0.22968
# Poissons Ratio (z) = 0.41044 0.53827
#
# Static dielectric constant tensor:
#      x y z
#    x 2.078130 0.075030 0.006500 
#    y 0.075030 2.047910 -0.030670 
#    z 0.006500 -0.030670 2.109290 
# 
# From -- ./inp_files/46776.got.cif
#   From: 2010.05.17/outbox.cif.g08.bks.cpg/sg2_24_cif.got.tgz:46776.got - 2010.06.03 11:33:40.
