data_PCOD9096207
_publ_section_title
;
Structure prediction by ZEFSAII (Michael W. Deem and Ramdas Pophale) SiO2 
 PCOD9096207
Probable space group: P -1
;
_chemical_formula_sum "Si O2"
_cell_formula_units_Z 16
_cell_length_a 15.069437
_cell_length_b 9.204597
_cell_length_c 11.634989
_cell_angle_alpha 127.086029
_cell_angle_beta 42.485959
_cell_angle_gamma 122.260266
_cell_volume 857.577571
_symmetry_space_group_name_H-M "P -1"
_symmetry_group_IT_number 2
_symmetry_cell_setting 'triclinic'
loop_
_space_group_symop_operation_xyz
x,y,z
-x,-y,-z
loop_
_atom_site_type_symbol
_atom_site_label
_atom_site_fract_x
_atom_site_fract_y
_atom_site_fract_z
Si Si1 0.523504 0.518286 0.687454
Si Si2 0.330139 0.326868 0.601016
Si Si3 0.957020 0.762139 0.513991
Si Si4 0.397441 0.827589 0.064403
Si Si5 0.865091 0.384296 0.121982
Si Si6 0.143664 0.878657 0.189134
Si Si7 0.777708 0.093367 0.523037
Si Si8 0.209919 0.617396 0.548359
O O1 0.418981 0.362107 0.647913
O O2 0.579222 0.651076 0.590091
O O3 0.646826 0.439345 0.587182
O O4 0.457792 0.641299 0.899229
O O5 0.247078 0.494836 0.749771
O O6 0.241179 0.125793 0.584867
O O7 0.883925 0.555890 0.504073
O O8 0.012141 0.786937 0.342130
O O9 0.084486 0.832641 0.505793
O O10 0.854456 0.904214 0.696337
O O11 0.266725 0.814700 0.104411
O O12 0.343525 0.865069 0.260152
O O13 0.500000 0.000000 0.000000
O O14 0.856162 0.357069 0.253195
O O15 0.852258 0.190564 0.976498
O O16 0.000000 0.500000 0.000000
O O17 0.777282 0.206194 0.460288
#
# Coordination Sequence:
#
# PCOD9096207 Si02
#       8
#     2   2   2   2   2   2   2   2
#     4  10  21  38  60  87 118 159 200 251 283 349
#     4  10  21  39  59  88 121 153 205 245 295 343
#     4  10  21  39  60  88 124 149 200 248 300 352
#     4  11  20  36  62  88 116 150 206 241 288 355
#     4  11  20  37  63  87 114 150 206 246 284 353
#     4  10  20  35  63  92 106 155 201 250 291 335
#     4  11  24  39  60  87 125 164 187 245 306 352
#     4  11  24  39  59  89 126 159 191 243 308 348
#
# _framework density 18.657202999999999
#
# number of rings (size 3 to 8) (size 9 to 14) (size 15 to 20)
#    0.000    1.500    3.750    1.875    7.000    1.000 
#    0.000    3.750    0.000    0.000    0.000    0.000 
#    0.000    0.000    0.000    0.000    0.000    0.000 
#
# Total GULP energy -89318.125631 kJ/mol
# GULP energy per Si atom -5582.382852 kJ/mol
# Density = 1.861474 g / cm^3
# Si number density = 18.657203 Si / 1000 Ang^3
#
#
#
# Elastic Constant Matrix: (Units=GPa)
#
#
# Indices 1 2 3 4 5 6 
#
# 1 68.9825 28.6761 20.7684 -1.8495 9.3617 1.5637
# 2 28.6761 72.4975 16.4736 4.4721 16.1283 1.9721
# 3 20.7684 16.4736 93.9603 6.8738 8.5293 -4.2783
# 4 -1.8495 4.4721 6.8738 24.2672 3.0243 3.3408
# 5 9.3617 16.1283 8.5293 3.0243 21.5723 -2.2885
# 6 1.5637 1.9721 -4.2783 3.3408 -2.2885 26.6422
#
#
#
# Elastic Compliance Matrix: (Units=1/GPa)
#
#
# Indices 1 2 3 4 5 6 
#
# 1 0.018560 -0.006166 -0.003136 0.004072 -0.002978 -0.001903
# 2 -0.006166 0.019100 -0.000907 -0.002082 -0.011155 -0.001895
# 3 -0.003136 -0.000907 0.012047 -0.003579 -0.001961 0.002466
# 4 0.004072 -0.002082 -0.003579 0.044561 -0.005758 -0.006742
# 5 -0.002978 -0.011155 -0.001961 -0.005758 0.058250 0.006411
# 6 -0.001903 -0.001895 0.002466 -0.006742 0.006411 0.039578
#
#
# Mechanical properties :
#
#
# Convention : Reuss Voigt Hill
#
# Bulk Modulus (GPa) = 34.14168 40.80851 37.47509
# Shear Modulus (GPa) = 22.49438 25.79784 24.14611
#
# Velocity S-wave (km/s) = 3.47604 3.72254 3.60140
# Velocity P-wave (km/s) = 5.86938 6.35584 6.11745
#
# Compressibility (1/GPa) = 0.02928971
#
# Stress axis : x y z
#
# Youngs Moduli (GPa) = 53.87930 52.35581 83.00788
#
# Poissons Ratio (x) = 0.32282 0.26028
# Poissons Ratio (y) = 0.33221 0.07531
# Poissons Ratio (z) = 0.16894 0.04750
#
# Static dielectric constant tensor:
#      x y z
#    x 1.653180 0.051370 -0.005300 
#    y 0.051370 1.659650 0.005130 
#    z -0.005300 0.005130 1.666020 
# 
# From -- ./inp_files/174970.got.cif
#   From: 2010.05.17/outbox.cif.g08.bks.cpg/sg2_88_cif.got.tgz:174970.got - 2010.06.03 11:33:40.
