data_PCOD9096639
_publ_section_title
;
Structure prediction by ZEFSAII (Michael W. Deem and Ramdas Pophale) SiO2 
 PCOD9096639
Probable space group: P -1
;
_chemical_formula_sum "Si O2"
_cell_formula_units_Z 12
_cell_length_a 8.327506
_cell_length_b 8.123494
_cell_length_c 12.573771
_cell_angle_alpha 40.756770
_cell_angle_beta 61.005454
_cell_angle_gamma 80.314774
_cell_volume 455.281667
_symmetry_space_group_name_H-M "P -1"
_symmetry_group_IT_number 2
_symmetry_cell_setting 'triclinic'
loop_
_space_group_symop_operation_xyz
x,y,z
-x,-y,-z
loop_
_atom_site_type_symbol
_atom_site_label
_atom_site_fract_x
_atom_site_fract_y
_atom_site_fract_z
Si Si1 0.176576 0.458987 0.783200
Si Si2 0.838483 0.974245 0.438004
Si Si3 0.783199 0.065610 0.176577
Si Si4 0.011263 0.551693 0.595679
Si Si5 0.561998 0.426236 0.161515
Si Si6 0.595678 0.136107 0.011265
O O1 0.361952 0.499881 0.777527
O O2 0.177646 0.489441 0.640490
O O3 0.109701 0.711268 0.714813
O O4 0.007358 0.186335 0.007360
O O5 0.006454 0.851085 0.465772
O O6 0.644409 0.814850 0.644411
O O7 0.777525 0.915455 0.361954
O O8 0.714814 0.316380 0.109701
O O9 0.640489 0.952284 0.177648
O O10 0.807762 0.352034 0.807764
O O11 0.000000 0.500000 0.500000
O O12 0.465770 0.310400 0.006456
O O13 0.500000 0.000000 0.000000
#
# Coordination Sequence:
#
# PCOD9096639 Si02
#       6
#     2   2   2   2   2   2
#     4  10  20  36  57  82 107 138 178 221 265 314
#     4  10  20  36  57  82 107 138 178 221 265 314
#     4  10  20  36  57  82 107 138 178 221 265 314
#     4  10  23  38  54  78 110 144 179 216 264 318
#     4  10  20  36  57  82 107 138 178 221 265 314
#     4  10  23  38  54  78 110 144 179 216 264 318
#
# _framework density 26.357309999999998
#
# number of rings (size 3 to 8) (size 9 to 14) (size 15 to 20)
#    0.000    2.000    0.000    5.000    0.000    6.667 
#    0.000    6.667    0.000    0.000    0.000    0.000 
#    0.000    0.000    0.000    0.000    0.000    0.000 
#
# Total GULP energy -67177.977499 kJ/mol
# GULP energy per Si atom -5598.164792 kJ/mol
# Density = 2.629732 g / cm^3
# Si number density = 26.357310 Si / 1000 Ang^3
#
#
#
# Elastic Constant Matrix: (Units=GPa)
#
#
# Indices 1 2 3 4 5 6 
#
# 1 114.4281 6.4407 32.5595 -2.0081 31.5483 15.5148
# 2 6.4407 80.6152 2.5103 7.8628 2.5272 9.2542
# 3 32.5595 2.5103 83.4599 12.1209 5.9346 4.7775
# 4 -2.0081 7.8628 12.1209 36.1500 8.5065 15.4908
# 5 31.5483 2.5272 5.9346 8.5065 51.5542 3.1602
# 6 15.5148 9.2542 4.7775 15.4908 3.1602 52.2158
#
#
#
# Elastic Compliance Matrix: (Units=1/GPa)
#
#
# Indices 1 2 3 4 5 6 
#
# 1 0.013362 -0.000740 -0.005296 0.006717 -0.008342 -0.004842
# 2 -0.000740 0.012840 0.000313 -0.002408 0.000270 -0.001386
# 3 -0.005296 0.000313 0.014725 -0.006760 0.002522 0.002024
# 4 0.006717 -0.002408 -0.006760 0.037881 -0.008750 -0.011659
# 5 -0.008342 0.000270 0.002522 -0.008750 0.025443 0.003256
# 6 -0.004842 -0.001386 0.002024 -0.011659 0.003256 0.023912
#
#
# Mechanical properties :
#
#
# Convention : Reuss Voigt Hill
#
# Bulk Modulus (GPa) = 33.92184 40.16936 37.04560
# Shear Modulus (GPa) = 33.45905 43.78351 38.62128
#
# Velocity S-wave (km/s) = 3.56679 4.08015 3.83207
# Velocity P-wave (km/s) = 5.46448 6.12129 5.80219
#
# Compressibility (1/GPa) = 0.02947953
#
# Stress axis : x y z
#
# Youngs Moduli (GPa) = 74.83852 77.88433 67.91197
#
# Poissons Ratio (x) = 0.05766 0.35964
# Poissons Ratio (y) = 0.05541 -0.02123
# Poissons Ratio (z) = 0.39632 -0.02434
#
# Static dielectric constant tensor:
#      x y z
#    x 2.059740 0.033360 0.058130 
#    y 0.033360 2.189770 0.038500 
#    z 0.058130 0.038500 2.008790 
# 
# From -- ./inp_files/373367.got.cif
#   From: 2010.05.17/outbox.cif.g08.bks.cpg/sg2_187_cif.got.tgz:373367.got - 2010.06.03 11:33:40.
