data_PCOD9096462
_publ_section_title
;
Structure prediction by ZEFSAII (Michael W. Deem and Ramdas Pophale) SiO2 
 PCOD9096462
Probable space group: P -1
;
_chemical_formula_sum "Si O2"
_cell_formula_units_Z 16
_cell_length_a 9.217067
_cell_length_b 14.341416
_cell_length_c 12.197812
_cell_angle_alpha 151.211234
_cell_angle_beta 79.965403
_cell_angle_gamma 90.679709
_cell_volume 730.111271
_symmetry_space_group_name_H-M "P -1"
_symmetry_group_IT_number 2
_symmetry_cell_setting 'triclinic'
loop_
_space_group_symop_operation_xyz
x,y,z
-x,-y,-z
loop_
_atom_site_type_symbol
_atom_site_label
_atom_site_fract_x
_atom_site_fract_y
_atom_site_fract_z
Si Si1 0.164157 0.003777 0.525322
Si Si2 0.695388 0.333995 0.402139
Si Si3 0.823290 0.963660 0.851035
Si Si4 0.798997 0.669933 0.986579
Si Si5 0.130943 0.792360 0.524702
Si Si6 0.530905 0.060516 0.680410
Si Si7 0.475891 0.135042 0.300268
Si Si8 0.226122 0.246439 0.163774
O O1 0.205665 0.869762 0.491927
O O2 0.296350 0.926096 0.336836
O O3 0.160071 0.222109 0.800740
O O4 0.000000 0.000000 0.500000
O O5 0.776945 0.229132 0.395886
O O6 0.520706 0.325472 0.439543
O O7 0.730372 0.547008 0.609386
O O8 0.762010 0.187587 0.140525
O O9 0.683554 0.893130 0.747590
O O10 0.880847 0.808155 0.786066
O O11 0.959645 0.933727 0.716605
O O12 0.871556 0.432139 0.736205
O O13 0.843744 0.744325 0.939514
O O14 0.610974 0.738766 0.070824
O O15 0.500000 0.000000 0.500000
O O16 0.524475 0.891410 0.595754
O O17 0.614917 0.937979 0.041410
#
# Coordination Sequence:
#
# PCOD9096462 Si02
#       8
#     2   2   2   2   2   2   2   2
#     4  11  22  38  60  84 112 144 181 232 286 327
#     4  10  20  36  60  81 108 151 190 221 265 336
#     4  11  22  34  54  84 119 147 176 228 282 326
#     4   9  21  39  58  81 110 144 187 232 267 326
#     4  11  23  38  56  82 112 148 190 226 270 329
#     4   9  18  38  62  78 105 147 185 227 276 323
#     4  10  20  36  55  83 114 140 182 235 279 323
#     4   9  19  36  58  82 111 148 187 222 269 330
#
# _framework density 21.914467999999999
#
# number of rings (size 3 to 8) (size 9 to 14) (size 15 to 20)
#    0.000    2.000    0.000    5.625    0.000    6.000 
#    0.000    7.500    0.000    0.000    0.000    0.000 
#    0.000    0.000    0.000    0.000    0.000    0.000 
#
# Total GULP energy -89363.208015 kJ/mol
# GULP energy per Si atom -5585.200501 kJ/mol
# Density = 2.186459 g / cm^3
# Si number density = 21.914468 Si / 1000 Ang^3
#
#
#
# Elastic Constant Matrix: (Units=GPa)
#
#
# Indices 1 2 3 4 5 6 
#
# 1 97.1894 -8.2853 24.0103 -6.7674 6.5309 7.7929
# 2 -8.2853 61.1023 16.0272 -13.3681 -8.6310 19.1694
# 3 24.0103 16.0272 73.6765 -2.8991 9.3359 8.7095
# 4 -6.7674 -13.3681 -2.8991 25.1976 4.5473 4.5584
# 5 6.5309 -8.6310 9.3359 4.5473 22.4709 -7.8475
# 6 7.7929 19.1694 8.7095 4.5584 -7.8475 33.2443
#
#
#
# Elastic Compliance Matrix: (Units=1/GPa)
#
#
# Indices 1 2 3 4 5 6 
#
# 1 0.013453 0.006856 -0.003976 0.009093 -0.004379 -0.008346
# 2 0.006856 0.029508 -0.005596 0.020316 0.000644 -0.019790
# 3 -0.003976 -0.005596 0.017576 0.000133 -0.009247 -0.002647
# 4 0.009093 0.020316 0.000133 0.060559 -0.016236 -0.026017
# 5 -0.004379 0.000644 -0.009247 -0.016236 0.059944 0.019454
# 6 -0.008346 -0.019790 -0.002647 -0.026017 0.019454 0.052301
#
#
# Mechanical properties :
#
#
# Convention : Reuss Voigt Hill
#
# Bulk Modulus (GPa) = 18.14747 32.83028 25.48888
# Shear Modulus (GPa) = 19.44464 29.53027 24.48745
#
# Velocity S-wave (km/s) = 2.98198 3.67485 3.34640
# Velocity P-wave (km/s) = 4.48947 5.74627 5.15630
#
# Compressibility (1/GPa) = 0.05510411
#
# Stress axis : x y z
#
# Youngs Moduli (GPa) = 74.33520 33.88924 56.89606
#
# Poissons Ratio (x) = -0.23235 0.22623
# Poissons Ratio (y) = -0.50966 0.31840
# Poissons Ratio (z) = 0.29557 0.18965
#
# Static dielectric constant tensor:
#      x y z
#    x 1.903500 0.008860 0.011680 
#    y 0.008860 1.837480 -0.006200 
#    z 0.011680 -0.006200 1.793480 
# 
# From -- ./inp_files/307734.got.cif
#   From: 2010.05.17/outbox.cif.g08.bks.cpg/sg2_154_cif.got.tgz:307734.got - 2010.06.03 11:33:40.
