data_PCOD9096900
_publ_section_title
;
Structure prediction by ZEFSAII (Michael W. Deem and Ramdas Pophale) SiO2 
 PCOD9096900
Probable space group: P -1
;
_chemical_formula_sum "Si O2"
_cell_formula_units_Z 14
_cell_length_a 10.987465
_cell_length_b 27.157687
_cell_length_c 10.985787
_cell_angle_alpha 31.595793
_cell_angle_beta 38.782774
_cell_angle_gamma 23.421998
_cell_volume 682.661559
_symmetry_space_group_name_H-M "P -1"
_symmetry_group_IT_number 2
_symmetry_cell_setting 'triclinic'
loop_
_space_group_symop_operation_xyz
x,y,z
-x,-y,-z
loop_
_atom_site_type_symbol
_atom_site_label
_atom_site_fract_x
_atom_site_fract_y
_atom_site_fract_z
Si Si1 0.493848 0.449195 0.307097
Si Si2 0.304011 0.699555 0.782207
Si Si3 0.580149 0.203575 0.321575
Si Si4 0.889032 0.424703 0.425851
Si Si5 0.295227 0.030413 0.419767
Si Si6 0.055611 0.140138 0.629585
Si Si7 0.728374 0.271413 0.838816
O O1 0.504246 0.382100 0.319121
O O2 0.233963 0.519000 0.458841
O O3 0.822281 0.311260 0.408338
O O4 0.435296 0.575819 0.036855
O O5 0.312241 0.798648 0.627466
O O6 0.953834 0.807980 0.788638
O O7 0.645965 0.073793 0.501875
O O8 0.212870 0.348965 0.305469
O O9 0.738132 0.208408 0.085620
O O10 0.895176 0.309974 0.639595
O O11 0.623462 0.569736 0.246398
O O12 0.618305 0.951596 0.376246
O O13 0.132595 0.059630 0.612251
O O14 0.867032 0.167395 0.831515
#
# Coordination Sequence:
#
# PCOD9096900 Si02
#       7
#     2   2   2   2   2   2   2
#     4   9  19  39  62  82 113 154 196 239 282 334
#     4  10  21  37  58  86 119 153 190 235 287 345
#     4  12  22  34  58  88 119 152 187 234 291 350
#     4  10  20  36  58  87 117 149 193 242 284 332
#     4  10  21  37  58  86 119 153 190 235 287 345
#     4   9  19  39  62  82 113 154 196 239 282 334
#     4  10  20  36  58  87 117 149 193 242 284 332
#
# _framework density 20.507966
#
# number of rings (size 3 to 8) (size 9 to 14) (size 15 to 20)
#    0.000    2.000    2.857    0.857    0.000    2.286 
#    0.000    4.286    0.000    0.000    0.000    0.000 
#    0.000    0.000    0.000    0.000    0.000    0.000 
#
# Total GULP energy -78020.495081 kJ/mol
# GULP energy per Si atom -5572.892506 kJ/mol
# Density = 2.046129 g / cm^3
# Si number density = 20.507966 Si / 1000 Ang^3
#
#
#
# Elastic Constant Matrix: (Units=GPa)
#
#
# Indices 1 2 3 4 5 6 
#
# 1 70.9499 22.8691 6.4093 -8.3511 5.9521 7.0394
# 2 22.8691 92.8660 4.5487 -6.2717 4.7200 5.3814
# 3 6.4093 4.5487 27.4184 -5.0877 11.3020 -4.7883
# 4 -8.3511 -6.2717 -5.0877 17.8560 1.6986 3.2622
# 5 5.9521 4.7200 11.3020 1.6986 14.8197 -2.3942
# 6 7.0394 5.3814 -4.7883 3.2622 -2.3942 39.1318
#
#
#
# Elastic Compliance Matrix: (Units=1/GPa)
#
#
# Indices 1 2 3 4 5 6 
#
# 1 0.017064 -0.003031 0.000780 0.008595 -0.008077 -0.003768
# 2 -0.003031 0.012011 0.000686 0.003643 -0.003801 -0.001559
# 3 0.000780 0.000686 0.061005 0.022239 -0.049223 0.002364
# 4 0.008595 0.003643 0.022239 0.071905 -0.030980 -0.007216
# 5 -0.008077 -0.003801 -0.049223 -0.030980 0.113912 0.005505
# 6 -0.003768 -0.001559 0.002364 -0.007216 0.005505 0.027675
#
#
# Mechanical properties :
#
#
# Convention : Reuss Voigt Hill
#
# Bulk Modulus (GPa) = 11.50071 28.76538 20.13304
# Shear Modulus (GPa) = 14.89499 24.85532 19.87516
#
# Velocity S-wave (km/s) = 2.69792 3.48513 3.11648
# Velocity P-wave (km/s) = 3.91474 5.50016 4.77373
#
# Compressibility (1/GPa) = 0.08695112
#
# Stress axis : x y z
#
# Youngs Moduli (GPa) = 58.60249 83.26035 16.39207
#
# Poissons Ratio (x) = 0.25237 -0.01279
# Poissons Ratio (y) = 0.17763 -0.01125
# Poissons Ratio (z) = -0.04573 -0.05716
#
# Static dielectric constant tensor:
#      x y z
#    x 1.764810 0.032300 -0.003850 
#    y 0.032300 1.734930 -0.036820 
#    z -0.003850 -0.036820 1.734350 
# 
# From -- ./inp_files/83391.got.cif
#   From: 2010.05.17/outbox.cif.g08.bks.cpg/sg2_42_cif.got.tgz:83391.got - 2010.06.03 11:33:40.
