data_PCOD9096579
_publ_section_title
;
Structure prediction by ZEFSAII (Michael W. Deem and Ramdas Pophale) SiO2 
 PCOD9096579
Probable space group: P -1
;
_chemical_formula_sum "Si O2"
_cell_formula_units_Z 13
_cell_length_a 8.656489
_cell_length_b 6.728224
_cell_length_c 15.309870
_cell_angle_alpha 58.464744
_cell_angle_beta 49.038300
_cell_angle_gamma 53.829263
_cell_volume 529.851511
_symmetry_space_group_name_H-M "P -1"
_symmetry_group_IT_number 2
_symmetry_cell_setting 'triclinic'
loop_
_space_group_symop_operation_xyz
x,y,z
-x,-y,-z
loop_
_atom_site_type_symbol
_atom_site_label
_atom_site_fract_x
_atom_site_fract_y
_atom_site_fract_z
Si Si1 0.500000 0.500000 0.000000
Si Si2 0.651382 0.957053 0.822431
Si Si3 0.968205 0.358491 0.130630
Si Si4 0.375140 0.908704 0.493891
Si Si5 0.244717 0.433071 0.667281
Si Si6 0.468162 0.525709 0.801018
Si Si7 0.131126 0.300229 0.375875
O O1 0.510300 0.784031 0.921367
O O2 0.434024 0.508327 0.920010
O O3 0.792199 0.864418 0.703067
O O4 0.822341 0.878842 0.858946
O O5 0.515081 0.252648 0.805218
O O6 0.904499 0.544240 0.196985
O O7 0.758887 0.287466 0.200755
O O8 0.000000 0.500000 0.000000
O O9 0.330642 0.661122 0.592052
O O10 0.546084 0.821158 0.368669
O O11 0.500000 0.000000 0.500000
O O12 0.149210 0.121383 0.492438
O O13 0.099182 0.491040 0.618870
O O14 0.686008 0.585287 0.695973
#
# Coordination Sequence:
#
# PCOD9096579 Si02
#       7
#     1   2   2   2   2   2   2
#     4  10  20  36  56  86 120 166 212 252 306 374
#     4  10  22  41  62  88 131 168 212 266 315 380
#     4  11  22  40  67  95 127 173 216 258 321 388
#     4  11  23  43  70  95 129 169 216 273 323 386
#     4  10  24  43  65  98 132 167 218 269 325 380
#     4  11  22  39  61  88 131 170 214 260 320 377
#     4  10  23  40  65  95 127 166 215 267 323 390
#
# _framework density 24.535174999999999
#
# number of rings (size 3 to 8) (size 9 to 14) (size 15 to 20)
#    0.000    1.538    1.538    2.769    0.000    5.538 
#    0.000    6.154    0.000    0.000    0.000    0.000 
#    0.000    0.000    0.000    0.000    0.000    0.000 
#
# Total GULP energy -72464.761050 kJ/mol
# GULP energy per Si atom -5574.212388 kJ/mol
# Density = 2.447933 g / cm^3
# Si number density = 24.535175 Si / 1000 Ang^3
#
#
#
# Elastic Constant Matrix: (Units=GPa)
#
#
# Indices 1 2 3 4 5 6 
#
# 1 96.8091 42.5293 10.7515 -11.9408 -6.9737 6.7026
# 2 42.5293 49.2146 14.7898 -8.4393 -3.0998 6.9534
# 3 10.7515 14.7898 63.7261 -2.0251 10.5718 10.0854
# 4 -11.9408 -8.4393 -2.0251 31.8446 11.0996 -4.4530
# 5 -6.9737 -3.0998 10.5718 11.0996 42.0080 -6.5384
# 6 6.7026 6.9534 10.0854 -4.4530 -6.5384 40.4580
#
#
#
# Elastic Compliance Matrix: (Units=1/GPa)
#
#
# Indices 1 2 3 4 5 6 
#
# 1 0.016911 -0.014271 0.000353 0.002202 0.001081 -0.000020
# 2 -0.014271 0.035123 -0.005416 0.003191 0.000447 -0.001899
# 3 0.000353 -0.005416 0.018681 0.001373 -0.006125 -0.004623
# 4 0.002202 0.003191 0.001373 0.036548 -0.009202 0.001280
# 5 0.001081 0.000447 -0.006125 -0.009202 0.028754 0.004905
# 6 -0.000020 -0.001899 -0.004623 0.001280 0.004905 0.027133
#
#
# Mechanical properties :
#
#
# Convention : Reuss Voigt Hill
#
# Bulk Modulus (GPa) = 31.20501 38.43235 34.81868
# Shear Modulus (GPa) = 23.52949 32.30738 27.91844
#
# Velocity S-wave (km/s) = 3.10015 3.63268 3.37693
# Velocity P-wave (km/s) = 5.05575 5.77004 5.42467
#
# Compressibility (1/GPa) = 0.03204613
#
# Stress axis : x y z
#
# Youngs Moduli (GPa) = 59.13410 28.47136 53.53043
#
# Poissons Ratio (x) = 0.40632 -0.01889
# Poissons Ratio (y) = 0.84391 0.28992
# Poissons Ratio (z) = -0.02087 0.15420
#
# Static dielectric constant tensor:
#      x y z
#    x 1.936540 -0.029850 -0.018050 
#    y -0.029850 1.903900 0.019730 
#    z -0.018050 0.019730 2.022160 
# 
# From -- ./inp_files/36450.got.cif
#   From: 2010.05.17/outbox.cif.g08.bks.cpg/sg2_19_cif.got.tgz:36450.got - 2010.06.03 11:33:40.
