data_PCOD9096506
_publ_section_title
;
Structure prediction by ZEFSAII (Michael W. Deem and Ramdas Pophale) SiO2 
 PCOD9096506
Probable space group: P -1
;
_chemical_formula_sum "Si O2"
_cell_formula_units_Z 16
_cell_length_a 14.265111
_cell_length_b 10.129758
_cell_length_c 14.200815
_cell_angle_alpha 96.801798
_cell_angle_beta 32.193745
_cell_angle_gamma 75.407392
_cell_volume 810.112129
_symmetry_space_group_name_H-M "P -1"
_symmetry_group_IT_number 2
_symmetry_cell_setting 'triclinic'
loop_
_space_group_symop_operation_xyz
x,y,z
-x,-y,-z
loop_
_atom_site_type_symbol
_atom_site_label
_atom_site_fract_x
_atom_site_fract_y
_atom_site_fract_z
Si Si1 0.823495 0.213178 0.159129
Si Si2 0.664010 0.488967 0.479442
Si Si3 0.963744 0.182087 0.669247
Si Si4 0.385003 0.853139 0.054518
Si Si5 0.823312 0.491586 0.705376
Si Si6 0.478818 0.979912 0.174078
Si Si7 0.874595 0.602120 0.872775
Si Si8 0.761162 0.404044 0.050263
O O1 0.797652 0.321290 0.280926
O O2 0.545353 0.324181 0.380425
O O3 0.892772 0.269285 0.015073
O O4 0.000000 0.000000 0.000000
O O5 0.858190 0.484827 0.358666
O O6 0.513516 0.481059 0.682285
O O7 0.875939 0.075893 0.720471
O O8 0.898186 0.302487 0.642315
O O9 0.830791 0.295203 0.886174
O O10 0.236893 0.079420 0.443226
O O11 0.433795 0.916493 0.111335
O O12 0.567553 0.639172 0.890557
O O13 0.458273 0.905562 0.907649
O O14 0.827499 0.546140 0.812033
O O15 0.000000 0.500000 0.500000
O O16 0.695719 0.814294 0.034853
O O17 0.819504 0.528753 0.997348
#
# Coordination Sequence:
#
# PCOD9096506 Si02
#       8
#     2   2   2   2   2   2   2   2
#     4   9  20  43  67  94 120 152 199 242 304 378
#     4   9  21  43  65  86 127 156 189 253 303 366
#     4  11  21  36  59  86 115 159 208 252 297 364
#     4  10  21  37  54  79 116 164 207 252 309 342
#     4  10  20  36  56  78 120 155 203 254 291 353
#     4  10  22  37  52  85 120 154 209 260 290 360
#     4  10  22  39  58  84 120 163 193 246 314 343
#     4   9  22  38  60  89 122 150 199 248 298 366
#
# _framework density 19.750353
#
# number of rings (size 3 to 8) (size 9 to 14) (size 15 to 20)
#    0.750    1.500    1.250    0.750    1.750    3.500 
#    4.500    0.625    0.000    0.000    0.000    0.000 
#    0.000    0.000    0.000    0.000    0.000    0.000 
#
# Total GULP energy -89116.520777 kJ/mol
# GULP energy per Si atom -5569.782549 kJ/mol
# Density = 1.970540 g / cm^3
# Si number density = 19.750353 Si / 1000 Ang^3
#
#
#
# Elastic Constant Matrix: (Units=GPa)
#
#
# Indices 1 2 3 4 5 6 
#
# 1 -20.2509 -44.6445 3.0443 28.8339 28.7289 -8.8861
# 2 -44.6445 -3.8081 18.3449 38.0562 23.3851 -17.6827
# 3 3.0443 18.3449 87.6921 -3.3042 8.6521 -7.0461
# 4 28.8339 38.0562 -3.3042 23.2751 -14.4083 -1.3352
# 5 28.7289 23.3851 8.6521 -14.4083 17.6045 -6.6126
# 6 -8.8861 -17.6827 -7.0461 -1.3352 -6.6126 18.5939
#
#
#
# Elastic Compliance Matrix: (Units=1/GPa)
#
#
# Indices 1 2 3 4 5 6 
#
# 1 0.017194 -0.019122 0.003002 0.011793 0.002909 -0.006949
# 2 -0.019122 0.018570 -0.003627 0.003606 0.016219 0.013175
# 3 0.003002 -0.003627 0.012690 0.000763 -0.005336 0.000952
# 4 0.011793 0.003606 0.000763 0.020648 -0.003972 0.009425
# 5 0.002909 0.016219 -0.005336 -0.003972 0.040780 0.029010
# 6 -0.006949 0.013175 0.000952 0.009425 0.029010 0.074344
#
#
# Mechanical properties :
#
#
# Convention : Reuss Voigt Hill
#
# Bulk Modulus (GPa) = 111.58973 1.90251 56.74612
# Shear Modulus (GPa) = 22.05501 17.68726 19.87113
#
# Velocity S-wave (km/s) = 3.34532 2.99581 3.17537
# Velocity P-wave (km/s) = 8.45839 3.59609 6.49908
#
# Compressibility (1/GPa) = 0.00896140
#
# Stress axis : x y z
#
# Youngs Moduli (GPa) = 58.16068 53.84896 78.80374
#
# Poissons Ratio (x) = 1.02969 -0.23660
# Poissons Ratio (y) = 1.11214 0.28581
# Poissons Ratio (z) = -0.17462 0.19530
#
# Static dielectric constant tensor:
#      x y z
#    x 1.697450 -0.004660 0.005420 
#    y -0.004660 1.685240 0.056000 
#    z 0.005420 0.056000 1.711880 
# 
# From -- ./inp_files/575405.got.cif
#   From: 2010.05.17/outbox.cif.g08.bks.cpg/sg2_288_cif.got.tgz:575405.got - 2010.06.03 11:33:40.
