data_PCOD9096551
_publ_section_title
;
Structure prediction by ZEFSAII (Michael W. Deem and Ramdas Pophale) SiO2 
 PCOD9096551
Probable space group: P -1
;
_chemical_formula_sum "Si O2"
_cell_formula_units_Z 16
_cell_length_a 11.279983
_cell_length_b 28.367083
_cell_length_c 14.601316
_cell_angle_alpha 157.790232
_cell_angle_beta 30.901205
_cell_angle_gamma 149.988571
_cell_volume 843.152342
_symmetry_space_group_name_H-M "P -1"
_symmetry_group_IT_number 2
_symmetry_cell_setting 'triclinic'
loop_
_space_group_symop_operation_xyz
x,y,z
-x,-y,-z
loop_
_atom_site_type_symbol
_atom_site_label
_atom_site_fract_x
_atom_site_fract_y
_atom_site_fract_z
Si Si1 0.271492 0.043937 0.852164
Si Si2 0.725352 0.546762 0.009084
Si Si3 0.962196 0.394997 0.256354
Si Si4 0.361968 0.095327 0.675272
Si Si5 0.519629 0.838976 0.892206
Si Si6 0.383545 0.295200 0.866930
Si Si7 0.288143 0.054301 0.372890
Si Si8 0.870088 0.852596 0.530606
O O1 0.306505 0.105082 0.836831
O O2 0.378262 0.924098 0.551791
O O3 0.443007 0.146422 0.998095
O O4 0.000000 0.000000 0.000000
O O5 0.609788 0.438018 0.969173
O O6 0.944625 0.539800 0.787119
O O7 0.500000 0.500000 0.000000
O O8 0.811318 0.700409 0.262338
O O9 0.681775 0.298830 0.257034
O O10 0.000000 0.500000 0.500000
O O11 0.134395 0.313003 0.026765
O O12 0.345204 0.218589 0.850426
O O13 0.152438 0.956182 0.527889
O O14 0.771622 0.855651 0.703025
O O15 0.416532 0.951737 0.129699
O O16 0.429882 0.193108 0.580830
O O17 0.277960 0.086280 0.330621
O O18 0.000000 0.000000 0.500000
#
# Coordination Sequence:
#
# PCOD9096551 Si02
#       8
#     2   2   2   2   2   2   2   2
#     4  11  23  42  62  93 121 164 218 264 308 362
#     4  10  20  36  56  83 127 166 195 235 311 387
#     4  11  22  38  60  93 130 166 202 248 315 390
#     4  11  23  41  67  89 125 164 208 272 311 353
#     4  12  22  36  62  93 123 161 211 261 308 373
#     4  11  21  38  60  91 129 163 199 251 321 375
#     4  12  19  34  57  91 128 154 196 256 321 378
#     4  12  21  37  61  92 124 166 198 250 323 382
#
# _framework density 18.976403999999999
#
# number of rings (size 3 to 8) (size 9 to 14) (size 15 to 20)
#    0.000    0.750    7.500    2.625    0.000    0.000 
#    2.250    0.000    0.000    9.750    0.000    0.000 
#    0.000    0.000    0.000    0.000    0.000    0.000 
#
# Total GULP energy -89251.015758 kJ/mol
# GULP energy per Si atom -5578.188485 kJ/mol
# Density = 1.893321 g / cm^3
# Si number density = 18.976404 Si / 1000 Ang^3
#
#
#
# Elastic Constant Matrix: (Units=GPa)
#
#
# Indices 1 2 3 4 5 6 
#
# 1 100.9538 37.2631 26.9428 5.9374 22.5631 -20.7418
# 2 37.2631 105.5366 42.5830 5.3422 -5.3013 -10.0497
# 3 26.9428 42.5830 73.8844 2.4372 22.3646 2.9048
# 4 5.9374 5.3422 2.4372 37.4870 1.4946 4.3426
# 5 22.5631 -5.3013 22.3646 1.4946 26.8383 -6.3053
# 6 -20.7418 -10.0497 2.9048 4.3426 -6.3053 26.9068
#
#
#
# Elastic Compliance Matrix: (Units=1/GPa)
#
#
# Indices 1 2 3 4 5 6 
#
# 1 0.016917 -0.007108 0.002616 -0.001962 -0.016137 0.006639
# 2 -0.007108 0.023390 -0.020752 -0.003657 0.031242 0.013409
# 3 0.002616 -0.020752 0.038337 0.004177 -0.043341 -0.020704
# 4 -0.001962 -0.003657 0.004177 0.028583 -0.006362 -0.009433
# 5 -0.016137 0.031242 -0.043341 -0.006362 0.100142 0.028402
# 6 0.006639 0.013409 -0.020704 -0.009433 0.028402 0.057705
#
#
# Mechanical properties :
#
#
# Convention : Reuss Voigt Hill
#
# Bulk Modulus (GPa) = 35.51732 54.88362 45.20047
# Shear Modulus (GPa) = 15.38720 29.81881 22.60300
#
# Velocity S-wave (km/s) = 2.85065 3.96834 3.45499
# Velocity P-wave (km/s) = 5.43986 7.06978 6.30769
#
# Compressibility (1/GPa) = 0.02815528
#
# Stress axis : x y z
#
# Youngs Moduli (GPa) = 59.11241 42.75405 26.08466
#
# Poissons Ratio (x) = 0.30388 -0.06823
# Poissons Ratio (y) = 0.42014 0.54131
# Poissons Ratio (z) = -0.15462 0.88724
#
# Static dielectric constant tensor:
#      x y z
#    x 1.687470 0.012980 -0.004000 
#    y 0.012980 1.762300 -0.015400 
#    z -0.004000 -0.015400 1.672620 
# 
# From -- ./inp_files/458393.got.cif
#   From: 2010.05.17/outbox.cif.g08.bks.cpg/sg2_230_cif.got.tgz:458393.got - 2010.06.03 11:33:40.
