data_PCOD9096843
_publ_section_title
;
Structure prediction by ZEFSAII (Michael W. Deem and Ramdas Pophale) SiO2 
 PCOD9096843
Probable space group: P -1
;
_chemical_formula_sum "Si O2"
_cell_formula_units_Z 11
_cell_length_a 8.238277
_cell_length_b 11.564505
_cell_length_c 9.263727
_cell_angle_alpha 52.417282
_cell_angle_beta 134.985663
_cell_angle_gamma 109.410955
_cell_volume 486.934874
_symmetry_space_group_name_H-M "P -1"
_symmetry_group_IT_number 2
_symmetry_cell_setting 'triclinic'
loop_
_space_group_symop_operation_xyz
x,y,z
-x,-y,-z
loop_
_atom_site_type_symbol
_atom_site_label
_atom_site_fract_x
_atom_site_fract_y
_atom_site_fract_z
Si Si1 0.794273 0.815584 0.990962
Si Si2 0.295505 0.881107 0.147404
Si Si3 0.268339 0.574103 0.881495
Si Si4 0.135873 0.845756 0.762878
Si Si5 0.000000 0.500000 0.500000
Si Si6 0.292513 0.292799 0.284826
O O1 0.663875 0.790567 0.778969
O O2 0.676813 0.957464 0.900102
O O3 0.047094 0.849323 0.072576
O O4 0.856016 0.663327 0.233156
O O5 0.494004 0.759387 0.435176
O O6 0.286317 0.871975 0.976446
O O7 0.275800 0.739449 0.812449
O O8 0.059807 0.569269 0.642974
O O9 0.500000 0.500000 0.000000
O O10 0.257992 0.465662 0.093178
O O11 0.936451 0.754866 0.757930
O O12 0.000000 0.000000 0.500000
#
# Coordination Sequence:
#
# PCOD9096843 Si02
#       6
#     2   2   2   2   1   2
#     4   9  19  35  58  90 120 155 199 243 293 356
#     4  10  20  37  60  85 121 158 195 246 300 350
#     4  11  24  41  63  90 120 159 203 244 296 360
#     4  11  25  41  60  91 124 155 200 251 298 354
#     4  10  20  36  58  84 118 154 194 244 290 344
#     4  10  22  39  62  87 119 159 200 243 298 356
#
# _framework density 22.590288999999999
#
# number of rings (size 3 to 8) (size 9 to 14) (size 15 to 20)
#    0.000    1.818    0.000    3.273    0.000    8.727 
#    0.000    0.000    0.000    0.000    0.000    0.000 
#    0.000    0.000    0.000    0.000    0.000    0.000 
#
# Total GULP energy -61294.057934 kJ/mol
# GULP energy per Si atom -5572.187085 kJ/mol
# Density = 2.253887 g / cm^3
# Si number density = 22.590289 Si / 1000 Ang^3
#
#
#
# Elastic Constant Matrix: (Units=GPa)
#
#
# Indices 1 2 3 4 5 6 
#
# 1 62.8285 11.6514 19.3448 -14.0223 -1.9361 -9.9775
# 2 11.6514 133.2809 81.5709 -10.6499 2.6036 -31.5206
# 3 19.3448 81.5709 185.5955 16.1409 -27.7095 -26.0891
# 4 -14.0223 -10.6499 16.1409 43.7729 2.7954 -2.8299
# 5 -1.9361 2.6036 -27.7095 2.7954 12.2761 -6.5360
# 6 -9.9775 -31.5206 -26.0891 -2.8299 -6.5360 37.0808
#
#
#
# Elastic Compliance Matrix: (Units=1/GPa)
#
#
# Indices 1 2 3 4 5 6 
#
# 1 0.019406 0.003557 -0.005756 0.010125 -0.011417 0.002956
# 2 0.003557 0.020216 -0.018608 0.015990 -0.050797 -0.002684
# 3 -0.005756 -0.018608 0.033242 -0.023313 0.094509 0.020901
# 4 0.010125 0.015990 -0.023313 0.042391 -0.068854 -0.008987
# 5 -0.011417 -0.050797 0.094509 -0.068854 0.361323 0.078675
# 6 0.002956 -0.002684 0.020901 -0.008987 0.078675 0.053370
#
#
# Mechanical properties :
#
#
# Convention : Reuss Voigt Hill
#
# Bulk Modulus (GPa) = 31.99826 67.42657 49.71241
# Shear Modulus (GPa) = 8.59139 36.56848 22.57994
#
# Velocity S-wave (km/s) = 1.95228 4.02776 3.16498
# Velocity P-wave (km/s) = 4.39058 7.17933 5.95063
#
# Compressibility (1/GPa) = 0.03125170
#
# Stress axis : x y z
#
# Youngs Moduli (GPa) = 51.53003 49.46684 30.08232
#
# Poissons Ratio (x) = -0.17598 0.17315
# Poissons Ratio (y) = -0.18331 0.55976
# Poissons Ratio (z) = 0.29660 0.92046
#
# Static dielectric constant tensor:
#      x y z
#    x 1.901830 0.016120 0.003610 
#    y 0.016120 1.883250 -0.002490 
#    z 0.003610 -0.002490 1.755900 
# 
# From -- ./inp_files/17764.got.cif
#   From: 2010.05.17/outbox.cif.g08.bks.cpg/sg2_9_cif.got.tgz:17764.got - 2010.06.03 11:33:40.
