data_PCOD9096080
_publ_section_title
;
Structure prediction by ZEFSAII (Michael W. Deem and Ramdas Pophale) SiO2 
 PCOD9096080
Probable space group: P -1
;
_chemical_formula_sum "Si O2"
_cell_formula_units_Z 16
_cell_length_a 19.049870
_cell_length_b 16.756231
_cell_length_c 8.401880
_cell_angle_alpha 31.499002
_cell_angle_beta 142.322227
_cell_angle_gamma 148.714365
_cell_volume 707.922307
_symmetry_space_group_name_H-M "P -1"
_symmetry_group_IT_number 2
_symmetry_cell_setting 'triclinic'
loop_
_space_group_symop_operation_xyz
x,y,z
-x,-y,-z
loop_
_atom_site_type_symbol
_atom_site_label
_atom_site_fract_x
_atom_site_fract_y
_atom_site_fract_z
Si Si1 0.437065 0.888912 0.237883
Si Si2 0.802942 0.542009 0.442515
Si Si3 0.812863 0.719166 0.819597
Si Si4 0.909713 0.201809 0.883729
Si Si5 0.412613 0.087012 0.243540
Si Si6 0.046557 0.540876 0.772199
Si Si7 0.718340 0.506189 0.674527
Si Si8 0.418320 0.216227 0.733165
O O1 0.310504 0.677150 0.376462
O O2 0.554122 0.888713 0.551699
O O3 0.500000 0.000000 0.000000
O O4 0.390298 0.015752 0.010583
O O5 0.771092 0.619902 0.410007
O O6 0.955483 0.579220 0.658104
O O7 0.791054 0.608407 0.133012
O O8 0.759037 0.605552 0.749842
O O9 0.719910 0.798759 0.532723
O O10 0.978752 0.847353 0.870145
O O11 0.750987 0.037191 0.869095
O O12 0.927871 0.338282 0.543336
O O13 0.955603 0.327027 0.912540
O O14 0.500000 0.000000 0.500000
O O15 0.462817 0.262935 0.921110
O O16 0.195544 0.589047 0.009745
O O17 0.552866 0.361793 0.625306
#
# Coordination Sequence:
#
# PCOD9096080 Si02
#       8
#     2   2   2   2   2   2   2   2
#     4  11  22  39  59  94 120 154 202 260 303 354
#     4  11  22  39  63  90 124 161 201 256 313 353
#     4  10  24  42  61  91 127 164 205 248 306 375
#     4   9  18  34  59  88 121 159 203 252 303 361
#     4  10  20  35  62  86 115 160 202 249 306 353
#     4   9  17  33  58  90 118 153 203 260 301 355
#     4  11  21  37  61  91 122 158 208 254 302 361
#     4  11  22  40  62  89 126 161 205 250 305 370
#
# _framework density 22.60135
#
# number of rings (size 3 to 8) (size 9 to 14) (size 15 to 20)
#    0.000    1.750    1.250    5.250    0.000    1.000 
#    2.250    0.000    0.000    0.750    0.000    0.000 
#    0.000    0.000    0.000    0.000    0.000    0.000 
#
# Total GULP energy -89191.079186 kJ/mol
# GULP energy per Si atom -5574.442449 kJ/mol
# Density = 2.254991 g / cm^3
# Si number density = 22.601350 Si / 1000 Ang^3
#
#
#
# Elastic Constant Matrix: (Units=GPa)
#
#
# Indices 1 2 3 4 5 6 
#
# 1 108.6951 37.1435 63.7722 10.8171 -16.7496 31.0018
# 2 37.1435 63.5059 18.1296 23.2940 12.0514 22.9199
# 3 63.7722 18.1296 98.9274 19.0918 7.2108 5.2991
# 4 10.8171 23.2940 19.0918 27.0182 14.2575 2.6822
# 5 -16.7496 12.0514 7.2108 14.2575 42.1192 9.6613
# 6 31.0018 22.9199 5.2991 2.6822 9.6613 30.7741
#
#
#
# Elastic Compliance Matrix: (Units=1/GPa)
#
#
# Indices 1 2 3 4 5 6 
#
# 1 0.057954 -0.005867 -0.033801 -0.014272 0.049691 -0.062549
# 2 -0.005867 0.035757 0.003966 -0.030085 0.001346 -0.019204
# 3 -0.033801 0.003966 0.031541 -0.001076 -0.027501 0.034394
# 4 -0.014272 -0.030085 -0.001076 0.083594 -0.034471 0.040506
# 5 0.049691 0.001346 -0.027501 -0.034471 0.074819 -0.066810
# 6 -0.062549 -0.019204 0.034394 0.040506 -0.066810 0.121331
#
#
# Mechanical properties :
#
#
# Convention : Reuss Voigt Hill
#
# Bulk Modulus (GPa) = 18.57111 56.57988 37.57549
# Shear Modulus (GPa) = 10.11430 30.12115 20.11773
#
# Velocity S-wave (km/s) = 2.11774 3.65460 2.98671
# Velocity P-wave (km/s) = 3.77020 6.54953 5.34372
#
# Compressibility (1/GPa) = 0.05384709
#
# Stress axis : x y z
#
# Youngs Moduli (GPa) = 17.25509 27.96693 31.70477
#
# Poissons Ratio (x) = 0.16408 1.07166
# Poissons Ratio (y) = 0.10123 -0.12574
# Poissons Ratio (z) = 0.58324 -0.11091
#
# Static dielectric constant tensor:
#      x y z
#    x 2.091330 -0.080070 -0.101720 
#    y -0.080070 1.889060 0.026540 
#    z -0.101720 0.026540 1.865920 
# 
# From -- ./inp_files/349664.got.cif
#   From: 2010.05.17/outbox.cif.g08.bks.cpg/sg2_175_cif.got.tgz:349664.got - 2010.06.03 11:33:40.
