data_PCOD9096183
_publ_section_title
;
Structure prediction by ZEFSAII (Michael W. Deem and Ramdas Pophale) SiO2 
 PCOD9096183
Probable space group: P -1
;
_chemical_formula_sum "Si O2"
_cell_formula_units_Z 10
_cell_length_a 7.643297
_cell_length_b 14.921883
_cell_length_c 15.108425
_cell_angle_alpha 160.956035
_cell_angle_beta 115.116677
_cell_angle_gamma 53.877361
_cell_volume 392.313218
_symmetry_space_group_name_H-M "P -1"
_symmetry_group_IT_number 2
_symmetry_cell_setting 'triclinic'
loop_
_space_group_symop_operation_xyz
x,y,z
-x,-y,-z
loop_
_atom_site_type_symbol
_atom_site_label
_atom_site_fract_x
_atom_site_fract_y
_atom_site_fract_z
Si Si1 0.859800 0.177476 0.323757
Si Si2 0.769905 0.925469 0.346578
Si Si3 0.186505 0.204978 0.193685
Si Si4 0.932779 0.876454 0.510368
Si Si5 0.622449 0.927058 0.141665
O O1 0.771360 0.563896 0.642440
O O2 0.087072 0.996206 0.275037
O O3 0.649226 0.191702 0.343863
O O4 0.905329 0.959871 0.041551
O O5 0.564897 0.006755 0.308385
O O6 0.711272 0.036241 0.540449
O O7 0.883777 0.085664 0.470048
O O8 0.000000 0.500000 0.000000
O O9 0.000000 0.500000 0.500000
O O10 0.422956 0.928119 0.048060
O O11 0.099423 0.452447 0.159103
#
# Coordination Sequence:
#
# PCOD9096183 Si02
#       5
#     2   2   2   2   2
#     4  11  22  39  60  83 113 151 196 236 275 336
#     4   8  16  30  53  91 115 138 177 244 285 326
#     4  12  26  39  55  83 121 156 188 232 287 335
#     4   9  17  32  58  90 111 140 189 240 282 324
#     4  10  20  35  63  85 115 148 193 234 276 338
#
# _framework density 25.489839
#
# number of rings (size 3 to 8) (size 9 to 14) (size 15 to 20)
#    0.000    2.000    2.000    1.800    5.600    0.000 
#    0.000    0.000    0.000    2.400    0.000    0.000 
#    0.000    0.000    0.000    0.000    0.000    0.000 
#
# Total GULP energy -55777.609919 kJ/mol
# GULP energy per Si atom -5577.760992 kJ/mol
# Density = 2.543182 g / cm^3
# Si number density = 25.489839 Si / 1000 Ang^3
#
#
#
# Elastic Constant Matrix: (Units=GPa)
#
#
# Indices 1 2 3 4 5 6 
#
# 1 22.3105 22.2489 4.9268 -2.4434 8.3097 -5.1533
# 2 22.2489 238.7988 45.9516 -75.4046 -14.3031 33.1494
# 3 4.9268 45.9516 94.7620 -26.2789 24.2616 -6.1067
# 4 -2.4434 -75.4046 -26.2789 60.8957 14.4793 5.4589
# 5 8.3097 -14.3031 24.2616 14.4793 36.5982 5.5302
# 6 -5.1533 33.1494 -6.1067 5.4589 5.5302 -9.5740
#
#
#
# Elastic Compliance Matrix: (Units=1/GPa)
#
#
# Indices 1 2 3 4 5 6 
#
# 1 0.043034 0.000647 0.000148 0.006709 -0.008896 -0.022329
# 2 0.000647 0.003503 0.001057 0.004478 -0.003048 0.011901
# 3 0.000148 0.001057 0.016750 0.012733 -0.014518 -0.008231
# 4 0.006709 0.004478 0.012733 0.032218 -0.022355 0.009230
# 5 -0.008896 -0.003048 -0.014518 -0.022355 0.044164 0.016259
# 6 -0.022329 0.011901 -0.008231 0.009230 0.016259 -0.031321
#
#
# Mechanical properties :
#
#
# Convention : Reuss Voigt Hill
#
# Bulk Modulus (GPa) = 14.92720 55.79176 35.35948
# Shear Modulus (GPa) = 39.37753 36.43358 37.90556
#
# Velocity S-wave (km/s) = 3.93470 3.78476 3.86046
# Velocity P-wave (km/s) = 5.14892 6.40582 5.81145
#
# Compressibility (1/GPa) = 0.06699181
#
# Stress axis : x y z
#
# Youngs Moduli (GPa) = 23.23734 285.43552 59.70070
#
# Poissons Ratio (x) = -0.18481 -0.00883
# Poissons Ratio (y) = -0.01505 -0.06308
# Poissons Ratio (z) = -0.00344 -0.30159
#
# Static dielectric constant tensor:
#      x y z
#    x 2.074040 0.018840 -0.010850 
#    y 0.018840 2.213180 -0.054210 
#    z -0.010850 -0.054210 2.112850 
# 
# From -- ./inp_files/15804.got.cif
#   From: 2010.05.17/outbox.cif.g08.bks.cpg/sg2_8_cif.got.tgz:15804.got - 2010.06.03 11:33:40.
