data_PCOD9096181
_publ_section_title
;
Structure prediction by ZEFSAII (Michael W. Deem and Ramdas Pophale) SiO2 
 PCOD9096181
Probable space group: P -1
;
_chemical_formula_sum "Si O2"
_cell_formula_units_Z 14
_cell_length_a 15.673535
_cell_length_b 7.082354
_cell_length_c 8.413014
_cell_angle_alpha 56.839161
_cell_angle_beta 122.230590
_cell_angle_gamma 85.855234
_cell_volume 567.270982
_symmetry_space_group_name_H-M "P -1"
_symmetry_group_IT_number 2
_symmetry_cell_setting 'triclinic'
loop_
_space_group_symop_operation_xyz
x,y,z
-x,-y,-z
loop_
_atom_site_type_symbol
_atom_site_label
_atom_site_fract_x
_atom_site_fract_y
_atom_site_fract_z
Si Si1 0.530116 0.263466 0.516774
Si Si2 0.312348 0.508848 0.027183
Si Si3 0.915518 0.438478 0.095766
Si Si4 0.889291 0.979275 0.939967
Si Si5 0.256781 0.020287 0.927765
Si Si6 0.323309 0.729585 0.622689
Si Si7 0.172050 0.250667 0.427072
O O1 0.500000 0.500000 0.500000
O O2 0.571286 0.323537 0.363137
O O3 0.643262 0.019571 0.827942
O O4 0.410368 0.272453 0.343537
O O5 0.180191 0.569398 0.885824
O O6 0.306771 0.760908 0.989125
O O7 0.344344 0.514856 0.873319
O O8 0.054188 0.226783 0.333519
O O9 0.911583 0.703947 0.020596
O O10 0.864895 0.499627 0.837504
O O11 0.779288 0.209502 0.631404
O O12 0.849674 0.970456 0.083989
O O13 0.000000 0.000000 0.000000
O O14 0.211994 0.248926 0.647469
O O15 0.272576 0.002126 0.544942
#
# Coordination Sequence:
#
# PCOD9096181 Si02
#       7
#     2   2   2   2   2   2   2
#     4   9  18  37  59  88 116 151 196 236 279 340
#     4  10  20  35  63  85 114 153 200 235 274 339
#     4  10  22  37  55  88 117 151 194 237 283 342
#     4  10  22  37  54  82 119 153 184 235 297 344
#     4   9  20  36  58  81 114 156 188 231 291 336
#     4   9  19  36  58  86 114 155 191 229 289 345
#     4   9  20  37  56  81 123 148 191 233 288 344
#
# _framework density 24.679563999999999
#
# number of rings (size 3 to 8) (size 9 to 14) (size 15 to 20)
#    0.000    2.571    0.000    0.429    8.000    1.714 
#    0.000    7.143    0.000    0.000    0.000    0.000 
#    0.000    0.000    0.000    0.000    0.000    0.000 
#
# Total GULP energy -78188.019383 kJ/mol
# GULP energy per Si atom -5584.858527 kJ/mol
# Density = 2.462339 g / cm^3
# Si number density = 24.679564 Si / 1000 Ang^3
#
#
#
# Elastic Constant Matrix: (Units=GPa)
#
#
# Indices 1 2 3 4 5 6 
#
# 1 134.3631 33.2829 54.0398 16.1481 -7.0055 -26.2597
# 2 33.2829 56.8265 26.0942 8.8194 -7.4736 -3.5065
# 3 54.0398 26.0942 80.6174 14.7474 -22.2505 -12.9303
# 4 16.1481 8.8194 14.7474 32.3417 -8.6484 -2.8843
# 5 -7.0055 -7.4736 -22.2505 -8.6484 42.3919 9.1596
# 6 -26.2597 -3.5065 -12.9303 -2.8843 9.1596 39.8465
#
#
#
# Elastic Compliance Matrix: (Units=1/GPa)
#
#
# Indices 1 2 3 4 5 6 
#
# 1 0.012480 -0.003968 -0.006694 -0.002612 -0.004078 0.006451
# 2 -0.003968 0.022177 -0.004217 -0.002054 0.001150 -0.002445
# 3 -0.006694 -0.004217 0.021158 -0.002839 0.008703 -0.000123
# 4 -0.002612 -0.002054 -0.002839 0.035350 0.005246 -0.001470
# 5 -0.004078 0.001150 0.008703 0.005246 0.030119 -0.006306
# 6 0.006451 -0.002445 -0.000123 -0.001470 -0.006306 0.030436
#
#
# Mechanical properties :
#
#
# Convention : Reuss Voigt Hill
#
# Bulk Modulus (GPa) = 38.37905 55.40454 46.89180
# Shear Modulus (GPa) = 26.29289 33.47536 29.88413
#
# Velocity S-wave (km/s) = 3.26754 3.68693 3.48355
# Velocity P-wave (km/s) = 5.46081 6.37361 5.93479
#
# Compressibility (1/GPa) = 0.02605588
#
# Stress axis : x y z
#
# Youngs Moduli (GPa) = 80.12863 45.09102 47.26290
#
# Poissons Ratio (x) = 0.17894 0.31638
# Poissons Ratio (y) = 0.31799 0.19933
# Poissons Ratio (z) = 0.53638 0.19017
#
# Static dielectric constant tensor:
#      x y z
#    x 1.964270 -0.031240 0.065190 
#    y -0.031240 2.024650 -0.047210 
#    z 0.065190 -0.047210 2.102570 
# 
# From -- ./inp_files/196454.got.cif
#   From: 2010.05.17/outbox.cif.g08.bks.cpg/sg2_99_cif.got.tgz:196454.got - 2010.06.03 11:33:40.
