data_PCOD9096052
_publ_section_title
;
Structure prediction by ZEFSAII (Michael W. Deem and Ramdas Pophale) SiO2 
 PCOD9096052
Probable space group: P -1
;
_chemical_formula_sum "Si O2"
_cell_formula_units_Z 16
_cell_length_a 7.591465
_cell_length_b 16.796167
_cell_length_c 6.814588
_cell_angle_alpha 118.315617
_cell_angle_beta 116.121295
_cell_angle_gamma 99.242840
_cell_volume 607.174678
_symmetry_space_group_name_H-M "P -1"
_symmetry_group_IT_number 2
_symmetry_cell_setting 'triclinic'
loop_
_space_group_symop_operation_xyz
x,y,z
-x,-y,-z
loop_
_atom_site_type_symbol
_atom_site_label
_atom_site_fract_x
_atom_site_fract_y
_atom_site_fract_z
Si Si1 0.806224 0.924932 0.961929
Si Si2 0.113277 0.777460 0.489176
Si Si3 0.894561 0.610743 0.685783
Si Si4 0.662564 0.413085 0.076390
Si Si5 0.704633 0.809222 0.399400
Si Si6 0.502921 0.099569 0.900782
Si Si7 0.831948 0.547550 0.993178
Si Si8 0.891094 0.161478 0.881816
O O1 0.659464 0.835793 0.628972
O O2 0.671130 0.964178 0.083860
O O3 0.940658 0.884344 0.117504
O O4 0.000000 0.000000 0.000000
O O5 0.322866 0.810263 0.770238
O O6 0.953425 0.825456 0.528248
O O7 0.174689 0.811943 0.331583
O O8 0.752018 0.513915 0.369763
O O9 0.771669 0.579816 0.797896
O O10 0.134229 0.614334 0.842228
O O11 0.963343 0.728092 0.813115
O O12 0.446329 0.307779 0.879268
O O13 0.636818 0.456773 0.905817
O O14 0.640253 0.874206 0.293153
O O15 0.970034 0.655245 0.293911
O O16 0.679492 0.087897 0.826871
O O17 0.000000 0.500000 0.000000
#
# Coordination Sequence:
#
# PCOD9096052 Si02
#       8
#     2   2   2   2   2   2   2   2
#     4  12  30  52  78 112 143 186 251 315 379 454
#     4  11  24  46  73 110 150 199 248 297 368 435
#     4   9  19  36  62  99 148 190 241 288 350 425
#     4  10  20  35  62 101 144 195 241 290 349 421
#     4  12  26  46  74 110 147 197 252 303 373 438
#     4  12  25  48  82 102 150 191 236 315 373 435
#     4   9  20  34  59  97 149 192 240 292 338 422
#     4  11  22  49  75 108 147 196 242 298 369 446
#
# _framework density 26.351561
#
# number of rings (size 3 to 8) (size 9 to 14) (size 15 to 20)
#    0.000    1.250    3.750    1.500    7.000    1.500 
#    0.000    2.500    0.000    0.000    0.000    0.000 
#    0.000    0.000    0.000    0.000    0.000    0.000 
#
# Total GULP energy -89422.409583 kJ/mol
# GULP energy per Si atom -5588.900599 kJ/mol
# Density = 2.629158 g / cm^3
# Si number density = 26.351561 Si / 1000 Ang^3
#
#
#
# Elastic Constant Matrix: (Units=GPa)
#
#
# Indices 1 2 3 4 5 6 
#
# 1 123.1270 14.9636 19.1364 0.4866 -1.8387 -11.7087
# 2 14.9636 44.9983 30.4024 -11.5963 2.4920 -2.9958
# 3 19.1364 30.4024 87.7667 4.8036 -5.2977 -5.1932
# 4 0.4866 -11.5963 4.8036 34.5733 3.2918 3.0165
# 5 -1.8387 2.4920 -5.2977 3.2918 27.6342 -12.1954
# 6 -11.7087 -2.9958 -5.1932 3.0165 -12.1954 43.5184
#
#
#
# Elastic Compliance Matrix: (Units=1/GPa)
#
#
# Indices 1 2 3 4 5 6 
#
# 1 0.008866 -0.002882 -0.000556 -0.001467 0.002167 0.002829
# 2 -0.002882 0.036757 -0.013749 0.015512 -0.009602 -0.003652
# 3 -0.000556 -0.013749 0.017346 -0.007987 0.007022 0.003495
# 4 -0.001467 0.015512 -0.007987 0.036684 -0.009863 -0.005587
# 5 0.002167 -0.009602 0.007022 -0.009863 0.046050 0.014349
# 6 0.002829 -0.003652 0.003495 -0.005587 0.014349 0.028314
#
#
# Mechanical properties :
#
#
# Convention : Reuss Voigt Hill
#
# Bulk Modulus (GPa) = 34.97266 42.76634 38.86950
# Shear Modulus (GPa) = 22.94399 33.90448 28.42424
#
# Velocity S-wave (km/s) = 2.95394 3.59084 3.28785
# Velocity P-wave (km/s) = 4.99347 5.78417 5.40330
#
# Compressibility (1/GPa) = 0.02859376
#
# Stress axis : x y z
#
# Youngs Moduli (GPa) = 112.79526 27.20577 57.65180
#
# Poissons Ratio (x) = 0.07841 0.03206
# Poissons Ratio (y) = 0.32510 0.79264
# Poissons Ratio (z) = 0.06273 0.37405
#
# Static dielectric constant tensor:
#      x y z
#    x 2.168680 0.049900 -0.021100 
#    y 0.049900 2.045740 -0.016570 
#    z -0.021100 -0.016570 2.081530 
# 
# From -- ./inp_files/215644.got.cif
#   From: 2010.05.17/outbox.cif.g08.bks.cpg/sg2_108_cif.got.tgz:215644.got - 2010.06.03 11:33:40.
