data_PCOD9096129
_publ_section_title
;
Structure prediction by ZEFSAII (Michael W. Deem and Ramdas Pophale) SiO2 
 PCOD9096129
Probable space group: P -1
;
_chemical_formula_sum "Si O2"
_cell_formula_units_Z 16
_cell_length_a 8.661140
_cell_length_b 11.081547
_cell_length_c 14.761247
_cell_angle_alpha 29.815600
_cell_angle_beta 68.101601
_cell_angle_gamma 73.185263
_cell_volume 651.793488
_symmetry_space_group_name_H-M "P -1"
_symmetry_group_IT_number 2
_symmetry_cell_setting 'triclinic'
loop_
_space_group_symop_operation_xyz
x,y,z
-x,-y,-z
loop_
_atom_site_type_symbol
_atom_site_label
_atom_site_fract_x
_atom_site_fract_y
_atom_site_fract_z
Si Si1 0.852165 0.179010 0.637267
Si Si2 0.229095 0.977225 0.057774
Si Si3 0.317590 0.395541 0.142568
Si Si4 0.613733 0.435865 0.802242
Si Si5 0.762113 0.909352 0.362925
Si Si6 0.270570 0.592881 0.851696
Si Si7 0.147996 0.260370 0.729317
Si Si8 0.823383 0.109793 0.481438
O O1 0.762027 0.010461 0.843842
O O2 0.837927 0.459399 0.485357
O O3 0.793264 0.167346 0.554868
O O4 0.044231 0.114831 0.637941
O O5 0.364103 0.807878 0.098096
O O6 0.047921 0.829947 0.173921
O O7 0.219778 0.214132 0.843392
O O8 0.271429 0.544813 0.144239
O O9 0.310457 0.118499 0.358934
O O10 0.500000 0.500000 0.000000
O O11 0.204716 0.416971 0.063077
O O12 0.664226 0.667631 0.578477
O O13 0.433068 0.479909 0.850598
O O14 0.759143 0.896285 0.263195
O O15 0.705959 0.150548 0.265448
O O16 0.179134 0.668526 0.731725
O O17 0.000000 0.000000 0.500000
#
# Coordination Sequence:
#
# PCOD9096129 Si02
#       8
#     2   2   2   2   2   2   2   2
#     4  11  21  39  60  87 131 163 210 266 317 379
#     4  10  20  36  60  93 125 163 214 267 314 377
#     4  10  24  41  64  96 128 167 216 265 318 389
#     4  11  19  38  65  92 129 162 214 268 320 382
#     4  11  18  37  62  94 125 162 213 267 323 373
#     4  11  24  39  63  93 129 173 209 267 324 382
#     4  10  20  35  62  91 122 165 212 268 320 368
#     4  12  25  44  64  94 134 175 214 267 323 385
#
# _framework density 24.547651999999999
#
# number of rings (size 3 to 8) (size 9 to 14) (size 15 to 20)
#    0.000    1.250    5.000    1.875    1.750    1.500 
#    0.000    0.625    0.000    3.750    0.000    0.000 
#    0.000    0.000    0.000    0.000    0.000    0.000 
#
# Total GULP energy -89440.071886 kJ/mol
# GULP energy per Si atom -5590.004493 kJ/mol
# Density = 2.449178 g / cm^3
# Si number density = 24.547652 Si / 1000 Ang^3
#
#
#
# Elastic Constant Matrix: (Units=GPa)
#
#
# Indices 1 2 3 4 5 6 
#
# 1 27.7738 33.4321 21.7175 8.4797 8.7201 -7.3183
# 2 33.4321 128.3846 29.5985 16.7430 11.6229 -1.6110
# 3 21.7175 29.5985 109.8299 19.9245 21.5985 -5.9658
# 4 8.4797 16.7430 19.9245 43.5350 11.6090 10.2130
# 5 8.7201 11.6229 21.5985 11.6090 45.3360 6.7269
# 6 -7.3183 -1.6110 -5.9658 10.2130 6.7269 31.4805
#
#
#
# Elastic Compliance Matrix: (Units=1/GPa)
#
#
# Indices 1 2 3 4 5 6 
#
# 1 0.066657 -0.014248 -0.005676 -0.007087 -0.007252 0.017540
# 2 -0.014248 0.011643 -0.000379 -0.001086 0.000595 -0.002563
# 3 -0.005676 -0.000379 0.011981 -0.003885 -0.003975 0.003042
# 4 -0.007087 -0.001086 -0.003885 0.029926 -0.002445 -0.011625
# 5 -0.007252 0.000595 -0.003975 -0.002445 0.026913 -0.007366
# 6 0.017540 -0.002563 0.003042 -0.011625 -0.007366 0.041634
#
#
# Mechanical properties :
#
#
# Convention : Reuss Voigt Hill
#
# Bulk Modulus (GPa) = 20.13173 48.38717 34.25945
# Shear Modulus (GPa) = 20.33188 36.15298 28.24243
#
# Velocity S-wave (km/s) = 2.88108 3.84183 3.39560
# Velocity P-wave (km/s) = 4.39162 6.27964 5.41850
#
# Compressibility (1/GPa) = 0.04967282
#
# Stress axis : x y z
#
# Youngs Moduli (GPa) = 15.00218 85.89188 83.46203
#
# Poissons Ratio (x) = 1.22383 0.47375
# Poissons Ratio (y) = 0.21376 0.03166
# Poissons Ratio (z) = 0.08516 0.03258
#
# Static dielectric constant tensor:
#      x y z
#    x 2.070120 0.085980 0.048030 
#    y 0.085980 1.958230 0.027280 
#    z 0.048030 0.027280 1.944430 
# 
# From -- ./inp_files/464502.got.cif
#   From: 2010.05.17/outbox.cif.g08.bks.cpg/sg2_233_cif.got.tgz:464502.got - 2010.06.03 11:33:40.
