data_PCOD9096084
_publ_section_title
;
Structure prediction by ZEFSAII (Michael W. Deem and Ramdas Pophale) SiO2 
 PCOD9096084
Probable space group: P -1
;
_chemical_formula_sum "Si O2"
_cell_formula_units_Z 16
_cell_length_a 9.341713
_cell_length_b 27.532888
_cell_length_c 12.446289
_cell_angle_alpha 153.281001
_cell_angle_beta 37.555898
_cell_angle_gamma 150.443917
_cell_volume 708.187072
_symmetry_space_group_name_H-M "P -1"
_symmetry_group_IT_number 2
_symmetry_cell_setting 'triclinic'
loop_
_space_group_symop_operation_xyz
x,y,z
-x,-y,-z
loop_
_atom_site_type_symbol
_atom_site_label
_atom_site_fract_x
_atom_site_fract_y
_atom_site_fract_z
Si Si1 0.113064 0.389218 0.634359
Si Si2 0.374143 0.679115 0.042618
Si Si3 0.364328 0.203618 0.340245
Si Si4 0.604304 0.264099 0.541180
Si Si5 0.437925 0.252164 0.161280
Si Si6 0.283431 0.967187 0.661654
Si Si7 0.487704 0.001497 0.847318
Si Si8 0.124619 0.147118 0.762219
O O1 0.358794 0.546587 0.812510
O O2 0.239369 0.304909 0.374686
O O3 0.921371 0.372742 0.613254
O O4 0.886494 0.339903 0.770632
O O5 0.348864 0.690499 0.953501
O O6 0.686020 0.807113 0.151881
O O7 0.528167 0.282467 0.505119
O O8 0.542855 0.277415 0.271668
O O9 0.318955 0.062212 0.101879
O O10 0.039083 0.159632 0.427469
O O11 0.360788 0.247789 0.733250
O O12 0.572381 0.124662 0.301719
O O13 0.273056 0.093371 0.935533
O O14 0.409660 0.958873 0.684111
O O15 0.500000 0.000000 0.500000
O O16 0.824447 0.128509 0.912629
O O17 0.000000 0.000000 0.500000
#
# Coordination Sequence:
#
# PCOD9096084 Si02
#       8
#     2   2   2   2   2   2   2   2
#     4  10  22  44  68  93 123 168 225 259 315 374
#     4  10  23  41  71  95 123 168 216 269 310 382
#     4  11  23  37  55  95 128 167 207 260 323 377
#     4  10  20  35  62  86 125 166 210 261 306 374
#     4  11  24  39  64  93 129 170 211 263 321 378
#     4  11  24  37  60  92 135 170 210 259 326 387
#     4  10  20  36  56  90 124 166 208 257 319 380
#     4   9  20  35  61  94 121 154 210 258 319 370
#
# _framework density 22.5929
#
# number of rings (size 3 to 8) (size 9 to 14) (size 15 to 20)
#    0.000    1.750    0.000    4.500   12.250    0.000 
#    0.000    0.625    2.750    2.250    0.000    0.000 
#    0.000    0.000    0.000    0.000    0.000    0.000 
#
# Total GULP energy -89359.269984 kJ/mol
# GULP energy per Si atom -5584.954374 kJ/mol
# Density = 2.254148 g / cm^3
# Si number density = 22.592900 Si / 1000 Ang^3
#
#
#
# Elastic Constant Matrix: (Units=GPa)
#
#
# Indices 1 2 3 4 5 6 
#
# 1 127.3492 34.0167 29.6310 -5.7047 26.9667 -14.9419
# 2 34.0167 38.8724 18.5361 8.0505 5.7695 -2.0836
# 3 29.6310 18.5361 73.8686 1.1539 -0.4309 -0.6497
# 4 -5.7047 8.0505 1.1539 25.7618 -7.8926 7.8357
# 5 26.9667 5.7695 -0.4309 -7.8926 39.3161 -13.4966
# 6 -14.9419 -2.0836 -0.6497 7.8357 -13.4966 31.1570
#
#
#
# Elastic Compliance Matrix: (Units=1/GPa)
#
#
# Indices 1 2 3 4 5 6 
#
# 1 0.012686 -0.009511 -0.002774 0.003490 -0.005975 0.001924
# 2 -0.009511 0.040568 -0.006128 -0.015493 -0.002288 0.000929
# 3 -0.002774 -0.006128 0.016176 0.001683 0.003160 -0.000457
# 4 0.003490 -0.015493 0.001683 0.049084 0.006749 -0.008748
# 5 -0.005975 -0.002288 0.003160 0.006749 0.034843 0.010444
# 6 0.001924 0.000929 -0.000457 -0.008748 0.010444 0.039795
#
#
# Mechanical properties :
#
#
# Convention : Reuss Voigt Hill
#
# Bulk Modulus (GPa) = 30.67167 44.93975 37.80571
# Shear Modulus (GPa) = 20.76006 29.77407 25.26707
#
# Velocity S-wave (km/s) = 3.03458 3.63416 3.34782
# Velocity P-wave (km/s) = 5.08759 6.12730 5.63149
#
# Compressibility (1/GPa) = 0.03260338
#
# Stress axis : x y z
#
# Youngs Moduli (GPa) = 78.82889 24.64997 61.81881
#
# Poissons Ratio (x) = 0.23444 0.17151
# Poissons Ratio (y) = 0.74974 0.37882
# Poissons Ratio (z) = 0.21871 0.15105
#
# Static dielectric constant tensor:
#      x y z
#    x 1.861300 -0.004250 0.005620 
#    y -0.004250 1.864020 -0.029810 
#    z 0.005620 -0.029810 1.910740 
# 
# From -- ./inp_files/284788.got.cif
#   From: 2010.05.17/outbox.cif.g08.bks.cpg/sg2_143_cif.got.tgz:284788.got - 2010.06.03 11:33:40.
