data_PCOD9096854
_publ_section_title
;
Structure prediction by ZEFSAII (Michael W. Deem and Ramdas Pophale) SiO2 
 PCOD9096854
Probable space group: P -1
;
_chemical_formula_sum "Si O2"
_cell_formula_units_Z 14
_cell_length_a 23.096242
_cell_length_b 6.896160
_cell_length_c 8.385860
_cell_angle_alpha 56.107003
_cell_angle_beta 40.244594
_cell_angle_gamma 39.275225
_cell_volume 544.453268
_symmetry_space_group_name_H-M "P -1"
_symmetry_group_IT_number 2
_symmetry_cell_setting 'triclinic'
loop_
_space_group_symop_operation_xyz
x,y,z
-x,-y,-z
loop_
_atom_site_type_symbol
_atom_site_label
_atom_site_fract_x
_atom_site_fract_y
_atom_site_fract_z
Si Si1 0.375977 0.480826 0.693884
Si Si2 0.159835 0.819610 0.196791
Si Si3 0.868398 0.651763 0.650611
Si Si4 0.515286 0.281875 0.812021
Si Si5 0.316489 0.358315 0.337053
Si Si6 0.003447 0.523391 0.169019
Si Si7 0.240476 0.321559 0.854815
O O1 0.462684 0.281801 0.750735
O O2 0.444784 0.528565 0.404103
O O3 0.320836 0.369397 0.758034
O O4 0.264113 0.770861 0.897547
O O5 0.138069 0.615697 0.241406
O O6 0.203714 0.660503 0.350290
O O7 0.055018 0.178120 0.261324
O O8 0.000000 0.500000 0.500000
O O9 0.876156 0.766214 0.410273
O O10 0.771828 0.858482 0.896837
O O11 0.630312 0.930666 0.759345
O O12 0.417885 0.386789 0.100606
O O13 0.291271 0.270660 0.594362
O O14 0.098906 0.558593 0.002668
O O15 0.000000 0.500000 0.000000
#
# Coordination Sequence:
#
# PCOD9096854 Si02
#       7
#     2   2   2   2   2   2   2
#     4   9  19  37  58  83 115 149 186 233 279 327
#     4  10  20  38  59  80 113 151 190 230 279 341
#     4   9  20  38  56  83 114 143 186 237 283 330
#     4   9  19  37  60  82 112 152 191 227 276 340
#     4  10  20  36  58  85 113 150 189 226 279 339
#     4  11  22  39  61  81 109 152 195 232 281 337
#     4  10  21  37  57  86 117 146 186 236 283 329
#
# _framework density 25.713868000000002
#
# number of rings (size 3 to 8) (size 9 to 14) (size 15 to 20)
#    0.000    2.286    0.000    2.143    0.000    1.143 
#    0.000   24.286    0.000    0.000    0.000    0.000 
#    0.000    0.000    0.000    0.000    0.000    0.000 
#
# Total GULP energy -77934.559906 kJ/mol
# GULP energy per Si atom -5566.754279 kJ/mol
# Density = 2.565534 g / cm^3
# Si number density = 25.713868 Si / 1000 Ang^3
#
#
#
# Elastic Constant Matrix: (Units=GPa)
#
#
# Indices 1 2 3 4 5 6 
#
# 1 112.6994 7.3010 41.6552 -6.5470 -19.5906 -4.2149
# 2 7.3010 60.0255 17.2460 -6.0941 2.1467 -8.0000
# 3 41.6552 17.2460 246.0739 14.2742 -0.1990 -5.7450
# 4 -6.5470 -6.0941 14.2742 26.5700 4.3142 -4.6409
# 5 -19.5906 2.1467 -0.1990 4.3142 48.5062 2.2871
# 6 -4.2149 -8.0000 -5.7450 -4.6409 2.2871 12.5469
#
#
#
# Elastic Compliance Matrix: (Units=1/GPa)
#
#
# Indices 1 2 3 4 5 6 
#
# 1 0.010574 -0.000076 -0.001912 0.003568 0.003795 0.003256
# 2 -0.000076 0.020165 -0.001532 0.008575 -0.002435 0.015746
# 3 -0.001912 -0.001532 0.004676 -0.003395 -0.000352 -0.000670
# 4 0.003568 0.008575 -0.003395 0.047062 -0.004236 0.023291
# 5 0.003795 -0.002435 -0.000352 -0.004236 0.022923 -0.006184
# 6 0.003256 0.015746 -0.000670 0.023291 -0.006184 0.100270
#
#
# Mechanical properties :
#
#
# Convention : Reuss Voigt Hill
#
# Bulk Modulus (GPa) = 35.24451 61.24480 48.24466
# Shear Modulus (GPa) = 22.50535 41.03106 31.76820
#
# Velocity S-wave (km/s) = 2.96162 3.99893 3.51871
# Velocity P-wave (km/s) = 5.04293 6.72246 5.94233
#
# Compressibility (1/GPa) = 0.02837321
#
# Stress axis : x y z
#
# Youngs Moduli (GPa) = 94.57420 49.59027 213.86130
#
# Poissons Ratio (x) = 0.00378 0.40900
# Poissons Ratio (y) = 0.00721 0.32767
# Poissons Ratio (z) = 0.18087 0.07598
#
# Static dielectric constant tensor:
#      x y z
#    x 2.203430 0.028470 0.121420 
#    y 0.028470 2.165770 0.061250 
#    z 0.121420 0.061250 2.221280 
# 
# From -- ./inp_files/351332.got.cif
#   From: 2010.05.17/outbox.cif.g08.bks.cpg/sg2_176_cif.got.tgz:351332.got - 2010.06.03 11:33:40.
