data_PCOD9096839
_publ_section_title
;
Structure prediction by ZEFSAII (Michael W. Deem and Ramdas Pophale) SiO2 
 PCOD9096839
Probable space group: P -1
;
_chemical_formula_sum "Si O2"
_cell_formula_units_Z 16
_cell_length_a 8.480506
_cell_length_b 20.044614
_cell_length_c 12.426937
_cell_angle_alpha 23.897430
_cell_angle_beta 103.354217
_cell_angle_gamma 114.060932
_cell_volume 721.713476
_symmetry_space_group_name_H-M "P -1"
_symmetry_group_IT_number 2
_symmetry_cell_setting 'triclinic'
loop_
_space_group_symop_operation_xyz
x,y,z
-x,-y,-z
loop_
_atom_site_type_symbol
_atom_site_label
_atom_site_fract_x
_atom_site_fract_y
_atom_site_fract_z
Si Si1 0.535430 0.825526 0.245347
Si Si2 0.396520 0.776470 0.786480
Si Si3 0.828010 0.533505 0.614430
Si Si4 0.296092 0.220349 0.874000
Si Si5 0.147644 0.469247 0.771810
Si Si6 0.904262 0.834752 0.364895
Si Si7 0.028878 0.728593 0.751804
Si Si8 0.245770 0.161101 0.197032
O O1 0.574080 0.800231 0.163689
O O2 0.354311 0.637998 0.534817
O O3 0.719174 0.850441 0.298794
O O4 0.500000 0.000000 0.000000
O O5 0.219995 0.725996 0.756370
O O6 0.574994 0.752938 0.821596
O O7 0.500000 0.000000 0.500000
O O8 0.296443 0.650667 0.061258
O O9 0.715808 0.590101 0.430060
O O10 0.906256 0.706819 0.456295
O O11 0.998387 0.513118 0.626970
O O12 0.332310 0.199010 0.034715
O O13 0.088185 0.039897 0.089347
O O14 0.137985 0.276966 0.014910
O O15 0.089929 0.432109 0.943270
O O16 0.914934 0.734199 0.623862
O O17 0.111175 0.935785 0.516682
#
# Coordination Sequence:
#
# PCOD9096839 Si02
#       8
#     2   2   2   2   2   2   2   2
#     4  11  22  38  59  86 116 144 185 237 280 330
#     4   9  19  36  55  77 109 149 191 227 269 326
#     4  10  20  36  58  84 115 150 185 229 280 336
#     4  10  21  38  61  83 112 150 187 229 281 337
#     4  11  22  35  56  84 118 150 185 232 278 328
#     4  10  20  39  62  83 112 149 188 228 281 338
#     4   9  21  39  59  82 111 150 187 230 282 334
#     4  10  20  38  60  84 112 147 190 233 277 329
#
# _framework density 22.169463
#
# number of rings (size 3 to 8) (size 9 to 14) (size 15 to 20)
#    0.000    2.000    0.000    4.875    0.000    5.000 
#    0.000   13.750    0.000    0.000    0.000    0.000 
#    0.000    0.000    0.000    0.000    0.000    0.000 
#
# Total GULP energy -89377.920409 kJ/mol
# GULP energy per Si atom -5586.120026 kJ/mol
# Density = 2.211900 g / cm^3
# Si number density = 22.169463 Si / 1000 Ang^3
#
#
#
# Elastic Constant Matrix: (Units=GPa)
#
#
# Indices 1 2 3 4 5 6 
#
# 1 123.6571 27.6182 23.1944 -5.8561 30.1433 10.5250
# 2 27.6182 61.8632 7.7943 10.1012 3.2862 5.9417
# 3 23.1944 7.7943 103.7148 10.1858 9.3909 -1.5324
# 4 -5.8561 10.1012 10.1858 28.6754 -0.8809 -5.3428
# 5 30.1433 3.2862 9.3909 -0.8809 35.6724 5.0676
# 6 10.5250 5.9417 -1.5324 -5.3428 5.0676 17.3779
#
#
#
# Elastic Compliance Matrix: (Units=1/GPa)
#
#
# Indices 1 2 3 4 5 6 
#
# 1 0.012168 -0.005263 -0.001981 0.004437 -0.008913 -0.001782
# 2 -0.005263 0.020664 0.000162 -0.009771 0.003375 -0.007852
# 3 -0.001981 0.000162 0.010616 -0.004043 -0.001413 0.001249
# 4 0.004437 -0.009771 -0.004043 0.043256 -0.002762 0.014401
# 5 -0.008913 0.003375 -0.001413 -0.002762 0.036610 -0.007405
# 6 -0.001782 -0.007852 0.001249 0.014401 -0.007405 0.068006
#
#
# Mechanical properties :
#
#
# Convention : Reuss Voigt Hill
#
# Bulk Modulus (GPa) = 34.14652 45.16099 39.65376
# Shear Modulus (GPa) = 23.22945 31.72033 27.47489
#
# Velocity S-wave (km/s) = 3.24051 3.78671 3.52421
# Velocity P-wave (km/s) = 5.42560 6.28760 5.87244
#
# Compressibility (1/GPa) = 0.02928556
#
# Stress axis : x y z
#
# Youngs Moduli (GPa) = 82.18042 48.39331 94.19636
#
# Poissons Ratio (x) = 0.25468 0.18658
# Poissons Ratio (y) = 0.43249 -0.01526
# Poissons Ratio (z) = 0.16278 -0.00784
#
# Static dielectric constant tensor:
#      x y z
#    x 1.898900 -0.021780 -0.000110 
#    y -0.021780 1.949520 0.053120 
#    z -0.000110 0.053120 1.842680 
# 
# From -- ./inp_files/508567.got.cif
#   From: 2010.05.17/outbox.cif.g08.bks.cpg/sg2_255_cif.got.tgz:508567.got - 2010.06.03 11:33:40.
