data_PCOD9096576
_publ_section_title
;
Structure prediction by ZEFSAII (Michael W. Deem and Ramdas Pophale) SiO2 
 PCOD9096576
Probable space group: P -1
;
_chemical_formula_sum "Si O2"
_cell_formula_units_Z 16
_cell_length_a 10.257434
_cell_length_b 7.710673
_cell_length_c 15.402451
_cell_angle_alpha 118.413233
_cell_angle_beta 109.990038
_cell_angle_gamma 44.429066
_cell_volume 750.045068
_symmetry_space_group_name_H-M "P -1"
_symmetry_group_IT_number 2
_symmetry_cell_setting 'triclinic'
loop_
_space_group_symop_operation_xyz
x,y,z
-x,-y,-z
loop_
_atom_site_type_symbol
_atom_site_label
_atom_site_fract_x
_atom_site_fract_y
_atom_site_fract_z
Si Si1 0.700987 0.133616 0.434525
Si Si2 0.408328 0.427052 0.585659
Si Si3 0.140766 0.386655 0.583074
Si Si4 0.249632 0.346569 0.945600
Si Si5 0.675512 0.502566 0.235740
Si Si6 0.817943 0.729681 0.893431
Si Si7 0.779013 0.207795 0.014891
Si Si8 0.492945 0.053526 0.236740
O O1 0.591104 0.264270 0.530815
O O2 0.742035 0.301931 0.438551
O O3 0.852636 0.825302 0.415569
O O4 0.561545 0.158664 0.341127
O O5 0.330439 0.282340 0.553159
O O6 0.422737 0.498188 0.703181
O O7 0.140592 0.560661 0.697216
O O8 0.000000 0.500000 0.500000
O O9 0.238015 0.298883 0.031617
O O10 0.301444 0.529346 0.992893
O O11 0.384768 0.084409 0.856179
O O12 0.042308 0.522322 0.897666
O O13 0.731623 0.300596 0.125724
O O14 0.545663 0.800106 0.238973
O O15 0.730654 0.031950 0.938335
O O16 0.718401 0.716978 0.787873
O O17 0.000000 0.000000 0.000000
#
# Coordination Sequence:
#
# PCOD9096576 Si02
#       8
#     2   2   2   2   2   2   2   2
#     4  10  20  38  58  80 116 145 187 235 278 338
#     4   9  20  38  58  79 111 152 180 235 282 334
#     4   9  19  36  59  85 109 146 182 231 286 335
#     4   9  20  36  52  80 112 141 193 226 274 332
#     4   8  19  35  53  83 107 144 186 221 278 335
#     4  10  20  36  58  77 111 152 181 231 279 325
#     4   9  18  36  54  76 114 146 178 229 275 326
#     4  10  20  36  56  86 108 148 186 229 282 329
#
# _framework density 21.332052000000001
#
# number of rings (size 3 to 8) (size 9 to 14) (size 15 to 20)
#    0.750    2.000    0.000    0.750    1.750    2.500 
#   11.250    0.000   13.750    0.000    0.000    0.000 
#    0.000    0.000    0.000    0.000    0.000    0.000 
#
# Total GULP energy -89077.314913 kJ/mol
# GULP energy per Si atom -5567.332182 kJ/mol
# Density = 2.128350 g / cm^3
# Si number density = 21.332052 Si / 1000 Ang^3
#
#
#
# Elastic Constant Matrix: (Units=GPa)
#
#
# Indices 1 2 3 4 5 6 
#
# 1 32.9295 10.4813 13.2710 -4.5584 -13.1105 6.6076
# 2 10.4813 36.8040 9.2536 -11.0023 11.5648 -2.0322
# 3 13.2710 9.2536 69.8393 -14.0613 3.4974 -9.4169
# 4 -4.5584 -11.0023 -14.0613 38.6812 -5.6452 2.8636
# 5 -13.1105 11.5648 3.4974 -5.6452 25.9173 -3.1998
# 6 6.6076 -2.0322 -9.4169 2.8636 -3.1998 21.9774
#
#
#
# Elastic Compliance Matrix: (Units=1/GPa)
#
#
# Indices 1 2 3 4 5 6 
#
# 1 0.072650 -0.033611 -0.014573 0.002988 0.051390 -0.024102
# 2 -0.033611 0.049597 0.004175 0.005465 -0.037229 0.010348
# 3 -0.014573 0.004175 0.019377 0.004298 -0.009541 0.011121
# 4 0.002988 0.005465 0.004298 0.030160 0.004843 -0.001776
# 5 0.051390 -0.037229 -0.009541 0.004843 0.082096 -0.011659
# 6 -0.024102 0.010348 0.011121 -0.001776 -0.011659 0.057004
#
#
# Mechanical properties :
#
#
# Convention : Reuss Voigt Hill
#
# Bulk Modulus (GPa) = 18.65500 22.84273 20.74887
# Shear Modulus (GPa) = 11.99702 24.41963 18.20833
#
# Velocity S-wave (km/s) = 2.37406 3.38707 2.92476
# Velocity P-wave (km/s) = 4.03471 5.10174 4.59927
#
# Compressibility (1/GPa) = 0.05360492
#
# Stress axis : x y z
#
# Youngs Moduli (GPa) = 13.76466 20.16268 51.60641
#
# Poissons Ratio (x) = 0.67769 0.75208
# Poissons Ratio (y) = 0.46265 -0.21547
# Poissons Ratio (z) = 0.20060 -0.08418
#
# Static dielectric constant tensor:
#      x y z
#    x 1.825230 0.056590 0.045810 
#    y 0.056590 1.975020 0.094010 
#    z 0.045810 0.094010 1.826260 
# 
# From -- ./inp_files/516119.got.cif
#   From: 2010.05.17/outbox.cif.g08.bks.cpg/sg2_259_cif.got.tgz:516119.got - 2010.06.03 11:33:40.
