data_PCOD9096367
_publ_section_title
;
Structure prediction by ZEFSAII (Michael W. Deem and Ramdas Pophale) SiO2 
 PCOD9096367
Probable space group: P -1
;
_chemical_formula_sum "Si O2"
_cell_formula_units_Z 14
_cell_length_a 7.303033
_cell_length_b 8.177200
_cell_length_c 11.897331
_cell_angle_alpha 119.818259
_cell_angle_beta 112.486316
_cell_angle_gamma 63.763371
_cell_volume 540.709359
_symmetry_space_group_name_H-M "P -1"
_symmetry_group_IT_number 2
_symmetry_cell_setting 'triclinic'
loop_
_space_group_symop_operation_xyz
x,y,z
-x,-y,-z
loop_
_atom_site_type_symbol
_atom_site_label
_atom_site_fract_x
_atom_site_fract_y
_atom_site_fract_z
Si Si1 0.164985 0.978943 0.257613
Si Si2 0.491073 0.087691 0.846316
Si Si3 0.929507 0.203337 0.475133
Si Si4 0.666125 0.350672 0.648968
Si Si5 0.887967 0.598735 0.257721
Si Si6 0.028346 0.309503 0.022852
Si Si7 0.489502 0.749951 0.862553
O O1 0.321260 0.036412 0.230769
O O2 0.319666 0.842970 0.342189
O O3 0.064843 0.843283 0.112547
O O4 0.991242 0.141768 0.341709
O O5 0.317874 0.249377 0.789720
O O6 0.383885 0.936645 0.823197
O O7 0.564358 0.206087 0.004298
O O8 0.074749 0.341790 0.587561
O O9 0.696284 0.310822 0.507825
O O10 0.000000 0.000000 0.500000
O O11 0.506122 0.541377 0.736710
O O12 0.898832 0.368754 0.729598
O O13 0.912968 0.384504 0.140017
O O14 0.273869 0.235858 0.075437
O O15 0.000000 0.500000 0.000000
#
# Coordination Sequence:
#
# PCOD9096367 Si02
#       7
#     2   2   2   2   2   2   2
#     4  11  19  30  55  88 100 125 183 225 242 298
#     4  11  22  30  49  85 114 129 160 226 273 294
#     4   8  16  32  56  81  93 132 185 216 236 302
#     4   8  16  35  58  68  94 144 182 196 240 317
#     4   9  17  33  54  77  99 142 169 205 261 313
#     4  11  16  34  59  74  94 145 183 205 244 315
#     4  10  20  36  50  75 109 145 163 206 273 310
#
# _framework density 25.891912000000001
#
# number of rings (size 3 to 8) (size 9 to 14) (size 15 to 20)
#    0.857    1.429    4.286    0.000    0.000    3.429 
#    0.000    0.714    0.000    3.429    3.714    0.000 
#    0.000    0.000    0.000    0.000    0.000    0.000 
#
# Total GULP energy -78031.838283 kJ/mol
# GULP energy per Si atom -5573.702734 kJ/mol
# Density = 2.583298 g / cm^3
# Si number density = 25.891912 Si / 1000 Ang^3
#
#
#
# Elastic Constant Matrix: (Units=GPa)
#
#
# Indices 1 2 3 4 5 6 
#
# 1 67.8947 15.9963 44.2712 -1.7935 -16.3086 -5.8010
# 2 15.9963 35.6299 27.5305 14.1417 -11.5416 -11.2439
# 3 44.2712 27.5305 189.3482 36.4836 -37.3155 -1.7956
# 4 -1.7935 14.1417 36.4836 34.9363 -4.6726 -8.9999
# 5 -16.3086 -11.5416 -37.3155 -4.6726 38.1790 11.7522
# 6 -5.8010 -11.2439 -1.7956 -8.9999 11.7522 20.0576
#
#
#
# Elastic Compliance Matrix: (Units=1/GPa)
#
#
# Indices 1 2 3 4 5 6 
#
# 1 0.021550 -0.007561 -0.006235 0.012487 0.000229 0.006905
# 2 -0.007561 0.042883 -0.001653 -0.011831 0.001981 0.015236
# 3 -0.006235 -0.001653 0.011756 -0.014190 0.011061 -0.014525
# 4 0.012487 -0.011831 -0.014190 0.054285 -0.014207 0.028391
# 5 0.000229 0.001981 0.011061 -0.014207 0.045455 -0.030841
# 6 0.006905 0.015236 -0.014525 0.028391 -0.030841 0.089903
#
#
# Mechanical properties :
#
#
# Convention : Reuss Voigt Hill
#
# Bulk Modulus (GPa) = 22.07884 52.05209 37.06546
# Shear Modulus (GPa) = 16.03457 32.30623 24.17040
#
# Velocity S-wave (km/s) = 2.49125 3.53616 3.05866
# Velocity P-wave (km/s) = 4.10133 6.06793 5.17884
#
# Compressibility (1/GPa) = 0.04529224
#
# Stress axis : x y z
#
# Youngs Moduli (GPa) = 46.40316 23.31917 85.06627
#
# Poissons Ratio (x) = 0.17631 0.53037
# Poissons Ratio (y) = 0.35084 0.14061
# Poissons Ratio (z) = 0.28931 0.03855
#
# Static dielectric constant tensor:
#      x y z
#    x 2.036060 -0.035500 -0.046770 
#    y -0.035500 2.135600 0.022230 
#    z -0.046770 0.022230 2.246300 
# 
# From -- ./inp_files/380012.got.cif
#   From: 2010.05.17/outbox.cif.g08.bks.cpg/sg2_191_cif.got.tgz:380012.got - 2010.06.03 11:33:40.
