data_PCOD9096314
_publ_section_title
;
Structure prediction by ZEFSAII (Michael W. Deem and Ramdas Pophale) SiO2 
 PCOD9096314
Probable space group: P -1
;
_chemical_formula_sum "Si O2"
_cell_formula_units_Z 16
_cell_length_a 22.098318
_cell_length_b 9.692301
_cell_length_c 13.116879
_cell_angle_alpha 134.533174
_cell_angle_beta 158.575106
_cell_angle_gamma 49.062024
_cell_volume 731.510658
_symmetry_space_group_name_H-M "P -1"
_symmetry_group_IT_number 2
_symmetry_cell_setting 'triclinic'
loop_
_space_group_symop_operation_xyz
x,y,z
-x,-y,-z
loop_
_atom_site_type_symbol
_atom_site_label
_atom_site_fract_x
_atom_site_fract_y
_atom_site_fract_z
Si Si1 0.348610 0.142771 0.346359
Si Si2 0.958681 0.935924 0.055153
Si Si3 0.725468 0.626888 0.961293
Si Si4 0.854630 0.340165 0.674445
Si Si5 0.314009 0.580047 0.765735
Si Si6 0.804894 0.994920 0.169607
Si Si7 0.567299 0.479531 0.424410
Si Si8 0.026485 0.328934 0.257968
O O1 0.235269 0.097794 0.242093
O O2 0.426231 0.352626 0.563065
O O3 0.500000 0.000000 0.500000
O O4 0.233370 0.114485 0.052143
O O5 0.002216 0.788180 0.954314
O O6 0.057580 0.863094 0.271288
O O7 0.000343 0.155722 0.207446
O O8 0.636528 0.551986 0.679436
O O9 0.614876 0.587701 0.866892
O O10 0.895877 0.503175 0.163885
O O11 0.738344 0.855708 0.082035
O O12 0.778944 0.390602 0.473193
O O13 0.704786 0.339247 0.520164
O O14 0.000000 0.500000 0.000000
O O15 0.288382 0.798799 0.880341
O O16 0.205438 0.427954 0.581046
O O17 0.500000 0.500000 0.000000
O O18 0.000000 0.000000 0.500000
#
# Coordination Sequence:
#
# PCOD9096314 Si02
#       8
#     2   2   2   2   2   2   2   2
#     4  11  23  39  64  97 127 167 225 274 324 388
#     4  11  23  38  72  99 129 174 225 281 326 395
#     4  10  20  40  63 100 132 174 215 279 331 394
#     4  12  21  43  72  94 128 178 229 266 328 396
#     4  12  27  45  69  98 139 178 222 278 338 401
#     4  11  24  43  67  92 135 184 218 262 343 410
#     4  10  20  35  65  97 127 163 224 276 320 381
#     4  11  22  42  65 100 136 169 225 275 343 381
#
# _framework density 21.872546
#
# number of rings (size 3 to 8) (size 9 to 14) (size 15 to 20)
#    0.000    1.000    5.000    1.500    3.500    1.000 
#    0.000    4.375    0.000    0.000    0.000    0.000 
#    0.000    0.000    0.000    0.000    0.000    0.000 
#
# Total GULP energy -89305.434991 kJ/mol
# GULP energy per Si atom -5581.589687 kJ/mol
# Density = 2.182276 g / cm^3
# Si number density = 21.872546 Si / 1000 Ang^3
#
#
#
# Elastic Constant Matrix: (Units=GPa)
#
#
# Indices 1 2 3 4 5 6 
#
# 1 86.2086 27.9395 30.9869 6.2588 39.2517 13.6700
# 2 27.9395 138.7657 32.5808 -2.8329 36.6139 22.7890
# 3 30.9869 32.5808 78.4678 -7.8789 37.2924 15.0736
# 4 6.2588 -2.8329 -7.8789 38.4629 0.4039 6.3393
# 5 39.2517 36.6139 37.2924 0.4039 52.6095 0.6877
# 6 13.6700 22.7890 15.0736 6.3393 0.6877 33.2991
#
#
#
# Elastic Compliance Matrix: (Units=1/GPa)
#
#
# Indices 1 2 3 4 5 6 
#
# 1 0.019714 0.001580 0.000935 -0.001241 -0.016344 -0.009024
# 2 0.001580 0.010520 0.001376 0.002335 -0.009379 -0.008722
# 3 0.000935 0.001376 0.023776 0.007167 -0.018393 -0.013073
# 4 -0.001241 0.002335 0.007167 0.029523 -0.005878 -0.009832
# 5 -0.016344 -0.009379 -0.018393 -0.005878 0.050531 0.021530
# 6 -0.009024 -0.008722 -0.013073 -0.009832 0.021530 0.047049
#
#
# Mechanical properties :
#
#
# Convention : Reuss Voigt Hill
#
# Bulk Modulus (GPa) = 16.18341 54.05073 35.11707
# Shear Modulus (GPa) = 25.78260 39.00328 32.39294
#
# Velocity S-wave (km/s) = 3.43704 4.22738 3.85253
# Velocity P-wave (km/s) = 4.81311 6.97087 5.98995
#
# Compressibility (1/GPa) = 0.06179169
#
# Stress axis : x y z
#
# Youngs Moduli (GPa) = 50.72542 95.05582 42.05955
#
# Poissons Ratio (x) = -0.15020 -0.03933
# Poissons Ratio (y) = -0.08015 -0.05786
# Poissons Ratio (z) = -0.04744 -0.13076
#
# Static dielectric constant tensor:
#      x y z
#    x 1.912710 -0.109990 0.017420 
#    y -0.109990 2.073390 -0.097300 
#    z 0.017420 -0.097300 1.888980 
# 
# From -- ./inp_files/542690.got.cif
#   From: 2010.05.17/outbox.cif.g08.bks.cpg/sg2_272_cif.got.tgz:542690.got - 2010.06.03 11:33:40.
