data_PCOD9096085
_publ_section_title
;
Structure prediction by ZEFSAII (Michael W. Deem and Ramdas Pophale) SiO2 
 PCOD9096085
Probable space group: P -1
;
_chemical_formula_sum "Si O2"
_cell_formula_units_Z 14
_cell_length_a 12.471965
_cell_length_b 7.383043
_cell_length_c 9.803416
_cell_angle_alpha 107.676605
_cell_angle_beta 123.401351
_cell_angle_gamma 92.555564
_cell_volume 692.122311
_symmetry_space_group_name_H-M "P -1"
_symmetry_group_IT_number 2
_symmetry_cell_setting 'triclinic'
loop_
_space_group_symop_operation_xyz
x,y,z
-x,-y,-z
loop_
_atom_site_type_symbol
_atom_site_label
_atom_site_fract_x
_atom_site_fract_y
_atom_site_fract_z
Si Si1 0.959572 0.407876 0.802283
Si Si2 0.880510 0.807906 0.335786
Si Si3 0.329802 0.837798 0.399363
Si Si4 0.879218 0.538998 0.510490
Si Si5 0.594852 0.324066 0.310041
Si Si6 0.529195 0.743967 0.346801
Si Si7 0.574038 0.734577 0.073790
O O1 0.824972 0.236249 0.694142
O O2 0.920647 0.560673 0.702514
O O3 0.060931 0.317795 0.764104
O O4 0.000000 0.500000 0.000000
O O5 0.846528 0.711006 0.440199
O O6 0.733200 0.803280 0.179106
O O7 0.000000 0.000000 0.500000
O O8 0.406364 0.773077 0.566669
O O9 0.378110 0.727665 0.282188
O O10 0.378385 0.071307 0.464989
O O11 0.746360 0.360514 0.371362
O O12 0.000000 0.500000 0.500000
O O13 0.567271 0.540649 0.353423
O O14 0.496300 0.216284 0.099097
O O15 0.548626 0.815330 0.220759
O O16 0.500000 0.500000 0.000000
#
# Coordination Sequence:
#
# PCOD9096085 Si02
#       7
#     2   2   2   2   2   2   2
#     4  10  23  37  59  85 119 157 202 246 301 360
#     4  11  21  39  62  87 121 158 202 246 305 363
#     4  10  22  38  57  88 118 159 193 245 303 362
#     4   9  19  37  59  83 115 158 198 241 303 365
#     4  10  20  37  61  86 116 155 201 243 300 356
#     4  10  20  36  59  85 118 153 193 246 301 347
#     4  10  20  35  62  87 114 155 201 249 289 352
#
# _framework density 20.227637999999999
#
# number of rings (size 3 to 8) (size 9 to 14) (size 15 to 20)
#    0.000    2.000    2.857    1.286    4.000    0.571 
#    0.000    3.571    0.000    0.000    0.000    0.000 
#    0.000    0.000    0.000    0.000    0.000    0.000 
#
# Total GULP energy -77940.006487 kJ/mol
# GULP energy per Si atom -5567.143321 kJ/mol
# Density = 2.018160 g / cm^3
# Si number density = 20.227638 Si / 1000 Ang^3
#
#
#
# Elastic Constant Matrix: (Units=GPa)
#
#
# Indices 1 2 3 4 5 6 
#
# 1 128.0469 13.3078 46.8576 -3.1040 -0.2752 14.3040
# 2 13.3078 49.8680 32.4885 2.3047 -2.7310 4.8015
# 3 46.8576 32.4885 135.0030 -18.2955 5.4577 1.1481
# 4 -3.1040 2.3047 -18.2955 28.9641 0.2208 -3.6603
# 5 -0.2752 -2.7310 5.4577 0.2208 29.7201 5.1516
# 6 14.3040 4.8015 1.1481 -3.6603 5.1516 27.8226
#
#
#
# Elastic Compliance Matrix: (Units=1/GPa)
#
#
# Indices 1 2 3 4 5 6 
#
# 1 0.009727 0.000653 -0.003853 -0.002162 0.001841 -0.005580
# 2 0.000653 0.026164 -0.007720 -0.007745 0.005008 -0.006479
# 3 -0.003853 -0.007720 0.011840 0.008292 -0.003781 0.004616
# 4 -0.002162 -0.007745 0.008292 0.041223 -0.003994 0.008269
# 5 0.001841 0.005008 -0.003781 -0.003994 0.036395 -0.008919
# 6 -0.005580 -0.006479 0.004616 0.008269 -0.008919 0.042477
#
#
# Mechanical properties :
#
#
# Convention : Reuss Voigt Hill
#
# Bulk Modulus (GPa) = 38.62529 55.35840 46.99185
# Shear Modulus (GPa) = 25.21477 31.98564 28.60021
#
# Velocity S-wave (km/s) = 3.53448 3.98085 3.76429
# Velocity P-wave (km/s) = 5.98277 6.96826 6.49424
#
# Compressibility (1/GPa) = 0.02588977
#
# Stress axis : x y z
#
# Youngs Moduli (GPa) = 102.81065 38.22002 84.46149
#
# Poissons Ratio (x) = -0.02494 0.32543
# Poissons Ratio (y) = -0.06709 0.65204
# Poissons Ratio (z) = 0.39613 0.29506
#
# Static dielectric constant tensor:
#      x y z
#    x 1.782380 -0.024950 0.013320 
#    y -0.024950 1.759630 -0.016850 
#    z 0.013320 -0.016850 1.701350 
# 
# From -- ./inp_files/157339.got.cif
#   From: 2010.05.17/outbox.cif.g08.bks.cpg/sg2_79_cif.got.tgz:157339.got - 2010.06.03 11:33:40.
