data_PCOD9096624
_publ_section_title
;
Structure prediction by ZEFSAII (Michael W. Deem and Ramdas Pophale) SiO2 
 PCOD9096624
Probable space group: P -1
;
_chemical_formula_sum "Si O2"
_cell_formula_units_Z 14
_cell_length_a 6.371765
_cell_length_b 6.958389
_cell_length_c 15.480020
_cell_angle_alpha 57.500630
_cell_angle_beta 105.217625
_cell_angle_gamma 114.131468
_cell_volume 527.453362
_symmetry_space_group_name_H-M "P -1"
_symmetry_group_IT_number 2
_symmetry_cell_setting 'triclinic'
loop_
_space_group_symop_operation_xyz
x,y,z
-x,-y,-z
loop_
_atom_site_type_symbol
_atom_site_label
_atom_site_fract_x
_atom_site_fract_y
_atom_site_fract_z
Si Si1 0.033592 0.331953 0.410291
Si Si2 0.373841 0.913148 0.708467
Si Si3 0.694124 0.134911 0.101223
Si Si4 0.161255 0.832241 0.070910
Si Si5 0.704303 0.133162 0.558726
Si Si6 0.546954 0.527783 0.374493
Si Si7 0.889056 0.704998 0.238713
O O1 0.940949 0.175702 0.523167
O O2 0.020965 0.606913 0.350609
O O3 0.282573 0.373593 0.391436
O O4 0.839050 0.206554 0.348376
O O5 0.328981 0.769211 0.828902
O O6 0.619066 0.968575 0.673097
O O7 0.395589 0.191604 0.664392
O O8 0.424751 0.983851 0.088639
O O9 0.854962 0.964299 0.170629
O O10 0.799942 0.279979 0.990063
O O11 0.029200 0.680216 0.174761
O O12 0.000000 0.000000 0.000000
O O13 0.669035 0.396562 0.485883
O O14 0.500000 0.000000 0.500000
O O15 0.632219 0.540402 0.280758
#
# Coordination Sequence:
#
# PCOD9096624 Si02
#       7
#     2   2   2   2   2   2   2
#     4  10  21  37  56  80 114 149 181 226 275 321
#     4  10  20  36  57  83 110 142 191 229 264 328
#     4   9  18  33  57  83 108 144 183 225 277 327
#     4   9  17  33  58  83 109 142 180 225 279 331
#     4   9  20  37  54  81 116 146 185 229 269 323
#     4  10  20  36  57  80 110 151 186 223 274 319
#     4   9  17  33  54  78 109 141 179 223 270 325
#
# _framework density 26.542628000000001
#
# number of rings (size 3 to 8) (size 9 to 14) (size 15 to 20)
#    0.000    2.571    0.000    2.143    0.000    2.857 
#    0.000   30.714    0.000    8.571    0.000    0.000 
#    0.000    0.000    0.000    0.000    0.000    0.000 
#
# Total GULP energy -78034.400038 kJ/mol
# GULP energy per Si atom -5573.885717 kJ/mol
# Density = 2.648222 g / cm^3
# Si number density = 26.542628 Si / 1000 Ang^3
#
#
#
# Elastic Constant Matrix: (Units=GPa)
#
#
# Indices 1 2 3 4 5 6 
#
# 1 144.7106 18.6154 56.7800 4.9305 -48.8615 32.9760
# 2 18.6154 77.7169 -11.7470 4.4967 -16.1309 23.7239
# 3 56.7800 -11.7470 152.1188 24.6357 -78.2097 10.6450
# 4 4.9305 4.4967 24.6357 32.0353 -8.2077 1.3549
# 5 -48.8615 -16.1309 -78.2097 -8.2077 96.0221 -12.2096
# 6 32.9760 23.7239 10.6450 1.3549 -12.2096 33.6854
#
#
#
# Elastic Compliance Matrix: (Units=1/GPa)
#
#
# Indices 1 2 3 4 5 6 
#
# 1 0.010623 0.000443 -0.002038 0.000959 0.002743 -0.009111
# 2 0.000443 0.019714 0.006728 -0.005690 0.006781 -0.013757
# 3 -0.002038 0.006728 0.015548 -0.009497 0.011552 -0.003087
# 4 0.000959 -0.005690 -0.009497 0.037870 -0.004600 0.002880
# 5 0.002743 0.006781 0.011552 -0.004600 0.021570 -0.003109
# 6 -0.009111 -0.013757 -0.003087 0.002880 -0.003109 0.048027
#
#
# Mechanical properties :
#
#
# Convention : Reuss Voigt Hill
#
# Bulk Modulus (GPa) = 17.80967 55.76035 36.78501
# Shear Modulus (GPa) = 30.90162 53.07509 41.98836
#
# Velocity S-wave (km/s) = 3.41578 4.47656 3.98165
# Velocity P-wave (km/s) = 4.72029 6.91179 5.91836
#
# Compressibility (1/GPa) = 0.05614928
#
# Stress axis : x y z
#
# Youngs Moduli (GPa) = 94.13608 50.72458 64.31864
#
# Poissons Ratio (x) = -0.02245 0.13110
# Poissons Ratio (y) = -0.04167 -0.43273
# Poissons Ratio (z) = 0.19187 -0.34127
#
# Static dielectric constant tensor:
#      x y z
#    x 2.144240 -0.102000 -0.035140 
#    y -0.102000 2.322430 0.103070 
#    z -0.035140 0.103070 2.137280 
# 
# From -- ./inp_files/89868.got.cif
#   From: 2010.05.17/outbox.cif.g08.bks.cpg/sg2_45_cif.got.tgz:89868.got - 2010.06.03 11:33:40.
