data_PCOD9096633
_publ_section_title
;
Structure prediction by ZEFSAII (Michael W. Deem and Ramdas Pophale) SiO2 
 PCOD9096633
Probable space group: P -1
;
_chemical_formula_sum "Si O2"
_cell_formula_units_Z 16
_cell_length_a 14.425207
_cell_length_b 9.526191
_cell_length_c 7.747898
_cell_angle_alpha 60.458093
_cell_angle_beta 48.253673
_cell_angle_gamma 72.572736
_cell_volume 690.416689
_symmetry_space_group_name_H-M "P -1"
_symmetry_group_IT_number 2
_symmetry_cell_setting 'triclinic'
loop_
_space_group_symop_operation_xyz
x,y,z
-x,-y,-z
loop_
_atom_site_type_symbol
_atom_site_label
_atom_site_fract_x
_atom_site_fract_y
_atom_site_fract_z
Si Si1 0.762730 0.479765 0.256387
Si Si2 0.897476 0.585535 0.338232
Si Si3 0.252463 0.975907 0.053580
Si Si4 0.601369 0.819576 0.820701
Si Si5 0.657076 0.737118 0.443339
Si Si6 0.618375 0.174870 0.681363
Si Si7 0.095789 0.704216 0.252363
Si Si8 0.146949 0.231516 0.265291
O O1 0.871389 0.474675 0.269776
O O2 0.652534 0.577533 0.428819
O O3 0.702796 0.305949 0.396269
O O4 0.815788 0.599351 0.974202
O O5 0.800070 0.723761 0.343026
O O6 0.863131 0.464340 0.612908
O O7 0.030785 0.666150 0.172558
O O8 0.310804 0.879735 0.198393
O O9 0.197503 0.847110 0.062669
O O10 0.153037 0.091592 0.197544
O O11 0.345767 0.103827 0.764768
O O12 0.576575 0.741165 0.712890
O O13 0.740646 0.798460 0.726094
O O14 0.589728 0.012514 0.709385
O O15 0.508500 0.760407 0.122872
O O16 0.981926 0.757581 0.483348
#
# Coordination Sequence:
#
# PCOD9096633 Si02
#       8
#     2   2   2   2   2   2   2   2
#     4   9  19  39  54  82 110 143 182 223 272 320
#     4   9  20  36  53  77 116 142 177 229 271 320
#     4  10  20  36  57  81 110 145 183 222 270 325
#     4  10  21  39  58  80 111 143 182 228 273 322
#     4   9  19  39  54  82 110 143 182 223 272 320
#     4  10  21  39  58  80 111 143 182 228 273 322
#     4  11  19  36  56  80 113 145 180 222 273 322
#     4  10  20  36  57  81 110 145 183 222 270 325
#
# _framework density 23.174412
#
# number of rings (size 3 to 8) (size 9 to 14) (size 15 to 20)
#    0.750    1.500    2.500    0.375    0.000    2.500 
#    4.500    0.000    0.000    0.000    0.000    0.000 
#    0.000    0.000    0.000    0.000    0.000    0.000 
#
# Total GULP energy -89269.861080 kJ/mol
# GULP energy per Si atom -5579.366318 kJ/mol
# Density = 2.312167 g / cm^3
# Si number density = 23.174412 Si / 1000 Ang^3
#
#
#
# Elastic Constant Matrix: (Units=GPa)
#
#
# Indices 1 2 3 4 5 6 
#
# 1 44.3647 26.2942 8.4092 -11.7742 2.6813 -3.2910
# 2 26.2942 55.8642 9.4679 -4.4083 -2.7753 8.5194
# 3 8.4092 9.4679 25.7559 -5.4081 -2.7754 -1.3656
# 4 -11.7742 -4.4083 -5.4081 40.4723 7.0007 -0.1686
# 5 2.6813 -2.7753 -2.7754 7.0007 16.7449 -5.7714
# 6 -3.2910 8.5194 -1.3656 -0.1686 -5.7714 25.7403
#
#
#
# Elastic Compliance Matrix: (Units=1/GPa)
#
#
# Indices 1 2 3 4 5 6 
#
# 1 0.038320 -0.018283 -0.004368 0.010594 -0.011489 0.008212
# 2 -0.018283 0.029111 -0.005629 -0.003723 0.004485 -0.011290
# 3 -0.004368 -0.005629 0.044010 0.002669 0.007809 0.005408
# 4 0.010594 -0.003723 0.002669 0.030274 -0.014652 -0.000358
# 5 -0.011489 0.004485 0.007809 -0.014652 0.074578 0.014087
# 6 0.008212 -0.011290 0.005408 -0.000358 0.014087 0.047079
#
#
# Mechanical properties :
#
#
# Convention : Reuss Voigt Hill
#
# Bulk Modulus (GPa) = 18.22164 23.81415 21.01790
# Shear Modulus (GPa) = 14.78296 22.04572 18.41434
#
# Velocity S-wave (km/s) = 2.52841 3.08765 2.82192
# Velocity P-wave (km/s) = 4.05015 4.79686 4.43923
#
# Compressibility (1/GPa) = 0.05487980
#
# Stress axis : x y z
#
# Youngs Moduli (GPa) = 26.09607 34.35138 22.72206
#
# Poissons Ratio (x) = 0.62806 0.09926
# Poissons Ratio (y) = 0.47712 0.12790
# Poissons Ratio (z) = 0.11400 0.19336
#
# Static dielectric constant tensor:
#      x y z
#    x 1.903670 -0.000780 0.019340 
#    y -0.000780 1.921450 0.074040 
#    z 0.019340 0.074040 1.839000 
# 
# From -- ./inp_files/327294.got.cif
#   From: 2010.05.17/outbox.cif.g08.bks.cpg/sg2_164_cif.got.tgz:327294.got - 2010.06.03 11:33:40.
