data_PCOD9096212
_publ_section_title
;
Structure prediction by ZEFSAII (Michael W. Deem and Ramdas Pophale) SiO2 
 PCOD9096212
Probable space group: P -1
;
_chemical_formula_sum "Si O2"
_cell_formula_units_Z 16
_cell_length_a 20.398191
_cell_length_b 5.755401
_cell_length_c 11.915825
_cell_angle_alpha 61.215360
_cell_angle_beta 138.967732
_cell_angle_gamma 134.031365
_cell_volume 657.548791
_symmetry_space_group_name_H-M "P -1"
_symmetry_group_IT_number 2
_symmetry_cell_setting 'triclinic'
loop_
_space_group_symop_operation_xyz
x,y,z
-x,-y,-z
loop_
_atom_site_type_symbol
_atom_site_label
_atom_site_fract_x
_atom_site_fract_y
_atom_site_fract_z
Si Si1 0.055735 0.381365 0.192125
Si Si2 0.117779 0.385434 0.869716
Si Si3 0.570632 0.207299 0.224041
Si Si4 0.425522 0.223875 0.835501
Si Si5 0.534505 0.248330 0.590020
Si Si6 0.054255 0.824037 0.669177
Si Si7 0.235364 0.651436 0.186548
Si Si8 0.700359 0.703155 0.983034
O O1 0.191232 0.560547 0.277448
O O2 0.038988 0.399670 0.297929
O O3 0.979845 0.995754 0.171365
O O4 0.000000 0.500000 0.000000
O O5 0.077679 0.575735 0.700086
O O6 0.246528 0.467971 0.973724
O O7 0.132756 0.481669 0.997106
O O8 0.632397 0.576220 0.261685
O O9 0.634696 0.086488 0.253150
O O10 0.516864 0.974938 0.314906
O O11 0.459610 0.144951 0.016713
O O12 0.562532 0.478732 0.900981
O O13 0.500000 0.500000 0.500000
O O14 0.679212 0.458308 0.711682
O O15 0.500000 0.000000 0.500000
O O16 0.191561 0.095484 0.831616
O O17 0.000000 0.000000 0.500000
O O18 0.293389 0.027993 0.150534
#
# Coordination Sequence:
#
# PCOD9096212 Si02
#       8
#     2   2   2   2   2   2   2   2
#     4  11  20  37  62  99 123 156 219 262 313 391
#     4  10  20  36  68  89 124 161 207 264 325 378
#     4  10  21  40  63  89 123 155 213 270 326 365
#     4  10  20  37  67  94 114 159 210 277 310 371
#     4  12  27  44  62  90 136 177 214 269 333 390
#     4  10  23  40  55  90 133 164 196 257 321 392
#     4  11  22  38  63  93 120 163 217 265 313 382
#     4  10  20  35  63  93 116 158 212 257 311 386
#
# _framework density 24.332795000000001
#
# number of rings (size 3 to 8) (size 9 to 14) (size 15 to 20)
#    0.000    1.500    5.000    1.875    3.500    2.000 
#    2.250    1.250    0.000    0.000    0.000    0.000 
#    0.000    0.000    0.000    0.000    0.000    0.000 
#
# Total GULP energy -89270.079453 kJ/mol
# GULP energy per Si atom -5579.379966 kJ/mol
# Density = 2.427741 g / cm^3
# Si number density = 24.332795 Si / 1000 Ang^3
#
#
#
# Elastic Constant Matrix: (Units=GPa)
#
#
# Indices 1 2 3 4 5 6 
#
# 1 113.4334 37.7994 43.9045 -31.1053 -0.1363 -26.6267
# 2 37.7994 104.8890 28.1566 -30.6645 8.9689 -23.7411
# 3 43.9045 28.1566 72.3958 -28.2780 12.4806 -8.7934
# 4 -31.1053 -30.6645 -28.2780 39.6071 -9.8666 4.9136
# 5 -0.1363 8.9689 12.4806 -9.8666 36.5747 -7.9995
# 6 -26.6267 -23.7411 -8.7934 4.9136 -7.9995 46.6418
#
#
#
# Elastic Compliance Matrix: (Units=1/GPa)
#
#
# Indices 1 2 3 4 5 6 
#
# 1 0.015264 -0.000341 -0.006163 0.007885 0.006029 0.007582
# 2 -0.000341 0.013879 -0.001006 0.009211 0.000698 0.005830
# 3 -0.006163 -0.001006 0.022212 0.009140 -0.005264 -0.001708
# 4 0.007885 0.009211 0.009140 0.046355 0.008806 0.007540
# 5 0.006029 0.000698 -0.005264 0.008806 0.033013 0.007539
# 6 0.007582 0.005830 -0.001708 0.007540 0.007539 0.028913
#
#
# Mechanical properties :
#
#
# Convention : Reuss Voigt Hill
#
# Bulk Modulus (GPa) = 27.52097 56.71546 42.11821
# Shear Modulus (GPa) = 26.77141 36.62191 31.69666
#
# Velocity S-wave (km/s) = 3.32055 3.88370 3.61311
# Velocity P-wave (km/s) = 5.10257 6.59315 5.89516
#
# Compressibility (1/GPa) = 0.03633594
#
# Stress axis : x y z
#
# Youngs Moduli (GPa) = 65.51535 72.04967 45.02118
#
# Poissons Ratio (x) = 0.02454 0.27745
# Poissons Ratio (y) = 0.02231 0.04529
# Poissons Ratio (z) = 0.40375 0.07249
#
# Static dielectric constant tensor:
#      x y z
#    x 2.081740 -0.097690 -0.022890 
#    y -0.097690 2.126210 0.384630 
#    z -0.022890 0.384630 3.297130 
# 
# From -- ./inp_files/76022.got.cif
#   From: 2010.05.17/outbox.cif.g08.bks.cpg/sg2_39_cif.got.tgz:76022.got - 2010.06.03 11:33:40.
