data_PCOD9096027
_publ_section_title
;
Structure prediction by ZEFSAII (Michael W. Deem and Ramdas Pophale) SiO2 
 PCOD9096027
Probable space group: P -1
;
_chemical_formula_sum "Si O2"
_cell_formula_units_Z 16
_cell_length_a 11.214355
_cell_length_b 14.695844
_cell_length_c 8.798717
_cell_angle_alpha 140.829026
_cell_angle_beta 71.272740
_cell_angle_gamma 122.103352
_cell_volume 764.572804
_symmetry_space_group_name_H-M "P -1"
_symmetry_group_IT_number 2
_symmetry_cell_setting 'triclinic'
loop_
_space_group_symop_operation_xyz
x,y,z
-x,-y,-z
loop_
_atom_site_type_symbol
_atom_site_label
_atom_site_fract_x
_atom_site_fract_y
_atom_site_fract_z
Si Si1 0.488129 0.892164 0.007582
Si Si2 0.662358 0.433035 0.478473
Si Si3 0.807471 0.200325 0.817610
Si Si4 0.106181 0.422796 0.688387
Si Si5 0.106585 0.301028 0.861698
Si Si6 0.880028 0.411047 0.563943
Si Si7 0.383330 0.360835 0.975535
Si Si8 0.625022 0.965436 0.345600
O O1 0.471427 0.717446 0.737419
O O2 0.338153 0.857394 0.103791
O O3 0.617611 0.975557 0.180856
O O4 0.500000 0.000000 0.000000
O O5 0.770532 0.537025 0.434846
O O6 0.737266 0.345945 0.437266
O O7 0.631390 0.546851 0.750626
O O8 0.939483 0.183374 0.814152
O O9 0.762539 0.096711 0.547696
O O10 0.867335 0.396426 0.032876
O O11 0.114935 0.331905 0.717586
O O12 0.956835 0.336188 0.544002
O O13 0.139078 0.465476 0.153720
O O14 0.231670 0.267802 0.828670
O O15 0.000000 0.500000 0.500000
O O16 0.500000 0.500000 0.000000
O O17 0.419071 0.219219 0.828009
O O18 0.500000 0.000000 0.500000
#
# Coordination Sequence:
#
# PCOD9096027 Si02
#       8
#     2   2   2   2   2   2   2   2
#     4  10  22  37  62  94 124 171 211 249 310 364
#     4   9  20  36  57  84 130 158 207 262 302 368
#     4   9  19  37  63  89 130 163 207 257 300 374
#     4   9  17  33  59  98 120 160 202 256 311 369
#     4  10  20  35  61  94 123 162 211 253 320 369
#     4   8  14  28  51  84 123 152 191 247 303 355
#     4  11  26  41  63  93 125 168 207 262 323 376
#     4  10  24  43  62  86 126 164 214 255 312 377
#
# _framework density 20.92672
#
# number of rings (size 3 to 8) (size 9 to 14) (size 15 to 20)
#    0.000    2.500    0.000    2.250    8.750    3.000 
#    0.000    0.000    0.000    1.500    0.000    0.000 
#    0.000    0.000    0.000    0.000    0.000    0.000 
#
# Total GULP energy -89146.534258 kJ/mol
# GULP energy per Si atom -5571.658391 kJ/mol
# Density = 2.087909 g / cm^3
# Si number density = 20.926720 Si / 1000 Ang^3
#
#
#
# Elastic Constant Matrix: (Units=GPa)
#
#
# Indices 1 2 3 4 5 6 
#
# 1 68.8374 12.6511 36.7457 0.2015 3.6226 -9.0054
# 2 12.6511 89.7495 37.3684 -14.3205 -13.7777 -9.9392
# 3 36.7457 37.3684 104.5658 -19.3008 4.4370 -6.3150
# 4 0.2015 -14.3205 -19.3008 23.5617 -7.8772 7.0709
# 5 3.6226 -13.7777 4.4370 -7.8772 34.6046 0.7859
# 6 -9.0054 -9.9392 -6.3150 7.0709 0.7859 28.1095
#
#
#
# Elastic Compliance Matrix: (Units=1/GPa)
#
#
# Indices 1 2 3 4 5 6 
#
# 1 0.020282 -0.001068 -0.008179 -0.011078 -0.004184 0.007186
# 2 -0.001068 0.015937 -0.003945 0.008875 0.008939 0.001924
# 3 -0.008179 -0.003945 0.015788 0.011616 -0.000018 -0.003390
# 4 -0.011078 0.008875 0.011616 0.068524 0.019156 -0.015574
# 5 -0.004184 0.008939 -0.000018 0.019156 0.037350 -0.004047
# 6 0.007186 0.001924 -0.003390 -0.015574 -0.004047 0.041827
#
#
# Mechanical properties :
#
#
# Convention : Reuss Voigt Hill
#
# Bulk Modulus (GPa) = 39.02786 48.52035 43.77411
# Shear Modulus (GPa) = 21.31003 29.01431 25.16217
#
# Velocity S-wave (km/s) = 3.19457 3.72758 3.47132
# Velocity P-wave (km/s) = 5.68307 6.46240 6.08522
#
# Compressibility (1/GPa) = 0.02562272
#
# Stress axis : x y z
#
# Youngs Moduli (GPa) = 49.30488 62.74852 63.34113
#
# Poissons Ratio (x) = 0.06699 0.51807
# Poissons Ratio (y) = 0.05264 0.24988
# Poissons Ratio (z) = 0.40326 0.24755
#
# Static dielectric constant tensor:
#      x y z
#    x 1.819750 -0.006900 0.031570 
#    y -0.006900 1.760060 -0.011570 
#    z 0.031570 -0.011570 1.788910 
# 
# From -- ./inp_files/271202.got.cif
#   From: 2010.05.17/outbox.cif.g08.bks.cpg/sg2_136_cif.got.tgz:271202.got - 2010.06.03 11:33:40.
