data_PCOD9096729
_publ_section_title
;
Structure prediction by ZEFSAII (Michael W. Deem and Ramdas Pophale) SiO2 
 PCOD9096729
Probable space group: P -1
;
_chemical_formula_sum "Si O2"
_cell_formula_units_Z 14
_cell_length_a 6.701136
_cell_length_b 18.338240
_cell_length_c 9.822951
_cell_angle_alpha 37.971197
_cell_angle_beta 131.561262
_cell_angle_gamma 111.192691
_cell_volume 520.410521
_symmetry_space_group_name_H-M "P -1"
_symmetry_group_IT_number 2
_symmetry_cell_setting 'triclinic'
loop_
_space_group_symop_operation_xyz
x,y,z
-x,-y,-z
loop_
_atom_site_type_symbol
_atom_site_label
_atom_site_fract_x
_atom_site_fract_y
_atom_site_fract_z
Si Si1 0.803107 0.831850 0.411328
Si Si2 0.506543 0.680203 0.601045
Si Si3 0.702376 0.135469 0.238112
Si Si4 0.732024 0.627520 0.168741
Si Si5 0.925909 0.215922 0.957116
Si Si6 0.235656 0.058516 0.064359
Si Si7 0.785275 0.405968 0.170268
O O1 0.575986 0.810741 0.445474
O O2 0.698032 0.898476 0.122061
O O3 0.059261 0.870820 0.531023
O O4 0.942761 0.684483 0.648307
O O5 0.369290 0.684644 0.383026
O O6 0.755540 0.550955 0.952753
O O7 0.256717 0.668482 0.605585
O O8 0.441155 0.271890 0.941178
O O9 0.849735 0.143301 0.151844
O O10 0.551714 0.030974 0.314112
O O11 0.487210 0.589100 0.047700
O O12 0.000000 0.500000 0.500000
O O13 0.861153 0.712432 0.010072
O O14 0.063481 0.135555 0.005299
O O15 0.000000 0.000000 0.000000
#
# Coordination Sequence:
#
# PCOD9096729 Si02
#       7
#     2   2   2   2   2   2   2
#     4  11  22  42  62  92 128 161 210 255 307 380
#     4  11  20  34  62  88 127 168 201 253 302 366
#     4  10  24  41  64  93 125 162 209 261 312 370
#     4  10  20  36  57  88 128 169 204 246 300 369
#     4  11  21  41  61  91 129 162 209 260 307 370
#     4  11  25  45  69  89 120 165 211 268 324 366
#     4  10  21  36  56  92 126 171 205 244 304 365
#
# _framework density 26.90184
#
# number of rings (size 3 to 8) (size 9 to 14) (size 15 to 20)
#    0.000    1.429    4.286    1.286    0.000    1.714 
#    2.571    0.714    0.000    0.000    0.000    0.000 
#    0.000    0.000    0.000    0.000    0.000    0.000 
#
# Total GULP energy -78059.532047 kJ/mol
# GULP energy per Si atom -5575.680861 kJ/mol
# Density = 2.684061 g / cm^3
# Si number density = 26.901840 Si / 1000 Ang^3
#
#
#
# Elastic Constant Matrix: (Units=GPa)
#
#
# Indices 1 2 3 4 5 6 
#
# 1 104.8585 46.0041 45.7693 -0.5185 0.2577 25.8461
# 2 46.0041 139.4862 24.4728 3.0370 -5.6945 22.9411
# 3 45.7693 24.4728 96.8798 10.9161 -12.1325 1.2376
# 4 -0.5185 3.0370 10.9161 40.8748 3.8759 -3.0939
# 5 0.2577 -5.6945 -12.1325 3.8759 43.2708 -3.2608
# 6 25.8461 22.9411 1.2376 -3.0939 -3.2608 53.0542
#
#
#
# Elastic Compliance Matrix: (Units=1/GPa)
#
#
# Indices 1 2 3 4 5 6 
#
# 1 0.015506 -0.003030 -0.007118 0.002156 -0.003143 -0.006145
# 2 -0.003030 0.008688 -0.000530 -0.000800 0.000914 -0.002259
# 3 -0.007118 -0.000530 0.014847 -0.004211 0.004769 0.003398
# 4 0.002156 -0.000800 -0.004211 0.026068 -0.003582 0.000694
# 5 -0.003143 0.000914 0.004769 -0.003582 0.025085 0.002358
# 6 -0.006145 -0.002259 0.003398 0.000694 0.002358 0.022925
#
#
# Mechanical properties :
#
#
# Convention : Reuss Voigt Hill
#
# Bulk Modulus (GPa) = 56.54411 63.74634 60.14522
# Shear Modulus (GPa) = 35.62024 42.43853 39.02938
#
# Velocity S-wave (km/s) = 3.64274 3.97613 3.81308
# Velocity P-wave (km/s) = 6.22552 6.69528 6.46467
#
# Compressibility (1/GPa) = 0.01768531
#
# Stress axis : x y z
#
# Youngs Moduli (GPa) = 64.49119 115.10698 67.35337
#
# Poissons Ratio (x) = 0.34874 0.47944
# Poissons Ratio (y) = 0.19539 0.03568
# Poissons Ratio (z) = 0.45906 0.06098
#
# Static dielectric constant tensor:
#      x y z
#    x 2.215620 -0.071730 0.050670 
#    y -0.071730 2.123910 -0.057960 
#    z 0.050670 -0.057960 2.133410 
# 
# From -- ./inp_files/35849.got.cif
#   From: 2010.05.17/outbox.cif.g08.bks.cpg/sg2_18_cif.got.tgz:35849.got - 2010.06.03 11:33:40.
