data_PCOD9096310
_publ_section_title
;
Structure prediction by ZEFSAII (Michael W. Deem and Ramdas Pophale) SiO2 
 PCOD9096310
Probable space group: P -1
;
_chemical_formula_sum "Si O2"
_cell_formula_units_Z 16
_cell_length_a 5.159629
_cell_length_b 20.925694
_cell_length_c 8.790196
_cell_angle_alpha 65.450054
_cell_angle_beta 54.329854
_cell_angle_gamma 66.586917
_cell_volume 685.692360
_symmetry_space_group_name_H-M "P -1"
_symmetry_group_IT_number 2
_symmetry_cell_setting 'triclinic'
loop_
_space_group_symop_operation_xyz
x,y,z
-x,-y,-z
loop_
_atom_site_type_symbol
_atom_site_label
_atom_site_fract_x
_atom_site_fract_y
_atom_site_fract_z
Si Si1 0.552588 0.785179 0.658347
Si Si2 0.810557 0.667681 0.935361
Si Si3 0.432295 0.605800 0.584921
Si Si4 0.989396 0.684875 0.382874
Si Si5 0.259602 0.071370 0.074241
Si Si6 0.919654 0.770217 0.038298
Si Si7 0.613069 0.523722 0.102681
Si Si8 0.512197 0.067690 0.327164
O O1 0.712841 0.747163 0.492752
O O2 0.620676 0.862213 0.595567
O O3 0.706701 0.730802 0.789989
O O4 0.170822 0.788786 0.808597
O O5 0.787333 0.705872 0.068282
O O6 0.584855 0.608670 0.051892
O O7 0.185791 0.633803 0.785386
O O8 0.774216 0.629692 0.452347
O O9 0.506546 0.519984 0.675164
O O10 0.232898 0.641904 0.469609
O O11 0.097098 0.732783 0.164794
O O12 0.311886 0.068150 0.240981
O O13 0.889096 0.068847 0.158084
O O14 0.308230 0.151410 0.929175
O O15 0.500000 0.000000 0.000000
O O16 0.500000 0.500000 0.000000
O O17 0.000000 0.500000 0.000000
O O18 0.500000 0.000000 0.500000
#
# Coordination Sequence:
#
# PCOD9096310 Si02
#       8
#     2   2   2   2   2   2   2   2
#     4  10  22  43  64  94 132 168 220 271 317 394
#     4  10  20  39  66  90 131 168 221 264 324 385
#     4  10  21  41  59  97 128 167 220 267 317 390
#     4  11  24  39  66  92 133 168 217 268 325 378
#     4  11  25  46  66  97 137 172 220 273 330 406
#     4  11  24  42  67  97 129 176 218 268 331 384
#     4  10  20  35  65  95 125 175 217 261 328 388
#     4  11  24  43  69  97 131 172 222 269 337 394
#
# _framework density 23.334078000000002
#
# number of rings (size 3 to 8) (size 9 to 14) (size 15 to 20)
#    0.000    1.500    2.500    3.000    5.250    0.000 
#    4.500    1.250    0.000    0.000    0.000    0.000 
#    0.000    0.000    0.000    0.000    0.000    0.000 
#
# Total GULP energy -89317.965216 kJ/mol
# GULP energy per Si atom -5582.372826 kJ/mol
# Density = 2.328097 g / cm^3
# Si number density = 23.334078 Si / 1000 Ang^3
#
#
#
# Elastic Constant Matrix: (Units=GPa)
#
#
# Indices 1 2 3 4 5 6 
#
# 1 89.7352 26.0750 12.9103 -2.9804 18.6320 3.1577
# 2 26.0750 119.1450 45.6724 -50.2088 10.4083 4.5647
# 3 12.9103 45.6724 90.6095 -27.2906 17.6135 6.0940
# 4 -2.9804 -50.2088 -27.2906 32.4569 -11.0844 -1.8164
# 5 18.6320 10.4083 17.6135 -11.0844 31.4722 -3.9956
# 6 3.1577 4.5647 6.0940 -1.8164 -3.9956 37.7204
#
#
#
# Elastic Compliance Matrix: (Units=1/GPa)
#
#
# Indices 1 2 3 4 5 6 
#
# 1 0.016455 -0.010573 -0.000184 -0.019710 -0.013393 -0.002436
# 2 -0.010573 0.032191 -0.002006 0.052484 0.015408 0.001473
# 3 -0.000184 -0.002006 0.015752 0.008106 -0.005503 -0.002479
# 4 -0.019710 0.052484 0.008106 0.129487 0.035891 0.004026
# 5 -0.013393 0.015408 -0.005503 0.035891 0.051255 0.007303
# 6 -0.002436 0.001473 -0.002479 0.004026 0.007303 0.027905
#
#
# Mechanical properties :
#
#
# Convention : Reuss Voigt Hill
#
# Bulk Modulus (GPa) = 25.72684 52.08946 38.90815
# Shear Modulus (GPa) = 16.04994 34.65204 25.35099
#
# Velocity S-wave (km/s) = 2.62550 3.85780 3.29969
# Velocity P-wave (km/s) = 4.49893 6.49733 5.58819
#
# Compressibility (1/GPa) = 0.03886991
#
# Stress axis : x y z
#
# Youngs Moduli (GPa) = 60.77350 31.06480 63.48496
#
# Poissons Ratio (x) = 0.32845 0.01170
# Poissons Ratio (y) = 0.64257 0.12736
# Poissons Ratio (z) = 0.01120 0.06232
#
# Static dielectric constant tensor:
#      x y z
#    x 1.920880 -0.002340 -0.046830 
#    y -0.002340 1.988220 0.032090 
#    z -0.046830 0.032090 1.898430 
# 
# From -- ./inp_files/47736.got.cif
#   From: 2010.05.17/outbox.cif.g08.bks.cpg/sg2_24_cif.got.tgz:47736.got - 2010.06.03 11:33:40.
