data_PCOD9096918
_publ_section_title
;
Structure prediction by ZEFSAII (Michael W. Deem and Ramdas Pophale) SiO2 
 PCOD9096918
Probable space group: P -1
;
_chemical_formula_sum "Si O2"
_cell_formula_units_Z 12
_cell_length_a 10.367218
_cell_length_b 12.909765
_cell_length_c 5.352279
_cell_angle_alpha 125.787627
_cell_angle_beta 101.968249
_cell_angle_gamma 93.478828
_cell_volume 553.313530
_symmetry_space_group_name_H-M "P -1"
_symmetry_group_IT_number 2
_symmetry_cell_setting 'triclinic'
loop_
_space_group_symop_operation_xyz
x,y,z
-x,-y,-z
loop_
_atom_site_type_symbol
_atom_site_label
_atom_site_fract_x
_atom_site_fract_y
_atom_site_fract_z
Si Si1 0.793653 0.866563 0.654486
Si Si2 0.447462 0.324092 0.470433
Si Si3 0.935116 0.682673 0.179892
Si Si4 0.886838 0.420404 0.523662
Si Si5 0.043794 0.902854 0.179959
Si Si6 0.391074 0.609711 0.872772
O O1 0.663765 0.804827 0.678195
O O2 0.818992 0.758650 0.312048
O O3 0.814506 0.011516 0.748540
O O4 0.925970 0.880772 0.898272
O O5 0.383878 0.452893 0.644167
O O6 0.505493 0.326757 0.217759
O O7 0.559797 0.343231 0.763749
O O8 0.865074 0.534126 0.867691
O O9 0.042752 0.676547 0.431984
O O10 0.026323 0.765261 0.116239
O O11 0.751749 0.366616 0.239973
O O12 0.000000 0.500000 0.500000
O O13 0.000000 0.000000 0.500000
#
# Coordination Sequence:
#
# PCOD9096918 Si02
#       6
#     2   2   2   2   2   2
#     4  10  20  36  58  88 113 149 191 243 294 337
#     4  10  22  36  58  81 121 151 193 240 286 356
#     4  10  21  34  58  85 115 150 188 246 287 345
#     4  11  23  36  57  83 119 153 193 237 288 348
#     4   9  19  34  58  86 112 143 194 243 291 337
#     4  10  23  36  55  85 115 159 191 236 292 344
#
# _framework density 21.687524
#
# number of rings (size 3 to 8) (size 9 to 14) (size 15 to 20)
#    0.000    2.000    0.000    3.000   16.333    0.000 
#    0.000    0.000    0.000    2.000    0.000    0.000 
#    0.000    0.000    0.000    0.000    0.000    0.000 
#
# Total GULP energy -67002.793777 kJ/mol
# GULP energy per Si atom -5583.566148 kJ/mol
# Density = 2.163816 g / cm^3
# Si number density = 21.687524 Si / 1000 Ang^3
#
#
#
# Elastic Constant Matrix: (Units=GPa)
#
#
# Indices 1 2 3 4 5 6 
#
# 1 37.9587 16.4278 6.9382 2.1572 10.1074 10.2739
# 2 16.4278 129.5183 9.0046 -17.1282 16.6717 29.8248
# 3 6.9382 9.0046 60.3395 -11.8229 8.3600 -7.4215
# 4 2.1572 -17.1282 -11.8229 37.6067 -3.9931 1.6360
# 5 10.1074 16.6717 8.3600 -3.9931 31.7174 0.6814
# 6 10.2739 29.8248 -7.4215 1.6360 0.6814 34.9458
#
#
#
# Elastic Compliance Matrix: (Units=1/GPa)
#
#
# Indices 1 2 3 4 5 6 
#
# 1 0.032775 -0.001145 -0.004322 -0.004321 -0.009050 -0.009197
# 2 -0.001145 0.011430 -0.001209 0.004840 -0.004504 -0.009814
# 3 -0.004322 -0.001209 0.019402 0.005253 -0.002574 0.006227
# 4 -0.004321 0.004840 0.005253 0.030986 0.001419 -0.003223
# 5 -0.009050 -0.004504 -0.002574 0.001419 0.037526 0.005160
# 6 -0.009197 -0.009814 0.006227 -0.003223 0.005160 0.041068
#
#
# Mechanical properties :
#
#
# Convention : Reuss Voigt Hill
#
# Bulk Modulus (GPa) = 19.89849 32.50642 26.20246
# Shear Modulus (GPa) = 24.59551 33.88371 29.23961
#
# Velocity S-wave (km/s) = 3.37127 3.95696 3.67580
# Velocity P-wave (km/s) = 4.93447 5.99147 5.48848
#
# Compressibility (1/GPa) = 0.05025506
#
# Stress axis : x y z
#
# Youngs Moduli (GPa) = 30.51144 87.48947 51.54125
#
# Poissons Ratio (x) = 0.10020 0.22275
# Poissons Ratio (y) = 0.03494 0.06229
# Poissons Ratio (z) = 0.13186 0.10574
#
# Static dielectric constant tensor:
#      x y z
#    x 1.827710 0.004100 -0.084190 
#    y 0.004100 1.816630 0.002040 
#    z -0.084190 0.002040 1.862940 
# 
# From -- ./inp_files/64455.got.cif
#   From: 2010.05.17/outbox.cif.g08.bks.cpg/sg2_33_cif.got.tgz:64455.got - 2010.06.03 11:33:40.
