data_PCOD9096565
_publ_section_title
;
Structure prediction by ZEFSAII (Michael W. Deem and Ramdas Pophale) SiO2 
 PCOD9096565
Probable space group: P -1
;
_chemical_formula_sum "Si O2"
_cell_formula_units_Z 14
_cell_length_a 7.225446
_cell_length_b 22.256957
_cell_length_c 7.009693
_cell_angle_alpha 54.198501
_cell_angle_beta 60.725552
_cell_angle_gamma 36.409188
_cell_volume 542.277239
_symmetry_space_group_name_H-M "P -1"
_symmetry_group_IT_number 2
_symmetry_cell_setting 'triclinic'
loop_
_space_group_symop_operation_xyz
x,y,z
-x,-y,-z
loop_
_atom_site_type_symbol
_atom_site_label
_atom_site_fract_x
_atom_site_fract_y
_atom_site_fract_z
Si Si1 0.642189 0.641154 0.075551
Si Si2 0.763410 0.873636 0.355497
Si Si3 0.258212 0.600488 0.207633
Si Si4 0.828601 0.595490 0.631055
Si Si5 0.096753 0.875330 0.894363
Si Si6 0.258606 0.646782 0.696497
Si Si7 0.081914 0.045840 0.559062
O O1 0.400339 0.634929 0.178855
O O2 0.925486 0.536669 0.250869
O O3 0.775243 0.622395 0.832700
O O4 0.427383 0.764166 0.020031
O O5 0.885854 0.907559 0.369597
O O6 0.968240 0.750223 0.532699
O O7 0.410638 0.953354 0.451671
O O8 0.840006 0.883925 0.087527
O O9 0.551004 0.469904 0.272588
O O10 0.987072 0.625860 0.401978
O O11 0.156963 0.650205 0.954352
O O12 0.512594 0.647083 0.599170
O O13 0.130644 0.865685 0.665230
O O14 0.003234 0.983637 0.782876
#
# Coordination Sequence:
#
# PCOD9096565 Si02
#       7
#     2   2   2   2   2   2   2
#     4  10  22  36  57  88 119 156 203 238 291 366
#     4  11  23  43  65  89 121 159 200 253 306 352
#     4  10  20  36  56  84 124 160 194 243 291 350
#     4  10  20  36  56  84 124 160 194 243 291 350
#     4  11  23  43  65  89 121 159 200 253 306 352
#     4  10  22  36  57  88 119 156 203 238 291 366
#     4  10  24  42  64  92 118 152 208 256 300 362
#
# _framework density 25.817053000000001
#
# number of rings (size 3 to 8) (size 9 to 14) (size 15 to 20)
#    0.000    1.714    0.000    4.286    0.000    6.857 
#    0.000    7.143    0.000    0.000    0.000    0.000 
#    0.000    0.000    0.000    0.000    0.000    0.000 
#
# Total GULP energy -78538.817785 kJ/mol
# GULP energy per Si atom -5609.915556 kJ/mol
# Density = 2.575829 g / cm^3
# Si number density = 25.817053 Si / 1000 Ang^3
#
#
#
# Elastic Constant Matrix: (Units=GPa)
#
#
# Indices 1 2 3 4 5 6 
#
# 1 67.2144 6.2049 20.6557 -4.3910 -16.4373 1.9449
# 2 6.2049 89.8433 41.8069 -10.8962 0.3672 -14.8351
# 3 20.6557 41.8069 150.3194 -2.2305 -7.3974 -20.8911
# 4 -4.3910 -10.8962 -2.2305 43.8672 -6.4365 -1.2708
# 5 -16.4373 0.3672 -7.3974 -6.4365 31.5905 4.0987
# 6 1.9449 -14.8351 -20.8911 -1.2708 4.0987 34.0402
#
#
#
# Elastic Compliance Matrix: (Units=1/GPa)
#
#
# Indices 1 2 3 4 5 6 
#
# 1 0.018445 -0.000474 -0.002393 0.002985 0.010149 -0.003839
# 2 -0.000474 0.013736 -0.003160 0.003173 -0.001060 0.004320
# 3 -0.002393 -0.003160 0.008400 -0.000461 0.000162 0.003878
# 4 0.002985 0.003173 -0.000461 0.024819 0.006323 0.001095
# 5 0.010149 -0.001060 0.000162 0.006323 0.038975 -0.005400
# 6 -0.003839 0.004320 0.003878 0.001095 -0.005400 0.034550
#
#
# Mechanical properties :
#
#
# Convention : Reuss Voigt Hill
#
# Bulk Modulus (GPa) = 35.05282 49.41245 42.23263
# Shear Modulus (GPa) = 31.15504 37.81355 34.48429
#
# Velocity S-wave (km/s) = 3.47762 3.83126 3.65871
# Velocity P-wave (km/s) = 5.45270 6.22514 5.85168
#
# Compressibility (1/GPa) = 0.02852838
#
# Stress axis : x y z
#
# Youngs Moduli (GPa) = 54.21599 72.80041 119.04490
#
# Poissons Ratio (x) = 0.03451 0.28482
# Poissons Ratio (y) = 0.02570 0.37616
# Poissons Ratio (z) = 0.12972 0.23004
#
# Static dielectric constant tensor:
#      x y z
#    x 2.011920 0.005820 0.014740 
#    y 0.005820 1.991090 0.015650 
#    z 0.014740 0.015650 2.020070 
# 
# From -- ./inp_files/200662.got.cif
#   From: 2010.05.17/outbox.cif.g08.bks.cpg/sg2_101_cif.got.tgz:200662.got - 2010.06.03 11:33:40.
