data_PCOD9096068
_publ_section_title
;
Structure prediction by ZEFSAII (Michael W. Deem and Ramdas Pophale) SiO2 
 PCOD9096068
Probable space group: P -1
;
_chemical_formula_sum "Si O2"
_cell_formula_units_Z 16
_cell_length_a 14.482293
_cell_length_b 12.209856
_cell_length_c 15.055931
_cell_angle_alpha 148.759572
_cell_angle_beta 151.578449
_cell_angle_gamma 44.259231
_cell_volume 650.241663
_symmetry_space_group_name_H-M "P -1"
_symmetry_group_IT_number 2
_symmetry_cell_setting 'triclinic'
loop_
_space_group_symop_operation_xyz
x,y,z
-x,-y,-z
loop_
_atom_site_type_symbol
_atom_site_label
_atom_site_fract_x
_atom_site_fract_y
_atom_site_fract_z
Si Si1 0.283470 0.851026 0.808033
Si Si2 0.825981 0.524171 0.800192
Si Si3 0.015521 0.172099 0.011451
Si Si4 0.619281 0.686641 0.882461
Si Si5 0.228317 0.570251 0.897511
Si Si6 0.438421 0.676669 0.981975
Si Si7 0.858636 0.707340 0.609306
Si Si8 0.995036 0.763941 0.365541
O O1 0.353238 0.847815 0.966197
O O2 0.065191 0.766980 0.528862
O O3 0.332884 0.082566 0.965609
O O4 0.422319 0.692339 0.772779
O O5 0.830948 0.327508 0.602989
O O6 0.889440 0.726718 0.928839
O O7 0.641306 0.528162 0.710549
O O8 0.000000 0.500000 0.000000
O O9 0.159848 0.211949 0.247576
O O10 0.841679 0.306026 0.990110
O O11 0.928922 0.923041 0.763457
O O12 0.788313 0.659310 0.077903
O O13 0.336263 0.363586 0.861233
O O14 0.384366 0.711122 0.062059
O O15 0.035733 0.567388 0.671322
O O16 0.320873 0.449784 0.690649
O O17 0.000000 0.000000 0.500000
#
# Coordination Sequence:
#
# PCOD9096068 Si02
#       8
#     2   2   2   2   2   2   2   2
#     4  10  21  35  59  85 114 157 192 234 289 340
#     4  10  20  35  62  84 113 158 187 233 294 341
#     4   9  20  38  60  83 116 152 191 239 289 346
#     4   9  21  37  56  83 122 151 191 239 280 340
#     4   9  22  38  55  85 116 143 198 242 287 348
#     4  11  21  35  61  87 112 154 192 238 293 346
#     4   9  20  39  59  84 115 150 193 241 293 334
#     4   9  19  38  57  83 113 146 194 233 280 342
#
# _framework density 24.606235999999999
#
# number of rings (size 3 to 8) (size 9 to 14) (size 15 to 20)
#    0.750    1.750    0.000    1.125    5.250    1.000 
#    0.000    0.000   11.000    0.000    0.000    0.000 
#    0.000    0.000    0.000    0.000    0.000    0.000 
#
# Total GULP energy -89165.578708 kJ/mol
# GULP energy per Si atom -5572.848669 kJ/mol
# Density = 2.455023 g / cm^3
# Si number density = 24.606236 Si / 1000 Ang^3
#
#
#
# Elastic Constant Matrix: (Units=GPa)
#
#
# Indices 1 2 3 4 5 6 
#
# 1 96.1982 23.9360 -10.0535 -13.3488 5.5096 19.9149
# 2 23.9360 133.2827 16.1102 -12.4560 -1.2816 25.7143
# 3 -10.0535 16.1102 63.8210 -22.1499 3.7818 -5.5228
# 4 -13.3488 -12.4560 -22.1499 49.9086 -1.0391 5.0778
# 5 5.5096 -1.2816 3.7818 -1.0391 14.0865 -7.0494
# 6 19.9149 25.7143 -5.5228 5.0778 -7.0494 45.1541
#
#
#
# Elastic Compliance Matrix: (Units=1/GPa)
#
#
# Indices 1 2 3 4 5 6 
#
# 1 0.014075 -0.001230 0.004587 0.006016 -0.010000 -0.007184
# 2 -0.001230 0.009148 -0.002439 0.001390 -0.000534 -0.005205
# 3 0.004587 -0.002439 0.020772 0.009719 -0.007016 -0.000282
# 4 0.006016 0.001390 0.009719 0.026813 -0.005962 -0.006202
# 5 -0.010000 -0.000534 -0.007016 -0.005962 0.085220 0.017831
# 6 -0.007184 -0.005205 -0.000282 -0.006202 0.017831 0.031726
#
#
# Mechanical properties :
#
#
# Convention : Reuss Voigt Hill
#
# Bulk Modulus (GPa) = 21.82028 39.25414 30.53721
# Shear Modulus (GPa) = 24.85155 39.38377 32.11766
#
# Velocity S-wave (km/s) = 3.18145 4.00504 3.61676
# Velocity P-wave (km/s) = 4.73102 6.11348 5.46613
#
# Compressibility (1/GPa) = 0.04582893
#
# Stress axis : x y z
#
# Youngs Moduli (GPa) = 71.04623 109.31929 48.14259
#
# Poissons Ratio (x) = 0.13447 -0.22081
# Poissons Ratio (y) = 0.08739 0.11743
# Poissons Ratio (z) = -0.32586 0.26666
#
# Static dielectric constant tensor:
#      x y z
#    x 2.163550 0.103860 -0.205360 
#    y 0.103860 2.111300 -0.293760 
#    z -0.205360 -0.293760 2.521960 
# 
# From -- ./inp_files/532082.got.cif
#   From: 2010.05.17/outbox.cif.g08.bks.cpg/sg2_267_cif.got.tgz:532082.got - 2010.06.03 11:33:40.
