data_PCOD9096495
_publ_section_title
;
Structure prediction by ZEFSAII (Michael W. Deem and Ramdas Pophale) SiO2 
 PCOD9096495
Probable space group: P -1
;
_chemical_formula_sum "Si O2"
_cell_formula_units_Z 16
_cell_length_a 13.168984
_cell_length_b 10.672629
_cell_length_c 9.009280
_cell_angle_alpha 117.129519
_cell_angle_beta 130.445119
_cell_angle_gamma 43.337844
_cell_volume 661.040615
_symmetry_space_group_name_H-M "P -1"
_symmetry_group_IT_number 2
_symmetry_cell_setting 'triclinic'
loop_
_space_group_symop_operation_xyz
x,y,z
-x,-y,-z
loop_
_atom_site_type_symbol
_atom_site_label
_atom_site_fract_x
_atom_site_fract_y
_atom_site_fract_z
Si Si1 0.084671 0.655748 0.757257
Si Si2 0.917208 0.709566 0.165234
Si Si3 0.622931 0.957775 0.782451
Si Si4 0.472984 0.788823 0.417851
Si Si5 0.642260 0.408444 0.218854
Si Si6 0.225432 0.242499 0.635913
Si Si7 0.553047 0.318347 0.371385
Si Si8 0.834033 0.450209 0.914284
O O1 0.174705 0.695719 0.744663
O O2 0.177150 0.440857 0.702192
O O3 0.884107 0.755482 0.597899
O O4 0.130887 0.670703 0.976415
O O5 0.851879 0.783117 0.306604
O O6 0.092874 0.651380 0.228516
O O7 0.769644 0.850801 0.985353
O O8 0.933974 0.527913 0.086179
O O9 0.607384 0.823534 0.602717
O O10 0.641411 0.075105 0.751031
O O11 0.430981 0.097899 0.746010
O O12 0.582674 0.585528 0.350289
O O13 0.374124 0.817247 0.492696
O O14 0.639085 0.289165 0.277915
O O15 0.500000 0.500000 0.000000
O O16 0.500000 0.500000 0.500000
O O17 0.366357 0.376716 0.188936
#
# Coordination Sequence:
#
# PCOD9096495 Si02
#       8
#     2   2   2   2   2   2   2   2
#     4  10  21  36  58  91 121 152 206 249 302 347
#     4  10  22  34  60  89 122 156 193 255 307 358
#     4  11  21  38  63  88 129 156 194 252 314 373
#     4  10  23  36  61  92 118 160 202 241 306 359
#     4  11  21  39  63  91 120 160 208 249 286 353
#     4  10  22  36  60  88 125 155 194 261 302 360
#     4  10  21  36  61  86 118 160 201 242 284 357
#     4  10  20  36  55  91 122 150 202 248 300 351
#
# _framework density 24.204263000000001
#
# number of rings (size 3 to 8) (size 9 to 14) (size 15 to 20)
#    0.000    1.750    3.750    0.375    7.000    0.000 
#    2.250    0.000    0.000    7.500    0.000    0.000 
#    0.000    0.000    0.000    0.000    0.000    0.000 
#
# Total GULP energy -89383.961165 kJ/mol
# GULP energy per Si atom -5586.497573 kJ/mol
# Density = 2.414917 g / cm^3
# Si number density = 24.204263 Si / 1000 Ang^3
#
#
#
# Elastic Constant Matrix: (Units=GPa)
#
#
# Indices 1 2 3 4 5 6 
#
# 1 182.7844 19.5167 25.8922 -16.0942 -48.3489 -12.0434
# 2 19.5167 46.8906 3.4211 -11.0315 -4.6440 -8.2216
# 3 25.8922 3.4211 59.3697 -17.6067 -22.9357 -0.8517
# 4 -16.0942 -11.0315 -17.6067 30.4455 5.5461 -5.0384
# 5 -48.3489 -4.6440 -22.9357 5.5461 44.6980 -7.8561
# 6 -12.0434 -8.2216 -0.8517 -5.0384 -7.8561 35.4587
#
#
#
# Elastic Compliance Matrix: (Units=1/GPa)
#
#
# Indices 1 2 3 4 5 6 
#
# 1 0.009033 -0.000643 0.001857 0.004591 0.011157 0.006088
# 2 -0.000643 0.026057 0.004086 0.012132 0.004107 0.008555
# 3 0.001857 0.004086 0.026800 0.016452 0.015550 0.008005
# 4 0.004591 0.012132 0.016452 0.049532 0.011027 0.014249
# 5 0.011157 0.004107 0.015550 0.011027 0.044381 0.016515
# 6 0.006088 0.008555 0.008005 0.014249 0.016515 0.038129
#
#
# Mechanical properties :
#
#
# Convention : Reuss Voigt Hill
#
# Bulk Modulus (GPa) = 13.79509 42.96718 28.38113
# Shear Modulus (GPa) = 24.09695 38.13476 31.11585
#
# Velocity S-wave (km/s) = 3.15868 3.97361 3.58935
# Velocity P-wave (km/s) = 4.36060 6.23243 5.37857
#
# Compressibility (1/GPa) = 0.07248957
#
# Stress axis : x y z
#
# Youngs Moduli (GPa) = 110.70309 38.37794 37.31388
#
# Poissons Ratio (x) = 0.02467 -0.06928
# Poissons Ratio (y) = 0.07115 -0.15247
# Poissons Ratio (z) = -0.20554 -0.15682
#
# Static dielectric constant tensor:
#      x y z
#    x 1.935430 0.073940 -0.085850 
#    y 0.073940 1.860880 0.067560 
#    z -0.085850 0.067560 1.955640 
# 
# From -- ./inp_files/223038.got.cif
#   From: 2010.05.17/outbox.cif.g08.bks.cpg/sg2_112_cif.got.tgz:223038.got - 2010.06.03 11:33:40.
