data_PCOD9096304
_publ_section_title
;
Structure prediction by ZEFSAII (Michael W. Deem and Ramdas Pophale) SiO2 
 PCOD9096304
Probable space group: P -1
;
_chemical_formula_sum "Si O2"
_cell_formula_units_Z 13
_cell_length_a 14.783387
_cell_length_b 11.704489
_cell_length_c 8.540125
_cell_angle_alpha 114.540269
_cell_angle_beta 40.548198
_cell_angle_gamma 142.878983
_cell_volume 506.775975
_symmetry_space_group_name_H-M "P -1"
_symmetry_group_IT_number 2
_symmetry_cell_setting 'triclinic'
loop_
_space_group_symop_operation_xyz
x,y,z
-x,-y,-z
loop_
_atom_site_type_symbol
_atom_site_label
_atom_site_fract_x
_atom_site_fract_y
_atom_site_fract_z
Si Si1 0.689261 0.046878 0.570313
Si Si2 0.279337 0.796692 0.790992
Si Si3 0.500000 0.500000 0.500000
Si Si4 0.053830 0.791945 0.357038
Si Si5 0.679304 0.341197 0.778358
Si Si6 0.111729 0.414656 0.032000
Si Si7 0.356330 0.323814 0.225907
O O1 0.672604 0.186922 0.678684
O O2 0.767520 0.061726 0.646567
O O3 0.903143 0.169167 0.241412
O O4 0.433107 0.813991 0.707530
O O5 0.049941 0.611644 0.875962
O O6 0.500000 0.000000 0.500000
O O7 0.177964 0.823959 0.061132
O O8 0.455982 0.426198 0.327152
O O9 0.293692 0.456442 0.731788
O O10 0.858234 0.545553 0.540696
O O11 0.905279 0.807552 0.522258
O O12 0.786422 0.443143 0.867684
O O13 0.429617 0.234121 0.038850
O O14 0.500000 0.500000 0.000000
#
# Coordination Sequence:
#
# PCOD9096304 Si02
#       7
#     2   2   1   2   2   2   2
#     4  10  20  35  54  84 117 139 177 238 289 325
#     4  10  20  33  52  80 112 147 184 221 276 339
#     4  10  16  30  54  78 110 132 198 232 264 308
#     4  10  17  33  56  80 103 147 194 218 262 343
#     4   9  19  35  56  84 112 138 184 239 282 321
#     4   9  17  31  53  76 103 145 181 222 268 328
#     4   9  18  31  56  83 106 144 191 230 271 336
#
# _framework density 25.652360000000002
#
# number of rings (size 3 to 8) (size 9 to 14) (size 15 to 20)
#    0.000    2.462    1.538    3.231    0.000    0.000 
#    0.000    7.692    0.000    0.000    0.000   18.308 
#    0.000    0.000    0.000    0.000    0.000    0.000 
#
# Total GULP energy -72425.174368 kJ/mol
# GULP energy per Si atom -5571.167259 kJ/mol
# Density = 2.559397 g / cm^3
# Si number density = 25.652360 Si / 1000 Ang^3
#
#
#
# Elastic Constant Matrix: (Units=GPa)
#
#
# Indices 1 2 3 4 5 6 
#
# 1 156.9825 42.6934 60.8377 1.6213 -14.6018 15.7092
# 2 42.6934 79.9792 49.6848 0.7585 -11.8162 14.9873
# 3 60.8377 49.6848 180.5194 15.7785 -19.9301 -2.3363
# 4 1.6213 0.7585 15.7785 39.1000 19.6812 -5.6454
# 5 -14.6018 -11.8162 -19.9301 19.6812 57.1227 -7.3564
# 6 15.7092 14.9873 -2.3363 -5.6454 -7.3564 55.7095
#
#
#
# Elastic Compliance Matrix: (Units=1/GPa)
#
#
# Indices 1 2 3 4 5 6 
#
# 1 0.008070 -0.002736 -0.001909 -0.000063 0.000654 -0.001539
# 2 -0.002736 0.017166 -0.003771 0.000270 0.000947 -0.003852
# 3 -0.001909 -0.003771 0.008000 -0.004469 0.003304 0.001872
# 4 -0.000063 0.000270 -0.004469 0.034189 -0.013107 0.001492
# 5 0.000654 0.000947 0.003304 -0.013107 0.023732 0.001505
# 6 -0.001539 -0.003852 0.001872 0.001492 0.001505 0.019849
#
#
# Mechanical properties :
#
#
# Convention : Reuss Voigt Hill
#
# Bulk Modulus (GPa) = 60.96278 80.43476 70.69877
# Shear Modulus (GPa) = 37.50763 48.00413 42.75588
#
# Velocity S-wave (km/s) = 3.82796 4.33058 4.08700
# Velocity P-wave (km/s) = 6.58439 7.51193 7.06340
#
# Compressibility (1/GPa) = 0.01640345
#
# Stress axis : x y z
#
# Youngs Moduli (GPa) = 123.92339 58.25513 124.99225
#
# Poissons Ratio (x) = 0.15939 0.23857
# Poissons Ratio (y) = 0.33907 0.47140
# Poissons Ratio (z) = 0.23653 0.21970
#
# Static dielectric constant tensor:
#      x y z
#    x 2.041590 -0.018380 0.047410 
#    y -0.018380 2.097050 -0.154750 
#    z 0.047410 -0.154750 2.048600 
# 
# From -- ./inp_files/247821.got.cif
#   From: 2010.05.17/outbox.cif.g08.bks.cpg/sg2_124_cif.got.tgz:247821.got - 2010.06.03 11:33:40.
