data_PCOD9096374
_publ_section_title
;
Structure prediction by ZEFSAII (Michael W. Deem and Ramdas Pophale) SiO2 
 PCOD9096374
Probable space group: P -1
;
_chemical_formula_sum "Si O2"
_cell_formula_units_Z 16
_cell_length_a 6.154245
_cell_length_b 10.472239
_cell_length_c 14.476532
_cell_angle_alpha 115.061611
_cell_angle_beta 73.865352
_cell_angle_gamma 120.961265
_cell_volume 722.570171
_symmetry_space_group_name_H-M "P -1"
_symmetry_group_IT_number 2
_symmetry_cell_setting 'triclinic'
loop_
_space_group_symop_operation_xyz
x,y,z
-x,-y,-z
loop_
_atom_site_type_symbol
_atom_site_label
_atom_site_fract_x
_atom_site_fract_y
_atom_site_fract_z
Si Si1 0.974201 0.037614 0.137623
Si Si2 0.540606 0.213346 0.628134
Si Si3 0.436813 0.719872 0.860793
Si Si4 0.157666 0.719679 0.705098
Si Si5 0.464151 0.329480 0.478814
Si Si6 0.917732 0.097188 0.467618
Si Si7 0.011576 0.767885 0.983086
Si Si8 0.668690 0.505324 0.805431
O O1 0.279499 0.139447 0.135504
O O2 0.908332 0.100465 0.068633
O O3 0.853607 0.114477 0.245624
O O4 0.908288 0.853868 0.093250
O O5 0.465613 0.297126 0.577931
O O6 0.790450 0.194656 0.564467
O O7 0.585331 0.321857 0.745878
O O8 0.309508 0.037290 0.604577
O O9 0.312146 0.709702 0.773311
O O10 0.451060 0.558928 0.832184
O O11 0.265671 0.752327 0.966644
O O12 0.301164 0.694344 0.594964
O O13 0.873791 0.588743 0.723572
O O14 0.500000 0.500000 0.500000
O O15 0.192145 0.212669 0.429185
O O16 0.000000 0.000000 0.500000
O O17 0.811590 0.601766 0.910676
#
# Coordination Sequence:
#
# PCOD9096374 Si02
#       8
#     2   2   2   2   2   2   2   2
#     4   8  14  24  37  56  90 126 155 190 236 282
#     4  10  20  36  52  69  99 133 163 202 242 286
#     4   8  14  24  39  61  93 125 154 189 236 283
#     4   9  18  27  39  67  97 123 157 196 236 284
#     4  11  21  32  51  76 101 130 164 201 243 289
#     4   9  21  37  52  69  94 130 170 203 241 287
#     4   8  14  23  37  60  87 121 159 193 231 280
#     4   9  17  27  43  67  93 121 157 196 239 283
#
# _framework density 22.143177000000001
#
# number of rings (size 3 to 8) (size 9 to 14) (size 15 to 20)
#    0.000    3.500    0.000    1.875    0.000    8.000 
#    0.000    0.000    0.000    0.000    0.000    0.875 
#    0.000   11.000    0.000    0.375    0.000    0.625 
#
# Total GULP energy -89140.406910 kJ/mol
# GULP energy per Si atom -5571.275432 kJ/mol
# Density = 2.209278 g / cm^3
# Si number density = 22.143177 Si / 1000 Ang^3
#
#
#
# Elastic Constant Matrix: (Units=GPa)
#
#
# Indices 1 2 3 4 5 6 
#
# 1 78.1556 8.6520 26.7711 11.7163 -32.5560 -0.8928
# 2 8.6520 45.7579 35.2470 17.7502 -11.2539 2.1906
# 3 26.7711 35.2470 97.1357 44.9137 -31.7377 5.9434
# 4 11.7163 17.7502 44.9137 39.3675 -5.6845 1.7751
# 5 -32.5560 -11.2539 -31.7377 -5.6845 32.8824 1.4026
# 6 -0.8928 2.1906 5.9434 1.7751 1.4026 20.3201
#
#
#
# Elastic Compliance Matrix: (Units=1/GPa)
#
#
# Indices 1 2 3 4 5 6 
#
# 1 0.024992 0.001221 0.010722 -0.015317 0.032996 -0.003109
# 2 0.001221 0.030509 -0.008956 -0.003532 0.002416 -0.000474
# 3 0.010722 -0.008956 0.048118 -0.046820 0.046401 -0.011750
# 4 -0.015317 -0.003532 -0.046820 0.077502 -0.048591 0.009986
# 5 0.032996 0.002416 0.046401 -0.048591 0.100936 -0.015105
# 6 -0.003109 -0.000474 -0.011750 0.009986 -0.015105 0.052734
#
#
# Mechanical properties :
#
#
# Convention : Reuss Voigt Hill
#
# Bulk Modulus (GPa) = 9.12462 40.26548 24.69505
# Shear Modulus (GPa) = 13.68561 28.53926 21.11243
#
# Velocity S-wave (km/s) = 2.48876 3.59395 3.09115
# Velocity P-wave (km/s) = 3.51969 5.95362 4.89049
#
# Compressibility (1/GPa) = 0.10959358
#
# Stress axis : x y z
#
# Youngs Moduli (GPa) = 40.01260 32.77761 20.78227
#
# Poissons Ratio (x) = -0.04001 -0.22284
# Poissons Ratio (y) = -0.04884 0.18612
# Poissons Ratio (z) = -0.42903 0.29354
#
# Static dielectric constant tensor:
#      x y z
#    x 1.841870 0.017740 0.022960 
#    y 0.017740 1.857190 -0.009830 
#    z 0.022960 -0.009830 1.972710 
# 
# From -- ./inp_files/582870.got.cif
#   From: 2010.05.17/outbox.cif.g08.bks.cpg/sg2_292_cif.got.tgz:582870.got - 2010.06.03 11:33:40.
