data_PCOD9096351
_publ_section_title
;
Structure prediction by ZEFSAII (Michael W. Deem and Ramdas Pophale) SiO2 
 PCOD9096351
Probable space group: P -1
;
_chemical_formula_sum "Si O2"
_cell_formula_units_Z 14
_cell_length_a 6.114621
_cell_length_b 11.133455
_cell_length_c 11.371271
_cell_angle_alpha 73.146229
_cell_angle_beta 108.501629
_cell_angle_gamma 128.312481
_cell_volume 571.476503
_symmetry_space_group_name_H-M "P -1"
_symmetry_group_IT_number 2
_symmetry_cell_setting 'triclinic'
loop_
_space_group_symop_operation_xyz
x,y,z
-x,-y,-z
loop_
_atom_site_type_symbol
_atom_site_label
_atom_site_fract_x
_atom_site_fract_y
_atom_site_fract_z
Si Si1 0.249512 0.037662 0.616572
Si Si2 0.939620 0.513006 0.683820
Si Si3 0.698751 0.877812 0.036553
Si Si4 0.780149 0.140257 0.131281
Si Si5 0.648532 0.684676 0.285733
Si Si6 0.193834 0.719292 0.467379
Si Si7 0.168333 0.441394 0.967597
O O1 0.321134 0.177304 0.674014
O O2 0.539732 0.112009 0.572179
O O3 0.147839 0.888597 0.720283
O O4 0.000000 0.000000 0.500000
O O5 0.658020 0.477971 0.708430
O O6 0.795450 0.401508 0.577065
O O7 0.163451 0.673686 0.611779
O O8 0.074343 0.457875 0.815528
O O9 0.680183 0.742526 0.141070
O O10 0.655188 0.975259 0.096164
O O11 0.459083 0.827564 0.913684
O O12 0.000000 0.000000 0.000000
O O13 0.015743 0.271926 0.048403
O O14 0.904248 0.687132 0.379841
O O15 0.500000 0.500000 0.000000
O O16 0.000000 0.500000 0.000000
#
# Coordination Sequence:
#
# PCOD9096351 Si02
#       7
#     2   2   2   2   2   2   2
#     4  10  23  40  60  93 132 169 222 278 348 414
#     4  10  23  42  65  95 132 174 237 282 341 415
#     4  10  20  35  68  93 124 166 221 292 342 404
#     4  10  23  41  61  98 128 171 228 280 346 412
#     4  10  20  38  64  94 120 170 226 280 347 399
#     4  10  22  40  67  95 127 180 226 290 342 408
#     4  12  30  48  71 103 145 193 231 287 357 422
#
# _framework density 24.497947
#
# number of rings (size 3 to 8) (size 9 to 14) (size 15 to 20)
#    0.000    1.714    1.429    1.286   10.000    1.714 
#    0.000    0.000    0.000    0.000    0.000    0.000 
#    0.000    0.000    0.000    0.000    0.000    0.000 
#
# Total GULP energy -78062.272319 kJ/mol
# GULP energy per Si atom -5575.876594 kJ/mol
# Density = 2.444219 g / cm^3
# Si number density = 24.497947 Si / 1000 Ang^3
#
#
#
# Elastic Constant Matrix: (Units=GPa)
#
#
# Indices 1 2 3 4 5 6 
#
# 1 96.2766 21.3348 57.7242 -14.4341 22.5728 36.0246
# 2 21.3348 40.1288 48.6478 -13.9617 1.0390 9.1531
# 3 57.7242 48.6478 224.2966 -47.0285 21.9653 33.6025
# 4 -14.4341 -13.9617 -47.0285 45.8396 -3.8453 -15.1348
# 5 22.5728 1.0390 21.9653 -3.8453 37.6973 15.2440
# 6 36.0246 9.1531 33.6025 -15.1348 15.2440 59.1219
#
#
#
# Elastic Compliance Matrix: (Units=1/GPa)
#
#
# Indices 1 2 3 4 5 6 
#
# 1 0.016415 -0.005331 -0.001634 -0.000925 -0.006021 -0.006932
# 2 -0.005331 0.036570 -0.006517 0.003487 0.006089 0.000613
# 3 -0.001634 -0.006517 0.007659 0.005009 -0.002637 -0.000386
# 4 -0.000925 0.003487 0.005009 0.029269 -0.001522 0.005062
# 5 -0.006021 0.006089 -0.002637 -0.001522 0.033263 -0.004741
# 6 -0.006932 0.000613 -0.000386 0.005062 -0.004741 0.023781
#
#
# Mechanical properties :
#
#
# Convention : Reuss Voigt Hill
#
# Bulk Modulus (GPa) = 29.69118 68.45731 49.07424
# Shear Modulus (GPa) = 27.00567 44.06476 35.53521
#
# Velocity S-wave (km/s) = 3.32379 4.24572 3.81273
# Velocity P-wave (km/s) = 5.18423 7.21385 6.28156
#
# Compressibility (1/GPa) = 0.03368004
#
# Stress axis : x y z
#
# Youngs Moduli (GPa) = 60.92131 27.34487 130.56978
#
# Poissons Ratio (x) = 0.14577 0.21335
# Poissons Ratio (y) = 0.32477 0.85089
# Poissons Ratio (z) = 0.09955 0.17820
#
# Static dielectric constant tensor:
#      x y z
#    x 2.005320 -0.081200 -0.111800 
#    y -0.081200 2.018830 -0.012470 
#    z -0.111800 -0.012470 1.950100 
# 
# From -- ./inp_files/116921.got.cif
#   From: 2010.05.17/outbox.cif.g08.bks.cpg/sg2_59_cif.got.tgz:116921.got - 2010.06.03 11:33:40.
