data_PCOD9096553
_publ_section_title
;
Structure prediction by ZEFSAII (Michael W. Deem and Ramdas Pophale) SiO2 
 PCOD9096553
Probable space group: P -1
;
_chemical_formula_sum "Si O2"
_cell_formula_units_Z 14
_cell_length_a 15.328975
_cell_length_b 10.200665
_cell_length_c 10.029385
_cell_angle_alpha 31.075468
_cell_angle_beta 134.967524
_cell_angle_gamma 119.633805
_cell_volume 545.701382
_symmetry_space_group_name_H-M "P -1"
_symmetry_group_IT_number 2
_symmetry_cell_setting 'triclinic'
loop_
_space_group_symop_operation_xyz
x,y,z
-x,-y,-z
loop_
_atom_site_type_symbol
_atom_site_label
_atom_site_fract_x
_atom_site_fract_y
_atom_site_fract_z
Si Si1 0.731541 0.131174 0.171999
Si Si2 0.467041 0.992204 0.318184
Si Si3 0.855404 0.541219 0.856657
Si Si4 0.052986 0.385087 0.821843
Si Si5 0.818157 0.215156 0.496136
Si Si6 0.511685 0.583141 0.230199
Si Si7 0.249673 0.449293 0.627001
O O1 0.769164 0.181084 0.323380
O O2 0.768054 0.818426 0.458801
O O3 0.809586 0.279215 0.035824
O O4 0.577302 0.269058 0.873357
O O5 0.519585 0.690695 0.589406
O O6 0.500000 0.000000 0.500000
O O7 0.523811 0.190900 0.121616
O O8 0.313553 0.137210 0.003078
O O9 0.000000 0.500000 0.000000
O O10 0.863621 0.602479 0.968001
O O11 0.902989 0.460057 0.636874
O O12 0.081868 0.610494 0.564654
O O13 0.113291 0.076799 0.116594
O O14 0.723171 0.387212 0.356939
O O15 0.666136 0.501435 0.448561
#
# Coordination Sequence:
#
# PCOD9096553 Si02
#       7
#     2   2   2   2   2   2   2
#     4  10  20  36  56  84 108 132 179 225 268 319
#     4  10  21  31  48  74 106 149 188 203 245 302
#     4  10  21  39  62  81 101 134 178 232 280 318
#     4  10  22  36  52  80 106 143 181 222 267 313
#     4  10  21  32  53  76 112 146 178 215 255 312
#     4  10  22  33  51  79 109 146 178 218 259 306
#     4  10  23  32  55  74 119 147 180 206 260 318
#
# _framework density 25.655054
#
# number of rings (size 3 to 8) (size 9 to 14) (size 15 to 20)
#    0.857    1.143    0.000    3.429    6.000    1.143 
#    0.000    0.000    0.000    1.714    0.000    0.000 
#    0.000    0.000    0.000    0.000    0.000    0.000 
#
# Total GULP energy -78211.032028 kJ/mol
# GULP energy per Si atom -5586.502288 kJ/mol
# Density = 2.559666 g / cm^3
# Si number density = 25.655054 Si / 1000 Ang^3
#
#
#
# Elastic Constant Matrix: (Units=GPa)
#
#
# Indices 1 2 3 4 5 6 
#
# 1 78.2330 16.3663 44.9064 -4.5511 8.4009 34.0177
# 2 16.3663 65.0893 25.4939 -13.6943 -13.9524 2.6428
# 3 44.9064 25.4939 175.1145 -35.0344 -2.2644 14.9625
# 4 -4.5511 -13.6943 -35.0344 42.8730 -1.7082 -1.9896
# 5 8.4009 -13.9524 -2.2644 -1.7082 43.9130 6.5710
# 6 34.0177 2.6428 14.9625 -1.9896 6.5710 35.8922
#
#
#
# Elastic Compliance Matrix: (Units=1/GPa)
#
#
# Indices 1 2 3 4 5 6 
#
# 1 0.026734 -0.005590 -0.005037 -0.004258 -0.003974 -0.022335
# 2 -0.005590 0.019519 -0.000439 0.005705 0.007010 0.003077
# 3 -0.005037 -0.000439 0.008180 0.006130 0.001259 0.001505
# 4 -0.004258 0.005705 0.006130 0.029949 0.003805 0.002024
# 5 -0.003974 0.007010 0.001259 0.003805 0.026253 -0.001870
# 6 -0.022335 0.003077 0.001505 0.002024 -0.001870 0.048630
#
#
# Mechanical properties :
#
#
# Convention : Reuss Voigt Hill
#
# Bulk Modulus (GPa) = 30.95904 54.66334 42.81119
# Shear Modulus (GPa) = 26.01955 39.98033 32.99994
#
# Velocity S-wave (km/s) = 3.18812 3.95191 3.59038
# Velocity P-wave (km/s) = 5.06416 6.49437 5.82334
#
# Compressibility (1/GPa) = 0.03230074
#
# Stress axis : x y z
#
# Youngs Moduli (GPa) = 37.40614 51.23209 122.24827
#
# Poissons Ratio (x) = 0.28640 0.61573
# Poissons Ratio (y) = 0.20911 0.05368
# Poissons Ratio (z) = 0.18840 0.02250
#
# Static dielectric constant tensor:
#      x y z
#    x 2.057750 -0.018960 -0.033560 
#    y -0.018960 2.103540 0.118720 
#    z -0.033560 0.118720 2.042310 
# 
# From -- ./inp_files/75843.got.cif
#   From: 2010.05.17/outbox.cif.g08.bks.cpg/sg2_38_cif.got.tgz:75843.got - 2010.06.03 11:33:40.
