data_PCOD9096069
_publ_section_title
;
Structure prediction by ZEFSAII (Michael W. Deem and Ramdas Pophale) SiO2 
 PCOD9096069
Probable space group: P -1
;
_chemical_formula_sum "Si O2"
_cell_formula_units_Z 12
_cell_length_a 7.487476
_cell_length_b 9.435056
_cell_length_c 11.816830
_cell_angle_alpha 145.476255
_cell_angle_beta 102.027362
_cell_angle_gamma 92.381091
_cell_volume 427.127307
_symmetry_space_group_name_H-M "P -1"
_symmetry_group_IT_number 2
_symmetry_cell_setting 'triclinic'
loop_
_space_group_symop_operation_xyz
x,y,z
-x,-y,-z
loop_
_atom_site_type_symbol
_atom_site_label
_atom_site_fract_x
_atom_site_fract_y
_atom_site_fract_z
Si Si1 0.325155 0.674034 0.201225
Si Si2 0.083529 0.441421 0.810749
Si Si3 0.513786 0.144100 0.372265
Si Si4 0.643304 0.803360 0.997156
Si Si5 0.200437 0.036030 0.116597
Si Si6 0.937378 0.296550 0.464672
O O1 0.128453 0.687688 0.240238
O O2 0.463850 0.959942 0.355613
O O3 0.409174 0.507940 0.186902
O O4 0.246111 0.472190 0.947982
O O5 0.074454 0.310883 0.599856
O O6 0.122813 0.745862 0.977982
O O7 0.743489 0.337622 0.518818
O O8 0.508858 0.922785 0.128153
O O9 0.335594 0.227745 0.361854
O O10 0.653777 0.866487 0.908887
O O11 0.855258 0.996761 0.205251
O O12 0.000000 0.000000 0.000000
O O13 0.000000 0.500000 0.500000
#
# Coordination Sequence:
#
# PCOD9096069 Si02
#       6
#     2   2   2   2   2   2
#     4  10  20  36  60  85 111 157 195 231 281 347
#     4  10  20  36  58  84 119 151 191 237 288 338
#     4   9  22  36  58  86 117 150 192 240 285 339
#     4  10  20  35  62  84 114 149 199 234 284 338
#     4  11  19  36  63  85 111 155 200 236 277 345
#     4  10  21  37  59  84 122 152 185 243 293 330
#
# _framework density 28.094667999999999
#
# number of rings (size 3 to 8) (size 9 to 14) (size 15 to 20)
#    1.000    1.000    3.333    1.000    0.000    1.333 
#    0.000    0.833    0.000    0.000    0.000    0.000 
#    0.000    0.000    0.000    0.000    0.000    0.000 
#
# Total GULP energy -66997.182454 kJ/mol
# GULP energy per Si atom -5583.098538 kJ/mol
# Density = 2.803072 g / cm^3
# Si number density = 28.094668 Si / 1000 Ang^3
#
#
#
# Elastic Constant Matrix: (Units=GPa)
#
#
# Indices 1 2 3 4 5 6 
#
# 1 68.7533 45.0448 9.1564 3.4159 12.8245 20.5652
# 2 45.0448 237.1164 39.0867 -7.3768 8.7447 31.0202
# 3 9.1564 39.0867 95.9408 -1.9709 6.0246 9.3254
# 4 3.4159 -7.3768 -1.9709 57.9895 6.5688 -0.3051
# 5 12.8245 8.7447 6.0246 6.5688 42.9706 0.1464
# 6 20.5652 31.0202 9.3254 -0.3051 0.1464 52.1261
#
#
#
# Elastic Compliance Matrix: (Units=1/GPa)
#
#
# Indices 1 2 3 4 5 6 
#
# 1 0.019051 -0.002715 0.000158 -0.000928 -0.004993 -0.005920
# 2 -0.002715 0.005272 -0.001693 0.000779 -0.000138 -0.001758
# 3 0.000158 -0.001693 0.011291 0.000304 -0.001329 -0.001069
# 4 -0.000928 0.000779 0.000304 0.017706 -0.002631 -0.000041
# 5 -0.004993 -0.000138 -0.001329 -0.002631 0.025371 0.002203
# 6 -0.005920 -0.001758 -0.001069 -0.000041 0.002203 0.022751
#
#
# Mechanical properties :
#
#
# Convention : Reuss Voigt Hill
#
# Bulk Modulus (GPa) = 36.88247 65.37626 51.12936
# Shear Modulus (GPa) = 42.02363 51.18542 46.60453
#
# Velocity S-wave (km/s) = 3.87174 4.27299 4.07730
# Velocity P-wave (km/s) = 5.75704 6.90399 6.35644
#
# Compressibility (1/GPa) = 0.02711315
#
# Stress axis : x y z
#
# Youngs Moduli (GPa) = 52.49078 189.69660 88.56345
#
# Poissons Ratio (x) = 0.51510 -0.01399
# Poissons Ratio (y) = 0.14253 0.14993
# Poissons Ratio (z) = -0.00829 0.32115
#
# Static dielectric constant tensor:
#      x y z
#    x 2.447560 -0.003750 -0.033770 
#    y -0.003750 2.053430 -0.026800 
#    z -0.033770 -0.026800 2.359800 
# 
# From -- ./inp_files/151054.got.cif
#   From: 2010.05.17/outbox.cif.g08.bks.cpg/sg2_76_cif.got.tgz:151054.got - 2010.06.03 11:33:40.
