data_PCOD9096897
_publ_section_title
;
Structure prediction by ZEFSAII (Michael W. Deem and Ramdas Pophale) SiO2 
 PCOD9096897
Probable space group: P -1
;
_chemical_formula_sum "Si O2"
_cell_formula_units_Z 16
_cell_length_a 7.212172
_cell_length_b 10.338267
_cell_length_c 11.691880
_cell_angle_alpha 89.631457
_cell_angle_beta 83.875259
_cell_angle_gamma 131.491680
_cell_volume 645.778081
_symmetry_space_group_name_H-M "P -1"
_symmetry_group_IT_number 2
_symmetry_cell_setting 'triclinic'
loop_
_space_group_symop_operation_xyz
x,y,z
-x,-y,-z
loop_
_atom_site_type_symbol
_atom_site_label
_atom_site_fract_x
_atom_site_fract_y
_atom_site_fract_z
Si Si1 0.989324 0.393939 0.285477
Si Si2 0.817935 0.805170 0.159477
Si Si3 0.297078 0.871084 0.862335
Si Si4 0.974097 0.802026 0.541267
Si Si5 0.041958 0.335864 0.683768
Si Si6 0.546510 0.301668 0.431123
Si Si7 0.433605 0.123052 0.658813
Si Si8 0.317731 0.113073 0.039022
O O1 0.965056 0.298363 0.173619
O O2 0.088969 0.586976 0.279761
O O3 0.689710 0.279358 0.329682
O O4 0.098474 0.360119 0.380928
O O5 0.898856 0.704158 0.200561
O O6 0.650203 0.788173 0.269181
O O7 0.679885 0.765803 0.048733
O O8 0.073661 0.007315 0.134824
O O9 0.462975 0.029188 0.757257
O O10 0.441046 0.815449 0.906701
O O11 0.262938 0.961231 0.963922
O O12 0.063326 0.808407 0.406296
O O13 0.741936 0.793448 0.556772
O O14 0.201663 0.961073 0.600294
O O15 0.298684 0.495826 0.601777
O O16 0.607723 0.254223 0.544157
#
# Coordination Sequence:
#
# PCOD9096897 Si02
#       8
#     2   2   2   2   2   2   2   2
#     4   9  23  36  56  84 121 152 189 227 285 353
#     4  10  20  36  58  87 110 148 200 237 289 340
#     4   9  19  40  57  82 114 146 194 248 290 328
#     4  11  20  37  55  86 124 155 191 223 276 350
#     4  10  22  37  56  83 126 155 183 228 290 350
#     4  10  22  36  55  87 124 158 178 232 279 350
#     4  10  21  34  59  88 117 151 191 231 284 343
#     4   9  20  37  61  82 107 146 199 259 281 321
#
# _framework density 24.776312000000001
#
# number of rings (size 3 to 8) (size 9 to 14) (size 15 to 20)
#    0.750    1.500    1.250    1.125    1.750    3.000 
#    0.000    2.500    0.000    0.000    0.000    0.000 
#    0.000    0.000    0.000    0.000    0.000    0.000 
#
# Total GULP energy -89254.761485 kJ/mol
# GULP energy per Si atom -5578.422593 kJ/mol
# Density = 2.471992 g / cm^3
# Si number density = 24.776312 Si / 1000 Ang^3
#
#
#
# Elastic Constant Matrix: (Units=GPa)
#
#
# Indices 1 2 3 4 5 6 
#
# 1 84.4251 4.1632 22.4295 -3.3202 31.2941 -13.0887
# 2 4.1632 37.4414 22.0721 -7.4836 12.3945 -7.5942
# 3 22.4295 22.0721 102.6326 -4.1424 35.4521 -1.8721
# 4 -3.3202 -7.4836 -4.1424 29.5215 -8.6169 8.1676
# 5 31.2941 12.3945 35.4521 -8.6169 58.1081 -13.2918
# 6 -13.0887 -7.5942 -1.8721 8.1676 -13.2918 24.8535
#
#
#
# Elastic Compliance Matrix: (Units=1/GPa)
#
#
# Indices 1 2 3 4 5 6 
#
# 1 0.015465 0.002240 -0.001443 -0.001427 -0.006877 0.005512
# 2 0.002240 0.033741 -0.006860 0.005046 -0.001526 0.008499
# 3 -0.001443 -0.006860 0.014084 -0.000599 -0.007756 -0.005746
# 4 -0.001427 0.005046 -0.000599 0.038725 0.003486 -0.010117
# 5 -0.006877 -0.001526 -0.007756 0.003486 0.028663 0.009511
# 6 0.005512 0.008499 -0.005746 -0.010117 0.009511 0.053714
#
#
# Mechanical properties :
#
#
# Convention : Reuss Voigt Hill
#
# Bulk Modulus (GPa) = 19.54483 35.75873 27.65178
# Shear Modulus (GPa) = 23.41126 34.21889 28.81508
#
# Velocity S-wave (km/s) = 3.07727 3.72036 3.41399
# Velocity P-wave (km/s) = 4.53119 5.73749 5.16965
#
# Compressibility (1/GPa) = 0.05116442
#
# Stress axis : x y z
#
# Youngs Moduli (GPa) = 64.66101 29.63767 71.00135
#
# Poissons Ratio (x) = -0.06640 0.10246
# Poissons Ratio (y) = -0.14486 0.48708
# Poissons Ratio (z) = 0.09331 0.20332
#
# Static dielectric constant tensor:
#      x y z
#    x 2.027890 0.041400 -0.003390 
#    y 0.041400 2.081300 -0.007210 
#    z -0.003390 -0.007210 1.939330 
# 
# From -- ./inp_files/387128.got.cif
#   From: 2010.05.17/outbox.cif.g08.bks.cpg/sg2_194_cif.got.tgz:387128.got - 2010.06.03 11:33:40.
