data_PCOD9096826
_publ_section_title
;
Structure prediction by ZEFSAII (Michael W. Deem and Ramdas Pophale) SiO2 
 PCOD9096826
Probable space group: P -1
;
_chemical_formula_sum "Si O2"
_cell_formula_units_Z 14
_cell_length_a 27.201495
_cell_length_b 12.189714
_cell_length_c 5.284445
_cell_angle_alpha 50.985854
_cell_angle_beta 119.287211
_cell_angle_gamma 151.005266
_cell_volume 651.098607
_symmetry_space_group_name_H-M "P -1"
_symmetry_group_IT_number 2
_symmetry_cell_setting 'triclinic'
loop_
_space_group_symop_operation_xyz
x,y,z
-x,-y,-z
loop_
_atom_site_type_symbol
_atom_site_label
_atom_site_fract_x
_atom_site_fract_y
_atom_site_fract_z
Si Si1 0.876067 0.073042 0.680096
Si Si2 0.480516 0.621522 0.686892
Si Si3 0.822421 0.407189 0.772221
Si Si4 0.051732 0.766605 0.876534
Si Si5 0.296347 0.923519 0.543232
Si Si6 0.646079 0.637740 0.777781
Si Si7 0.095286 0.125073 0.691468
O O1 0.931647 0.036243 0.908571
O O2 0.912055 0.235818 0.778425
O O3 0.755421 0.792834 0.787570
O O4 0.913863 0.229380 0.300415
O O5 0.584688 0.512993 0.540637
O O6 0.593528 0.916059 0.478577
O O7 0.500000 0.500000 0.000000
O O8 0.420717 0.560159 0.867175
O O9 0.768365 0.219170 0.671324
O O10 0.831238 0.593151 0.465377
O O11 0.936386 0.581576 0.845022
O O12 0.762155 0.264984 0.091007
O O13 0.124701 0.061716 0.661534
O O14 0.321521 0.135416 0.389467
O O15 0.000000 0.000000 0.500000
#
# Coordination Sequence:
#
# PCOD9096826 Si02
#       7
#     2   2   2   2   2   2   2
#     4  10  20  36  58  84 107 148 197 219 268 318
#     4  10  20  38  61  80 107 145 191 233 268 326
#     4  11  21  34  57  83 116 143 184 229 274 323
#     4   9  20  35  55  82 110 147 191 217 264 323
#     4  11  22  35  55  87 110 141 182 231 289 323
#     4  11  21  38  61  82 112 143 187 231 274 337
#     4   8  20  35  60  77 110 147 197 224 257 316
#
# _framework density 21.502119
#
# number of rings (size 3 to 8) (size 9 to 14) (size 15 to 20)
#    0.857    1.143    0.000    6.000    2.000    1.143 
#    0.000    4.286    0.000    5.143    0.000    0.000 
#    0.000    0.000    0.000    0.000    0.000    0.000 
#
# Total GULP energy -78015.569743 kJ/mol
# GULP energy per Si atom -5572.540696 kJ/mol
# Density = 2.145318 g / cm^3
# Si number density = 21.502119 Si / 1000 Ang^3
#
#
#
# Elastic Constant Matrix: (Units=GPa)
#
#
# Indices 1 2 3 4 5 6 
#
# 1 46.6322 33.3090 39.7869 1.8801 -17.2876 5.2215
# 2 33.3090 135.2272 50.7285 41.0990 -28.3740 15.5654
# 3 39.7869 50.7285 112.3294 19.4044 -42.2802 3.2542
# 4 1.8801 41.0990 19.4044 42.3760 -11.8493 -4.7272
# 5 -17.2876 -28.3740 -42.2802 -11.8493 47.2917 -3.9494
# 6 5.2215 15.5654 3.2542 -4.7272 -3.9494 26.6997
#
#
#
# Elastic Compliance Matrix: (Units=1/GPa)
#
#
# Indices 1 2 3 4 5 6 
#
# 1 0.036581 -0.008536 -0.010475 0.012208 0.002075 0.001568
# 2 -0.008536 0.015878 -0.000821 -0.015507 0.000944 -0.010093
# 3 -0.010475 -0.000821 0.017556 -0.003681 0.010561 0.001298
# 4 0.012208 -0.015507 -0.003681 0.042538 0.003795 0.015194
# 5 0.002075 0.000944 0.010561 0.003795 0.033141 0.003331
# 6 0.001568 -0.010093 0.001298 0.015194 0.003331 0.046056
#
#
# Mechanical properties :
#
#
# Convention : Reuss Voigt Hill
#
# Bulk Modulus (GPa) = 32.94679 60.20418 46.57548
# Shear Modulus (GPa) = 20.70125 34.63112 27.66618
#
# Velocity S-wave (km/s) = 3.10619 4.01757 3.59091
# Velocity P-wave (km/s) = 5.31229 7.04139 6.23705
#
# Compressibility (1/GPa) = 0.03035197
#
# Stress axis : x y z
#
# Youngs Moduli (GPa) = 27.33689 62.97846 56.95947
#
# Poissons Ratio (x) = 0.53760 0.59664
# Poissons Ratio (y) = 0.23335 0.04674
# Poissons Ratio (z) = 0.28635 0.05168
#
# Static dielectric constant tensor:
#      x y z
#    x 1.849230 -0.021540 -0.055730 
#    y -0.021540 1.836990 0.008220 
#    z -0.055730 0.008220 1.873790 
# 
# From -- ./inp_files/126671.got.cif
#   From: 2010.05.17/outbox.cif.g08.bks.cpg/sg2_64_cif.got.tgz:126671.got - 2010.06.03 11:33:40.
