data_PCOD9096595
_publ_section_title
;
Structure prediction by ZEFSAII (Michael W. Deem and Ramdas Pophale) SiO2 
 PCOD9096595
Probable space group: P -1
;
_chemical_formula_sum "Si O2"
_cell_formula_units_Z 16
_cell_length_a 8.170050
_cell_length_b 16.417035
_cell_length_c 8.559937
_cell_angle_alpha 99.672162
_cell_angle_beta 84.500101
_cell_angle_gamma 39.552072
_cell_volume 672.651873
_symmetry_space_group_name_H-M "P -1"
_symmetry_group_IT_number 2
_symmetry_cell_setting 'triclinic'
loop_
_space_group_symop_operation_xyz
x,y,z
-x,-y,-z
loop_
_atom_site_type_symbol
_atom_site_label
_atom_site_fract_x
_atom_site_fract_y
_atom_site_fract_z
Si Si1 0.000370 0.653623 0.236122
Si Si2 0.465636 0.148116 0.872014
Si Si3 0.234861 0.852042 0.357546
Si Si4 0.955018 0.837245 0.823423
Si Si5 0.480309 0.315337 0.429828
Si Si6 0.225017 0.716779 0.088518
Si Si7 0.816503 0.404850 0.443360
Si Si8 0.733048 0.619038 0.868367
O O1 0.709845 0.804756 0.248679
O O2 0.210492 0.626288 0.107324
O O3 0.069961 0.641414 0.406266
O O4 0.020151 0.545776 0.182427
O O5 0.682539 0.129760 0.794809
O O6 0.659430 0.997926 0.870579
O O7 0.261343 0.291007 0.033642
O O8 0.457745 0.759591 0.444874
O O9 0.161685 0.791364 0.279277
O O10 0.000000 0.000000 0.500000
O O11 0.213934 0.775978 0.686507
O O12 0.992421 0.728857 0.723530
O O13 0.014575 0.814698 0.995489
O O14 0.253036 0.473854 0.556076
O O15 0.353492 0.331972 0.287800
O O16 0.497026 0.652481 0.975087
O O17 0.500000 0.500000 0.500000
#
# Coordination Sequence:
#
# PCOD9096595 Si02
#       8
#     2   2   2   2   2   2   2   2
#     4  11  22  40  60  90 119 155 197 243 295 345
#     4  11  24  37  58  88 128 154 187 247 304 346
#     4  11  22  38  61  89 116 156 200 240 285 356
#     4  10  20  36  56  89 119 152 194 242 298 337
#     4   9  18  36  62  83 111 154 206 240 278 340
#     4  10  22  36  63  86 112 155 208 240 280 351
#     4   9  19  37  60  83 115 154 195 243 283 344
#     4   9  21  39  62  86 118 157 196 243 290 349
#
# _framework density 23.786449999999999
#
# number of rings (size 3 to 8) (size 9 to 14) (size 15 to 20)
#    0.000    2.000    1.250    3.000    1.750    4.500 
#    0.000    3.750    0.000    0.000    0.000    0.000 
#    0.000    0.000    0.000    0.000    0.000    0.000 
#
# Total GULP energy -89177.437396 kJ/mol
# GULP energy per Si atom -5573.589837 kJ/mol
# Density = 2.373231 g / cm^3
# Si number density = 23.786450 Si / 1000 Ang^3
#
#
#
# Elastic Constant Matrix: (Units=GPa)
#
#
# Indices 1 2 3 4 5 6 
#
# 1 54.4410 39.6836 18.0122 4.2524 -8.9131 0.7481
# 2 39.6836 163.3750 56.7902 -7.5607 2.6049 -11.9211
# 3 18.0122 56.7902 66.7959 1.7995 7.6046 4.2714
# 4 4.2524 -7.5607 1.7995 22.8025 4.2336 -1.0131
# 5 -8.9131 2.6049 7.6046 4.2336 22.5846 -9.8303
# 6 0.7481 -11.9211 4.2714 -1.0131 -9.8303 28.6318
#
#
#
# Elastic Compliance Matrix: (Units=1/GPa)
#
#
# Indices 1 2 3 4 5 6 
#
# 1 0.027124 -0.005599 -0.004258 -0.009375 0.015696 0.002653
# 2 -0.005599 0.011282 -0.008828 0.005525 0.001402 0.006837
# 3 -0.004258 -0.008828 0.026135 -0.002054 -0.014528 -0.012524
# 4 -0.009375 0.005525 -0.002054 0.050008 -0.012942 0.000178
# 5 0.015696 0.001402 -0.014528 -0.012942 0.068718 0.025476
# 6 0.002653 0.006837 -0.012524 0.000178 0.025476 0.048325
#
#
# Mechanical properties :
#
#
# Convention : Reuss Voigt Hill
#
# Bulk Modulus (GPa) = 36.80354 57.06487 46.93420
# Shear Modulus (GPa) = 17.98448 26.14551 22.06499
#
# Velocity S-wave (km/s) = 2.75268 3.31898 3.04900
# Velocity P-wave (km/s) = 5.06054 6.22335 5.67182
#
# Compressibility (1/GPa) = 0.02717130
#
# Stress axis : x y z
#
# Youngs Moduli (GPa) = 36.86752 88.64011 38.26321
#
# Poissons Ratio (x) = 0.49628 0.16293
# Poissons Ratio (y) = 0.20641 0.33777
# Poissons Ratio (z) = 0.15699 0.78248
#
# Static dielectric constant tensor:
#      x y z
#    x 2.022530 0.030040 -0.037870 
#    y 0.030040 1.886690 0.076660 
#    z -0.037870 0.076660 2.003540 
# 
# From -- ./inp_files/207784.got.cif
#   From: 2010.05.17/outbox.cif.g08.bks.cpg/sg2_104_cif.got.tgz:207784.got - 2010.06.03 11:33:40.
