data_PCOD9096326
_publ_section_title
;
Structure prediction by ZEFSAII (Michael W. Deem and Ramdas Pophale) SiO2 
 PCOD9096326
Probable space group: P -1
;
_chemical_formula_sum "Si O2"
_cell_formula_units_Z 12
_cell_length_a 5.858608
_cell_length_b 9.769471
_cell_length_c 11.226147
_cell_angle_alpha 107.307017
_cell_angle_beta 70.052619
_cell_angle_gamma 129.093924
_cell_volume 465.765023
_symmetry_space_group_name_H-M "P -1"
_symmetry_group_IT_number 2
_symmetry_cell_setting 'triclinic'
loop_
_space_group_symop_operation_xyz
x,y,z
-x,-y,-z
loop_
_atom_site_type_symbol
_atom_site_label
_atom_site_fract_x
_atom_site_fract_y
_atom_site_fract_z
Si Si1 0.692664 0.860746 0.948964
Si Si2 0.475297 0.200848 0.391086
Si Si3 0.039181 0.437908 0.605316
Si Si4 0.108515 0.173858 0.641745
Si Si5 0.129550 0.787052 0.082942
Si Si6 0.949096 0.668474 0.812102
O O1 0.722301 0.719264 0.844838
O O2 0.695560 0.999263 0.899848
O O3 0.396310 0.768659 0.057517
O O4 0.000000 0.000000 0.000000
O O5 0.610994 0.402163 0.382245
O O6 0.747393 0.199074 0.288348
O O7 0.401380 0.196010 0.544223
O O8 0.157075 0.034794 0.359918
O O9 0.859351 0.479437 0.737594
O O10 0.000000 0.500000 0.500000
O O11 0.002599 0.258221 0.586486
O O12 0.115135 0.265804 0.786884
O O13 0.013203 0.699627 0.950667
#
# Coordination Sequence:
#
# PCOD9096326 Si02
#       6
#     2   2   2   2   2   2
#     4   9  17  35  59  92 131 161 203 254 315 376
#     4   9  22  41  64  93 119 169 210 248 321 371
#     4  10  24  43  60  90 132 166 209 265 313 373
#     4  11  21  41  67  94 124 161 218 259 310 384
#     4  10  20  35  66  95 124 166 206 264 314 371
#     4   9  21  41  62  94 127 168 208 255 325 370
#
# _framework density 25.764061999999999
#
# number of rings (size 3 to 8) (size 9 to 14) (size 15 to 20)
#    1.000    1.333    0.000    3.500    0.000    5.333 
#    9.000    0.833    0.000    0.000    0.000    0.000 
#    0.000    0.000    0.000    0.000    0.000    0.000 
#
# Total GULP energy -66801.227821 kJ/mol
# GULP energy per Si atom -5566.768985 kJ/mol
# Density = 2.570542 g / cm^3
# Si number density = 25.764062 Si / 1000 Ang^3
#
#
#
# Elastic Constant Matrix: (Units=GPa)
#
#
# Indices 1 2 3 4 5 6 
#
# 1 62.9211 19.1758 54.1519 3.3555 -13.2113 -3.3924
# 2 19.1758 81.0139 22.6175 10.5221 -0.2421 -9.6923
# 3 54.1519 22.6175 235.7420 15.4668 -19.5054 1.5288
# 4 3.3555 10.5221 15.4668 40.3962 1.4211 -5.7937
# 5 -13.2113 -0.2421 -19.5054 1.4211 45.3452 4.0073
# 6 -3.3924 -9.6923 1.5288 -5.7937 4.0073 28.2644
#
#
#
# Elastic Compliance Matrix: (Units=1/GPa)
#
#
# Indices 1 2 3 4 5 6 
#
# 1 0.021722 -0.003908 -0.004321 0.000868 0.004328 0.001065
# 2 -0.003908 0.014216 -0.000453 -0.002559 -0.001542 0.004124
# 3 -0.004321 -0.000453 0.005521 -0.001905 0.001310 -0.001549
# 4 0.000868 -0.002559 -0.001905 0.026877 -0.001874 0.005105
# 5 0.004328 -0.001542 0.001310 -0.001874 0.024273 -0.003906
# 6 0.001065 0.004124 -0.001549 0.005105 -0.003906 0.038606
#
#
# Mechanical properties :
#
#
# Convention : Reuss Voigt Hill
#
# Bulk Modulus (GPa) = 41.49810 63.50749 52.50279
# Shear Modulus (GPa) = 31.92633 41.71663 36.82148
#
# Velocity S-wave (km/s) = 3.52402 4.02827 3.78455
# Velocity P-wave (km/s) = 5.71841 6.80728 6.28647
#
# Compressibility (1/GPa) = 0.02409749
#
# Stress axis : x y z
#
# Youngs Moduli (GPa) = 46.03588 70.34279 181.11623
#
# Poissons Ratio (x) = 0.27488 0.78254
# Poissons Ratio (y) = 0.17990 0.08198
# Poissons Ratio (z) = 0.19890 0.03184
#
# Static dielectric constant tensor:
#      x y z
#    x 2.133430 0.004250 0.032070 
#    y 0.004250 2.005860 0.006170 
#    z 0.032070 0.006170 2.171310 
# 
# From -- ./inp_files/364711.got.cif
#   From: 2010.05.17/outbox.cif.g08.bks.cpg/sg2_183_cif.got.tgz:364711.got - 2010.06.03 11:33:40.
