data_PCOD9096063
_publ_section_title
;
Structure prediction by ZEFSAII (Michael W. Deem and Ramdas Pophale) SiO2 
 PCOD9096063
Probable space group: P -1
;
_chemical_formula_sum "Si O2"
_cell_formula_units_Z 14
_cell_length_a 7.697154
_cell_length_b 8.701770
_cell_length_c 21.491164
_cell_angle_alpha 32.646180
_cell_angle_beta 116.125517
_cell_angle_gamma 121.039290
_cell_volume 665.267616
_symmetry_space_group_name_H-M "P -1"
_symmetry_group_IT_number 2
_symmetry_cell_setting 'triclinic'
loop_
_space_group_symop_operation_xyz
x,y,z
-x,-y,-z
loop_
_atom_site_type_symbol
_atom_site_label
_atom_site_fract_x
_atom_site_fract_y
_atom_site_fract_z
Si Si1 0.967940 0.204811 0.346836
Si Si2 0.887050 0.336812 0.159736
Si Si3 0.760128 0.933816 0.732904
Si Si4 0.186491 0.449233 0.418288
Si Si5 0.502014 0.216890 0.744212
Si Si6 0.700224 0.763037 0.925064
Si Si7 0.581473 0.784968 0.629003
O O1 0.011091 0.362261 0.366966
O O2 0.187806 0.177940 0.369651
O O3 0.893590 0.374283 0.222422
O O4 0.825345 0.865281 0.445722
O O5 0.076030 0.228125 0.206266
O O6 0.693291 0.054278 0.209631
O O7 0.875233 0.633087 0.021573
O O8 0.700366 0.820019 0.832027
O O9 0.590070 0.856438 0.678946
O O10 0.842033 0.293790 0.628981
O O11 0.397208 0.592832 0.365550
O O12 0.462606 0.444118 0.710256
O O13 0.672551 0.065633 0.846102
O O14 0.500000 0.500000 0.000000
O O15 0.500000 0.000000 0.500000
#
# Coordination Sequence:
#
# PCOD9096063 Si02
#       7
#     2   2   2   2   2   2   2
#     4   9  20  37  55  82 117 146 193 226 278 339
#     4  10  20  35  62  83 111 148 187 235 280 324
#     4  10  21  37  60  83 114 146 191 231 283 327
#     4   9  19  38  53  81 119 147 184 232 276 340
#     4   9  20  38  56  82 118 147 188 227 278 336
#     4   9  19  41  57  82 112 148 191 233 274 335
#     4  10  22  37  55  86 120 148 184 232 282 336
#
# _framework density 21.044163000000001
#
# number of rings (size 3 to 8) (size 9 to 14) (size 15 to 20)
#    0.000    2.571    0.000    0.429    4.000    1.714 
#   20.571   15.714    0.000    0.000    0.000    0.000 
#    0.000    0.000    0.000    0.000    0.000    0.000 
#
# Total GULP energy -78100.209408 kJ/mol
# GULP energy per Si atom -5578.586386 kJ/mol
# Density = 2.099627 g / cm^3
# Si number density = 21.044163 Si / 1000 Ang^3
#
#
#
# Elastic Constant Matrix: (Units=GPa)
#
#
# Indices 1 2 3 4 5 6 
#
# 1 18.2752 -2.0499 9.5569 2.6124 7.6806 -0.7486
# 2 -2.0499 91.0519 49.2352 18.6626 22.2174 -16.0870
# 3 9.5569 49.2352 103.4714 23.5344 12.4091 -3.7649
# 4 2.6124 18.6626 23.5344 28.7724 0.5324 -4.0532
# 5 7.6806 22.2174 12.4091 0.5324 29.2201 -7.4865
# 6 -0.7486 -16.0870 -3.7649 -4.0532 -7.4865 25.7724
#
#
#
# Elastic Compliance Matrix: (Units=1/GPa)
#
#
# Indices 1 2 3 4 5 6 
#
# 1 0.073156 0.014629 -0.008604 -0.008461 -0.026279 0.001035
# 2 0.014629 0.022376 -0.008091 -0.007882 -0.015355 0.007510
# 3 -0.008604 -0.008091 0.015752 -0.007423 0.000855 -0.003918
# 4 -0.008461 -0.007882 -0.007423 0.047134 0.011678 0.004555
# 5 -0.026279 -0.015355 0.000855 0.011678 0.054108 0.007331
# 6 0.001035 0.007510 -0.003918 0.004555 0.007331 0.045793
#
#
# Mechanical properties :
#
#
# Convention : Reuss Voigt Hill
#
# Bulk Modulus (GPa) = 9.33251 36.25364 22.79308
# Shear Modulus (GPa) = 16.76902 27.15674 21.96288
#
# Velocity S-wave (km/s) = 2.82591 3.59620 3.23407
# Velocity P-wave (km/s) = 3.88485 5.87438 4.97998
#
# Compressibility (1/GPa) = 0.10715233
#
# Stress axis : x y z
#
# Youngs Moduli (GPa) = 13.66945 44.68974 63.48205
#
# Poissons Ratio (x) = -0.65376 0.54620
# Poissons Ratio (y) = -0.19997 0.51364
# Poissons Ratio (z) = 0.11761 0.36159
#
# Static dielectric constant tensor:
#      x y z
#    x 1.817510 -0.003840 0.028940 
#    y -0.003840 1.796770 0.026930 
#    z 0.028940 0.026930 1.778510 
# 
# From -- ./inp_files/169192.got.cif
#   From: 2010.05.17/outbox.cif.g08.bks.cpg/sg2_85_cif.got.tgz:169192.got - 2010.06.03 11:33:40.
