data_PCOD9096610
_publ_section_title
;
Structure prediction by ZEFSAII (Michael W. Deem and Ramdas Pophale) SiO2 
 PCOD9096610
Probable space group: P -1
;
_chemical_formula_sum "Si O2"
_cell_formula_units_Z 16
_cell_length_a 24.779916
_cell_length_b 15.955260
_cell_length_c 11.631695
_cell_angle_alpha 35.539825
_cell_angle_beta 25.808661
_cell_angle_gamma 20.249250
_cell_volume 678.234233
_symmetry_space_group_name_H-M "P -1"
_symmetry_group_IT_number 2
_symmetry_cell_setting 'triclinic'
loop_
_space_group_symop_operation_xyz
x,y,z
-x,-y,-z
loop_
_atom_site_type_symbol
_atom_site_label
_atom_site_fract_x
_atom_site_fract_y
_atom_site_fract_z
Si Si1 0.958129 0.896684 0.269966
Si Si2 0.359156 0.903514 0.883977
Si Si3 0.209403 0.361898 0.601381
Si Si4 0.685098 0.093474 0.292411
Si Si5 0.479249 0.641321 0.480935
Si Si6 0.610024 0.860182 0.746379
Si Si7 0.805348 0.932613 0.746709
Si Si8 0.862392 0.446171 0.878167
O O1 0.928587 0.924633 0.431626
O O2 0.126603 0.633557 0.182268
O O3 0.720354 0.074500 0.493249
O O4 0.000000 0.000000 0.000000
O O5 0.261675 0.158548 0.784138
O O6 0.310416 0.880247 0.880505
O O7 0.611352 0.692890 0.643781
O O8 0.263742 0.929604 0.154813
O O9 0.249317 0.296681 0.462886
O O10 0.977949 0.642680 0.753748
O O11 0.536744 0.095121 0.606016
O O12 0.913876 0.811036 0.207973
O O13 0.597140 0.310363 0.295236
O O14 0.500000 0.500000 0.500000
O O15 0.695508 0.521104 0.192277
O O16 0.752685 0.700620 0.766565
O O17 0.409760 0.940763 0.030752
#
# Coordination Sequence:
#
# PCOD9096610 Si02
#       8
#     2   2   2   2   2   2   2   2
#     4  11  22  38  62  93 115 157 221 266 302 359
#     4   9  20  37  55  89 129 165 208 246 309 374
#     4   9  18  34  59  86 127 171 205 249 295 377
#     4  10  24  37  58  93 130 165 198 256 313 385
#     4  11  23  41  63  85 115 165 214 259 309 366
#     4  10  20  36  56  96 134 157 202 252 318 375
#     4  11  20  34  65  91 126 168 210 252 307 373
#     4  11  21  38  61  87 125 165 201 258 316 368
#
# _framework density 23.590671
#
# number of rings (size 3 to 8) (size 9 to 14) (size 15 to 20)
#    0.000    1.750    3.750    1.500    0.000    3.500 
#    0.000    0.000    0.000    3.750    0.000    0.000 
#    0.000    0.000    0.000    0.000    0.000    0.125 
#
# Total GULP energy -89108.864001 kJ/mol
# GULP energy per Si atom -5569.304000 kJ/mol
# Density = 2.353698 g / cm^3
# Si number density = 23.590671 Si / 1000 Ang^3
#
#
#
# Elastic Constant Matrix: (Units=GPa)
#
#
# Indices 1 2 3 4 5 6 
#
# 1 123.6938 18.9583 50.5794 17.0913 35.4659 6.3674
# 2 18.9583 58.1236 19.4844 23.5049 1.6432 1.0129
# 3 50.5794 19.4844 117.6933 18.4951 34.4497 1.8747
# 4 17.0913 23.5049 18.4951 37.9753 1.8940 1.5733
# 5 35.4659 1.6432 34.4497 1.8940 28.7427 5.1975
# 6 6.3674 1.0129 1.8747 1.5733 5.1975 29.4203
#
#
#
# Elastic Compliance Matrix: (Units=1/GPa)
#
#
# Indices 1 2 3 4 5 6 
#
# 1 0.013742 -0.002452 -0.000065 -0.003821 -0.016530 0.000239
# 2 -0.002452 0.023828 -0.002538 -0.012671 0.005621 -0.000443
# 3 -0.000065 -0.002538 0.014853 -0.004856 -0.017718 0.002545
# 4 -0.003821 -0.012671 -0.004856 0.037890 0.009136 -0.002068
# 5 -0.016530 0.005621 -0.017718 0.009136 0.077241 -0.009621
# 6 0.000239 -0.000443 0.002545 -0.002068 -0.009621 0.035602
#
#
# Mechanical properties :
#
#
# Convention : Reuss Voigt Hill
#
# Bulk Modulus (GPa) = 23.63285 53.06165 38.34725
# Shear Modulus (GPa) = 21.99059 33.26023 27.62541
#
# Velocity S-wave (km/s) = 3.05646 3.75892 3.42575
# Velocity P-wave (km/s) = 4.74295 6.43279 5.65139
#
# Compressibility (1/GPa) = 0.04231398
#
# Stress axis : x y z
#
# Youngs Moduli (GPa) = 72.76961 41.96717 67.32525
#
# Poissons Ratio (x) = 0.10292 0.00435
# Poissons Ratio (y) = 0.17845 0.17086
# Poissons Ratio (z) = 0.00470 0.10651
#
# Static dielectric constant tensor:
#      x y z
#    x 2.038910 -0.012230 -0.009130 
#    y -0.012230 2.028060 -0.064400 
#    z -0.009130 -0.064400 1.923580 
# 
# From -- ./inp_files/476943.got.cif
#   From: 2010.05.17/outbox.cif.g08.bks.cpg/sg2_239_cif.got.tgz:476943.got - 2010.06.03 11:33:40.
