data_PCOD9096442
_publ_section_title
;
Structure prediction by ZEFSAII (Michael W. Deem and Ramdas Pophale) SiO2 
 PCOD9096442
Probable space group: P -1
;
_chemical_formula_sum "Si O2"
_cell_formula_units_Z 16
_cell_length_a 18.230834
_cell_length_b 13.444618
_cell_length_c 8.185463
_cell_angle_alpha 119.708310
_cell_angle_beta 101.208097
_cell_angle_gamma 29.909230
_cell_volume 729.597183
_symmetry_space_group_name_H-M "P -1"
_symmetry_group_IT_number 2
_symmetry_cell_setting 'triclinic'
loop_
_space_group_symop_operation_xyz
x,y,z
-x,-y,-z
loop_
_atom_site_type_symbol
_atom_site_label
_atom_site_fract_x
_atom_site_fract_y
_atom_site_fract_z
Si Si1 0.284679 0.045493 0.432179
Si Si2 0.803558 0.956994 0.316337
Si Si3 0.881461 0.254783 0.253293
Si Si4 0.178547 0.798114 0.492965
Si Si5 0.872708 0.524901 0.095173
Si Si6 0.553553 0.327259 0.250065
Si Si7 0.605572 0.740970 0.275118
Si Si8 0.880240 0.877932 0.818555
O O1 0.295089 0.922644 0.457754
O O2 0.222194 0.231321 0.679664
O O3 0.150353 0.193609 0.356546
O O4 0.460460 0.847084 0.263426
O O5 0.843172 0.035350 0.360713
O O6 0.678585 0.078303 0.219586
O O7 0.998274 0.635104 0.130092
O O8 0.806525 0.292010 0.405613
O O9 0.727962 0.519162 0.289795
O O10 0.016866 0.170170 0.281427
O O11 0.000000 0.000000 0.000000
O O12 0.372117 0.523268 0.272094
O O13 0.000000 0.000000 0.500000
O O14 0.733743 0.614128 0.088904
O O15 0.998040 0.313391 0.128013
O O16 0.500000 0.500000 0.500000
O O17 0.687680 0.181599 0.048815
O O18 0.500000 0.000000 0.500000
#
# Coordination Sequence:
#
# PCOD9096442 Si02
#       8
#     2   2   2   2   2   2   2   2
#     4  11  20  34  57  86 111 143 192 245 284 332
#     4  10  20  36  55  79 111 151 190 231 283 348
#     4  11  21  38  60  83 114 158 194 231 290 354
#     4  11  22  36  54  82 117 150 188 241 290 338
#     4   9  19  37  57  78 111 152 189 229 289 353
#     4   9  19  37  53  71 106 147 180 220 279 343
#     4   9  20  37  59  85 115 151 194 238 288 349
#     4  10  21  35  56  84 112 144 189 243 288 333
#
# _framework density 21.92991
#
# number of rings (size 3 to 8) (size 9 to 14) (size 15 to 20)
#    0.000    2.000    0.000    5.250    0.000    3.000 
#    0.000    3.750    0.000    0.000    0.000   23.625 
#    0.000    0.000    0.000    0.000    0.000    0.000 
#
# Total GULP energy -89152.700226 kJ/mol
# GULP energy per Si atom -5572.043764 kJ/mol
# Density = 2.188000 g / cm^3
# Si number density = 21.929910 Si / 1000 Ang^3
#
#
#
# Elastic Constant Matrix: (Units=GPa)
#
#
# Indices 1 2 3 4 5 6 
#
# 1 122.4528 34.9482 17.9321 7.2785 -19.0051 -20.0434
# 2 34.9482 54.9521 -1.2599 22.8261 7.1911 -16.4635
# 3 17.9321 -1.2599 40.6845 16.3555 -7.7832 3.3453
# 4 7.2785 22.8261 16.3555 27.4667 -3.9560 -2.9938
# 5 -19.0051 7.1911 -7.7832 -3.9560 28.2440 6.9652
# 6 -20.0434 -16.4635 3.3453 -2.9938 6.9652 42.6819
#
#
#
# Elastic Compliance Matrix: (Units=1/GPa)
#
#
# Indices 1 2 3 4 5 6 
#
# 1 0.022343 -0.034940 -0.021981 0.039397 0.023987 -0.002413
# 2 -0.034940 0.100570 0.050620 -0.110302 -0.055483 0.019734
# 3 -0.021981 0.050620 0.062004 -0.076034 -0.021879 0.002581
# 4 0.039397 -0.110302 -0.076034 0.169995 0.061443 -0.016189
# 5 0.023987 -0.055483 -0.021879 0.061443 0.072168 -0.015890
# 6 -0.002413 0.019734 0.002581 -0.016189 -0.015890 0.031163
#
#
# Mechanical properties :
#
#
# Convention : Reuss Voigt Hill
#
# Bulk Modulus (GPa) = 5.80330 35.70335 20.75333
# Shear Modulus (GPa) = 9.46460 30.77644 20.12052
#
# Velocity S-wave (km/s) = 2.07971 3.75026 3.03230
# Velocity P-wave (km/s) = 2.90155 5.92188 4.66303
#
# Compressibility (1/GPa) = 0.17231572
#
# Stress axis : x y z
#
# Youngs Moduli (GPa) = 44.75587 9.94334 16.12795
#
# Poissons Ratio (x) = 0.34742 0.35451
# Poissons Ratio (y) = 1.56379 -0.81640
# Poissons Ratio (z) = 0.98377 -0.50334
#
# Static dielectric constant tensor:
#      x y z
#    x 1.866140 0.011970 -0.007650 
#    y 0.011970 1.845860 0.039850 
#    z -0.007650 0.039850 1.851300 
# 
# From -- ./inp_files/204093.got.cif
#   From: 2010.05.17/outbox.cif.g08.bks.cpg/sg2_103_cif.got.tgz:204093.got - 2010.06.03 11:33:40.
