data_PCOD9096205
_publ_section_title
;
Structure prediction by ZEFSAII (Michael W. Deem and Ramdas Pophale) SiO2 
 PCOD9096205
Probable space group: P -1
;
_chemical_formula_sum "Si O2"
_cell_formula_units_Z 14
_cell_length_a 12.850164
_cell_length_b 8.954743
_cell_length_c 8.761595
_cell_angle_alpha 73.652655
_cell_angle_beta 96.079786
_cell_angle_gamma 134.940550
_cell_volume 678.355441
_symmetry_space_group_name_H-M "P -1"
_symmetry_group_IT_number 2
_symmetry_cell_setting 'triclinic'
loop_
_space_group_symop_operation_xyz
x,y,z
-x,-y,-z
loop_
_atom_site_type_symbol
_atom_site_label
_atom_site_fract_x
_atom_site_fract_y
_atom_site_fract_z
Si Si1 0.925188 0.314277 0.912384
Si Si2 0.294078 0.410352 0.538185
Si Si3 0.045231 0.930099 0.661755
Si Si4 0.559335 0.597290 0.723759
Si Si5 0.115265 0.250421 0.998603
Si Si6 0.323791 0.204737 0.000425
Si Si7 0.922618 0.536163 0.591829
O O1 0.858842 0.359149 0.764654
O O2 0.796861 0.050285 0.000142
O O3 0.000000 0.500000 0.000000
O O4 0.066268 0.354792 0.875251
O O5 0.444580 0.578291 0.610516
O O6 0.336094 0.379071 0.389463
O O7 0.197906 0.466433 0.487666
O O8 0.192103 0.170631 0.673085
O O9 0.924522 0.777768 0.819966
O O10 0.053849 0.775475 0.623131
O O11 0.000000 0.000000 0.500000
O O12 0.638517 0.779246 0.818018
O O13 0.464634 0.365479 0.866124
O O14 0.267184 0.325792 0.966065
O O15 0.000000 0.000000 0.000000
O O16 0.000000 0.500000 0.500000
#
# Coordination Sequence:
#
# PCOD9096205 Si02
#       7
#     2   2   2   2   2   2   2
#     4  11  23  39  61  94 126 156 196 267 327 354
#     4  10  22  41  64  86 125 162 216 239 305 362
#     4  10  20  36  61  91 121 156 199 262 305 354
#     4  10  22  40  66  86 118 175 212 244 276 376
#     4  10  20  35  63  91 120 153 201 261 307 353
#     4  10  22  39  66  90 120 158 221 241 301 365
#     4  11  25  37  61  96 126 156 198 265 326 357
#
# _framework density 20.638147
#
# number of rings (size 3 to 8) (size 9 to 14) (size 15 to 20)
#    0.000    1.714    1.429    3.429   12.000    0.000 
#    0.000    1.429    0.000    0.000    0.000    0.000 
#    0.000    0.000    0.000    0.000    0.000    0.000 
#
# Total GULP energy -77936.886598 kJ/mol
# GULP energy per Si atom -5566.920471 kJ/mol
# Density = 2.059117 g / cm^3
# Si number density = 20.638147 Si / 1000 Ang^3
#
#
#
# Elastic Constant Matrix: (Units=GPa)
#
#
# Indices 1 2 3 4 5 6 
#
# 1 123.9458 41.1792 40.1835 2.6331 8.4389 -13.5227
# 2 41.1792 89.4334 24.8067 8.5666 0.5499 -14.1940
# 3 40.1835 24.8067 101.5951 3.7015 -9.4914 -7.6229
# 4 2.6331 8.5666 3.7015 37.2506 1.4037 3.4550
# 5 8.4389 0.5499 -9.4914 1.4037 37.6842 1.2838
# 6 -13.5227 -14.1940 -7.6229 3.4550 1.2838 34.7656
#
#
#
# Elastic Compliance Matrix: (Units=1/GPa)
#
#
# Indices 1 2 3 4 5 6 
#
# 1 0.010909 -0.003724 -0.003583 0.000381 -0.003374 0.002024
# 2 -0.003724 0.014339 -0.001560 -0.003294 0.000205 0.004383
# 3 -0.003583 -0.001560 0.012073 -0.000785 0.003876 0.000551
# 4 0.000381 -0.003294 -0.000785 0.028079 -0.001141 -0.004117
# 5 -0.003374 0.000205 0.003876 -0.001141 0.028352 -0.001312
# 6 0.002024 0.004383 0.000551 -0.004117 -0.001312 0.031920
#
#
# Mechanical properties :
#
#
# Convention : Reuss Voigt Hill
#
# Bulk Modulus (GPa) = 51.05300 58.59034 54.82167
# Shear Modulus (GPa) = 33.34784 35.86041 34.60412
#
# Velocity S-wave (km/s) = 4.02411 4.17295 4.09920
# Velocity P-wave (km/s) = 6.81044 7.18811 7.00183
#
# Compressibility (1/GPa) = 0.01958749
#
# Stress axis : x y z
#
# Youngs Moduli (GPa) = 91.66510 69.74088 82.82809
#
# Poissons Ratio (x) = 0.25970 0.29676
# Poissons Ratio (y) = 0.34134 0.12923
# Poissons Ratio (z) = 0.32842 0.10881
#
# Static dielectric constant tensor:
#      x y z
#    x 1.747910 0.022280 -0.068000 
#    y 0.022280 1.764320 -0.000530 
#    z -0.068000 -0.000530 1.775460 
# 
# From -- ./inp_files/177987.got.cif
#   From: 2010.05.17/outbox.cif.g08.bks.cpg/sg2_89_cif.got.tgz:177987.got - 2010.06.03 11:33:40.
