data_PCOD9096913
_publ_section_title
;
Structure prediction by ZEFSAII (Michael W. Deem and Ramdas Pophale) SiO2 
 PCOD9096913
Probable space group: P -1
;
_chemical_formula_sum "Si O2"
_cell_formula_units_Z 16
_cell_length_a 14.835187
_cell_length_b 14.711265
_cell_length_c 15.085215
_cell_angle_alpha 151.186890
_cell_angle_beta 27.730065
_cell_angle_gamma 143.973578
_cell_volume 730.184926
_symmetry_space_group_name_H-M "P -1"
_symmetry_group_IT_number 2
_symmetry_cell_setting 'triclinic'
loop_
_space_group_symop_operation_xyz
x,y,z
-x,-y,-z
loop_
_atom_site_type_symbol
_atom_site_label
_atom_site_fract_x
_atom_site_fract_y
_atom_site_fract_z
Si Si1 0.204133 0.572077 0.243257
Si Si2 0.124487 0.922283 0.901969
Si Si3 0.089676 0.173687 0.682320
Si Si4 0.278702 0.520958 0.939323
Si Si5 0.363072 0.282022 0.954413
Si Si6 0.489421 0.759024 0.408838
Si Si7 0.863180 0.023419 0.357264
Si Si8 0.690448 0.082775 0.847777
O O1 0.442404 0.617299 0.081416
O O2 0.116763 0.759809 0.506152
O O3 0.156941 0.531647 0.146598
O O4 0.186913 0.399633 0.180744
O O5 0.260932 0.770149 0.625734
O O6 0.280465 0.110691 0.943194
O O7 0.000000 0.000000 0.000000
O O8 0.979781 0.891708 0.083224
O O9 0.169759 0.371119 0.833226
O O10 0.881155 0.169878 0.813993
O O11 0.062974 0.004007 0.632828
O O12 0.243287 0.097768 0.416595
O O13 0.457506 0.418786 0.733239
O O14 0.338734 0.734690 0.032372
O O15 0.442933 0.224326 0.738988
O O16 0.635517 0.934740 0.474460
O O17 0.500000 0.000000 0.000000
#
# Coordination Sequence:
#
# PCOD9096913 Si02
#       8
#     2   2   2   2   2   2   2   2
#     4  10  20  37  63  86 127 179 216 261 334 376
#     4  12  22  34  62  94 127 174 230 270 320 378
#     4  10  24  44  71 102 133 171 215 271 338 403
#     4  10  22  43  72  95 135 177 214 270 338 402
#     4  10  20  36  58  87 128 172 223 275 314 375
#     4  10  21  40  60  90 131 177 222 273 327 376
#     4  11  21  38  64  91 131 176 216 274 323 389
#     4  11  24  46  74 103 131 167 216 273 340 404
#
# _framework density 21.912255999999999
#
# number of rings (size 3 to 8) (size 9 to 14) (size 15 to 20)
#    0.000    1.500    3.750    1.500    0.000    4.000 
#    0.000    6.250    2.750    0.000    0.000    0.000 
#    0.000    0.000    0.000    0.000    0.000    0.000 
#
# Total GULP energy -89163.178785 kJ/mol
# GULP energy per Si atom -5572.698674 kJ/mol
# Density = 2.186238 g / cm^3
# Si number density = 21.912256 Si / 1000 Ang^3
#
#
#
# Elastic Constant Matrix: (Units=GPa)
#
#
# Indices 1 2 3 4 5 6 
#
# 1 83.5942 17.8630 35.5219 -1.3607 2.6571 0.2655
# 2 17.8630 81.4404 32.5876 10.9275 -7.0534 -9.5835
# 3 35.5219 32.5876 110.9498 -5.2423 -17.4079 -0.5138
# 4 -1.3607 10.9275 -5.2423 38.6699 0.9745 -0.2217
# 5 2.6571 -7.0534 -17.4079 0.9745 31.7873 5.6777
# 6 0.2655 -9.5835 -0.5138 -0.2217 5.6777 22.3806
#
#
#
# Elastic Compliance Matrix: (Units=1/GPa)
#
#
# Indices 1 2 3 4 5 6 
#
# 1 0.014500 -0.001680 -0.004792 0.000442 -0.004237 0.000078
# 2 -0.001680 0.015842 -0.004279 -0.005085 0.000293 0.006581
# 3 -0.004792 -0.004279 0.013024 0.002609 0.007083 -0.003248
# 4 0.000442 -0.005085 0.002609 0.027663 -0.000267 -0.001781
# 5 -0.004237 0.000293 0.007083 -0.000267 0.037400 -0.009152
# 6 0.000078 0.006581 -0.003248 -0.001781 -0.009152 0.049728
#
#
# Mechanical properties :
#
#
# Convention : Reuss Voigt Hill
#
# Bulk Modulus (GPa) = 45.73979 49.76993 47.75486
# Shear Modulus (GPa) = 26.74569 31.23501 28.99035
#
# Velocity S-wave (km/s) = 3.49747 3.77962 3.64128
# Velocity P-wave (km/s) = 6.10157 6.46606 6.28646
#
# Compressibility (1/GPa) = 0.02186280
#
# Stress axis : x y z
#
# Youngs Moduli (GPa) = 68.96779 63.12471 76.78246
#
# Poissons Ratio (x) = 0.10604 0.36796
# Poissons Ratio (y) = 0.11586 0.32855
# Poissons Ratio (z) = 0.33051 0.27011
#
# Static dielectric constant tensor:
#      x y z
#    x 1.695250 0.198830 -0.066950 
#    y 0.198830 1.625260 0.194880 
#    z -0.066950 0.194880 1.840610 
# 
# From -- ./inp_files/533897.got.cif
#   From: 2010.05.17/outbox.cif.g08.bks.cpg/sg2_267_cif.got.tgz:533897.got - 2010.06.03 11:33:40.
