data_PCOD9096195
_publ_section_title
;
Structure prediction by ZEFSAII (Michael W. Deem and Ramdas Pophale) SiO2 
 PCOD9096195
Probable space group: P -1
;
_chemical_formula_sum "Si O2"
_cell_formula_units_Z 15
_cell_length_a 14.407968
_cell_length_b 7.261086
_cell_length_c 11.670435
_cell_angle_alpha 74.271562
_cell_angle_beta 30.334295
_cell_angle_gamma 72.805387
_cell_volume 588.744037
_symmetry_space_group_name_H-M "P -1"
_symmetry_group_IT_number 2
_symmetry_cell_setting 'triclinic'
loop_
_space_group_symop_operation_xyz
x,y,z
-x,-y,-z
loop_
_atom_site_type_symbol
_atom_site_label
_atom_site_fract_x
_atom_site_fract_y
_atom_site_fract_z
Si Si1 0.545218 0.897789 0.245724
Si Si2 0.500000 0.000000 0.500000
Si Si3 0.771834 0.171896 0.547143
Si Si4 0.879834 0.491412 0.786356
Si Si5 0.830159 0.251910 0.080360
Si Si6 0.070618 0.163129 0.055526
Si Si7 0.349417 0.775675 0.074918
Si Si8 0.773832 0.721721 0.652342
O O1 0.435106 0.048286 0.426138
O O2 0.409270 0.769546 0.349852
O O3 0.709230 0.818955 0.174763
O O4 0.642982 0.014490 0.025733
O O5 0.366527 0.819878 0.671075
O O6 0.730455 0.220605 0.713660
O O7 0.956280 0.224205 0.281607
O O8 0.790541 0.940022 0.567097
O O9 0.769589 0.343108 0.857756
O O10 0.829249 0.682451 0.733031
O O11 0.092930 0.416576 0.547559
O O12 0.822271 0.447295 0.983220
O O13 0.958079 0.264422 0.052766
O O14 0.926211 0.066500 0.935549
O O15 0.563115 0.690046 0.867111
#
# Coordination Sequence:
#
# PCOD9096195 Si02
#       8
#     2   1   2   2   2   2   2   2
#     4  10  19  31  50  82 111 139 180 236 282 324
#     4  10  16  30  54  74 116 138 186 236 284 308
#     4  11  21  36  56  88 116 146 187 232 282 343
#     4  11  21  39  57  85 118 148 189 228 286 339
#     4  10  19  34  53  83 114 145 187 243 279 328
#     4  10  19  32  54  81 114 142 186 238 287 316
#     4  11  22  36  56  85 118 149 186 232 284 338
#     4  10  22  36  57  82 117 154 185 229 278 342
#
# _framework density 25.477964
#
# number of rings (size 3 to 8) (size 9 to 14) (size 15 to 20)
#    0.000    1.600    5.333    2.000    0.000    3.200 
#    0.000    0.000    0.000    0.800    0.000    7.467 
#    0.000    0.000    0.000    0.000    0.000    0.000 
#
# Total GULP energy -83684.889925 kJ/mol
# GULP energy per Si atom -5578.992662 kJ/mol
# Density = 2.541998 g / cm^3
# Si number density = 25.477964 Si / 1000 Ang^3
#
#
#
# Elastic Constant Matrix: (Units=GPa)
#
#
# Indices 1 2 3 4 5 6 
#
# 1 100.6495 -6.1909 10.4900 -10.5168 3.9882 -24.6944
# 2 -6.1909 11.9839 13.2545 -5.9084 4.7959 15.3477
# 3 10.4900 13.2545 90.7904 -22.9112 -12.1110 -13.2057
# 4 -10.5168 -5.9084 -22.9112 29.9557 -0.6209 2.2853
# 5 3.9882 4.7959 -12.1110 -0.6209 39.5032 -7.1128
# 6 -24.6944 15.3477 -13.2057 2.2853 -7.1128 17.4880
#
#
#
# Elastic Compliance Matrix: (Units=1/GPa)
#
#
# Indices 1 2 3 4 5 6 
#
# 1 0.011504 0.014736 -0.003021 0.004643 -0.004022 -0.001212
# 2 0.014736 -0.038760 0.020602 0.007748 0.023896 0.079088
# 3 -0.003021 0.020602 0.007780 0.010345 -0.003084 -0.019079
# 4 0.004643 0.007748 0.010345 0.044286 0.002999 0.003002
# 5 -0.004022 0.023896 -0.003084 0.002999 0.017947 -0.022072
# 6 -0.001212 0.079088 -0.019079 0.003002 -0.022072 -0.037714
#
#
# Mechanical properties :
#
#
# Convention : Reuss Voigt Hill
#
# Bulk Modulus (GPa) = 22.14482 26.50343 24.32413
# Shear Modulus (GPa) = -112.26379 29.78073 -41.24153
#
# Velocity S-wave (km/s) = -6.64521 3.42260 -4.02769
# Velocity P-wave (km/s) = 7.08292 5.10333 3.47302
#
# Compressibility (1/GPa) = 0.04515729
#
# Stress axis : x y z
#
# Youngs Moduli (GPa) = 86.92649 -25.79993 128.53639
#
# Poissons Ratio (x) = 0.38018 0.38837
# Poissons Ratio (y) = -1.28092 -2.64816
# Poissons Ratio (z) = 0.26264 0.53154
#
# Static dielectric constant tensor:
#      x y z
#    x 1.965170 -0.146770 -0.190070 
#    y -0.146770 1.718800 -0.397570 
#    z -0.190070 -0.397570 1.453820 
# 
# From -- ./inp_files/420415.got.cif
#   From: 2010.05.17/outbox.cif.g08.bks.cpg/sg2_211_cif.got.tgz:420415.got - 2010.06.03 11:33:40.
