data_PCOD9096938
_publ_section_title
;
Structure prediction by ZEFSAII (Michael W. Deem and Ramdas Pophale) SiO2 
 PCOD9096938
Probable space group: P -1
;
_chemical_formula_sum "Si O2"
_cell_formula_units_Z 15
_cell_length_a 7.948945
_cell_length_b 15.178546
_cell_length_c 14.690584
_cell_angle_alpha 152.086632
_cell_angle_beta 95.586568
_cell_angle_gamma 100.277236
_cell_volume 679.918445
_symmetry_space_group_name_H-M "P -1"
_symmetry_group_IT_number 2
_symmetry_cell_setting 'triclinic'
loop_
_space_group_symop_operation_xyz
x,y,z
-x,-y,-z
loop_
_atom_site_type_symbol
_atom_site_label
_atom_site_fract_x
_atom_site_fract_y
_atom_site_fract_z
Si Si1 0.777450 0.773345 0.793379
Si Si2 0.398961 0.700491 0.602419
Si Si3 0.486864 0.216833 0.705723
Si Si4 0.065891 0.250476 0.539881
Si Si5 0.000000 0.000000 0.500000
Si Si6 0.328627 0.728466 0.048008
Si Si7 0.551039 0.765501 0.474962
Si Si8 0.319977 0.058606 0.888629
O O1 0.618861 0.762001 0.703252
O O2 0.764261 0.539572 0.577878
O O3 0.695540 0.782669 0.896769
O O4 0.000000 0.000000 0.000000
O O5 0.401041 0.685286 0.479078
O O6 0.371440 0.901900 0.804173
O O7 0.252327 0.130977 0.624316
O O8 0.616457 0.338405 0.914274
O O9 0.561505 0.338480 0.722612
O O10 0.500000 0.000000 0.500000
O O11 0.997167 0.108544 0.500091
O O12 0.275163 0.280951 0.547241
O O13 0.893405 0.112273 0.329618
O O14 0.122865 0.503258 0.794397
O O15 0.332496 0.956658 0.270160
O O16 0.508107 0.805300 0.054784
#
# Coordination Sequence:
#
# PCOD9096938 Si02
#       8
#     2   2   2   2   1   2   2   2
#     4  11  24  42  66  93 123 157 206 259 318 382
#     4  10  23  43  64  92 125 160 202 260 319 374
#     4   9  18  37  61  88 128 168 209 265 310 371
#     4  11  22  38  60  90 125 166 214 256 306 372
#     4  10  20  36  58  88 128 166 218 262 302 372
#     4  10  21  40  63  87 127 169 207 258 316 364
#     4   9  20  38  63  88 122 162 208 256 308 374
#     4  11  23  40  65  92 126 162 208 256 312 380
#
# _framework density 22.061471000000001
#
# number of rings (size 3 to 8) (size 9 to 14) (size 15 to 20)
#    0.000    1.867    1.333    2.000    0.000    6.933 
#    2.400    6.000    0.000    0.000    0.000    0.000 
#    0.000    0.000    0.000    0.000    0.000    0.000 
#
# Total GULP energy -83565.916903 kJ/mol
# GULP energy per Si atom -5571.061127 kJ/mol
# Density = 2.201126 g / cm^3
# Si number density = 22.061471 Si / 1000 Ang^3
#
#
#
# Elastic Constant Matrix: (Units=GPa)
#
#
# Indices 1 2 3 4 5 6 
#
# 1 24.2990 6.7313 16.2958 8.1921 -3.1451 -11.1025
# 2 6.7313 44.3701 24.5894 -12.2527 3.7738 -18.5055
# 3 16.2958 24.5894 54.9621 -3.8634 -4.0751 -7.0375
# 4 8.1921 -12.2527 -3.8634 20.9790 -0.9451 -0.8340
# 5 -3.1451 3.7738 -4.0751 -0.9451 26.7526 -3.2472
# 6 -11.1025 -18.5055 -7.0375 -0.8340 -3.2472 28.8324
#
#
#
# Elastic Compliance Matrix: (Units=1/GPa)
#
#
# Indices 1 2 3 4 5 6 
#
# 1 0.080295 0.001686 -0.022953 -0.033203 0.007726 0.026308
# 2 0.001686 0.054101 -0.019170 0.028385 -0.005602 0.030884
# 3 -0.022953 -0.019170 0.032446 0.003395 0.003523 -0.012728
# 4 -0.033203 0.028385 0.003395 0.077993 -0.003651 0.008106
# 5 0.007726 -0.005602 0.003523 -0.003651 0.040049 0.004644
# 6 0.026308 0.030884 -0.012728 0.008106 0.004644 0.062287
#
#
# Mechanical properties :
#
#
# Convention : Reuss Voigt Hill
#
# Bulk Modulus (GPa) = 11.63227 24.31824 17.97525
# Shear Modulus (GPa) = 10.94802 20.38044 15.66423
#
# Velocity S-wave (km/s) = 2.23009 3.04271 2.66752
# Velocity P-wave (km/s) = 3.45183 4.83642 4.20156
#
# Compressibility (1/GPa) = 0.08596776
#
# Stress axis : x y z
#
# Youngs Moduli (GPa) = 12.45406 18.48378 30.82011
#
# Poissons Ratio (x) = -0.03116 0.70743
# Poissons Ratio (y) = -0.02099 0.59082
# Poissons Ratio (z) = 0.28586 0.35433
#
# Static dielectric constant tensor:
#      x y z
#    x 1.775500 -0.006980 -0.037940 
#    y -0.006980 1.841540 -0.004510 
#    z -0.037940 -0.004510 1.803000 
# 
# From -- ./inp_files/89676.got.cif
#   From: 2010.05.17/outbox.cif.g08.bks.cpg/sg2_45_cif.got.tgz:89676.got - 2010.06.03 11:33:40.
