data_PCOD9096145
_publ_section_title
;
Structure prediction by ZEFSAII (Michael W. Deem and Ramdas Pophale) SiO2 
 PCOD9096145
Probable space group: P -1
;
_chemical_formula_sum "Si O2"
_cell_formula_units_Z 14
_cell_length_a 13.570571
_cell_length_b 19.589176
_cell_length_c 10.482971
_cell_angle_alpha 138.367274
_cell_angle_beta 30.815949
_cell_angle_gamma 153.147334
_cell_volume 642.715312
_symmetry_space_group_name_H-M "P -1"
_symmetry_group_IT_number 2
_symmetry_cell_setting 'triclinic'
loop_
_space_group_symop_operation_xyz
x,y,z
-x,-y,-z
loop_
_atom_site_type_symbol
_atom_site_label
_atom_site_fract_x
_atom_site_fract_y
_atom_site_fract_z
Si Si1 0.563203 0.162519 0.917243
Si Si2 0.276183 0.635619 0.605230
Si Si3 0.698133 0.321295 0.717617
Si Si4 0.360970 0.333338 0.945645
Si Si5 0.962919 0.663792 0.157428
Si Si6 0.710655 0.115164 0.313796
Si Si7 0.505394 0.655378 0.638757
O O1 0.632068 0.240077 0.811537
O O2 0.842213 0.247503 0.809531
O O3 0.380914 0.989480 0.850459
O O4 0.414503 0.197579 0.206146
O O5 0.551037 0.712647 0.326757
O O6 0.327726 0.593281 0.619781
O O7 0.014916 0.486963 0.609348
O O8 0.167235 0.702634 0.872340
O O9 0.485952 0.329924 0.929468
O O10 0.685291 0.227963 0.493239
O O11 0.500000 0.500000 0.000000
O O12 0.026369 0.214809 0.148344
O O13 0.780144 0.692559 0.372419
O O14 0.719090 0.482113 0.203476
O O15 0.500000 0.000000 0.500000
#
# Coordination Sequence:
#
# PCOD9096145 Si02
#       7
#     2   2   2   2   2   2   2
#     4  10  20  40  63  93 131 159 216 258 317 374
#     4  11  21  38  60  95 128 155 213 265 311 371
#     4  11  22  40  65  94 133 164 207 267 314 373
#     4  12  27  40  66  96 127 174 213 257 321 377
#     4  10  20  35  62  94 122 171 206 269 310 369
#     4  10  25  43  63  93 132 170 211 258 317 385
#     4  10  20  35  65  91 126 166 214 262 315 362
#
# _framework density 21.782584
#
# number of rings (size 3 to 8) (size 9 to 14) (size 15 to 20)
#    0.000    1.429    4.286    1.286    2.000    5.714 
#    0.000    2.857    0.000    5.143    0.000    0.000 
#    0.000    0.000    0.000    0.000    0.000    0.000 
#
# Total GULP energy -78179.251382 kJ/mol
# GULP energy per Si atom -5584.232242 kJ/mol
# Density = 2.173301 g / cm^3
# Si number density = 21.782584 Si / 1000 Ang^3
#
#
#
# Elastic Constant Matrix: (Units=GPa)
#
#
# Indices 1 2 3 4 5 6 
#
# 1 67.7325 53.5899 48.0772 14.3077 -22.2925 7.5439
# 2 53.5899 135.1772 52.6181 14.1767 -27.5509 16.3812
# 3 48.0772 52.6181 147.2622 -4.0987 -33.9431 5.2985
# 4 14.3077 14.1767 -4.0987 34.5296 -3.3855 4.0075
# 5 -22.2925 -27.5509 -33.9431 -3.3855 45.6617 0.2896
# 6 7.5439 16.3812 5.2985 4.0075 0.2896 20.1704
#
#
#
# Elastic Compliance Matrix: (Units=1/GPa)
#
#
# Indices 1 2 3 4 5 6 
#
# 1 0.027697 -0.006665 -0.005792 -0.008778 0.004555 -0.001746
# 2 -0.006665 0.012104 -0.001228 -0.001261 0.003087 -0.006809
# 3 -0.005792 -0.001228 0.010287 0.004620 0.004424 -0.000520
# 4 -0.008778 -0.001261 0.004620 0.034188 0.000946 -0.003712
# 5 0.004555 0.003087 0.004424 0.000946 0.029383 -0.005982
# 6 -0.001746 -0.006809 -0.000520 -0.003712 -0.005982 0.056721
#
#
# Mechanical properties :
#
#
# Convention : Reuss Voigt Hill
#
# Bulk Modulus (GPa) = 44.01761 73.19357 58.60559
# Shear Modulus (GPa) = 24.35192 33.13144 28.74168
#
# Velocity S-wave (km/s) = 3.34721 3.90424 3.63641
# Velocity P-wave (km/s) = 5.93211 7.34840 6.67791
#
# Compressibility (1/GPa) = 0.02271818
#
# Stress axis : x y z
#
# Youngs Moduli (GPa) = 36.10555 82.61545 97.20568
#
# Poissons Ratio (x) = 0.55062 0.56306
# Poissons Ratio (y) = 0.24064 0.11934
# Poissons Ratio (z) = 0.20914 0.10143
#
# Static dielectric constant tensor:
#      x y z
#    x 1.767630 -0.014100 0.005360 
#    y -0.014100 1.793860 0.050910 
#    z 0.005360 0.050910 1.766140 
# 
# From -- ./inp_files/458084.got.cif
#   From: 2010.05.17/outbox.cif.g08.bks.cpg/sg2_230_cif.got.tgz:458084.got - 2010.06.03 11:33:40.
