data_PCOD9096892
_publ_section_title
;
Structure prediction by ZEFSAII (Michael W. Deem and Ramdas Pophale) SiO2 
 PCOD9096892
Probable space group: P -1
;
_chemical_formula_sum "Si O2"
_cell_formula_units_Z 16
_cell_length_a 11.923833
_cell_length_b 11.660297
_cell_length_c 24.058876
_cell_angle_alpha 41.616789
_cell_angle_beta 160.943154
_cell_angle_gamma 137.664603
_cell_volume 717.127066
_symmetry_space_group_name_H-M "P -1"
_symmetry_group_IT_number 2
_symmetry_cell_setting 'triclinic'
loop_
_space_group_symop_operation_xyz
x,y,z
-x,-y,-z
loop_
_atom_site_type_symbol
_atom_site_label
_atom_site_fract_x
_atom_site_fract_y
_atom_site_fract_z
Si Si1 0.979839 0.971327 0.675106
Si Si2 0.619245 0.749075 0.908653
Si Si3 0.797476 0.586615 0.166828
Si Si4 0.419743 0.680833 0.488841
Si Si5 0.097055 0.354442 0.639508
Si Si6 0.242767 0.603796 0.208953
Si Si7 0.254580 0.670901 0.975788
Si Si8 0.268746 0.050798 0.659359
O O1 0.597633 0.868952 0.522993
O O2 0.151140 0.859276 0.842868
O O3 0.988400 0.166258 0.629117
O O4 0.140234 0.970302 0.688415
O O5 0.253607 0.622915 0.771509
O O6 0.577384 0.947312 0.822830
O O7 0.716255 0.660837 0.042813
O O8 0.921702 0.710983 0.023647
O O9 0.188383 0.674384 0.329053
O O10 0.504152 0.639100 0.052091
O O11 0.700960 0.548967 0.665506
O O12 0.134740 0.619551 0.424679
O O13 0.000000 0.500000 0.500000
O O14 0.494873 0.351830 0.846847
O O15 0.578220 0.749382 0.324498
O O16 0.100157 0.470386 0.140014
O O17 0.000000 0.000000 0.500000
#
# Coordination Sequence:
#
# PCOD9096892 Si02
#       8
#     2   2   2   2   2   2   2   2
#     4  11  23  42  65  92 126 169 217 253 312 383
#     4  10  20  36  58  86 124 165 208 250 304 362
#     4   9  18  35  61  86 117 160 208 253 296 361
#     4  10  22  40  63  93 122 159 214 254 310 379
#     4  11  23  43  68  95 127 158 204 272 332 370
#     4  10  22  39  61  89 130 160 212 254 319 365
#     4   9  20  43  65  91 120 166 209 263 308 389
#     4  12  25  40  59  95 133 169 209 263 311 369
#
# _framework density 22.311247999999999
#
# number of rings (size 3 to 8) (size 9 to 14) (size 15 to 20)
#    0.000    1.750    1.250    2.625    3.500    2.500 
#    2.250    6.875    0.000    0.000    0.000    0.000 
#    0.000    0.000    0.000    0.000    0.000    0.000 
#
# Total GULP energy -89073.886048 kJ/mol
# GULP energy per Si atom -5567.117878 kJ/mol
# Density = 2.226047 g / cm^3
# Si number density = 22.311248 Si / 1000 Ang^3
#
#
#
# Elastic Constant Matrix: (Units=GPa)
#
#
# Indices 1 2 3 4 5 6 
#
# 1 33.1133 6.5402 8.4203 -11.4940 -8.2960 1.4879
# 2 6.5402 158.8670 74.5133 -1.0090 -23.2534 -15.5842
# 3 8.4203 74.5133 118.3207 12.2439 -22.5518 -5.6487
# 4 -11.4940 -1.0090 12.2439 39.9307 -10.4726 5.4537
# 5 -8.2960 -23.2534 -22.5518 -10.4726 25.4100 -4.4761
# 6 1.4879 -15.5842 -5.6487 5.4537 -4.4761 19.2678
#
#
#
# Elastic Compliance Matrix: (Units=1/GPa)
#
#
# Indices 1 2 3 4 5 6 
#
# 1 0.042353 0.002443 -0.002609 0.018932 0.021108 -0.002514
# 2 0.002443 0.010792 -0.005275 0.003860 0.008991 0.007990
# 3 -0.002609 -0.005275 0.013422 -0.003991 0.004968 0.002154
# 4 0.018932 0.003860 -0.003991 0.038034 0.020892 -0.005422
# 5 0.021108 0.008991 0.004968 0.020892 0.070591 0.017584
# 6 -0.002514 0.007990 0.002154 -0.005422 0.017584 0.064808
#
#
# Mechanical properties :
#
#
# Convention : Reuss Voigt Hill
#
# Bulk Modulus (GPa) = 17.95760 54.36096 36.15928
# Shear Modulus (GPa) = 18.55680 31.64351 25.10016
#
# Velocity S-wave (km/s) = 2.88709 3.77009 3.35774
# Velocity P-wave (km/s) = 4.37948 6.58552 5.59236
#
# Compressibility (1/GPa) = 0.05568673
#
# Stress axis : x y z
#
# Youngs Moduli (GPa) = 23.61100 92.65831 74.50621
#
# Poissons Ratio (x) = -0.22638 0.19436
# Poissons Ratio (y) = -0.05768 0.39300
# Poissons Ratio (z) = 0.06159 0.48875
#
# Static dielectric constant tensor:
#      x y z
#    x 1.881790 -0.010120 -0.015670 
#    y -0.010120 1.878390 0.071490 
#    z -0.015670 0.071490 1.901020 
# 
# From -- ./inp_files/179491.got.cif
#   From: 2010.05.17/outbox.cif.g08.bks.cpg/sg2_90_cif.got.tgz:179491.got - 2010.06.03 11:33:40.
