data_PCOD9096772
_publ_section_title
;
Structure prediction by ZEFSAII (Michael W. Deem and Ramdas Pophale) SiO2 
 PCOD9096772
Probable space group: P -1
;
_chemical_formula_sum "Si O2"
_cell_formula_units_Z 15
_cell_length_a 5.230870
_cell_length_b 5.000099
_cell_length_c 25.345927
_cell_angle_alpha 99.777363
_cell_angle_beta 61.876496
_cell_angle_gamma 84.817518
_cell_volume 564.979805
_symmetry_space_group_name_H-M "P -1"
_symmetry_group_IT_number 2
_symmetry_cell_setting 'triclinic'
loop_
_space_group_symop_operation_xyz
x,y,z
-x,-y,-z
loop_
_atom_site_type_symbol
_atom_site_label
_atom_site_fract_x
_atom_site_fract_y
_atom_site_fract_z
Si Si1 0.761898 0.223683 0.884867
Si Si2 0.045237 0.689839 0.650198
Si Si3 0.927634 0.871126 0.949676
Si Si4 0.955525 0.364151 0.555047
Si Si5 0.396333 0.123178 0.587466
Si Si6 0.500000 0.500000 0.000000
Si Si7 0.828925 0.744784 0.781303
Si Si8 0.729821 0.473590 0.183321
O O1 0.512704 0.496281 0.926206
O O2 0.081951 0.293387 0.842694
O O3 0.707283 0.128053 0.948901
O O4 0.702313 0.998744 0.841519
O O5 0.856793 0.604768 0.616740
O O6 0.870811 0.843802 0.721178
O O7 0.207775 0.389729 0.645549
O O8 0.284188 0.853465 0.608414
O O9 0.805720 0.608011 0.969791
O O10 0.137174 0.778054 0.877155
O O11 0.000000 0.000000 0.000000
O O12 0.728951 0.158138 0.564947
O O13 0.000000 0.500000 0.500000
O O14 0.734652 0.792293 0.455519
O O15 0.616395 0.520473 0.788940
O O16 0.140772 0.615442 0.774318
#
# Coordination Sequence:
#
# PCOD9096772 Si02
#       8
#     2   2   2   2   2   1   2   2
#     4  10  23  39  61  92 123 164 209 269 328 400
#     4  10  27  43  72 100 141 184 236 284 345 406
#     4  10  21  37  58  88 119 159 202 259 324 394
#     4  10  24  44  70 105 145 186 234 286 343 405
#     4  10  25  43  69 104 139 186 233 288 342 405
#     4  10  20  36  58  80 120 152 206 250 326 386
#     4  11  25  43  66  91 130 166 220 267 334 393
#     4  10  25  42  62  93 121 164 210 268 327 398
#
# _framework density 26.549624000000001
#
# number of rings (size 3 to 8) (size 9 to 14) (size 15 to 20)
#    0.800    1.067    0.000    1.600    5.600   10.667 
#    0.000    0.000    0.000    0.000    0.000    0.000 
#    0.000    0.000    0.000    0.000    0.000    0.000 
#
# Total GULP energy -83646.970615 kJ/mol
# GULP energy per Si atom -5576.464708 kJ/mol
# Density = 2.648920 g / cm^3
# Si number density = 26.549624 Si / 1000 Ang^3
#
#
#
# Elastic Constant Matrix: (Units=GPa)
#
#
# Indices 1 2 3 4 5 6 
#
# 1 120.9837 40.4026 52.7220 1.0684 28.7994 34.4468
# 2 40.4026 146.5062 41.2875 -4.3944 18.2494 43.6601
# 3 52.7220 41.2875 163.0606 -1.2565 46.8396 13.7856
# 4 1.0684 -4.3944 -1.2565 38.0802 0.3601 -1.2045
# 5 28.7994 18.2494 46.8396 0.3601 38.3633 4.6803
# 6 34.4468 43.6601 13.7856 -1.2045 4.6803 50.9591
#
#
#
# Elastic Compliance Matrix: (Units=1/GPa)
#
#
# Indices 1 2 3 4 5 6 
#
# 1 0.012694 0.000009 -0.001539 -0.000582 -0.006726 -0.007568
# 2 0.000009 0.009804 -0.001148 0.000867 -0.002317 -0.007862
# 3 -0.001539 -0.001148 0.009888 0.000345 -0.010413 0.000314
# 4 -0.000582 0.000867 0.000345 0.026402 -0.000675 0.000243
# 5 -0.006726 -0.002317 -0.010413 -0.000675 0.044296 0.005265
# 6 -0.007568 -0.007862 0.000314 0.000243 0.005265 0.030913
#
#
# Mechanical properties :
#
#
# Convention : Reuss Voigt Hill
#
# Bulk Modulus (GPa) = 36.99668 77.70831 57.35249
# Shear Modulus (GPa) = 33.70054 45.22307 39.46181
#
# Velocity S-wave (km/s) = 3.56665 4.13163 3.85949
# Velocity P-wave (km/s) = 5.56116 7.21756 6.44281
#
# Compressibility (1/GPa) = 0.02702945
#
# Stress axis : x y z
#
# Youngs Moduli (GPa) = 78.77467 101.99409 101.12833
#
# Poissons Ratio (x) = -0.00089 0.15567
# Poissons Ratio (y) = -0.00069 0.11612
# Poissons Ratio (z) = 0.12126 0.11712
#
# Static dielectric constant tensor:
#      x y z
#    x 2.493760 -0.322790 -0.026670 
#    y -0.322790 2.457450 0.277440 
#    z -0.026670 0.277440 2.411720 
# 
# From -- ./inp_files/12257.got.cif
#   From: 2010.05.17/outbox.cif.g08.bks.cpg/sg2_7_cif.got.tgz:12257.got - 2010.06.03 11:33:40.
