data_PCOD9096422
_publ_section_title
;
Structure prediction by ZEFSAII (Michael W. Deem and Ramdas Pophale) SiO2 
 PCOD9096422
Probable space group: P -1
;
_chemical_formula_sum "Si O2"
_cell_formula_units_Z 16
_cell_length_a 29.305407
_cell_length_b 22.749827
_cell_length_c 15.324975
_cell_angle_alpha 152.591387
_cell_angle_beta 161.022220
_cell_angle_gamma 16.982592
_cell_volume 955.420408
_symmetry_space_group_name_H-M "P -1"
_symmetry_group_IT_number 2
_symmetry_cell_setting 'triclinic'
loop_
_space_group_symop_operation_xyz
x,y,z
-x,-y,-z
loop_
_atom_site_type_symbol
_atom_site_label
_atom_site_fract_x
_atom_site_fract_y
_atom_site_fract_z
Si Si1 0.024613 0.504713 0.445705
Si Si2 0.957907 0.180911 0.889461
Si Si3 0.376133 0.486005 0.432276
Si Si4 0.267064 0.919335 0.675282
Si Si5 0.735760 0.890965 0.752510
Si Si6 0.546470 0.845553 0.939503
Si Si7 0.302119 0.520877 0.033339
Si Si8 0.011686 0.143331 0.682391
O O1 0.132145 0.315280 0.332187
O O2 0.000000 0.500000 0.500000
O O3 0.778052 0.701321 0.220643
O O4 0.192861 0.505214 0.744966
O O5 0.787193 0.352447 0.730412
O O6 0.883582 0.088355 0.645498
O O7 0.889048 0.306443 0.015698
O O8 0.209376 0.031511 0.114097
O O9 0.590503 0.424976 0.735546
O O10 0.234732 0.622229 0.441669
O O11 0.427714 0.302365 0.265836
O O12 0.494906 0.695795 0.834453
O O13 0.122465 0.075324 0.699039
O O14 0.351243 0.955308 0.801259
O O15 0.500000 0.000000 0.500000
O O16 0.839395 0.878166 0.010693
O O17 0.500000 0.000000 0.000000
O O18 0.000000 0.000000 0.500000
#
# Coordination Sequence:
#
# PCOD9096422 Si02
#       8
#     2   2   2   2   2   2   2   2
#     4  12  21  35  56  87 116 141 191 248 288 330
#     4  10  16  30  54  85 114 138 189 240 287 328
#     4  10  18  35  53  80 114 146 185 241 280 336
#     4  11  18  32  58  85 111 153 188 233 284 352
#     4  11  21  30  48  89 129 136 168 244 306 334
#     4  12  24  40  58  81 117 162 196 233 284 341
#     4  11  17  29  61  84 109 137 191 244 293 314
#     4  11  19  30  53  88 119 141 190 236 293 347
#
# _framework density 16.746554
#
# number of rings (size 3 to 8) (size 9 to 14) (size 15 to 20)
#    0.000    1.000   11.250    1.500    0.000    0.000 
#    0.000    1.250    0.000    0.000    0.000    1.750 
#    0.000    0.000    0.000    0.000    0.000    0.000 
#
# Total GULP energy -89077.284953 kJ/mol
# GULP energy per Si atom -5567.330310 kJ/mol
# Density = 1.670844 g / cm^3
# Si number density = 16.746554 Si / 1000 Ang^3
#
#
#
# Elastic Constant Matrix: (Units=GPa)
#
#
# Indices 1 2 3 4 5 6 
#
# 1 106.8486 62.0671 48.2208 8.1659 23.7308 -20.7099
# 2 62.0671 56.1966 34.6456 13.4347 8.4152 -8.4251
# 3 48.2208 34.6456 149.9872 16.8066 19.1634 -1.8492
# 4 8.1659 13.4347 16.8066 26.7168 -10.3700 1.8486
# 5 23.7308 8.4152 19.1634 -10.3700 35.4360 2.9206
# 6 -20.7099 -8.4251 -1.8492 1.8486 2.9206 31.3384
#
#
#
# Elastic Compliance Matrix: (Units=1/GPa)
#
#
# Indices 1 2 3 4 5 6 
#
# 1 0.038265 -0.035868 -0.001381 -0.001006 -0.018082 0.017307
# 2 -0.035868 0.059786 -0.001590 -0.014887 0.006943 -0.007493
# 3 -0.001381 -0.001590 0.008897 -0.006481 -0.005412 0.000072
# 4 -0.001006 -0.014887 -0.006481 0.060257 0.026259 -0.011052
# 5 -0.018082 0.006943 -0.005412 0.026259 0.050665 -0.016673
# 6 0.017307 -0.007493 0.000072 -0.011052 -0.016673 0.043543
#
#
# Mechanical properties :
#
#
# Convention : Reuss Voigt Hill
#
# Bulk Modulus (GPa) = 34.16359 66.98881 50.57620
# Shear Modulus (GPa) = 14.33301 29.90485 22.11893
#
# Velocity S-wave (km/s) = 2.92871 4.23038 3.63823
# Velocity P-wave (km/s) = 5.64634 7.99686 6.92210
#
# Compressibility (1/GPa) = 0.02927093
#
# Stress axis : x y z
#
# Youngs Moduli (GPa) = 26.13376 16.72644 112.40000
#
# Poissons Ratio (x) = 0.59994 0.15517
# Poissons Ratio (y) = 0.93736 0.17868
# Poissons Ratio (z) = 0.03608 0.02659
#
# Static dielectric constant tensor:
#      x y z
#    x 1.594160 -0.023140 0.030460 
#    y -0.023140 1.577180 0.014590 
#    z 0.030460 0.014590 1.619510 
# 
# From -- ./inp_files/544420.got.cif
#   From: 2010.05.17/outbox.cif.g08.bks.cpg/sg2_273_cif.got.tgz:544420.got - 2010.06.03 11:33:40.
