data_PCOD9096711
_publ_section_title
;
Structure prediction by ZEFSAII (Michael W. Deem and Ramdas Pophale) SiO2 
 PCOD9096711
Probable space group: P -1
;
_chemical_formula_sum "Si O2"
_cell_formula_units_Z 14
_cell_length_a 10.592649
_cell_length_b 13.989490
_cell_length_c 7.561177
_cell_angle_alpha 85.646982
_cell_angle_beta 88.591914
_cell_angle_gamma 149.914430
_cell_volume 550.853223
_symmetry_space_group_name_H-M "P -1"
_symmetry_group_IT_number 2
_symmetry_cell_setting 'triclinic'
loop_
_space_group_symop_operation_xyz
x,y,z
-x,-y,-z
loop_
_atom_site_type_symbol
_atom_site_label
_atom_site_fract_x
_atom_site_fract_y
_atom_site_fract_z
Si Si1 0.288203 0.201582 0.259939
Si Si2 0.894501 0.432353 0.241333
Si Si3 0.185480 0.346975 0.724689
Si Si4 0.432068 0.316765 0.843413
Si Si5 0.587404 0.231941 0.642505
Si Si6 0.938046 0.627100 0.958708
Si Si7 0.097475 0.902951 0.544673
O O1 0.553380 0.421100 0.293309
O O2 0.228036 0.061284 0.374619
O O3 0.296896 0.199655 0.048262
O O4 0.076651 0.140162 0.330697
O O5 0.191696 0.655095 0.246186
O O6 0.883721 0.317270 0.183324
O O7 0.738474 0.339709 0.438389
O O8 0.810901 0.451832 0.092320
O O9 0.275999 0.298053 0.760004
O O10 0.995313 0.257601 0.899638
O O11 0.064032 0.275777 0.546147
O O12 0.484725 0.264366 0.718758
O O13 0.717246 0.535172 0.869070
O O14 0.321498 0.003826 0.639100
#
# Coordination Sequence:
#
# PCOD9096711 Si02
#       7
#     2   2   2   2   2   2   2
#     4  10  21  38  57  86 127 159 189 235 298 362
#     4   9  19  37  62  81 112 161 204 243 287 338
#     4  11  22  38  61  93 124 153 189 241 303 360
#     4  10  20  36  63  92 119 154 193 240 303 357
#     4  10  20  36  57  87 117 154 202 243 288 347
#     4   9  18  36  60  85 112 156 202 240 290 347
#     4  11  23  36  58  89 122 159 195 237 294 357
#
# _framework density 25.415122
#
# number of rings (size 3 to 8) (size 9 to 14) (size 15 to 20)
#    0.000    2.000    0.000    5.571    0.000    3.429 
#    0.000    2.857    0.000    0.000    0.000    0.000 
#    0.000    0.000    0.000    0.000    0.000    0.000 
#
# Total GULP energy -78326.937322 kJ/mol
# GULP energy per Si atom -5594.781237 kJ/mol
# Density = 2.535728 g / cm^3
# Si number density = 25.415122 Si / 1000 Ang^3
#
#
#
# Elastic Constant Matrix: (Units=GPa)
#
#
# Indices 1 2 3 4 5 6 
#
# 1 95.2073 39.9572 37.0108 10.9478 -12.7410 12.8793
# 2 39.9572 75.1964 15.7141 8.1183 -6.8439 17.0857
# 3 37.0108 15.7141 140.0435 19.6852 -33.4490 -14.2566
# 4 10.9478 8.1183 19.6852 27.4840 -11.7655 12.2145
# 5 -12.7410 -6.8439 -33.4490 -11.7655 44.9842 -0.6596
# 6 12.8793 17.0857 -14.2566 12.2145 -0.6596 32.4803
#
#
#
# Elastic Compliance Matrix: (Units=1/GPa)
#
#
# Indices 1 2 3 4 5 6 
#
# 1 0.015222 -0.006266 -0.003746 0.000870 0.000732 -0.004696
# 2 -0.006266 0.018777 -0.001582 0.002188 0.000347 -0.008902
# 3 -0.003746 -0.001582 0.012053 -0.009367 0.005375 0.011239
# 4 0.000870 0.002188 -0.009367 0.057725 0.008314 -0.027147
# 5 0.000732 0.000347 0.005375 0.008314 0.028652 -0.000658
# 6 -0.004696 -0.008902 0.011239 -0.027147 -0.000658 0.052462
#
#
# Mechanical properties :
#
#
# Convention : Reuss Voigt Hill
#
# Bulk Modulus (GPa) = 43.73460 55.09018 49.41239
# Shear Modulus (GPa) = 23.18039 35.50737 29.34388
#
# Velocity S-wave (km/s) = 3.02333 3.74183 3.40160
# Velocity P-wave (km/s) = 5.42520 6.35544 5.90865
#
# Compressibility (1/GPa) = 0.02286519
#
# Stress axis : x y z
#
# Youngs Moduli (GPa) = 65.69229 53.25663 82.96825
#
# Poissons Ratio (x) = 0.33373 0.31076
# Poissons Ratio (y) = 0.41165 0.13123
# Poissons Ratio (z) = 0.24605 0.08423
#
# Static dielectric constant tensor:
#      x y z
#    x 1.973920 0.033750 -0.028070 
#    y 0.033750 2.072540 -0.025250 
#    z -0.028070 -0.025250 2.024600 
# 
# From -- ./inp_files/273125.got.cif
#   From: 2010.05.17/outbox.cif.g08.bks.cpg/sg2_137_cif.got.tgz:273125.got - 2010.06.03 11:33:40.
