data_PCOD9096956
_publ_section_title
;
Structure prediction by ZEFSAII (Michael W. Deem and Ramdas Pophale) SiO2 
 PCOD9096956
Probable space group: P -1
;
_chemical_formula_sum "Si O2"
_cell_formula_units_Z 15
_cell_length_a 10.551374
_cell_length_b 15.571957
_cell_length_c 7.263725
_cell_angle_alpha 123.063575
_cell_angle_beta 60.317027
_cell_angle_gamma 141.497216
_cell_volume 617.330630
_symmetry_space_group_name_H-M "P -1"
_symmetry_group_IT_number 2
_symmetry_cell_setting 'triclinic'
loop_
_space_group_symop_operation_xyz
x,y,z
-x,-y,-z
loop_
_atom_site_type_symbol
_atom_site_label
_atom_site_fract_x
_atom_site_fract_y
_atom_site_fract_z
Si Si1 0.500000 0.500000 0.500000
Si Si2 0.884440 0.353536 0.019807
Si Si3 0.239245 0.093350 0.924259
Si Si4 0.491282 0.949711 0.240335
Si Si5 0.885568 0.740188 0.233793
Si Si6 0.432955 0.350619 0.910813
Si Si7 0.385810 0.643263 0.545840
Si Si8 0.297270 0.052873 0.412198
O O1 0.700742 0.631856 0.382890
O O2 0.368473 0.528841 0.530977
O O3 0.708387 0.218165 0.855405
O O4 0.025325 0.328489 0.949307
O O5 0.780099 0.358163 0.272041
O O6 0.000000 0.500000 0.000000
O O7 0.317626 0.032483 0.908152
O O8 0.382771 0.268754 0.043789
O O9 0.290189 0.084092 0.667093
O O10 0.000000 0.000000 0.000000
O O11 0.500000 0.000000 0.500000
O O12 0.453671 0.034846 0.252935
O O13 0.790441 0.750522 0.139670
O O14 0.072017 0.901762 0.356547
O O15 0.602943 0.373450 0.699427
O O16 0.500000 0.500000 0.000000
O O17 0.608161 0.807826 0.609049
#
# Coordination Sequence:
#
# PCOD9096956 Si02
#       8
#     1   2   2   2   2   2   2   2
#     4  10  20  36  58  90 126 166 196 266 312 374
#     4  11  22  39  67  97 119 168 220 262 313 380
#     4  10  22  38  64  91 120 165 209 252 316 378
#     4   9  21  41  63  89 132 161 207 264 316 373
#     4  10  22  39  63  90 125 158 219 254 320 374
#     4  10  24  41  56  87 130 167 199 261 320 371
#     4  10  22  39  63  89 126 160 211 259 320 366
#     4   9  21  42  62  90 122 163 209 265 312 376
#
# _framework density 24.298162999999999
#
# number of rings (size 3 to 8) (size 9 to 14) (size 15 to 20)
#    0.000    2.133    1.333    0.000    1.867   13.333 
#    2.400    0.667    0.000    0.000    0.000    0.000 
#    0.000    0.000    0.000    0.000    0.000    0.000 
#
# Total GULP energy -83515.042086 kJ/mol
# GULP energy per Si atom -5567.669472 kJ/mol
# Density = 2.424286 g / cm^3
# Si number density = 24.298163 Si / 1000 Ang^3
#
#
#
# Elastic Constant Matrix: (Units=GPa)
#
#
# Indices 1 2 3 4 5 6 
#
# 1 107.7025 20.9160 12.9796 -6.8381 -37.2609 -9.1784
# 2 20.9160 97.3046 10.9085 -11.4670 -19.1447 -24.7422
# 3 12.9796 10.9085 95.9226 -21.6311 -28.1007 6.3526
# 4 -6.8381 -11.4670 -21.6311 32.3317 5.5521 -6.2191
# 5 -37.2609 -19.1447 -28.1007 5.5521 48.5975 -1.4544
# 6 -9.1784 -24.7422 6.3526 -6.2191 -1.4544 38.7976
#
#
#
# Elastic Compliance Matrix: (Units=1/GPa)
#
#
# Indices 1 2 3 4 5 6 
#
# 1 0.013441 0.000571 0.001887 0.003154 0.011386 0.004167
# 2 0.000571 0.014886 0.000969 0.007037 0.006383 0.010837
# 3 0.001887 0.000969 0.014840 0.009148 0.009378 0.000452
# 4 0.003154 0.007037 0.009148 0.041200 0.006089 0.010569
# 5 0.011386 0.006383 0.009378 0.006089 0.036775 0.007583
# 6 0.004167 0.010837 0.000452 0.010569 0.007583 0.035576
#
#
# Mechanical properties :
#
#
# Convention : Reuss Voigt Hill
#
# Bulk Modulus (GPa) = 19.99172 43.39314 31.69243
# Shear Modulus (GPa) = 30.02313 41.02039 35.52176
#
# Velocity S-wave (km/s) = 3.51894 4.11324 3.82764
# Velocity P-wave (km/s) = 4.97555 6.36048 5.71016
#
# Compressibility (1/GPa) = 0.05002070
#
# Stress axis : x y z
#
# Youngs Moduli (GPa) = 74.39886 67.17537 67.38694
#
# Poissons Ratio (x) = -0.03834 -0.12717
# Poissons Ratio (y) = -0.04246 -0.06529
# Poissons Ratio (z) = -0.14040 -0.06508
#
# Static dielectric constant tensor:
#      x y z
#    x 1.878500 0.058170 0.083850 
#    y 0.058170 1.882820 0.023810 
#    z 0.083850 0.023810 1.983890 
# 
# From -- ./inp_files/278348.got.cif
#   From: 2010.05.17/outbox.cif.g08.bks.cpg/sg2_140_cif.got.tgz:278348.got - 2010.06.03 11:33:40.
