data_PCOD9096337
_publ_section_title
;
Structure prediction by ZEFSAII (Michael W. Deem and Ramdas Pophale) SiO2 
 PCOD9096337
Probable space group: P -1
;
_chemical_formula_sum "Si O2"
_cell_formula_units_Z 15
_cell_length_a 5.314136
_cell_length_b 13.544124
_cell_length_c 14.820075
_cell_angle_alpha 139.393015
_cell_angle_beta 73.424506
_cell_angle_gamma 99.496038
_cell_volume 663.135414
_symmetry_space_group_name_H-M "P -1"
_symmetry_group_IT_number 2
_symmetry_cell_setting 'triclinic'
loop_
_space_group_symop_operation_xyz
x,y,z
-x,-y,-z
loop_
_atom_site_type_symbol
_atom_site_label
_atom_site_fract_x
_atom_site_fract_y
_atom_site_fract_z
Si Si1 0.442369 0.051706 0.841683
Si Si2 0.000000 0.000000 0.000000
Si Si3 0.094449 0.300175 0.307217
Si Si4 0.256702 0.304183 0.887950
Si Si5 0.629095 0.432623 0.814511
Si Si6 0.498069 0.286707 0.417915
Si Si7 0.237960 0.703775 0.974100
Si Si8 0.064130 0.494032 0.695998
O O1 0.374122 0.175172 0.855731
O O2 0.542262 0.889068 0.677986
O O3 0.649712 0.134920 0.939466
O O4 0.199362 0.020231 0.907569
O O5 0.122570 0.144699 0.140197
O O6 0.808151 0.303283 0.387640
O O7 0.063568 0.436869 0.333786
O O8 0.342545 0.311909 0.355733
O O9 0.434138 0.312578 0.787110
O O10 0.260886 0.474444 0.047868
O O11 0.948976 0.280353 0.907597
O O12 0.458500 0.567796 0.874602
O O13 0.874468 0.386755 0.693688
O O14 0.340899 0.403045 0.582097
O O15 0.092353 0.641538 0.859162
#
# Coordination Sequence:
#
# PCOD9096337 Si02
#       8
#     2   1   2   2   2   2   2   2
#     4  10  23  40  63  89 129 164 208 264 315 382
#     4  10  22  40  62  96 120 162 210 258 310 368
#     4  11  25  41  66  92 129 172 211 267 311 384
#     4   9  18  37  59  94 122 161 204 264 327 366
#     4   9  19  35  62  90 126 156 210 265 316 377
#     4  11  27  42  64  90 136 173 212 253 325 380
#     4  10  20  35  67  92 121 161 209 269 314 376
#     4  11  24  40  61  92 125 168 213 259 314 383
#
# _framework density 22.619817000000001
#
# number of rings (size 3 to 8) (size 9 to 14) (size 15 to 20)
#    0.000    1.867    0.000    3.600   11.200    2.133 
#    0.000    0.667    0.000    1.600    0.000    0.000 
#    0.000    0.000    0.000    0.000    0.000    0.000 
#
# Total GULP energy -83548.215640 kJ/mol
# GULP energy per Si atom -5569.881043 kJ/mol
# Density = 2.256833 g / cm^3
# Si number density = 22.619817 Si / 1000 Ang^3
#
#
#
# Elastic Constant Matrix: (Units=GPa)
#
#
# Indices 1 2 3 4 5 6 
#
# 1 57.6608 12.0170 2.5541 2.3013 -1.1067 9.8330
# 2 12.0170 106.8322 36.1627 0.8690 -9.1558 20.9412
# 3 2.5541 36.1627 66.6505 6.6138 -0.5895 9.7753
# 4 2.3013 0.8690 6.6138 23.2558 11.4880 -10.6163
# 5 -1.1067 -9.1558 -0.5895 11.4880 29.4917 1.4195
# 6 9.8330 20.9412 9.7753 -10.6163 1.4195 35.2092
#
#
#
# Elastic Compliance Matrix: (Units=1/GPa)
#
#
# Indices 1 2 3 4 5 6 
#
# 1 0.019169 -0.000762 0.001660 -0.007917 0.003980 -0.007908
# 2 -0.000762 0.013591 -0.005423 -0.006182 0.006900 -0.008507
# 3 0.001660 -0.005423 0.019684 -0.009513 0.002751 -0.005682
# 4 -0.007917 -0.006182 -0.009513 0.079489 -0.035002 0.033908
# 5 0.003980 0.006900 0.002751 -0.035002 0.050783 -0.018581
# 6 -0.007908 -0.008507 -0.005682 0.033908 -0.018581 0.048221
#
#
# Mechanical properties :
#
#
# Convention : Reuss Voigt Hill
#
# Bulk Modulus (GPa) = 23.04486 36.95677 30.00081
# Shear Modulus (GPa) = 19.65002 29.61868 24.63435
#
# Velocity S-wave (km/s) = 2.95058 3.62251 3.30367
# Velocity P-wave (km/s) = 4.67097 5.81983 5.27676
#
# Compressibility (1/GPa) = 0.04339363
#
# Stress axis : x y z
#
# Youngs Moduli (GPa) = 52.16714 73.57789 50.80285
#
# Poissons Ratio (x) = 0.05609 -0.08432
# Poissons Ratio (y) = 0.03977 0.27549
# Poissons Ratio (z) = -0.08658 0.39899
#
# Static dielectric constant tensor:
#      x y z
#    x 1.959570 -0.017150 0.015400 
#    y -0.017150 1.876910 -0.030480 
#    z 0.015400 -0.030480 1.835610 
# 
# From -- ./inp_files/97005.got.cif
#   From: 2010.05.17/outbox.cif.g08.bks.cpg/sg2_49_cif.got.tgz:97005.got - 2010.06.03 11:33:40.
