data_PCOD9096086
_publ_section_title
;
Structure prediction by ZEFSAII (Michael W. Deem and Ramdas Pophale) SiO2 
 PCOD9096086
Probable space group: P -1
;
_chemical_formula_sum "Si O2"
_cell_formula_units_Z 16
_cell_length_a 7.853659
_cell_length_b 15.088750
_cell_length_c 14.059756
_cell_angle_alpha 149.824193
_cell_angle_beta 113.538448
_cell_angle_gamma 84.386146
_cell_volume 647.743006
_symmetry_space_group_name_H-M "P -1"
_symmetry_group_IT_number 2
_symmetry_cell_setting 'triclinic'
loop_
_space_group_symop_operation_xyz
x,y,z
-x,-y,-z
loop_
_atom_site_type_symbol
_atom_site_label
_atom_site_fract_x
_atom_site_fract_y
_atom_site_fract_z
Si Si1 0.902813 0.894541 0.745511
Si Si2 0.075517 0.497999 0.269039
Si Si3 0.243567 0.358557 0.337766
Si Si4 0.638748 0.516194 0.953603
Si Si5 0.000869 0.821797 0.210374
Si Si6 0.565170 0.932679 0.567258
Si Si7 0.210115 0.938249 0.691716
Si Si8 0.431248 0.725680 0.002872
O O1 0.788400 0.701088 0.613599
O O2 0.059523 0.866383 0.684534
O O3 0.719297 0.915415 0.667132
O O4 0.079008 0.122807 0.040900
O O5 0.160249 0.486630 0.381309
O O6 0.085286 0.344726 0.051715
O O7 0.820958 0.407973 0.149359
O O8 0.201605 0.729699 0.469473
O O9 0.500000 0.500000 0.500000
O O10 0.894504 0.694535 0.165203
O O11 0.527067 0.583097 0.911206
O O12 0.605902 0.297649 0.719812
O O13 0.500000 0.500000 0.000000
O O14 0.913273 0.976280 0.319690
O O15 0.260003 0.951424 0.371631
O O16 0.483746 0.076180 0.723210
O O17 0.459055 0.141290 0.945290
#
# Coordination Sequence:
#
# PCOD9096086 Si02
#       8
#     2   2   2   2   2   2   2   2
#     4  10  22  41  58  90 127 162 206 249 305 355
#     4  11  21  40  63  90 117 168 210 240 304 365
#     4  11  24  37  63  89 124 162 206 257 301 347
#     4  11  24  39  63  96 122 154 201 253 308 364
#     4   9  20  40  60  87 121 157 203 243 306 365
#     4  10  20  40  65  83 123 170 197 247 301 363
#     4  10  20  35  62  87 115 158 207 248 291 358
#     4  10  21  38  64  89 120 162 206 245 298 371
#
# _framework density 24.701152
#
# number of rings (size 3 to 8) (size 9 to 14) (size 15 to 20)
#    0.000    1.750    3.750    2.250    3.500    2.500 
#    0.000    3.750    0.000    0.000    0.000    0.000 
#    0.000    0.000    0.000    0.000    0.000    0.000 
#
# Total GULP energy -89360.179928 kJ/mol
# GULP energy per Si atom -5585.011246 kJ/mol
# Density = 2.464493 g / cm^3
# Si number density = 24.701152 Si / 1000 Ang^3
#
#
#
# Elastic Constant Matrix: (Units=GPa)
#
#
# Indices 1 2 3 4 5 6 
#
# 1 84.8494 19.6794 13.0635 22.4007 11.2489 13.7050
# 2 19.6794 98.2890 50.8162 29.0357 13.4153 16.1650
# 3 13.0635 50.8162 87.0583 46.1431 7.4784 -1.4142
# 4 22.4007 29.0357 46.1431 43.1971 8.6244 6.8239
# 5 11.2489 13.4153 7.4784 8.6244 38.4451 21.3883
# 6 13.7050 16.1650 -1.4142 6.8239 21.3883 43.8068
#
#
#
# Elastic Compliance Matrix: (Units=1/GPa)
#
#
# Indices 1 2 3 4 5 6 
#
# 1 0.014797 -0.001721 0.004763 -0.011104 -0.001360 -0.001447
# 2 -0.001721 0.016336 -0.010458 0.002091 -0.000286 -0.006013
# 3 0.004763 -0.010458 0.035550 -0.034506 -0.002561 0.010142
# 4 -0.011104 0.002091 -0.034506 0.065852 -0.000986 -0.008188
# 5 -0.001360 -0.000286 -0.002561 -0.000986 0.036922 -0.017425
# 6 -0.001447 -0.006013 0.010142 -0.008188 -0.017425 0.035610
#
#
# Mechanical properties :
#
#
# Convention : Reuss Voigt Hill
#
# Bulk Modulus (GPa) = 19.28634 48.59052 33.93843
# Shear Modulus (GPa) = 21.08070 37.53230 29.30650
#
# Velocity S-wave (km/s) = 2.92452 3.90225 3.44821
# Velocity P-wave (km/s) = 4.38504 6.32593 5.44270
#
# Compressibility (1/GPa) = 0.05185017
#
# Stress axis : x y z
#
# Youngs Moduli (GPa) = 67.58115 61.21362 28.12939
#
# Poissons Ratio (x) = 0.10538 -0.13399
# Poissons Ratio (y) = 0.11634 0.29419
# Poissons Ratio (z) = -0.32191 0.64020
#
# Static dielectric constant tensor:
#      x y z
#    x 2.037070 0.028390 0.058640 
#    y 0.028390 2.040120 -0.026780 
#    z 0.058640 -0.026780 2.012190 
# 
# From -- ./inp_files/315324.got.cif
#   From: 2010.05.17/outbox.cif.g08.bks.cpg/sg2_158_cif.got.tgz:315324.got - 2010.06.03 11:33:40.
