data_PCOD9096188
_publ_section_title
;
Structure prediction by ZEFSAII (Michael W. Deem and Ramdas Pophale) SiO2 
 PCOD9096188
Probable space group: P -1
;
_chemical_formula_sum "Si O2"
_cell_formula_units_Z 16
_cell_length_a 12.640923
_cell_length_b 9.153462
_cell_length_c 10.115675
_cell_angle_alpha 73.921875
_cell_angle_beta 44.875452
_cell_angle_gamma 70.065540
_cell_volume 775.259231
_symmetry_space_group_name_H-M "P -1"
_symmetry_group_IT_number 2
_symmetry_cell_setting 'triclinic'
loop_
_space_group_symop_operation_xyz
x,y,z
-x,-y,-z
loop_
_atom_site_type_symbol
_atom_site_label
_atom_site_fract_x
_atom_site_fract_y
_atom_site_fract_z
Si Si1 0.093672 0.303231 0.686797
Si Si2 0.287666 0.496167 0.620919
Si Si3 0.493114 0.718771 0.325770
Si Si4 0.961311 0.913072 0.740104
Si Si5 0.134079 0.768010 0.879549
Si Si6 0.349265 0.124038 0.065250
Si Si7 0.928556 0.785760 0.540725
Si Si8 0.343804 0.984534 0.572514
O O1 0.160216 0.436188 0.666528
O O2 0.040033 0.334964 0.575651
O O3 0.232424 0.150083 0.604200
O O4 0.956786 0.263352 0.904312
O O5 0.386321 0.596329 0.425126
O O6 0.402408 0.351278 0.624084
O O7 0.217855 0.608215 0.775805
O O8 0.598574 0.748646 0.104947
O O9 0.388009 0.882002 0.426108
O O10 0.008208 0.781451 0.615876
O O11 0.017811 0.853018 0.848017
O O12 0.776604 0.950026 0.883982
O O13 0.031181 0.058340 0.597907
O O14 0.252746 0.879514 0.766751
O O15 0.249111 0.192130 0.263976
O O16 0.500000 0.000000 0.000000
O O17 0.500000 0.000000 0.500000
#
# Coordination Sequence:
#
# PCOD9096188 Si02
#       8
#     2   2   2   2   2   2   2   2
#     4  12  21  39  60  95 122 159 209 265 304 361
#     4  10  23  38  62  88 129 169 201 254 311 379
#     4  10  21  40  60  91 124 164 208 250 318 377
#     4   9  20  38  58  89 123 161 200 256 309 375
#     4  11  23  39  65  89 128 167 209 247 319 372
#     4  10  20  35  63  88 116 163 208 252 306 374
#     4   9  21  36  59  87 126 150 205 261 310 355
#     4  11  22  34  61  95 123 152 203 273 308 347
#
# _framework density 20.638258
#
# number of rings (size 3 to 8) (size 9 to 14) (size 15 to 20)
#    0.750    1.000    2.500    2.250    1.750    0.000 
#    0.000    1.250    0.000    0.000    0.000    0.000 
#    0.000    0.000    0.000    0.000    0.000    0.000 
#
# Total GULP energy -89284.185993 kJ/mol
# GULP energy per Si atom -5580.261625 kJ/mol
# Density = 2.059128 g / cm^3
# Si number density = 20.638258 Si / 1000 Ang^3
#
#
#
# Elastic Constant Matrix: (Units=GPa)
#
#
# Indices 1 2 3 4 5 6 
#
# 1 84.6958 19.2749 45.3938 -15.8296 -16.0350 19.4588
# 2 19.2749 72.5994 29.1119 -8.8023 -0.7043 -2.2924
# 3 45.3938 29.1119 167.2653 -22.8299 -3.1470 6.3083
# 4 -15.8296 -8.8023 -22.8299 22.8691 1.8396 -5.8307
# 5 -16.0350 -0.7043 -3.1470 1.8396 25.6953 3.3535
# 6 19.4588 -2.2924 6.3083 -5.8307 3.3535 21.0524
#
#
#
# Elastic Compliance Matrix: (Units=1/GPa)
#
#
# Indices 1 2 3 4 5 6 
#
# 1 0.024640 -0.005060 -0.004094 0.003502 0.017610 -0.023935
# 2 -0.005060 0.016372 -0.001335 0.004018 -0.004290 0.008656
# 3 -0.004094 -0.001335 0.007915 0.005565 -0.002438 0.003197
# 4 0.003502 0.004018 0.005565 0.056409 -0.002571 0.011566
# 5 0.017610 -0.004290 -0.002438 -0.002571 0.052959 -0.025161
# 6 -0.023935 0.008656 0.003197 0.011566 -0.025161 0.076819
#
#
# Mechanical properties :
#
#
# Convention : Reuss Voigt Hill
#
# Bulk Modulus (GPa) = 35.78073 56.90240 46.34157
# Shear Modulus (GPa) = 18.83883 29.30869 24.07376
#
# Velocity S-wave (km/s) = 3.02455 3.77253 3.41906
# Velocity P-wave (km/s) = 5.43801 6.82694 6.17167
#
# Compressibility (1/GPa) = 0.02794800
#
# Stress axis : x y z
#
# Youngs Moduli (GPa) = 40.58373 61.08011 126.34017
#
# Poissons Ratio (x) = 0.30909 0.51729
# Poissons Ratio (y) = 0.20537 0.16865
# Poissons Ratio (z) = 0.16617 0.08153
#
# Static dielectric constant tensor:
#      x y z
#    x 1.766930 0.003120 0.002150 
#    y 0.003120 1.769020 0.023680 
#    z 0.002150 0.023680 1.730120 
# 
# From -- ./inp_files/445730.got.cif
#   From: 2010.05.17/outbox.cif.g08.bks.cpg/sg2_223_cif.got.tgz:445730.got - 2010.06.03 11:33:40.
