data_PCOD9096091
_publ_section_title
;
Structure prediction by ZEFSAII (Michael W. Deem and Ramdas Pophale) SiO2 
 PCOD9096091
Probable space group: P -1
;
_chemical_formula_sum "Si O2"
_cell_formula_units_Z 13
_cell_length_a 8.740445
_cell_length_b 12.279786
_cell_length_c 13.525819
_cell_angle_alpha 31.056379
_cell_angle_beta 49.693356
_cell_angle_gamma 48.979353
_cell_volume 551.525483
_symmetry_space_group_name_H-M "P -1"
_symmetry_group_IT_number 2
_symmetry_cell_setting 'triclinic'
loop_
_space_group_symop_operation_xyz
x,y,z
-x,-y,-z
loop_
_atom_site_type_symbol
_atom_site_label
_atom_site_fract_x
_atom_site_fract_y
_atom_site_fract_z
Si Si1 0.917768 0.510314 0.392737
Si Si2 0.293251 0.894765 0.498205
Si Si3 0.000000 0.000000 0.000000
Si Si4 0.791102 0.558418 0.183932
Si Si5 0.225588 0.142468 0.666620
Si Si6 0.324316 0.785479 0.201298
Si Si7 0.071990 0.086199 0.245235
O O1 0.880072 0.511555 0.292969
O O2 0.901398 0.752429 0.256029
O O3 0.727259 0.448174 0.576732
O O4 0.115698 0.329176 0.490501
O O5 0.259311 0.656976 0.671032
O O6 0.531289 0.895926 0.408139
O O7 0.149826 0.961363 0.602990
O O8 0.192855 0.045485 0.330877
O O9 0.222534 0.885641 0.064556
O O10 0.863463 0.064581 0.118963
O O11 0.940838 0.670992 0.973946
O O12 0.569868 0.739546 0.140448
O O13 0.207241 0.921018 0.238054
#
# Coordination Sequence:
#
# PCOD9096091 Si02
#       7
#     2   2   1   2   2   2   2
#     4  10  20  35  62  87 120 154 203 254 302 346
#     4  11  23  42  61  89 130 160 202 246 311 358
#     4  10  22  36  62  94 122 150 208 258 302 358
#     4  12  21  39  67  90 119 164 209 249 298 362
#     4  10  20  38  59  89 123 158 195 260 301 354
#     4  11  20  38  63  92 121 157 207 254 302 348
#     4  11  24  38  62  92 125 163 201 252 299 368
#
# _framework density 23.570988
#
# number of rings (size 3 to 8) (size 9 to 14) (size 15 to 20)
#    0.000    1.231    3.077    4.154    0.000    0.000 
#    0.000    3.846    3.385    0.000    0.000    0.000 
#    0.000    0.000    0.000    0.000    0.000    0.000 
#
# Total GULP energy -72528.471359 kJ/mol
# GULP energy per Si atom -5579.113181 kJ/mol
# Density = 2.351734 g / cm^3
# Si number density = 23.570988 Si / 1000 Ang^3
#
#
#
# Elastic Constant Matrix: (Units=GPa)
#
#
# Indices 1 2 3 4 5 6 
#
# 1 93.5999 37.7869 67.7605 21.0529 0.9691 -35.3508
# 2 37.7869 84.7209 23.5395 10.0098 0.9373 -8.4792
# 3 67.7605 23.5395 162.4170 4.1857 20.9652 -19.5118
# 4 21.0529 10.0098 4.1857 27.5257 -1.7237 -14.2745
# 5 0.9691 0.9373 20.9652 -1.7237 45.8871 1.0843
# 6 -35.3508 -8.4792 -19.5118 -14.2745 1.0843 47.2275
#
#
#
# Elastic Compliance Matrix: (Units=1/GPa)
#
#
# Indices 1 2 3 4 5 6 
#
# 1 0.026642 -0.007091 -0.008773 -0.010096 0.002929 0.011926
# 2 -0.007091 0.014704 0.000572 -0.001532 -0.000401 -0.002886
# 3 -0.008773 0.000572 0.010061 0.004222 -0.004242 -0.000934
# 4 -0.010096 -0.001532 0.004222 0.048391 -0.000068 0.008540
# 5 0.002929 -0.000401 -0.004242 -0.000068 0.023679 -0.000196
# 6 0.011926 -0.002886 -0.000934 0.008540 -0.000196 0.031783
#
#
# Mechanical properties :
#
#
# Convention : Reuss Voigt Hill
#
# Bulk Modulus (GPa) = 48.02363 66.54572 57.28468
# Shear Modulus (GPa) = 25.93567 38.23811 32.08689
#
# Velocity S-wave (km/s) = 3.32071 4.03209 3.69357
# Velocity P-wave (km/s) = 5.92630 7.06897 6.52271
#
# Compressibility (1/GPa) = 0.02082308
#
# Stress axis : x y z
#
# Youngs Moduli (GPa) = 37.53453 68.00869 99.39730
#
# Poissons Ratio (x) = 0.48227 0.87197
# Poissons Ratio (y) = 0.26617 -0.05686
# Poissons Ratio (z) = 0.32927 -0.03890
#
# Static dielectric constant tensor:
#      x y z
#    x 1.990890 0.106360 -0.095880 
#    y 0.106360 1.992900 -0.065280 
#    z -0.095880 -0.065280 2.001620 
# 
# From -- ./inp_files/385308.got.cif
#   From: 2010.05.17/outbox.cif.g08.bks.cpg/sg2_193_cif.got.tgz:385308.got - 2010.06.03 11:33:40.
