data_PCOD9096382
_publ_section_title
;
Structure prediction by ZEFSAII (Michael W. Deem and Ramdas Pophale) SiO2 
 PCOD9096382
Probable space group: P -1
;
_chemical_formula_sum "Si O2"
_cell_formula_units_Z 12
_cell_length_a 11.054522
_cell_length_b 12.779569
_cell_length_c 6.437660
_cell_angle_alpha 74.251580
_cell_angle_beta 146.605766
_cell_angle_gamma 101.303018
_cell_volume 480.969878
_symmetry_space_group_name_H-M "P -1"
_symmetry_group_IT_number 2
_symmetry_cell_setting 'triclinic'
loop_
_space_group_symop_operation_xyz
x,y,z
-x,-y,-z
loop_
_atom_site_type_symbol
_atom_site_label
_atom_site_fract_x
_atom_site_fract_y
_atom_site_fract_z
Si Si1 0.973371 0.799168 0.836609
Si Si2 0.728141 0.005546 0.951473
Si Si3 0.748604 0.366012 0.955529
Si Si4 0.378654 0.447250 0.047918
Si Si5 0.485082 0.830428 0.186796
Si Si6 0.203639 0.226426 0.971819
O O1 0.113245 0.905784 0.961606
O O2 0.069945 0.702215 0.882944
O O3 0.715892 0.828962 0.403659
O O4 0.967630 0.760858 0.089575
O O5 0.657455 0.057821 0.045193
O O6 0.500000 0.000000 0.500000
O O7 0.839268 0.884035 0.152877
O O8 0.571180 0.412110 0.507188
O O9 0.779720 0.466204 0.098868
O O10 0.650506 0.271757 0.009715
O O11 0.250110 0.339518 0.869692
O O12 0.500000 0.500000 0.000000
O O13 0.570029 0.800754 0.559085
#
# Coordination Sequence:
#
# PCOD9096382 Si02
#       6
#     2   2   2   2   2   2
#     4   9  16  28  51  77 103 132 168 214 258 306
#     4   9  14  24  45  78 108 129 166 209 257 310
#     4   9  18  35  55  74 103 135 173 211 255 303
#     4  10  20  36  53  73 105 140 174 212 252 299
#     4   7  15  27  48  76  99 133 164 204 261 300
#     4   8  16  27  45  76 104 133 169 207 255 297
#
# _framework density 24.949587000000001
#
# number of rings (size 3 to 8) (size 9 to 14) (size 15 to 20)
#    1.000    2.333    0.000    1.500    0.000    0.667 
#    0.000    0.833    0.000    4.000    0.000    2.333 
#    0.000    0.000    0.000    0.000    0.000    0.000 
#
# Total GULP energy -66916.598690 kJ/mol
# GULP energy per Si atom -5576.383224 kJ/mol
# Density = 2.489280 g / cm^3
# Si number density = 24.949587 Si / 1000 Ang^3
#
#
#
# Elastic Constant Matrix: (Units=GPa)
#
#
# Indices 1 2 3 4 5 6 
#
# 1 160.7875 112.1506 38.8812 4.2651 36.7668 11.7083
# 2 112.1506 252.8327 54.9797 -2.2773 23.3450 -18.2839
# 3 38.8812 54.9797 82.6326 -0.4507 6.7577 -9.8361
# 4 4.2651 -2.2773 -0.4507 29.2721 -5.2393 4.7974
# 5 36.7668 23.3450 6.7577 -5.2393 34.8561 -6.5685
# 6 11.7083 -18.2839 -9.8361 4.7974 -6.5685 32.1367
#
#
#
# Elastic Compliance Matrix: (Units=1/GPa)
#
#
# Indices 1 2 3 4 5 6 
#
# 1 0.015334 -0.005553 -0.003824 -0.003297 -0.014545 -0.012397
# 2 -0.005553 0.006930 -0.001511 0.000845 0.002756 0.005941
# 3 -0.003824 -0.001511 0.015341 0.000294 0.003217 0.005842
# 4 -0.003297 0.000845 0.000294 0.036472 0.007951 -0.002048
# 5 -0.014545 0.002756 0.003217 0.007951 0.045777 0.016021
# 6 -0.012397 0.005941 0.005842 -0.002048 0.016021 0.044382
#
#
# Mechanical properties :
#
#
# Convention : Reuss Voigt Hill
#
# Bulk Modulus (GPa) = 63.18554 100.91954 82.05254
# Shear Modulus (GPa) = 26.13842 38.60240 32.37041
#
# Velocity S-wave (km/s) = 3.24025 3.93773 3.60590
# Velocity P-wave (km/s) = 6.27529 7.82378 7.09192
#
# Compressibility (1/GPa) = 0.01582640
#
# Stress axis : x y z
#
# Youngs Moduli (GPa) = 65.21461 144.30130 65.18552
#
# Poissons Ratio (x) = 0.80136 0.24929
# Poissons Ratio (y) = 0.36216 0.09853
# Poissons Ratio (z) = 0.24940 0.21811
#
# Static dielectric constant tensor:
#      x y z
#    x 1.977400 0.026540 -0.027440 
#    y 0.026540 2.038270 -0.056150 
#    z -0.027440 -0.056150 2.047550 
# 
# From -- ./inp_files/249076.got.cif
#   From: 2010.05.17/outbox.cif.g08.bks.cpg/sg2_125_cif.got.tgz:249076.got - 2010.06.03 11:33:40.
