data_PCOD9096866
_publ_section_title
;
Structure prediction by ZEFSAII (Michael W. Deem and Ramdas Pophale) SiO2 
 PCOD9096866
Probable space group: P -1
;
_chemical_formula_sum "Si O2"
_cell_formula_units_Z 16
_cell_length_a 10.583485
_cell_length_b 17.054491
_cell_length_c 9.392396
_cell_angle_alpha 108.695046
_cell_angle_beta 83.496671
_cell_angle_gamma 147.512725
_cell_volume 820.363202
_symmetry_space_group_name_H-M "P -1"
_symmetry_group_IT_number 2
_symmetry_cell_setting 'triclinic'
loop_
_space_group_symop_operation_xyz
x,y,z
-x,-y,-z
loop_
_atom_site_type_symbol
_atom_site_label
_atom_site_fract_x
_atom_site_fract_y
_atom_site_fract_z
Si Si1 0.153247 0.474874 0.349712
Si Si2 0.442453 0.599872 0.105457
Si Si3 0.719743 0.332323 0.987417
Si Si4 0.230559 0.878404 0.899137
Si Si5 0.403532 0.053811 0.401579
Si Si6 0.089211 0.255321 0.871367
Si Si7 0.443957 0.049984 0.712555
Si Si8 0.725002 0.353933 0.328951
O O1 0.354340 0.565029 0.258890
O O2 0.260558 0.548706 0.537509
O O3 0.929580 0.287546 0.236431
O O4 0.011105 0.482646 0.351440
O O5 0.701741 0.697898 0.124125
O O6 0.437990 0.686457 0.084206
O O7 0.240951 0.427016 0.952588
O O8 0.650329 0.304494 0.145345
O O9 0.672605 0.214545 0.865191
O O10 0.000000 0.500000 0.000000
O O11 0.241991 0.945698 0.801275
O O12 0.077291 0.833708 0.018177
O O13 0.500000 0.000000 0.000000
O O14 0.527525 0.032320 0.358382
O O15 0.115510 0.878633 0.299348
O O16 0.420969 0.082085 0.583913
O O17 0.547931 0.198016 0.362379
#
# Coordination Sequence:
#
# PCOD9096866 Si02
#       8
#     2   2   2   2   2   2   2   2
#     4  10  20  36  58  85 122 156 194 244 299 350
#     4  10  22  40  60  91 119 160 200 240 305 365
#     4  12  23  36  59  89 121 155 202 251 297 353
#     4  11  19  37  62  90 117 157 199 247 299 348
#     4  11  22  38  58  91 120 156 201 250 302 351
#     4  10  21  40  65  84 123 160 196 244 303 368
#     4  11  23  35  60  92 118 151 208 251 294 357
#     4  11  22  36  60  89 121 156 200 250 301 347
#
# _framework density 19.503556
#
# number of rings (size 3 to 8) (size 9 to 14) (size 15 to 20)
#    0.000    1.250    3.750    3.000    1.750    1.000 
#    0.000    6.250    0.000    4.500    0.000    0.000 
#    0.000    0.000    0.000    0.000    0.000    0.000 
#
# Total GULP energy -89085.588952 kJ/mol
# GULP energy per Si atom -5567.849310 kJ/mol
# Density = 1.945916 g / cm^3
# Si number density = 19.503556 Si / 1000 Ang^3
#
#
#
# Elastic Constant Matrix: (Units=GPa)
#
#
# Indices 1 2 3 4 5 6 
#
# 1 50.7248 23.5080 17.6345 -13.9525 -8.3964 18.7906
# 2 23.5080 93.2858 61.7755 -18.9375 0.8016 11.3057
# 3 17.6345 61.7755 154.7167 -11.0868 -5.5924 1.2480
# 4 -13.9525 -18.9375 -11.0868 30.5232 -4.2484 0.0836
# 5 -8.3964 0.8016 -5.5924 -4.2484 21.5377 -0.2655
# 6 18.7906 11.3057 1.2480 0.0836 -0.2655 27.9385
#
#
#
# Elastic Compliance Matrix: (Units=1/GPa)
#
#
# Indices 1 2 3 4 5 6 
#
# 1 0.038365 -0.002254 -0.001317 0.018232 0.017990 -0.024716
# 2 -0.002254 0.017598 -0.006261 0.007382 -0.001769 -0.005365
# 3 -0.001317 -0.006261 0.009093 -0.000923 0.001936 0.003034
# 4 0.018232 0.007382 -0.000923 0.047581 0.015791 -0.015201
# 5 0.017990 -0.001769 0.001936 0.015791 0.056992 -0.010976
# 6 -0.024716 -0.005365 0.003034 -0.015201 -0.010976 0.054393
#
#
# Mechanical properties :
#
#
# Convention : Reuss Voigt Hill
#
# Bulk Modulus (GPa) = 22.03019 56.06258 39.04638
# Shear Modulus (GPa) = 19.31870 29.05385 24.18628
#
# Velocity S-wave (km/s) = 3.15067 3.86381 3.52532
# Velocity P-wave (km/s) = 4.95536 6.97944 6.05261
#
# Compressibility (1/GPa) = 0.04539226
#
# Stress axis : x y z
#
# Youngs Moduli (GPa) = 26.06515 56.82426 109.97533
#
# Poissons Ratio (x) = 0.12808 0.14481
# Poissons Ratio (y) = 0.05875 0.68860
# Poissons Ratio (z) = 0.03432 0.35580
#
# Static dielectric constant tensor:
#      x y z
#    x 1.680840 -0.043600 -0.001450 
#    y -0.043600 1.781510 0.040420 
#    z -0.001450 0.040420 1.822100 
# 
# From -- ./inp_files/279628.got.cif
#   From: 2010.05.17/outbox.cif.g08.bks.cpg/sg2_140_cif.got.tgz:279628.got - 2010.06.03 11:33:40.
