data_PCOD9096257
_publ_section_title
;
Structure prediction by ZEFSAII (Michael W. Deem and Ramdas Pophale) SiO2 
 PCOD9096257
Probable space group: P -1
;
_chemical_formula_sum "Si O2"
_cell_formula_units_Z 16
_cell_length_a 9.563646
_cell_length_b 10.197494
_cell_length_c 12.814861
_cell_angle_alpha 125.454993
_cell_angle_beta 51.276288
_cell_angle_gamma 117.384848
_cell_volume 784.911959
_symmetry_space_group_name_H-M "P -1"
_symmetry_group_IT_number 2
_symmetry_cell_setting 'triclinic'
loop_
_space_group_symop_operation_xyz
x,y,z
-x,-y,-z
loop_
_atom_site_type_symbol
_atom_site_label
_atom_site_fract_x
_atom_site_fract_y
_atom_site_fract_z
Si Si1 0.395903 0.065694 0.674293
Si Si2 0.033045 0.739965 0.926116
Si Si3 0.049800 0.402838 0.691322
Si Si4 0.995471 0.916725 0.829898
Si Si5 0.383868 0.705912 0.173229
Si Si6 0.885959 0.647765 0.594432
Si Si7 0.201774 0.358151 0.817213
Si Si8 0.487702 0.422786 0.143074
O O1 0.542775 0.129326 0.723471
O O2 0.308408 0.212317 0.731143
O O3 0.500000 0.000000 0.500000
O O4 0.215904 0.956557 0.755440
O O5 0.119964 0.597787 0.762129
O O6 0.922514 0.800421 0.907391
O O7 0.931707 0.637219 0.020582
O O8 0.089306 0.916317 0.038162
O O9 0.123508 0.343437 0.521369
O O10 0.111652 0.326596 0.733189
O O11 0.831057 0.356936 0.762442
O O12 0.967718 0.817410 0.689994
O O13 0.462508 0.571798 0.146055
O O14 0.466346 0.711500 0.021387
O O15 0.690857 0.610166 0.721113
O O16 0.000000 0.500000 0.500000
O O17 0.343896 0.522591 0.834300
#
# Coordination Sequence:
#
# PCOD9096257 Si02
#       8
#     2   2   2   2   2   2   2   2
#     4  10  22  39  62  92 124 165 205 257 312 367
#     4  10  20  37  61  89 121 162 204 255 308 364
#     4  12  22  40  67  94 123 165 211 256 313 369
#     4  10  22  37  59  92 124 159 205 260 308 362
#     4  10  20  35  64  89 118 160 213 257 291 370
#     4  12  23  37  61  95 125 163 210 263 305 364
#     4  10  23  39  64  92 124 163 206 254 315 376
#     4  10  21  36  59  90 122 154 214 256 299 358
#
# _framework density 20.384452
#
# number of rings (size 3 to 8) (size 9 to 14) (size 15 to 20)
#    0.000    1.500    3.750    1.125   10.500    0.500 
#    0.000    5.625    0.000    1.500    0.000    0.000 
#    0.000    0.000    0.000    0.000    0.000    0.000 
#
# Total GULP energy -89095.341846 kJ/mol
# GULP energy per Si atom -5568.458865 kJ/mol
# Density = 2.033806 g / cm^3
# Si number density = 20.384452 Si / 1000 Ang^3
#
#
#
# Elastic Constant Matrix: (Units=GPa)
#
#
# Indices 1 2 3 4 5 6 
#
# 1 74.8282 20.0470 35.9448 5.4963 33.3459 8.4361
# 2 20.0470 51.6978 31.1394 -0.5829 13.7946 9.9833
# 3 35.9448 31.1394 170.8288 -7.0174 34.3048 15.7541
# 4 5.4963 -0.5829 -7.0174 23.2162 0.1814 8.2284
# 5 33.3459 13.7946 34.3048 0.1814 26.4932 5.5391
# 6 8.4361 9.9833 15.7541 8.2284 5.5391 16.8569
#
#
#
# Elastic Compliance Matrix: (Units=1/GPa)
#
#
# Indices 1 2 3 4 5 6 
#
# 1 0.032129 -0.002714 0.001631 -0.007257 -0.041323 0.001125
# 2 -0.002714 0.025291 -0.001601 0.005503 -0.004962 -0.013180
# 3 0.001631 -0.001601 0.008905 0.004756 -0.011365 -0.006778
# 4 -0.007257 0.005503 0.004756 0.058737 0.007037 -0.035056
# 5 -0.041323 -0.004962 -0.011365 0.007037 0.107987 -0.004679
# 6 0.001125 -0.013180 -0.006778 -0.035056 -0.004679 0.091549
#
#
# Mechanical properties :
#
#
# Convention : Reuss Voigt Hill
#
# Bulk Modulus (GPa) = 16.40504 52.40191 34.40348
# Shear Modulus (GPa) = 14.27404 27.32818 20.80111
#
# Velocity S-wave (km/s) = 2.64908 3.66545 3.19790
# Velocity P-wave (km/s) = 4.17398 6.60883 5.52715
#
# Compressibility (1/GPa) = 0.06095686
#
# Stress axis : x y z
#
# Youngs Moduli (GPa) = 31.12464 39.53961 112.29248
#
# Poissons Ratio (x) = 0.10730 -0.18311
# Poissons Ratio (y) = 0.08446 0.17981
# Poissons Ratio (z) = -0.05075 0.06331
#
# Static dielectric constant tensor:
#      x y z
#    x 1.738210 0.043630 -0.015260 
#    y 0.043630 1.827340 0.012380 
#    z -0.015260 0.012380 1.798680 
# 
# From -- ./inp_files/391306.got.cif
#   From: 2010.05.17/outbox.cif.g08.bks.cpg/sg2_196_cif.got.tgz:391306.got - 2010.06.03 11:33:40.
