data_PCOD9096666
_publ_section_title
;
Structure prediction by ZEFSAII (Michael W. Deem and Ramdas Pophale) SiO2 
 PCOD9096666
Probable space group: P -1
;
_chemical_formula_sum "Si O2"
_cell_formula_units_Z 14
_cell_length_a 27.260708
_cell_length_b 5.331507
_cell_length_c 12.755526
_cell_angle_alpha 74.667304
_cell_angle_beta 154.179766
_cell_angle_gamma 87.194205
_cell_volume 568.647871
_symmetry_space_group_name_H-M "P -1"
_symmetry_group_IT_number 2
_symmetry_cell_setting 'triclinic'
loop_
_space_group_symop_operation_xyz
x,y,z
-x,-y,-z
loop_
_atom_site_type_symbol
_atom_site_label
_atom_site_fract_x
_atom_site_fract_y
_atom_site_fract_z
Si Si1 0.926476 0.900580 0.294498
Si Si2 0.355142 0.963681 0.196898
Si Si3 0.277302 0.404139 0.664693
Si Si4 0.431259 0.749011 0.735674
Si Si5 0.828579 0.845092 0.670925
Si Si6 0.436467 0.559901 0.189414
Si Si7 0.155384 0.663278 0.614373
O O1 0.000000 0.500000 0.500000
O O2 0.977777 0.929997 0.276306
O O3 0.000000 0.000000 0.500000
O O4 0.750256 0.116054 0.958729
O O5 0.426813 0.774181 0.243359
O O6 0.471313 0.818967 0.532337
O O7 0.241678 0.375507 0.905273
O O8 0.268577 0.197965 0.584441
O O9 0.183177 0.476866 0.579106
O O10 0.198747 0.803096 0.436518
O O11 0.454351 0.184796 0.059271
O O12 0.469667 0.538146 0.725442
O O13 0.251288 0.078889 0.377524
O O14 0.500000 0.500000 0.000000
O O15 0.000000 0.500000 0.000000
O O16 0.260444 0.756361 0.799325
#
# Coordination Sequence:
#
# PCOD9096666 Si02
#       7
#     2   2   2   2   2   2   2
#     4  10  20  36  57  83 120 161 201 246 296 366
#     4  10  21  35  61  87 128 158 209 256 314 366
#     4  10  23  39  69  93 125 168 210 257 317 380
#     4   9  21  40  65  91 126 163 219 256 314 378
#     4  11  23  43  65  94 130 161 210 269 317 370
#     4  10  20  38  59  90 121 165 205 261 313 363
#     4  10  21  36  62  86 126 160 212 246 315 374
#
# _framework density 24.619803999999998
#
# number of rings (size 3 to 8) (size 9 to 14) (size 15 to 20)
#    0.000    2.000    1.429    1.286    6.000    1.143 
#    2.571    1.429    3.143    0.000    0.000    0.000 
#    0.000    0.000    0.000    0.000    0.000    0.000 
#
# Total GULP energy -78022.598635 kJ/mol
# GULP energy per Si atom -5573.042760 kJ/mol
# Density = 2.456377 g / cm^3
# Si number density = 24.619804 Si / 1000 Ang^3
#
#
#
# Elastic Constant Matrix: (Units=GPa)
#
#
# Indices 1 2 3 4 5 6 
#
# 1 172.8831 39.8546 32.8066 -4.2945 38.9287 -41.9582
# 2 39.8546 121.7743 24.0393 -1.7466 5.3543 -12.5493
# 3 32.8066 24.0393 56.0383 -5.0835 33.0989 -8.5096
# 4 -4.2945 -1.7466 -5.0835 34.8734 -0.6404 -1.6481
# 5 38.9287 5.3543 33.0989 -0.6404 51.6583 -6.4684
# 6 -41.9582 -12.5493 -8.5096 -1.6481 -6.4684 35.7115
#
#
#
# Elastic Compliance Matrix: (Units=1/GPa)
#
#
# Indices 1 2 3 4 5 6 
#
# 1 0.010129 -0.002042 0.000410 0.001569 -0.006388 0.010197
# 2 -0.002042 0.009801 -0.005338 -0.000443 0.003997 0.000477
# 3 0.000410 -0.005338 0.032722 0.004318 -0.020301 0.002925
# 4 0.001569 -0.000443 0.004318 0.029585 -0.003096 0.003522
# 5 -0.006388 0.003997 -0.020301 -0.003096 0.036159 -0.004532
# 6 0.010197 0.000477 0.002925 0.003522 -0.004532 0.040189
#
#
# Mechanical properties :
#
#
# Convention : Reuss Voigt Hill
#
# Bulk Modulus (GPa) = 25.83167 60.45519 43.14343
# Shear Modulus (GPa) = 26.96452 41.38164 34.17308
#
# Velocity S-wave (km/s) = 3.31303 4.10424 3.72967
# Velocity P-wave (km/s) = 5.01496 6.86065 6.00909
#
# Compressibility (1/GPa) = 0.03871217
#
# Stress axis : x y z
#
# Youngs Moduli (GPa) = 98.72383 102.03148 30.56078
#
# Poissons Ratio (x) = 0.20833 -0.01252
# Poissons Ratio (y) = 0.20158 0.16312
# Poissons Ratio (z) = -0.04044 0.54460
#
# Static dielectric constant tensor:
#      x y z
#    x 2.068460 0.062330 0.069100 
#    y 0.062330 1.988190 -0.029210 
#    z 0.069100 -0.029210 2.099140 
# 
# From -- ./inp_files/43237.got.cif
#   From: 2010.05.17/outbox.cif.g08.bks.cpg/sg2_22_cif.got.tgz:43237.got - 2010.06.03 11:33:40.
