data_PCOD9096584
_publ_section_title
;
Structure prediction by ZEFSAII (Michael W. Deem and Ramdas Pophale) SiO2 
 PCOD9096584
Probable space group: P -1
;
_chemical_formula_sum "Si O2"
_cell_formula_units_Z 16
_cell_length_a 8.575187
_cell_length_b 14.424904
_cell_length_c 20.994677
_cell_angle_alpha 151.726264
_cell_angle_beta 37.234035
_cell_angle_gamma 145.859456
_cell_volume 667.929309
_symmetry_space_group_name_H-M "P -1"
_symmetry_group_IT_number 2
_symmetry_cell_setting 'triclinic'
loop_
_space_group_symop_operation_xyz
x,y,z
-x,-y,-z
loop_
_atom_site_type_symbol
_atom_site_label
_atom_site_fract_x
_atom_site_fract_y
_atom_site_fract_z
Si Si1 0.136478 0.723893 0.177698
Si Si2 0.669800 0.758075 0.100603
Si Si3 0.765494 0.458095 0.364204
Si Si4 0.808476 0.061033 0.051741
Si Si5 0.160721 0.664215 0.602886
Si Si6 0.721444 0.660070 0.380828
Si Si7 0.697964 0.809079 0.825562
Si Si8 0.961350 0.213279 0.897960
O O1 0.456112 0.818521 0.162288
O O2 0.939112 0.774391 0.322746
O O3 0.100459 0.805247 0.168545
O O4 0.015845 0.459191 0.049098
O O5 0.751046 0.800429 0.175643
O O6 0.500000 0.500000 0.000000
O O7 0.964306 0.800778 0.992992
O O8 0.500000 0.500000 0.500000
O O9 0.691826 0.216324 0.216447
O O10 0.932099 0.467412 0.380368
O O11 0.884614 0.619508 0.363576
O O12 0.608990 0.840257 0.944972
O O13 0.000000 0.000000 0.000000
O O14 0.498599 0.750074 0.531998
O O15 0.000000 0.500000 0.500000
O O16 0.019011 0.828798 0.745469
O O17 0.508492 0.418884 0.276613
O O18 0.732375 0.997822 0.879449
#
# Coordination Sequence:
#
# PCOD9096584 Si02
#       8
#     2   2   2   2   2   2   2   2
#     4  10  20  38  55  86 121 160 201 244 303 371
#     4   9  19  36  55  82 124 155 199 242 299 368
#     4  10  20  36  56  87 124 155 196 248 308 366
#     4  11  21  34  61  95 115 157 201 254 305 350
#     4   9  19  38  56  84 120 162 194 252 309 368
#     4  10  21  36  61  88 122 157 205 247 309 370
#     4  10  20  37  58  90 125 149 206 256 305 356
#     4   9  20  36  56  80 122 159 192 253 307 348
#
# _framework density 23.954630999999999
#
# number of rings (size 3 to 8) (size 9 to 14) (size 15 to 20)
#    0.000    2.250    1.250    2.250    0.000    6.000 
#    4.500    0.625    0.000    3.000    3.250    0.000 
#    0.000    0.125    0.000    0.000    0.000    0.000 
#
# Total GULP energy -89166.795403 kJ/mol
# GULP energy per Si atom -5572.924713 kJ/mol
# Density = 2.390011 g / cm^3
# Si number density = 23.954631 Si / 1000 Ang^3
#
#
#
# Elastic Constant Matrix: (Units=GPa)
#
#
# Indices 1 2 3 4 5 6 
#
# 1 211.8855 27.5772 46.3843 -12.7429 2.7218 -29.6383
# 2 27.5772 61.9325 9.5688 -13.2186 7.8183 -7.5778
# 3 46.3843 9.5688 125.7981 -12.2946 -3.7925 -11.0276
# 4 -12.7429 -13.2186 -12.2946 29.5877 -0.7145 5.7326
# 5 2.7218 7.8183 -3.7925 -0.7145 43.9451 -1.2408
# 6 -29.6383 -7.5778 -11.0276 5.7326 -1.2408 46.2297
#
#
#
# Elastic Compliance Matrix: (Units=1/GPa)
#
#
# Indices 1 2 3 4 5 6 
#
# 1 0.005767 -0.001855 -0.001693 0.000380 -0.000084 0.002940
# 2 -0.001855 0.019079 -0.000053 0.007449 -0.003137 0.000918
# 3 -0.001693 -0.000053 0.008947 0.002850 0.000953 0.000712
# 4 0.000380 0.007449 0.002850 0.038984 -0.000545 -0.002704
# 5 -0.000084 -0.003137 0.000953 -0.000545 0.023402 0.000355
# 6 0.002940 0.000918 0.000712 -0.002704 0.000355 0.024181
#
#
# Mechanical properties :
#
#
# Convention : Reuss Voigt Hill
#
# Bulk Modulus (GPa) = 37.60734 62.96406 50.28570
# Shear Modulus (GPa) = 36.64974 45.02489 40.83732
#
# Velocity S-wave (km/s) = 3.91572 4.34013 4.13337
# Velocity P-wave (km/s) = 6.01476 7.17338 6.61947
#
# Compressibility (1/GPa) = 0.02659055
#
# Stress axis : x y z
#
# Youngs Moduli (GPa) = 173.40984 52.41370 111.76655
#
# Poissons Ratio (x) = 0.09722 0.18921
# Poissons Ratio (y) = 0.32164 0.00597
# Poissons Ratio (z) = 0.29357 0.00280
#
# Static dielectric constant tensor:
#      x y z
#    x 2.030880 0.087810 0.020810 
#    y 0.087810 2.198040 0.082990 
#    z 0.020810 0.082990 2.055780 
# 
# From -- ./inp_files/590486.got.cif
#   From: 2010.05.17/outbox.cif.g08.bks.cpg/sg2_296_cif.got.tgz:590486.got - 2010.06.03 11:33:40.
