data_PCOD9096994
_publ_section_title
;
Structure prediction by ZEFSAII (Michael W. Deem and Ramdas Pophale) SiO2 
 PCOD9096994
Probable space group: P -1
;
_chemical_formula_sum "Si O2"
_cell_formula_units_Z 10
_cell_length_a 16.397983
_cell_length_b 8.706056
_cell_length_c 5.895392
_cell_angle_alpha 98.376852
_cell_angle_beta 82.396518
_cell_angle_gamma 152.466439
_cell_volume 384.901891
_symmetry_space_group_name_H-M "P -1"
_symmetry_group_IT_number 2
_symmetry_cell_setting 'triclinic'
loop_
_space_group_symop_operation_xyz
x,y,z
-x,-y,-z
loop_
_atom_site_type_symbol
_atom_site_label
_atom_site_fract_x
_atom_site_fract_y
_atom_site_fract_z
Si Si1 0.264226 0.568747 0.736803
Si Si2 0.332377 0.673608 0.243221
Si Si3 0.356307 0.294271 0.819539
Si Si4 0.933294 0.226848 0.867722
Si Si5 0.337217 0.043445 0.393525
O O1 0.263426 0.487579 0.466992
O O2 0.092130 0.389097 0.757333
O O3 0.453965 0.975027 0.752864
O O4 0.268358 0.511947 0.984405
O O5 0.289859 0.788281 0.299193
O O6 0.326671 0.080670 0.661805
O O7 0.461922 0.587824 0.681575
O O8 0.500000 0.500000 0.000000
O O9 0.175047 0.036606 0.948164
O O10 0.792547 0.048820 0.695452
O O11 0.000000 0.500000 0.000000
#
# Coordination Sequence:
#
# PCOD9096994 Si02
#       5
#     2   2   2   2   2
#     4  10  22  36  56  88 120 144 192 235 286 339
#     4  10  21  38  57  83 118 157 182 233 290 345
#     4   9  21  36  53  83 116 149 191 236 285 340
#     4  11  20  33  58  89 114 144 190 244 283 332
#     4  10  20  36  59  80 115 155 189 231 291 341
#
# _framework density 25.980644999999999
#
# number of rings (size 3 to 8) (size 9 to 14) (size 15 to 20)
#    0.000    2.000    2.000    1.200    5.600    1.600 
#    0.000    1.000    0.000   10.800    0.000    0.000 
#    0.000    0.000    0.000    0.000    0.000    0.000 
#
# Total GULP energy -55884.354416 kJ/mol
# GULP energy per Si atom -5588.435442 kJ/mol
# Density = 2.592151 g / cm^3
# Si number density = 25.980645 Si / 1000 Ang^3
#
#
#
# Elastic Constant Matrix: (Units=GPa)
#
#
# Indices 1 2 3 4 5 6 
#
# 1 99.6300 45.2484 54.4535 -9.8117 0.3282 12.0015
# 2 45.2484 96.2801 49.1332 -23.9559 -6.1719 25.1609
# 3 54.4535 49.1332 209.2190 -15.8469 -1.3132 10.4487
# 4 -9.8117 -23.9559 -15.8469 38.7173 8.1307 -10.0832
# 5 0.3282 -6.1719 -1.3132 8.1307 27.2342 -2.5201
# 6 12.0015 25.1609 10.4487 -10.0832 -2.5201 50.1913
#
#
#
# Elastic Compliance Matrix: (Units=1/GPa)
#
#
# Indices 1 2 3 4 5 6 
#
# 1 0.013768 -0.005445 -0.002347 -0.000627 -0.001351 -0.000268
# 2 -0.005445 0.017047 -0.001795 0.006735 0.001327 -0.005450
# 3 -0.002347 -0.001795 0.005856 0.000861 -0.000316 0.000399
# 4 -0.000627 0.006735 0.000861 0.032560 -0.007892 0.002739
# 5 -0.001351 0.001327 -0.000316 -0.007892 0.039387 0.000116
# 6 -0.000268 -0.005450 0.000399 0.002739 0.000116 0.023193
#
#
# Mechanical properties :
#
#
# Convention : Reuss Voigt Hill
#
# Bulk Modulus (GPa) = 57.16119 78.08882 67.62500
# Shear Modulus (GPa) = 31.88421 40.31482 36.09951
#
# Velocity S-wave (km/s) = 3.50698 3.94347 3.73161
# Velocity P-wave (km/s) = 6.20063 7.13137 6.68222
#
# Compressibility (1/GPa) = 0.01749439
#
# Stress axis : x y z
#
# Youngs Moduli (GPa) = 72.63192 58.66220 170.77846
#
# Poissons Ratio (x) = 0.31944 0.40086
# Poissons Ratio (y) = 0.39551 0.30661
# Poissons Ratio (z) = 0.17048 0.10532
#
# Static dielectric constant tensor:
#      x y z
#    x 2.090140 -0.017390 0.088160 
#    y -0.017390 2.005670 -0.030200 
#    z 0.088160 -0.030200 2.142180 
# 
# From -- ./inp_files/15490.got.cif
#   From: 2010.05.17/outbox.cif.g08.bks.cpg/sg2_8_cif.got.tgz:15490.got - 2010.06.03 11:33:40.
