data_PCOD9096486
_publ_section_title
;
Structure prediction by ZEFSAII (Michael W. Deem and Ramdas Pophale) SiO2 
 PCOD9096486
Probable space group: P -1
;
_chemical_formula_sum "Si O2"
_cell_formula_units_Z 16
_cell_length_a 15.356917
_cell_length_b 12.061178
_cell_length_c 12.070645
_cell_angle_alpha 125.811848
_cell_angle_beta 138.868539
_cell_angle_gamma 89.923357
_cell_volume 676.262700
_symmetry_space_group_name_H-M "P -1"
_symmetry_group_IT_number 2
_symmetry_cell_setting 'triclinic'
loop_
_space_group_symop_operation_xyz
x,y,z
-x,-y,-z
loop_
_atom_site_type_symbol
_atom_site_label
_atom_site_fract_x
_atom_site_fract_y
_atom_site_fract_z
Si Si1 0.419829 0.737950 0.292445
Si Si2 0.853634 0.692616 0.477770
Si Si3 0.064373 0.205690 0.635235
Si Si4 0.721766 0.996632 0.356807
Si Si5 0.280692 0.719473 0.387518
Si Si6 0.670329 0.819715 0.412623
Si Si7 0.366018 0.739657 0.714448
Si Si8 0.936328 0.376681 0.248765
O O1 0.388786 0.764345 0.402536
O O2 0.659335 0.915772 0.559169
O O3 0.315920 0.493335 0.054047
O O4 0.281367 0.728214 0.075196
O O5 0.978974 0.824015 0.555310
O O6 0.774690 0.761994 0.505463
O O7 0.023726 0.745203 0.745046
O O8 0.596014 0.413538 0.030610
O O9 0.916254 0.181146 0.557743
O O10 0.000000 0.000000 0.500000
O O11 0.630673 0.053537 0.365045
O O12 0.814780 0.987792 0.541325
O O13 0.512542 0.761240 0.943784
O O14 0.347449 0.684422 0.536721
O O15 0.000000 0.500000 0.000000
O O16 0.125290 0.556835 0.438350
O O17 0.500000 0.000000 0.000000
O O18 0.000000 0.500000 0.500000
#
# Coordination Sequence:
#
# PCOD9096486 Si02
#       8
#     2   2   2   2   2   2   2   2
#     4  11  22  38  61  89 121 163 202 249 306 367
#     4  10  21  34  56  88 123 161 194 254 303 358
#     4  11  20  34  61  91 120 159 209 243 300 368
#     4  11  20  36  61  89 120 153 204 260 293 357
#     4  11  21  37  59  87 124 161 197 249 313 357
#     4  10  20  36  55  88 121 153 202 245 308 354
#     4  10  21  34  56  88 122 149 196 252 298 349
#     4  12  19  34  58  89 120 152 200 249 303 352
#
# _framework density 23.659445000000002
#
# number of rings (size 3 to 8) (size 9 to 14) (size 15 to 20)
#    0.000    1.250    7.500    0.750    0.000    0.500 
#    0.000    0.000    0.000    5.250    0.000    0.000 
#    0.000    0.000    0.000    0.000    0.000    0.000 
#
# Total GULP energy -89132.823345 kJ/mol
# GULP energy per Si atom -5570.801459 kJ/mol
# Density = 2.360560 g / cm^3
# Si number density = 23.659445 Si / 1000 Ang^3
#
#
#
# Elastic Constant Matrix: (Units=GPa)
#
#
# Indices 1 2 3 4 5 6 
#
# 1 193.8928 61.1944 26.5047 -31.3294 -7.6174 34.3983
# 2 61.1944 139.3531 23.4071 -21.0186 -10.4252 14.5567
# 3 26.5047 23.4071 40.7160 -14.2129 -9.0030 8.6558
# 4 -31.3294 -21.0186 -14.2129 27.0408 10.6425 1.1809
# 5 -7.6174 -10.4252 -9.0030 10.6425 27.7537 -2.6595
# 6 34.3983 14.5567 8.6558 1.1809 -2.6595 44.2062
#
#
#
# Elastic Compliance Matrix: (Units=1/GPa)
#
#
# Indices 1 2 3 4 5 6 
#
# 1 0.008255 -0.001699 -0.000407 0.009357 -0.002687 -0.006196
# 2 -0.001699 0.009050 -0.002440 0.003582 0.000650 -0.001237
# 3 -0.000407 -0.002440 0.033039 0.013697 0.003912 -0.005479
# 4 0.009357 0.003582 0.013697 0.065548 -0.018118 -0.013984
# 5 -0.002687 0.000650 0.003912 -0.018118 0.044162 0.004251
# 6 -0.006196 -0.001237 -0.005479 -0.013984 0.004251 0.029552
#
#
# Mechanical properties :
#
#
# Convention : Reuss Voigt Hill
#
# Bulk Modulus (GPa) = 24.24127 66.24159 45.24143
# Shear Modulus (GPa) = 23.53506 37.32384 30.42945
#
# Velocity S-wave (km/s) = 3.15738 3.97614 3.59018
# Velocity P-wave (km/s) = 4.85388 7.00987 6.02903
#
# Compressibility (1/GPa) = 0.04125196
#
# Stress axis : x y z
#
# Youngs Moduli (GPa) = 121.13797 110.49735 30.26698
#
# Poissons Ratio (x) = 0.18774 0.01233
# Poissons Ratio (y) = 0.20581 0.07384
# Poissons Ratio (z) = 0.04936 0.26958
#
# Static dielectric constant tensor:
#      x y z
#    x 1.942320 -0.025050 -0.008100 
#    y -0.025050 2.051590 0.058410 
#    z -0.008100 0.058410 2.100330 
# 
# From -- ./inp_files/282926.got.cif
#   From: 2010.05.17/outbox.cif.g08.bks.cpg/sg2_142_cif.got.tgz:282926.got - 2010.06.03 11:33:40.
