data_PCOD9096377
_publ_section_title
;
Structure prediction by ZEFSAII (Michael W. Deem and Ramdas Pophale) SiO2 
 PCOD9096377
Probable space group: P -1
;
_chemical_formula_sum "Si O2"
_cell_formula_units_Z 16
_cell_length_a 5.252952
_cell_length_b 11.890703
_cell_length_c 18.493856
_cell_angle_alpha 48.660137
_cell_angle_beta 101.712518
_cell_angle_gamma 73.167602
_cell_volume 694.042074
_symmetry_space_group_name_H-M "P -1"
_symmetry_group_IT_number 2
_symmetry_cell_setting 'triclinic'
loop_
_space_group_symop_operation_xyz
x,y,z
-x,-y,-z
loop_
_atom_site_type_symbol
_atom_site_label
_atom_site_fract_x
_atom_site_fract_y
_atom_site_fract_z
Si Si1 0.001183 0.414542 0.459407
Si Si2 0.375002 0.927826 0.851366
Si Si3 0.595491 0.642479 0.102480
Si Si4 0.146415 0.308175 0.129925
Si Si5 0.210699 0.260485 0.798066
Si Si6 0.157481 0.854216 0.738559
Si Si7 0.654080 0.215539 0.496704
Si Si8 0.296191 0.479064 0.239048
O O1 0.359142 0.278858 0.506331
O O2 0.000000 0.500000 0.500000
O O3 0.824851 0.582812 0.321287
O O4 0.828122 0.311544 0.490863
O O5 0.703104 0.842195 0.862709
O O6 0.121477 0.978588 0.752819
O O7 0.294837 0.090966 0.828029
O O8 0.427467 0.760738 0.972206
O O9 0.548494 0.779918 0.106092
O O10 0.479078 0.524908 0.175943
O O11 0.977180 0.516994 0.169778
O O12 0.915392 0.283632 0.174332
O O13 0.000000 0.500000 0.000000
O O14 0.870164 0.361398 0.775840
O O15 0.527092 0.754103 0.783426
O O16 0.904845 0.996647 0.606387
O O17 0.510977 0.294433 0.375364
#
# Coordination Sequence:
#
# PCOD9096377 Si02
#       8
#     2   2   2   2   2   2   2   2
#     4  11  21  31  50  72 120 153 187 224 265 314
#     4  10  23  35  58  85 110 148 192 231 273 335
#     4  10  20  36  52  77 116 159 188 220 263 316
#     4  10  23  43  59  85 113 137 181 238 301 344
#     4   9  20  34  49  79 117 156 189 219 262 313
#     4  10  23  35  63  85 110 139 186 232 288 335
#     4  11  19  38  50  82 109 149 189 225 265 332
#     4   9  20  34  52  73 117 156 187 218 258 311
#
# _framework density 23.053356000000001
#
# number of rings (size 3 to 8) (size 9 to 14) (size 15 to 20)
#    1.500    0.500    1.250    2.625    3.500    2.500 
#    0.000    0.000    0.000    0.000    0.000    5.250 
#    0.000    0.000    0.000    0.000    0.000    0.000 
#
# Total GULP energy -89372.750859 kJ/mol
# GULP energy per Si atom -5585.796929 kJ/mol
# Density = 2.300089 g / cm^3
# Si number density = 23.053356 Si / 1000 Ang^3
#
#
#
# Elastic Constant Matrix: (Units=GPa)
#
#
# Indices 1 2 3 4 5 6 
#
# 1 118.9224 10.8806 26.6732 1.6597 -6.5833 -11.1063
# 2 10.8806 66.9672 4.1336 -8.3927 0.5992 -2.8852
# 3 26.6732 4.1336 113.3231 -6.0717 5.6176 -7.9123
# 4 1.6597 -8.3927 -6.0717 20.3531 -3.9100 -0.5276
# 5 -6.5833 0.5992 5.6176 -3.9100 25.3068 4.8544
# 6 -11.1063 -2.8852 -7.9123 -0.5276 4.8544 31.7308
#
#
#
# Elastic Compliance Matrix: (Units=1/GPa)
#
#
# Indices 1 2 3 4 5 6 
#
# 1 0.009397 -0.001509 -0.002198 -0.001544 0.002303 0.002226
# 2 -0.001509 0.016070 0.000211 0.006846 0.000028 0.001095
# 3 -0.002198 0.000211 0.009765 0.002709 -0.002738 0.002149
# 4 -0.001544 0.006846 0.002709 0.054270 0.007110 0.000572
# 5 0.002303 0.000028 -0.002738 0.007110 0.043036 -0.006340
# 6 0.002226 0.001095 0.002149 0.000572 -0.006340 0.033909
#
#
# Mechanical properties :
#
#
# Convention : Reuss Voigt Hill
#
# Bulk Modulus (GPa) = 35.41264 42.50973 38.96118
# Shear Modulus (GPa) = 27.34438 32.64647 29.99542
#
# Velocity S-wave (km/s) = 3.44777 3.76723 3.61103
# Velocity P-wave (km/s) = 5.58963 6.11575 5.85860
#
# Compressibility (1/GPa) = 0.02823850
#
# Stress axis : x y z
#
# Youngs Moduli (GPa) = 106.41846 62.22837 102.40730
#
# Poissons Ratio (x) = 0.09392 0.22511
# Poissons Ratio (y) = 0.16062 -0.02161
# Poissons Ratio (z) = 0.23393 -0.01313
#
# Static dielectric constant tensor:
#      x y z
#    x 1.824720 -0.000390 0.019590 
#    y -0.000390 1.934090 0.012410 
#    z 0.019590 0.012410 1.830490 
# 
# From -- ./inp_files/81407.got.cif
#   From: 2010.05.17/outbox.cif.g08.bks.cpg/sg2_41_cif.got.tgz:81407.got - 2010.06.03 11:33:40.
