data_PCOD9096943
_publ_section_title
;
Structure prediction by ZEFSAII (Michael W. Deem and Ramdas Pophale) SiO2 
 PCOD9096943
Probable space group: P -1
;
_chemical_formula_sum "Si O2"
_cell_formula_units_Z 12
_cell_length_a 6.650103
_cell_length_b 16.675901
_cell_length_c 9.347013
_cell_angle_alpha 37.036087
_cell_angle_beta 121.496769
_cell_angle_gamma 100.856449
_cell_volume 476.654055
_symmetry_space_group_name_H-M "P -1"
_symmetry_group_IT_number 2
_symmetry_cell_setting 'triclinic'
loop_
_space_group_symop_operation_xyz
x,y,z
-x,-y,-z
loop_
_atom_site_type_symbol
_atom_site_label
_atom_site_fract_x
_atom_site_fract_y
_atom_site_fract_z
Si Si1 0.106792 0.990478 0.740575
Si Si2 0.079854 0.459833 0.251092
Si Si3 0.681762 0.326544 0.620281
Si Si4 0.438508 0.913115 0.729590
Si Si5 0.697952 0.616493 0.117069
Si Si6 0.184234 0.755372 0.526393
O O1 0.840767 0.082318 0.421797
O O2 0.016153 0.081776 0.724451
O O3 0.363430 0.981939 0.762792
O O4 0.150248 0.821854 0.017106
O O5 0.387810 0.402577 0.463244
O O6 0.989333 0.332714 0.427076
O O7 0.000000 0.500000 0.000000
O O8 0.910890 0.592097 0.107997
O O9 0.682787 0.261248 0.554621
O O10 0.757797 0.461376 0.435752
O O11 0.654203 0.744619 0.032072
O O12 0.500000 0.000000 0.500000
O O13 0.423651 0.670218 0.848552
#
# Coordination Sequence:
#
# PCOD9096943 Si02
#       6
#     2   2   2   2   2   2
#     4  10  24  40  59  86 116 153 191 241 289 330
#     4  11  19  32  60  88 116 153 184 223 288 344
#     4  11  21  37  59  91 122 143 188 241 286 342
#     4  10  24  43  62  78 111 158 201 237 283 340
#     4  10  21  37  59  86 115 153 193 235 280 340
#     4  10  20  36  58  89 120 150 187 230 289 344
#
# _framework density 25.175491999999998
#
# number of rings (size 3 to 8) (size 9 to 14) (size 15 to 20)
#    0.000    1.667    3.333    1.500    2.333    5.333 
#    0.000    1.667    0.000    0.000    0.000    0.000 
#    0.000    0.000    0.000    0.000    0.000    0.000 
#
# Total GULP energy -67093.590831 kJ/mol
# GULP energy per Si atom -5591.132569 kJ/mol
# Density = 2.511819 g / cm^3
# Si number density = 25.175492 Si / 1000 Ang^3
#
#
#
# Elastic Constant Matrix: (Units=GPa)
#
#
# Indices 1 2 3 4 5 6 
#
# 1 160.7710 54.9488 36.2730 -21.9025 11.7670 -50.4155
# 2 54.9488 75.5542 33.2858 -20.9348 7.1891 -39.3673
# 3 36.2730 33.2858 127.0519 -19.8694 -0.2316 -17.2609
# 4 -21.9025 -20.9348 -19.8694 43.0647 -6.7295 11.6858
# 5 11.7670 7.1891 -0.2316 -6.7295 38.8396 -5.2856
# 6 -50.4155 -39.3673 -17.2609 11.6858 -5.2856 42.1994
#
#
#
# Elastic Compliance Matrix: (Units=1/GPa)
#
#
# Indices 1 2 3 4 5 6 
#
# 1 0.010374 -0.001270 -0.001049 0.001178 -0.001310 0.010289
# 2 -0.001270 0.028992 -0.003291 0.005677 -0.000957 0.022491
# 3 -0.001049 -0.003291 0.009302 0.002657 0.001294 -0.001093
# 4 0.001178 0.005677 0.002657 0.028250 0.003559 0.000412
# 5 -0.001310 -0.000957 0.001294 0.003559 0.027009 0.000469
# 6 0.010289 0.022491 -0.001093 0.000412 0.000469 0.056468
#
#
# Mechanical properties :
#
#
# Convention : Reuss Voigt Hill
#
# Bulk Modulus (GPa) = 26.70505 68.04358 47.37432
# Shear Modulus (GPa) = 27.15943 40.74538 33.95240
#
# Velocity S-wave (km/s) = 3.28808 4.02737 3.67635
# Velocity P-wave (km/s) = 5.00458 6.97944 6.07283
#
# Compressibility (1/GPa) = 0.03744611
#
# Stress axis : x y z
#
# Youngs Moduli (GPa) = 96.39726 34.49233 107.50321
#
# Poissons Ratio (x) = 0.04382 0.11280
# Poissons Ratio (y) = 0.12245 0.35383
# Poissons Ratio (z) = 0.10114 0.11352
#
# Static dielectric constant tensor:
#      x y z
#    x 2.036320 -0.077890 -0.036410 
#    y -0.077890 2.086430 0.038750 
#    z -0.036410 0.038750 1.976000 
# 
# From -- ./inp_files/138427.got.cif
#   From: 2010.05.17/outbox.cif.g08.bks.cpg/sg2_70_cif.got.tgz:138427.got - 2010.06.03 11:33:40.
