data_PCOD9096818
_publ_section_title
;
Structure prediction by ZEFSAII (Michael W. Deem and Ramdas Pophale) SiO2 
 PCOD9096818
Probable space group: P -1
;
_chemical_formula_sum "Si O2"
_cell_formula_units_Z 15
_cell_length_a 9.560936
_cell_length_b 13.863843
_cell_length_c 6.135779
_cell_angle_alpha 106.320591
_cell_angle_beta 69.968269
_cell_angle_gamma 131.624183
_cell_volume 569.522026
_symmetry_space_group_name_H-M "P -1"
_symmetry_group_IT_number 2
_symmetry_cell_setting 'triclinic'
loop_
_space_group_symop_operation_xyz
x,y,z
-x,-y,-z
loop_
_atom_site_type_symbol
_atom_site_label
_atom_site_fract_x
_atom_site_fract_y
_atom_site_fract_z
Si Si1 0.996354 0.384479 0.511796
Si Si2 0.000000 0.000000 0.000000
Si Si3 0.638284 0.895502 0.352672
Si Si4 0.333024 0.828140 0.766511
Si Si5 0.803477 0.828383 0.595215
Si Si6 0.717764 0.558721 0.919987
Si Si7 0.567020 0.307337 0.052431
Si Si8 0.037474 0.767405 0.186824
O O1 0.200927 0.427853 0.353550
O O2 0.960913 0.337259 0.747905
O O3 0.000000 0.500000 0.500000
O O4 0.832737 0.261411 0.377652
O O5 0.826704 0.001587 0.183612
O O6 0.102902 0.051217 0.216791
O O7 0.527530 0.925798 0.587369
O O8 0.712803 0.838362 0.434859
O O9 0.495419 0.784844 0.182586
O O10 0.366232 0.738296 0.822805
O O11 0.241579 0.862514 0.017901
O O12 0.622871 0.716645 0.767617
O O13 0.962733 0.816717 0.429895
O O14 0.500000 0.500000 0.000000
O O15 0.715906 0.453011 0.985936
O O16 0.867493 0.694080 0.050259
#
# Coordination Sequence:
#
# PCOD9096818 Si02
#       8
#     2   1   2   2   2   2   2   2
#     4  11  22  36  55  82 122 167 204 236 277 336
#     4  10  22  40  66  90 112 144 194 248 302 360
#     4  10  20  39  64  87 112 148 195 244 295 354
#     4  10  21  36  57  83 116 156 195 237 289 348
#     4  10  22  39  61  87 116 151 194 247 300 351
#     4  11  22  34  53  85 121 159 199 240 283 335
#     4  10  20  36  58  83 116 159 201 237 283 344
#     4  11  23  37  56  87 125 159 196 242 290 341
#
# _framework density 26.337876000000001
#
# number of rings (size 3 to 8) (size 9 to 14) (size 15 to 20)
#    0.000    1.600    0.000    5.200    0.000    9.600 
#    0.000    0.667    0.000   12.000    0.000    0.000 
#    0.000    0.000    0.000    0.000    0.000    0.000 
#
# Total GULP energy -83679.411581 kJ/mol
# GULP energy per Si atom -5578.627439 kJ/mol
# Density = 2.627793 g / cm^3
# Si number density = 26.337876 Si / 1000 Ang^3
#
#
#
# Elastic Constant Matrix: (Units=GPa)
#
#
# Indices 1 2 3 4 5 6 
#
# 1 129.6752 20.4612 67.5438 -23.2027 -20.3735 12.2184
# 2 20.4612 40.8195 41.6735 -12.8416 -15.7497 9.4469
# 3 67.5438 41.6735 134.8389 -28.0611 -48.6026 16.1399
# 4 -23.2027 -12.8416 -28.0611 50.8791 22.8368 3.6894
# 5 -20.3735 -15.7497 -48.6026 22.8368 72.2723 -17.2342
# 6 12.2184 9.4469 16.1399 3.6894 -17.2342 43.2236
#
#
#
# Elastic Compliance Matrix: (Units=1/GPa)
#
#
# Indices 1 2 3 4 5 6 
#
# 1 0.010930 0.000961 -0.005548 0.003239 -0.002014 -0.002308
# 2 0.000961 0.037392 -0.011009 0.005057 -0.001898 -0.005522
# 3 -0.005548 -0.011009 0.016086 0.000426 0.006881 0.000675
# 4 0.003239 0.005057 0.000426 0.026781 -0.007985 -0.007649
# 5 -0.002014 -0.001898 0.006881 -0.007985 0.021870 0.007816
# 6 -0.002308 -0.005522 0.000675 -0.007649 0.007816 0.028512
#
#
# Mechanical properties :
#
#
# Convention : Reuss Voigt Hill
#
# Bulk Modulus (GPa) = 30.10577 62.74337 46.42457
# Shear Modulus (GPa) = 27.19850 44.98535 36.09193
#
# Velocity S-wave (km/s) = 3.21701 4.13729 3.70583
# Velocity P-wave (km/s) = 5.02537 6.83353 5.99798
#
# Compressibility (1/GPa) = 0.03321622
#
# Stress axis : x y z
#
# Youngs Moduli (GPa) = 91.48999 26.74397 62.16706
#
# Poissons Ratio (x) = -0.02570 0.34489
# Poissons Ratio (y) = -0.08791 0.68438
# Poissons Ratio (z) = 0.50757 0.29442
#
# Static dielectric constant tensor:
#      x y z
#    x 2.483860 -0.613060 0.791530 
#    y -0.613060 2.904150 -1.298370 
#    z 0.791530 -1.298370 3.840200 
# 
# From -- ./inp_files/44991.got.cif
#   From: 2010.05.17/outbox.cif.g08.bks.cpg/sg2_23_cif.got.tgz:44991.got - 2010.06.03 11:33:40.
