data_PCOD9096307
_publ_section_title
;
Structure prediction by ZEFSAII (Michael W. Deem and Ramdas Pophale) SiO2 
 PCOD9096307
Probable space group: P -1
;
_chemical_formula_sum "Si O2"
_cell_formula_units_Z 14
_cell_length_a 7.477685
_cell_length_b 9.139970
_cell_length_c 9.685495
_cell_angle_alpha 118.653495
_cell_angle_beta 98.701226
_cell_angle_gamma 105.445514
_cell_volume 528.583417
_symmetry_space_group_name_H-M "P -1"
_symmetry_group_IT_number 2
_symmetry_cell_setting 'triclinic'
loop_
_space_group_symop_operation_xyz
x,y,z
-x,-y,-z
loop_
_atom_site_type_symbol
_atom_site_label
_atom_site_fract_x
_atom_site_fract_y
_atom_site_fract_z
Si Si1 0.718653 0.229634 0.937551
Si Si2 0.875158 0.119544 0.653181
Si Si3 0.896121 0.089164 0.326287
Si Si4 0.285849 0.432453 0.789248
Si Si5 0.597569 0.503185 0.659202
Si Si6 0.987804 0.421979 0.285174
Si Si7 0.763267 0.918767 0.964243
O O1 0.633660 0.384358 0.025854
O O2 0.932388 0.337873 0.086065
O O3 0.741934 0.184003 0.763240
O O4 0.664151 0.040563 0.929075
O O5 0.821172 0.086963 0.471824
O O6 0.100816 0.269954 0.757055
O O7 0.905012 0.947675 0.645401
O O8 0.944640 0.270443 0.326517
O O9 0.749717 0.943429 0.138149
O O10 0.451256 0.391062 0.711116
O O11 0.171855 0.491555 0.679515
O O12 0.500000 0.500000 0.500000
O O13 0.785763 0.454698 0.637704
O O14 0.675015 0.712547 0.813591
O O15 0.000000 0.000000 0.000000
#
# Coordination Sequence:
#
# PCOD9096307 Si02
#       7
#     2   2   2   2   2   2   2
#     4   9  19  39  64  85 121 174 204 249 307 375
#     4  11  19  34  63  95 124 161 215 249 309 375
#     4  10  20  35  65  92 117 174 209 249 307 375
#     4  10  24  37  65  94 128 162 205 259 318 363
#     4  12  23  37  65  99 124 157 212 266 306 364
#     4   9  20  44  61  90 125 166 205 252 311 360
#     4  11  18  41  66  84 125 170 208 250 312 368
#
# _framework density 26.485887000000002
#
# number of rings (size 3 to 8) (size 9 to 14) (size 15 to 20)
#    0.857    0.857    4.286    1.286    0.000    2.857 
#    0.000    2.857    0.000    0.857    0.000    0.000 
#    0.000    0.000    0.000    0.000    0.000    0.000 
#
# Total GULP energy -78256.073793 kJ/mol
# GULP energy per Si atom -5589.719557 kJ/mol
# Density = 2.642560 g / cm^3
# Si number density = 26.485887 Si / 1000 Ang^3
#
#
#
# Elastic Constant Matrix: (Units=GPa)
#
#
# Indices 1 2 3 4 5 6 
#
# 1 78.7033 19.3633 18.3977 -15.5889 -9.6610 2.6963
# 2 19.3633 84.0679 18.6807 -10.9349 3.9402 -13.2377
# 3 18.3977 18.6807 185.8159 -29.1377 -14.2139 2.7523
# 4 -15.5889 -10.9349 -29.1377 47.6521 2.2755 1.2122
# 5 -9.6610 3.9402 -14.2139 2.2755 30.6346 -6.3119
# 6 2.6963 -13.2377 2.7523 1.2122 -6.3119 44.2970
#
#
#
# Elastic Compliance Matrix: (Units=1/GPa)
#
#
# Indices 1 2 3 4 5 6 
#
# 1 0.014921 -0.003322 -0.000180 0.003829 0.004486 -0.001356
# 2 -0.003322 0.013844 -0.001096 0.001443 -0.002621 0.003994
# 3 -0.000180 -0.001096 0.006251 0.003396 0.002646 -0.000421
# 4 0.003829 0.001443 0.003396 0.024630 0.000646 -0.000595
# 5 0.004486 -0.002621 0.002646 0.000646 0.036387 0.003946
# 6 -0.001356 0.003994 -0.000421 -0.000595 0.003946 0.024456
#
#
# Mechanical properties :
#
#
# Convention : Reuss Voigt Hill
#
# Bulk Modulus (GPa) = 38.73145 51.27451 45.00298
# Shear Modulus (GPa) = 36.15558 43.99311 40.07434
#
# Velocity S-wave (km/s) = 3.69872 4.07996 3.89401
# Velocity P-wave (km/s) = 5.73549 6.44949 6.10294
#
# Compressibility (1/GPa) = 0.02581881
#
# Stress axis : x y z
#
# Youngs Moduli (GPa) = 67.02011 72.23606 159.97880
#
# Poissons Ratio (x) = 0.24000 0.02874
# Poissons Ratio (y) = 0.22267 0.17536
# Poissons Ratio (z) = 0.01204 0.07918
#
# Static dielectric constant tensor:
#      x y z
#    x 2.119260 -0.013530 -0.030440 
#    y -0.013530 2.123880 0.076810 
#    z -0.030440 0.076810 2.120780 
# 
# From -- ./inp_files/190041.got.cif
#   From: 2010.05.17/outbox.cif.g08.bks.cpg/sg2_96_cif.got.tgz:190041.got - 2010.06.03 11:33:40.
