data_PCOD9096477
_publ_section_title
;
Structure prediction by ZEFSAII (Michael W. Deem and Ramdas Pophale) SiO2 
 PCOD9096477
Probable space group: P -1
;
_chemical_formula_sum "Si O2"
_cell_formula_units_Z 16
_cell_length_a 8.432893
_cell_length_b 16.401444
_cell_length_c 7.287921
_cell_angle_alpha 99.185499
_cell_angle_beta 125.326202
_cell_angle_gamma 54.480015
_cell_volume 645.339806
_symmetry_space_group_name_H-M "P -1"
_symmetry_group_IT_number 2
_symmetry_cell_setting 'triclinic'
loop_
_space_group_symop_operation_xyz
x,y,z
-x,-y,-z
loop_
_atom_site_type_symbol
_atom_site_label
_atom_site_fract_x
_atom_site_fract_y
_atom_site_fract_z
Si Si1 0.021533 0.469824 0.216227
Si Si2 0.193796 0.858811 0.494641
Si Si3 0.596505 0.886092 0.756509
Si Si4 0.507598 0.402166 0.033397
Si Si5 0.407524 0.939159 0.248893
Si Si6 0.444665 0.628747 0.506442
Si Si7 0.921948 0.073960 0.190141
Si Si8 0.903580 0.316877 0.995917
O O1 0.287731 0.435873 0.429614
O O2 0.000000 0.500000 0.000000
O O3 0.765562 0.563939 0.169911
O O4 0.013319 0.372041 0.178187
O O5 0.410651 0.866057 0.697788
O O6 0.316525 0.750988 0.439377
O O7 0.082711 0.864403 0.618638
O O8 0.008471 0.962362 0.292274
O O9 0.571660 0.882451 0.516293
O O10 0.510299 0.001118 0.783180
O O11 0.868719 0.794403 0.962225
O O12 0.550569 0.385528 0.275636
O O13 0.500000 0.500000 0.000000
O O14 0.731614 0.313590 0.025975
O O15 0.332482 0.877987 0.064304
O O16 0.143799 0.036344 0.190460
O O17 0.269541 0.614535 0.267482
#
# Coordination Sequence:
#
# PCOD9096477 Si02
#       8
#     2   2   2   2   2   2   2   2
#     4   9  20  41  64  87 121 151 199 251 299 367
#     4  10  20  36  56  86 121 156 202 250 292 356
#     4  10  20  36  55  85 124 154 201 249 293 354
#     4   9  22  41  63  92 119 153 203 248 301 372
#     4   9  19  36  58  82 117 166 197 246 299 346
#     4  11  22  40  65  89 124 163 196 253 309 352
#     4   9  19  36  58  82 118 162 205 240 298 355
#     4  11  22  40  63  91 126 159 199 253 303 361
#
# _framework density 24.793140000000001
#
# number of rings (size 3 to 8) (size 9 to 14) (size 15 to 20)
#    0.000    2.250    1.250    0.750    1.750    5.500 
#    2.250    3.750    0.000    0.000    0.000    0.000 
#    0.000    0.000    0.000    0.000    0.000    0.000 
#
# Total GULP energy -89360.384988 kJ/mol
# GULP energy per Si atom -5585.024062 kJ/mol
# Density = 2.473671 g / cm^3
# Si number density = 24.793140 Si / 1000 Ang^3
#
#
#
# Elastic Constant Matrix: (Units=GPa)
#
#
# Indices 1 2 3 4 5 6 
#
# 1 95.6944 11.6366 29.4052 -1.2323 2.8203 -12.1630
# 2 11.6366 35.8872 -5.7069 -8.3874 7.6224 3.7923
# 3 29.4052 -5.7069 127.3257 -4.1531 14.3760 -6.9077
# 4 -1.2323 -8.3874 -4.1531 25.3289 -4.2100 2.4103
# 5 2.8203 7.6224 14.3760 -4.2100 41.0653 2.8930
# 6 -12.1630 3.7923 -6.9077 2.4103 2.8930 29.4046
#
#
#
# Elastic Compliance Matrix: (Units=1/GPa)
#
#
# Indices 1 2 3 4 5 6 
#
# 1 0.012743 -0.005854 -0.003060 -0.002225 0.000672 0.005423
# 2 -0.005854 0.034924 0.003586 0.011536 -0.005697 -0.006468
# 3 -0.003060 0.003586 0.009216 0.001903 -0.003531 0.000628
# 4 -0.002225 0.011536 0.001903 0.044444 0.002312 -0.005831
# 5 0.000672 -0.005697 -0.003531 0.002312 0.027024 -0.002665
# 6 0.005423 -0.006468 0.000628 -0.005831 -0.002665 0.037974
#
#
# Mechanical properties :
#
#
# Convention : Reuss Voigt Hill
#
# Bulk Modulus (GPa) = 21.63258 36.61969 29.12614
# Shear Modulus (GPa) = 25.98912 34.06459 30.02685
#
# Velocity S-wave (km/s) = 3.24116 3.71071 3.48385
# Velocity P-wave (km/s) = 4.76980 5.75858 5.28736
#
# Compressibility (1/GPa) = 0.04622657
#
# Stress axis : x y z
#
# Youngs Moduli (GPa) = 78.47537 28.63399 108.50666
#
# Poissons Ratio (x) = 0.16763 0.33198
# Poissons Ratio (y) = 0.45942 -0.38910
# Poissons Ratio (z) = 0.24010 -0.10268
#
# Static dielectric constant tensor:
#      x y z
#    x 1.988990 0.006940 0.010860 
#    y 0.006940 2.011460 0.007100 
#    z 0.010860 0.007100 1.997130 
# 
# From -- ./inp_files/217726.got.cif
#   From: 2010.05.17/outbox.cif.g08.bks.cpg/sg2_109_cif.got.tgz:217726.got - 2010.06.03 11:33:40.
