data_PCOD9096291
_publ_section_title
;
Structure prediction by ZEFSAII (Michael W. Deem and Ramdas Pophale) SiO2 
 PCOD9096291
Probable space group: P -1
;
_chemical_formula_sum "Si O2"
_cell_formula_units_Z 14
_cell_length_a 12.752243
_cell_length_b 9.228491
_cell_length_c 8.798973
_cell_angle_alpha 107.838057
_cell_angle_beta 35.228943
_cell_angle_gamma 101.558949
_cell_volume 566.258471
_symmetry_space_group_name_H-M "P -1"
_symmetry_group_IT_number 2
_symmetry_cell_setting 'triclinic'
loop_
_space_group_symop_operation_xyz
x,y,z
-x,-y,-z
loop_
_atom_site_type_symbol
_atom_site_label
_atom_site_fract_x
_atom_site_fract_y
_atom_site_fract_z
Si Si1 0.697181 0.921063 0.278466
Si Si2 0.532316 0.540199 0.153733
Si Si3 0.105993 0.320743 0.214737
Si Si4 0.761225 0.206147 0.478716
Si Si5 0.287380 0.901003 0.151321
Si Si6 0.637215 0.728385 0.563285
Si Si7 0.944348 0.774151 0.427390
O O1 0.672223 0.773837 0.365285
O O2 0.500000 0.000000 0.500000
O O3 0.797055 0.046739 0.295769
O O4 0.802279 0.851711 0.985587
O O5 0.740867 0.564125 0.949207
O O6 0.461368 0.416297 0.310649
O O7 0.500000 0.500000 0.000000
O O8 0.411434 0.700468 0.362200
O O9 0.061091 0.326491 0.447735
O O10 0.924412 0.317033 0.328561
O O11 0.721632 0.167391 0.689348
O O12 0.813963 0.930219 0.664746
O O13 0.151202 0.813557 0.176670
O O14 0.493709 0.869847 0.838495
O O15 0.836611 0.708498 0.396694
#
# Coordination Sequence:
#
# PCOD9096291 Si02
#       7
#     2   2   2   2   2   2   2
#     4  12  25  45  70  96 129 174 218 271 327 379
#     4  12  24  42  66  99 133 174 213 263 326 387
#     4  11  24  43  67  94 135 172 215 266 324 387
#     4  11  23  43  69  96 129 170 219 270 323 379
#     4  10  20  35  64  99 125 162 215 275 322 367
#     4  12  24  40  66  94 135 165 215 265 324 382
#     4  10  20  37  64  97 125 162 221 271 318 372
#
# _framework density 24.723692
#
# number of rings (size 3 to 8) (size 9 to 14) (size 15 to 20)
#    0.000    0.857    5.714    1.714    0.000    2.286 
#    2.571    0.714    0.000    0.000    0.000    0.000 
#    0.000    0.000    0.000    0.000    0.000    0.000 
#
# Total GULP energy -78337.587543 kJ/mol
# GULP energy per Si atom -5595.541967 kJ/mol
# Density = 2.466742 g / cm^3
# Si number density = 24.723692 Si / 1000 Ang^3
#
#
#
# Elastic Constant Matrix: (Units=GPa)
#
#
# Indices 1 2 3 4 5 6 
#
# 1 132.8365 33.3575 42.4273 -24.9895 -20.3039 11.2041
# 2 33.3575 97.8994 13.6669 -20.7268 1.7092 -5.4719
# 3 42.4273 13.6669 58.7143 3.0200 -16.0376 5.4955
# 4 -24.9895 -20.7268 3.0200 45.3202 4.5614 -7.0226
# 5 -20.3039 1.7092 -16.0376 4.5614 39.1337 -5.7611
# 6 11.2041 -5.4719 5.4955 -7.0226 -5.7611 42.2062
#
#
#
# Elastic Compliance Matrix: (Units=1/GPa)
#
#
# Indices 1 2 3 4 5 6 
#
# 1 0.012062 -0.001860 -0.007865 0.005922 0.002260 -0.001125
# 2 -0.001860 0.012715 -0.003013 0.005768 -0.002973 0.003088
# 3 -0.007865 -0.003013 0.026079 -0.008526 0.007423 -0.002104
# 4 0.005922 0.005768 -0.008526 0.029617 -0.003427 0.004746
# 5 0.002260 -0.002973 0.007423 -0.003427 0.030540 0.001647
# 6 -0.001125 0.003088 -0.002104 0.004746 0.001647 0.025681
#
#
# Mechanical properties :
#
#
# Convention : Reuss Voigt Hill
#
# Bulk Modulus (GPa) = 39.40259 52.03928 45.72093
# Shear Modulus (GPa) = 29.30339 38.66526 33.98432
#
# Velocity S-wave (km/s) = 3.44646 3.95890 3.71153
# Velocity P-wave (km/s) = 5.63997 6.48006 6.07456
#
# Compressibility (1/GPa) = 0.02537904
#
# Stress axis : x y z
#
# Youngs Moduli (GPa) = 82.90732 78.64890 38.34504
#
# Poissons Ratio (x) = 0.14632 0.30157
# Poissons Ratio (y) = 0.15424 0.11554
# Poissons Ratio (z) = 0.65204 0.23697
#
# Static dielectric constant tensor:
#      x y z
#    x 1.923530 0.064330 -0.009780 
#    y 0.064330 2.026230 0.037810 
#    z -0.009780 0.037810 1.931560 
# 
# From -- ./inp_files/253892.got.cif
#   From: 2010.05.17/outbox.cif.g08.bks.cpg/sg2_127_cif.got.tgz:253892.got - 2010.06.03 11:33:40.
