data_PCOD9096734
_publ_section_title
;
Structure prediction by ZEFSAII (Michael W. Deem and Ramdas Pophale) SiO2 
 PCOD9096734
Probable space group: P -1
;
_chemical_formula_sum "Si O2"
_cell_formula_units_Z 14
_cell_length_a 11.965321
_cell_length_b 14.832362
_cell_length_c 7.722383
_cell_angle_alpha 61.370344
_cell_angle_beta 116.312478
_cell_angle_gamma 148.353336
_cell_volume 629.301648
_symmetry_space_group_name_H-M "P -1"
_symmetry_group_IT_number 2
_symmetry_cell_setting 'triclinic'
loop_
_space_group_symop_operation_xyz
x,y,z
-x,-y,-z
loop_
_atom_site_type_symbol
_atom_site_label
_atom_site_fract_x
_atom_site_fract_y
_atom_site_fract_z
Si Si1 0.187189 0.806441 0.443799
Si Si2 0.884410 0.676526 0.854336
Si Si3 0.623826 0.664509 0.552986
Si Si4 0.458125 0.808368 0.732294
Si Si5 0.269062 0.478680 0.738897
Si Si6 0.428048 0.701512 0.174819
Si Si7 0.282259 0.814072 0.101494
O O1 0.283411 0.782365 0.652947
O O2 0.246725 0.808996 0.286155
O O3 0.933568 0.651685 0.410364
O O4 0.333017 0.004713 0.388280
O O5 0.849538 0.763324 0.661595
O O6 0.728005 0.491368 0.823707
O O7 0.810519 0.634437 0.042468
O O8 0.106225 0.765780 0.930512
O O9 0.500000 0.500000 0.500000
O O10 0.476170 0.570714 0.707870
O O11 0.601353 0.760457 0.359454
O O12 0.340217 0.638795 0.705793
O O13 0.524463 0.814460 0.962237
O O14 0.291658 0.698609 0.178381
O O15 0.500000 0.000000 0.000000
#
# Coordination Sequence:
#
# PCOD9096734 Si02
#       7
#     2   2   2   2   2   2   2
#     4  10  21  36  57  90 123 154 202 242 300 354
#     4   9  21  37  61  87 115 159 197 240 299 356
#     4  10  21  39  62  89 116 153 203 245 300 355
#     4  10  20  36  57  89 122 159 196 246 296 360
#     4  10  20  37  64  81 118 160 202 242 299 356
#     4  10  20  36  60  88 120 154 198 245 292 356
#     4  11  20  36  59  87 122 150 193 247 296 343
#
# _framework density 22.246880999999998
#
# number of rings (size 3 to 8) (size 9 to 14) (size 15 to 20)
#    0.000    2.000    1.429    2.143    0.000    4.571 
#    0.000    0.714    6.286    6.000    0.000    0.000 
#    0.000    0.000    0.000    0.000    0.000    0.000 
#
# Total GULP energy -78201.808191 kJ/mol
# GULP energy per Si atom -5585.843442 kJ/mol
# Density = 2.219625 g / cm^3
# Si number density = 22.246881 Si / 1000 Ang^3
#
#
#
# Elastic Constant Matrix: (Units=GPa)
#
#
# Indices 1 2 3 4 5 6 
#
# 1 63.8407 9.5184 53.8955 3.0275 31.6828 17.9937
# 2 9.5184 46.7618 21.0351 6.6578 23.0180 -1.3592
# 3 53.8955 21.0351 119.1336 11.2549 47.9043 12.0872
# 4 3.0275 6.6578 11.2549 13.8897 11.1868 -5.9288
# 5 31.6828 23.0180 47.9043 11.1868 44.0631 9.5525
# 6 17.9937 -1.3592 12.0872 -5.9288 9.5525 -4.8778
#
#
#
# Elastic Compliance Matrix: (Units=1/GPa)
#
#
# Indices 1 2 3 4 5 6 
#
# 1 0.028473 0.006608 -0.007893 0.021075 -0.023357 0.012279
# 2 0.006608 0.028654 -0.000068 -0.005723 -0.016299 -0.008738
# 3 -0.007893 -0.000068 0.017215 -0.004444 -0.011224 -0.003015
# 4 0.021075 -0.005723 -0.004444 0.067454 -0.015089 -0.043213
# 5 -0.023357 -0.016299 -0.011224 -0.015089 0.058814 0.024088
# 6 0.012279 -0.008738 -0.003015 -0.043213 0.024088 -0.065054
#
#
# Mechanical properties :
#
#
# Convention : Reuss Voigt Hill
#
# Bulk Modulus (GPa) = 13.95906 44.29268 29.12587
# Shear Modulus (GPa) = 30.83739 20.30080 25.56909
#
# Velocity S-wave (km/s) = 3.72713 3.02408 3.39386
# Velocity P-wave (km/s) = 4.98099 5.66976 5.33650
#
# Compressibility (1/GPa) = 0.07163804
#
# Stress axis : x y z
#
# Youngs Moduli (GPa) = 35.12068 34.89887 58.08736
#
# Poissons Ratio (x) = -0.23062 0.45848
# Poissons Ratio (y) = -0.23208 0.00393
# Poissons Ratio (z) = 0.27720 0.00236
#
# Static dielectric constant tensor:
#      x y z
#    x 1.916260 -0.037050 -0.024740 
#    y -0.037050 1.814500 0.016860 
#    z -0.024740 0.016860 1.925180 
# 
# From -- ./inp_files/155391.got.cif
#   From: 2010.05.17/outbox.cif.g08.bks.cpg/sg2_78_cif.got.tgz:155391.got - 2010.06.03 11:33:40.
