data_PCOD9096478
_publ_section_title
;
Structure prediction by ZEFSAII (Michael W. Deem and Ramdas Pophale) SiO2 
 PCOD9096478
Probable space group: P -1
;
_chemical_formula_sum "Si O2"
_cell_formula_units_Z 14
_cell_length_a 11.288236
_cell_length_b 13.780875
_cell_length_c 10.873388
_cell_angle_alpha 98.842274
_cell_angle_beta 25.657824
_cell_angle_gamma 86.716882
_cell_volume 643.446047
_symmetry_space_group_name_H-M "P -1"
_symmetry_group_IT_number 2
_symmetry_cell_setting 'triclinic'
loop_
_space_group_symop_operation_xyz
x,y,z
-x,-y,-z
loop_
_atom_site_type_symbol
_atom_site_label
_atom_site_fract_x
_atom_site_fract_y
_atom_site_fract_z
Si Si1 0.423028 0.617453 0.539604
Si Si2 0.579967 0.826905 0.750118
Si Si3 0.251926 0.922849 0.652730
Si Si4 0.133112 0.733317 0.595507
Si Si5 0.864363 0.977029 0.465488
Si Si6 0.504304 0.775472 0.068139
Si Si7 0.790565 0.743125 0.266276
O O1 0.500000 0.500000 0.500000
O O2 0.288313 0.637095 0.531522
O O3 0.706561 0.646034 0.284841
O O4 0.143032 0.708553 0.900243
O O5 0.767164 0.895946 0.612675
O O6 0.709146 0.765913 0.489520
O O7 0.602104 0.750983 0.830578
O O8 0.224225 0.915979 0.088102
O O9 0.142009 0.839497 0.673093
O O10 0.565781 0.846810 0.414548
O O11 0.292041 0.992838 0.517488
O O12 0.000000 0.000000 0.000000
O O13 0.334930 0.713585 0.279973
O O14 0.794640 0.757167 0.877058
O O15 0.733946 0.093551 0.678925
#
# Coordination Sequence:
#
# PCOD9096478 Si02
#       7
#     2   2   2   2   2   2   2
#     4  11  23  44  68  88 113 143 193 259 306 357
#     4  12  23  36  55  83 123 161 196 243 271 338
#     4  10  20  36  55  85 127 157 190 242 285 343
#     4  10  22  39  59  87 109 156 202 234 292 351
#     4  11  21  34  53  82 117 170 208 224 273 331
#     4  11  22  38  56  80 123 161 205 229 271 340
#     4  11  24  38  60  94 118 152 196 236 313 348
#
# _framework density 21.757845
#
# number of rings (size 3 to 8) (size 9 to 14) (size 15 to 20)
#    0.000    1.143    1.429    7.286    2.000    1.714 
#    0.000    0.000    0.000    5.143    0.000    0.000 
#    0.000    0.000    0.000    0.000    0.000    0.000 
#
# Total GULP energy -78380.890130 kJ/mol
# GULP energy per Si atom -5598.635009 kJ/mol
# Density = 2.170832 g / cm^3
# Si number density = 21.757845 Si / 1000 Ang^3
#
#
#
# Elastic Constant Matrix: (Units=GPa)
#
#
# Indices 1 2 3 4 5 6 
#
# 1 84.9046 16.3546 6.2985 3.6796 14.9768 -28.8012
# 2 16.3546 58.0682 7.9224 -5.1273 -3.1959 -27.8401
# 3 6.2985 7.9224 78.7578 -15.6880 2.2092 -8.6515
# 4 3.6796 -5.1273 -15.6880 25.3229 -5.4546 0.6277
# 5 14.9768 -3.1959 2.2092 -5.4546 39.9221 -17.5247
# 6 -28.8012 -27.8401 -8.6515 0.6277 -17.5247 31.0717
#
#
#
# Elastic Compliance Matrix: (Units=1/GPa)
#
#
# Indices 1 2 3 4 5 6 
#
# 1 0.018826 0.009236 0.000694 0.000275 0.006713 0.029700
# 2 0.009236 0.059776 0.005881 0.021323 0.042140 0.087094
# 3 0.000694 0.005881 0.015806 0.012080 0.007186 0.014123
# 4 0.000275 0.021323 0.012080 0.055536 0.023931 0.035098
# 5 0.006713 0.042140 0.007186 0.023931 0.064789 0.082039
# 6 0.029700 0.087094 0.014123 0.035098 0.082039 0.187244
#
#
# Mechanical properties :
#
#
# Convention : Reuss Voigt Hill
#
# Bulk Modulus (GPa) = 7.93459 31.43130 19.68294
# Shear Modulus (GPa) = 12.12522 32.00700 22.06611
#
# Velocity S-wave (km/s) = 2.36324 3.83960 3.18806
# Velocity P-wave (km/s) = 3.33185 5.84243 4.75580
#
# Compressibility (1/GPa) = 0.12603052
#
# Stress axis : x y z
#
# Youngs Moduli (GPa) = 53.11793 16.72919 63.26691
#
# Poissons Ratio (x) = -0.15451 -0.04392
# Poissons Ratio (y) = -0.49060 -0.37207
# Poissons Ratio (z) = -0.03688 -0.09838
#
# Static dielectric constant tensor:
#      x y z
#    x 1.847700 -0.016010 0.003690 
#    y -0.016010 1.788110 -0.013220 
#    z 0.003690 -0.013220 1.777710 
# 
# From -- ./inp_files/366700.got.cif
#   From: 2010.05.17/outbox.cif.g08.bks.cpg/sg2_184_cif.got.tgz:366700.got - 2010.06.03 11:33:40.
