data_PCOD9096007
_publ_section_title
;
Structure prediction by ZEFSAII (Michael W. Deem and Ramdas Pophale) SiO2 
 PCOD9096007
Probable space group: P -1
;
_chemical_formula_sum "Si O2"
_cell_formula_units_Z 16
_cell_length_a 8.925112
_cell_length_b 24.123139
_cell_length_c 13.791261
_cell_angle_alpha 163.738757
_cell_angle_beta 128.345991
_cell_angle_gamma 50.938663
_cell_volume 643.962616
_symmetry_space_group_name_H-M "P -1"
_symmetry_group_IT_number 2
_symmetry_cell_setting 'triclinic'
loop_
_space_group_symop_operation_xyz
x,y,z
-x,-y,-z
loop_
_atom_site_type_symbol
_atom_site_label
_atom_site_fract_x
_atom_site_fract_y
_atom_site_fract_z
Si Si1 0.287173 0.452861 0.807267
Si Si2 0.628031 0.834777 0.997517
Si Si3 0.101780 0.253863 0.884514
Si Si4 0.499077 0.807284 0.107559
Si Si5 0.517403 0.411879 0.645815
Si Si6 0.691648 0.051284 0.212407
Si Si7 0.889591 0.059107 0.796368
Si Si8 0.185074 0.325977 0.756423
O O1 0.336335 0.409756 0.641405
O O2 0.222572 0.312718 0.632136
O O3 0.500000 0.500000 0.000000
O O4 0.102562 0.624991 0.018769
O O5 0.540122 0.682698 0.636334
O O6 0.838259 0.756435 0.996642
O O7 0.499715 0.874408 0.107899
O O8 0.644262 0.032405 0.274409
O O9 0.290560 0.331877 0.042797
O O10 0.109321 0.038054 0.473827
O O11 0.500000 0.000000 0.500000
O O12 0.285499 0.757236 0.956415
O O13 0.693060 0.264669 0.522903
O O14 0.611048 0.613421 0.019627
O O15 0.894220 0.910464 0.041985
O O16 0.500000 0.000000 0.000000
O O17 0.853728 0.877527 0.549283
O O18 0.000000 0.500000 0.000000
#
# Coordination Sequence:
#
# PCOD9096007 Si02
#       8
#     2   2   2   2   2   2   2   2
#     4  10  20  35  61  92 121 159 206 249 297 369
#     4   9  21  40  61  85 127 162 193 252 315 352
#     4   9  19  38  60  89 120 153 207 248 298 363
#     4   8  19  38  62  88 121 155 206 254 295 367
#     4  10  21  39  58  90 128 159 203 247 304 369
#     4  10  21  38  60  90 124 158 199 254 303 361
#     4  11  19  38  64  89 120 155 211 252 299 367
#     4  11  20  36  63  90 118 163 203 257 304 345
#
# _framework density 24.846163000000001
#
# number of rings (size 3 to 8) (size 9 to 14) (size 15 to 20)
#    0.750    1.500    2.500    0.750    1.750    1.000 
#    0.000    8.125    0.000    0.000    0.000    0.000 
#    0.000    0.000    0.000    0.000    0.000    0.000 
#
# Total GULP energy -89096.249588 kJ/mol
# GULP energy per Si atom -5568.515599 kJ/mol
# Density = 2.478961 g / cm^3
# Si number density = 24.846163 Si / 1000 Ang^3
#
#
#
# Elastic Constant Matrix: (Units=GPa)
#
#
# Indices 1 2 3 4 5 6 
#
# 1 134.9911 43.6726 45.6729 -23.6314 -17.1159 -21.0269
# 2 43.6726 123.6559 36.1217 -25.3369 -14.5899 -23.4323
# 3 45.6729 36.1217 62.2051 -15.6124 7.8471 2.5805
# 4 -23.6314 -25.3369 -15.6124 30.9441 -2.9758 -10.1305
# 5 -17.1159 -14.5899 7.8471 -2.9758 30.7740 -3.6997
# 6 -21.0269 -23.4323 2.5805 -10.1305 -3.6997 78.5525
#
#
#
# Elastic Compliance Matrix: (Units=1/GPa)
#
#
# Indices 1 2 3 4 5 6 
#
# 1 0.016884 0.005082 -0.014342 0.014571 0.017976 0.009232
# 2 0.005082 0.016996 -0.011956 0.016563 0.016706 0.009746
# 3 -0.014342 -0.011956 0.034832 -0.009110 -0.024717 -0.010889
# 4 0.014571 0.016563 -0.009110 0.060915 0.026362 0.018238
# 5 0.017976 0.016706 -0.024717 0.026362 0.061296 0.016894
# 6 0.009232 0.009746 -0.010889 0.018238 0.016894 0.021614
#
#
# Mechanical properties :
#
#
# Convention : Reuss Voigt Hill
#
# Bulk Modulus (GPa) = 38.04941 63.53183 50.79062
# Shear Modulus (GPa) = 18.95892 41.07979 30.01935
#
# Velocity S-wave (km/s) = 2.76534 4.07057 3.47970
# Velocity P-wave (km/s) = 5.05404 6.90784 6.05234
#
# Compressibility (1/GPa) = 0.02628161
#
# Stress axis : x y z
#
# Youngs Moduli (GPa) = 59.22735 58.83701 28.70929
#
# Poissons Ratio (x) = -0.29903 0.41174
# Poissons Ratio (y) = -0.30101 0.34324
# Poissons Ratio (z) = 0.84942 0.70345
#
# Static dielectric constant tensor:
#      x y z
#    x 2.017890 0.024410 0.021570 
#    y 0.024410 2.098430 0.050190 
#    z 0.021570 0.050190 2.149870 
# 
# From -- ./inp_files/508942.got.cif
#   From: 2010.05.17/outbox.cif.g08.bks.cpg/sg2_255_cif.got.tgz:508942.got - 2010.06.03 11:33:40.
