data_PCOD9096767
_publ_section_title
;
Structure prediction by ZEFSAII (Michael W. Deem and Ramdas Pophale) SiO2 
 PCOD9096767
Probable space group: P -1
;
_chemical_formula_sum "Si O2"
_cell_formula_units_Z 14
_cell_length_a 9.217900
_cell_length_b 9.057835
_cell_length_c 16.695764
_cell_angle_alpha 46.957326
_cell_angle_beta 46.507755
_cell_angle_gamma 32.122911
_cell_volume 519.494152
_symmetry_space_group_name_H-M "P -1"
_symmetry_group_IT_number 2
_symmetry_cell_setting 'triclinic'
loop_
_space_group_symop_operation_xyz
x,y,z
-x,-y,-z
loop_
_atom_site_type_symbol
_atom_site_label
_atom_site_fract_x
_atom_site_fract_y
_atom_site_fract_z
Si Si1 0.585842 0.639776 0.170214
Si Si2 0.905817 0.270705 0.511262
Si Si3 0.257383 0.620740 0.631983
Si Si4 0.362481 0.962856 0.737099
Si Si5 0.847502 0.327434 0.025499
Si Si6 0.519227 0.079425 0.120519
Si Si7 0.165984 0.556293 0.352243
O O1 0.791771 0.436361 0.241577
O O2 0.770922 0.501061 0.071627
O O3 0.348656 0.636454 0.251482
O O4 0.446091 0.948435 0.137276
O O5 0.598938 0.377485 0.584989
O O6 0.905295 0.358024 0.389383
O O7 0.888450 0.421961 0.539698
O O8 0.148158 0.930990 0.558713
O O9 0.283191 0.799213 0.863698
O O10 0.435744 0.030511 0.765034
O O11 0.625931 0.753705 0.653809
O O12 0.101796 0.216333 0.687226
O O13 0.696668 0.578181 0.924633
O O14 0.176087 0.067369 0.975526
#
# Coordination Sequence:
#
# PCOD9096767 Si02
#       7
#     2   2   2   2   2   2   2
#     4  10  22  37  56  82 109 138 176 224 271 310
#     4   9  16  31  53  81 106 135 171 212 258 312
#     4   9  18  30  52  81 109 132 168 218 264 308
#     4  11  22  38  56  77 106 144 182 218 260 316
#     4  11  22  37  55  77 104 143 184 221 260 314
#     4  12  24  37  55  78 109 141 180 224 268 310
#     4  10  20  36  58  80 107 139 177 217 262 317
#
# _framework density 26.949293000000001
#
# number of rings (size 3 to 8) (size 9 to 14) (size 15 to 20)
#    0.000    1.714    0.000    6.857    0.000    5.714 
#    0.000    0.000    0.000    1.714    0.000    0.000 
#    0.000    0.000    0.000    0.000    0.000    0.000 
#
# Total GULP energy -78509.307506 kJ/mol
# GULP energy per Si atom -5607.807679 kJ/mol
# Density = 2.688796 g / cm^3
# Si number density = 26.949293 Si / 1000 Ang^3
#
#
#
# Elastic Constant Matrix: (Units=GPa)
#
#
# Indices 1 2 3 4 5 6 
#
# 1 138.0235 23.6232 34.7121 9.2743 27.5805 21.8124
# 2 23.6232 104.7312 19.2367 7.3239 -5.3072 -11.1753
# 3 34.7121 19.2367 90.4535 -7.3110 30.5999 -6.5889
# 4 9.2743 7.3239 -7.3110 52.8600 4.4992 3.8694
# 5 27.5805 -5.3072 30.5999 4.4992 48.3028 2.2579
# 6 21.8124 -11.1753 -6.5889 3.8694 2.2579 41.7901
#
#
#
# Elastic Compliance Matrix: (Units=1/GPa)
#
#
# Indices 1 2 3 4 5 6 
#
# 1 0.010174 -0.002638 -0.002453 -0.000958 -0.004171 -0.006088
# 2 -0.002638 0.011482 -0.002881 -0.002208 0.004614 0.003948
# 3 -0.002453 -0.002881 0.016484 0.003707 -0.009858 0.003298
# 4 -0.000958 -0.002208 0.003707 0.020321 -0.003882 -0.001178
# 5 -0.004171 0.004614 -0.009858 -0.003882 0.030171 0.000586
# 6 -0.006088 0.003948 0.003298 -0.001178 0.000586 0.028760
#
#
# Mechanical properties :
#
#
# Convention : Reuss Voigt Hill
#
# Bulk Modulus (GPa) = 45.05516 54.26135 49.65825
# Shear Modulus (GPa) = 35.52749 45.63301 40.58025
#
# Velocity S-wave (km/s) = 3.63479 4.11943 3.88467
# Velocity P-wave (km/s) = 5.86263 6.54252 6.21188
#
# Compressibility (1/GPa) = 0.02219502
#
# Stress axis : x y z
#
# Youngs Moduli (GPa) = 98.29344 87.09173 60.66323
#
# Poissons Ratio (x) = 0.22977 0.14881
# Poissons Ratio (y) = 0.25932 0.17479
# Poissons Ratio (z) = 0.24111 0.25095
#
# Static dielectric constant tensor:
#      x y z
#    x 2.147000 0.029070 -0.042750 
#    y 0.029070 2.033360 0.036530 
#    z -0.042750 0.036530 2.154000 
# 
# From -- ./inp_files/36428.got.cif
#   From: 2010.05.17/outbox.cif.g08.bks.cpg/sg2_19_cif.got.tgz:36428.got - 2010.06.03 11:33:40.
