data_PCOD9096617
_publ_section_title
;
Structure prediction by ZEFSAII (Michael W. Deem and Ramdas Pophale) SiO2 
 PCOD9096617
Probable space group: P -1
;
_chemical_formula_sum "Si O2"
_cell_formula_units_Z 16
_cell_length_a 11.520628
_cell_length_b 10.538104
_cell_length_c 7.165353
_cell_angle_alpha 125.081232
_cell_angle_beta 69.818504
_cell_angle_gamma 91.389216
_cell_volume 650.799037
_symmetry_space_group_name_H-M "P -1"
_symmetry_group_IT_number 2
_symmetry_cell_setting 'triclinic'
loop_
_space_group_symop_operation_xyz
x,y,z
-x,-y,-z
loop_
_atom_site_type_symbol
_atom_site_label
_atom_site_fract_x
_atom_site_fract_y
_atom_site_fract_z
Si Si1 0.890306 0.122536 0.547332
Si Si2 0.748092 0.915227 0.616189
Si Si3 0.888199 0.852545 0.811496
Si Si4 0.115860 0.488916 0.568839
Si Si5 0.369388 0.554389 0.364397
Si Si6 0.905361 0.696884 0.053608
Si Si7 0.732835 0.463079 0.981258
Si Si8 0.568253 0.685627 0.560154
O O1 0.835432 0.298751 0.804027
O O2 0.971122 0.144910 0.337319
O O3 0.763581 0.051592 0.574372
O O4 0.000000 0.000000 0.500000
O O5 0.789298 0.977914 0.846652
O O6 0.622985 0.843793 0.639074
O O7 0.858613 0.776344 0.341429
O O8 0.835929 0.700306 0.632882
O O9 0.895669 0.830048 0.009277
O O10 0.222363 0.577370 0.522771
O O11 0.000000 0.500000 0.500000
O O12 0.041693 0.576368 0.861583
O O13 0.364331 0.556588 0.145519
O O14 0.437370 0.683179 0.526762
O O15 0.432478 0.385421 0.290271
O O16 0.803183 0.594965 0.975738
O O17 0.665401 0.543105 0.272995
#
# Coordination Sequence:
#
# PCOD9096617 Si02
#       8
#     2   2   2   2   2   2   2   2
#     4  10  22  36  56  83 122 157 184 228 293 345
#     4  10  21  36  51  83 116 146 184 231 279 338
#     4  10  17  34  52  79 115 143 175 233 286 329
#     4  10  16  30  55  85 106 138 177 237 286 322
#     4  11  20  37  60  89 115 144 193 247 284 331
#     4  10  19  31  59  85 105 141 192 231 290 330
#     4  11  19  38  60  83 116 151 192 236 285 341
#     4  10  23  36  61  90 110 149 197 239 281 334
#
# _framework density 24.585162
#
# number of rings (size 3 to 8) (size 9 to 14) (size 15 to 20)
#    0.000    1.750    5.000    1.125    0.000    3.000 
#    0.000    3.125    0.000    3.000    3.250    0.000 
#    0.000    0.000    0.000    0.000    0.000    0.000 
#
# Total GULP energy -89117.377310 kJ/mol
# GULP energy per Si atom -5569.836082 kJ/mol
# Density = 2.452920 g / cm^3
# Si number density = 24.585162 Si / 1000 Ang^3
#
#
#
# Elastic Constant Matrix: (Units=GPa)
#
#
# Indices 1 2 3 4 5 6 
#
# 1 107.5255 32.2114 -1.7055 10.5745 14.7724 30.9411
# 2 32.2114 107.6836 14.0530 -6.8088 12.2734 25.7560
# 3 -1.7055 14.0530 42.5371 -7.3790 4.4891 -13.3479
# 4 10.5745 -6.8088 -7.3790 24.5392 3.2722 8.3350
# 5 14.7724 12.2734 4.4891 3.2722 28.3494 -3.6544
# 6 30.9411 25.7560 -13.3479 8.3350 -3.6544 50.0319
#
#
#
# Elastic Compliance Matrix: (Units=1/GPa)
#
#
# Indices 1 2 3 4 5 6 
#
# 1 0.013123 -0.001304 -0.001273 -0.002850 -0.006749 -0.007802
# 2 -0.001304 0.013838 -0.005743 0.006734 -0.006396 -0.009438
# 3 -0.001273 -0.005743 0.029569 0.004233 -0.000618 0.010882
# 4 -0.002850 0.006734 0.004233 0.049549 -0.009043 -0.009490
# 5 -0.006749 -0.006396 -0.000618 -0.009043 0.044254 0.012040
# 6 -0.007802 -0.009438 0.010882 -0.009490 0.012040 0.035035
#
#
# Mechanical properties :
#
#
# Convention : Reuss Voigt Hill
#
# Bulk Modulus (GPa) = 25.06870 38.54043 31.80457
# Shear Modulus (GPa) = 23.22277 34.79660 29.00968
#
# Velocity S-wave (km/s) = 3.07674 3.76619 3.43879
# Velocity P-wave (km/s) = 4.77919 5.88410 5.36019
#
# Compressibility (1/GPa) = 0.03989038
#
# Stress axis : x y z
#
# Youngs Moduli (GPa) = 76.20079 72.26351 33.81869
#
# Poissons Ratio (x) = 0.09425 0.04307
# Poissons Ratio (y) = 0.09938 0.19421
# Poissons Ratio (z) = 0.09704 0.41498
#
# Static dielectric constant tensor:
#      x y z
#    x 2.077590 -0.079630 0.010850 
#    y -0.079630 2.173080 0.073560 
#    z 0.010850 0.073560 2.058990 
# 
# From -- ./inp_files/255250.got.cif
#   From: 2010.05.17/outbox.cif.g08.bks.cpg/sg2_128_cif.got.tgz:255250.got - 2010.06.03 11:33:40.
