data_PCOD9096443
_publ_section_title
;
Structure prediction by ZEFSAII (Michael W. Deem and Ramdas Pophale) SiO2 
 PCOD9096443
Probable space group: P -1
;
_chemical_formula_sum "Si O2"
_cell_formula_units_Z 14
_cell_length_a 7.500186
_cell_length_b 9.796597
_cell_length_c 11.700667
_cell_angle_alpha 97.621531
_cell_angle_beta 86.450276
_cell_angle_gamma 43.996276
_cell_volume 576.235957
_symmetry_space_group_name_H-M "P -1"
_symmetry_group_IT_number 2
_symmetry_cell_setting 'triclinic'
loop_
_space_group_symop_operation_xyz
x,y,z
-x,-y,-z
loop_
_atom_site_type_symbol
_atom_site_label
_atom_site_fract_x
_atom_site_fract_y
_atom_site_fract_z
Si Si1 0.252205 0.763593 0.489349
Si Si2 0.627757 0.379369 0.294108
Si Si3 0.661916 0.778906 0.520144
Si Si4 0.044086 0.352258 0.716806
Si Si5 0.331293 0.282495 0.065871
Si Si6 0.756776 0.529393 0.127876
Si Si7 0.387306 0.932118 0.765939
O O1 0.345262 0.604961 0.369650
O O2 0.215207 0.696725 0.599602
O O3 0.491516 0.737268 0.498116
O O4 0.000000 0.000000 0.500000
O O5 0.700612 0.422857 0.184530
O O6 0.677387 0.191580 0.248469
O O7 0.925896 0.638793 0.418689
O O8 0.641723 0.811937 0.660418
O O9 0.500000 0.000000 0.500000
O O10 0.250478 0.346909 0.762440
O O11 0.781130 0.544450 0.815337
O O12 0.154239 0.147646 0.739173
O O13 0.535855 0.078146 0.108367
O O14 0.062079 0.354056 0.054750
O O15 0.413163 0.322046 0.956076
#
# Coordination Sequence:
#
# PCOD9096443 Si02
#       7
#     2   2   2   2   2   2   2
#     4  10  20  36  55  79 113 146 174 215 272 327
#     4  10  21  36  53  83 112 139 178 226 267 319
#     4   9  18  33  54  81 108 136 174 220 264 319
#     4   9  18  37  56  76 112 139 180 226 261 318
#     4   9  20  37  58  77 105 145 190 220 262 319
#     4   9  19  40  57  75 110 143 185 227 259 316
#     4  10  21  33  55  82 110 142 177 222 278 315
#
# _framework density 24.295605999999999
#
# number of rings (size 3 to 8) (size 9 to 14) (size 15 to 20)
#    0.857    1.714    1.429    0.000    0.000    7.429 
#    0.000    0.714    0.000    0.000    0.000    0.000 
#    0.000    0.000    0.000    0.000    0.000    0.000 
#
# Total GULP energy -78064.873705 kJ/mol
# GULP energy per Si atom -5576.062408 kJ/mol
# Density = 2.424031 g / cm^3
# Si number density = 24.295606 Si / 1000 Ang^3
#
#
#
# Elastic Constant Matrix: (Units=GPa)
#
#
# Indices 1 2 3 4 5 6 
#
# 1 63.2697 10.0041 15.5993 -10.2279 -15.1949 20.7067
# 2 10.0041 118.3439 24.3540 -18.7188 -17.2992 4.8491
# 3 15.5993 24.3540 127.3617 -41.8137 -24.2785 9.1269
# 4 -10.2279 -18.7188 -41.8137 51.7820 14.2164 -5.9331
# 5 -15.1949 -17.2992 -24.2785 14.2164 35.2533 -11.4051
# 6 20.7067 4.8491 9.1269 -5.9331 -11.4051 28.8033
#
#
#
# Elastic Compliance Matrix: (Units=1/GPa)
#
#
# Indices 1 2 3 4 5 6 
#
# 1 0.021519 -0.000420 -0.000483 0.001083 0.003944 -0.013461
# 2 -0.000420 0.009389 -0.000446 0.002066 0.003504 0.000676
# 3 -0.000483 -0.000446 0.011349 0.007739 0.004309 0.000127
# 4 0.001083 0.002066 0.007739 0.027735 -0.004224 0.000461
# 5 0.003944 0.003504 0.004309 -0.004224 0.039713 0.010064
# 6 -0.013461 0.000676 0.000127 0.000461 0.010064 0.048321
#
#
# Mechanical properties :
#
#
# Convention : Reuss Voigt Hill
#
# Bulk Modulus (GPa) = 25.27914 45.43223 35.35569
# Shear Modulus (GPa) = 28.75045 40.43557 34.59301
#
# Velocity S-wave (km/s) = 3.44373 4.08403 3.77747
# Velocity P-wave (km/s) = 5.12248 6.40152 5.79738
#
# Compressibility (1/GPa) = 0.03955831
#
# Stress axis : x y z
#
# Youngs Moduli (GPa) = 46.47102 106.51199 88.11090
#
# Poissons Ratio (x) = 0.04476 0.04257
# Poissons Ratio (y) = 0.01953 0.03929
# Poissons Ratio (z) = 0.02245 0.04749
#
# Static dielectric constant tensor:
#      x y z
#    x 2.034220 -0.054420 0.085270 
#    y -0.054420 1.981450 -0.008630 
#    z 0.085270 -0.008630 2.026990 
# 
# From -- ./inp_files/387539.got.cif
#   From: 2010.05.17/outbox.cif.g08.bks.cpg/sg2_194_cif.got.tgz:387539.got - 2010.06.03 11:33:40.
