data_PCOD9096532
_publ_section_title
;
Structure prediction by ZEFSAII (Michael W. Deem and Ramdas Pophale) SiO2 
 PCOD9096532
Probable space group: P -1
;
_chemical_formula_sum "Si O2"
_cell_formula_units_Z 15
_cell_length_a 13.125793
_cell_length_b 14.974072
_cell_length_c 15.660923
_cell_angle_alpha 27.811091
_cell_angle_beta 130.460980
_cell_angle_gamma 150.784766
_cell_volume 589.818279
_symmetry_space_group_name_H-M "P -1"
_symmetry_group_IT_number 2
_symmetry_cell_setting 'triclinic'
loop_
_space_group_symop_operation_xyz
x,y,z
-x,-y,-z
loop_
_atom_site_type_symbol
_atom_site_label
_atom_site_fract_x
_atom_site_fract_y
_atom_site_fract_z
Si Si1 0.506933 0.344157 0.263053
Si Si2 0.371084 0.595629 0.434697
Si Si3 0.366723 0.818053 0.408812
Si Si4 0.258597 0.774675 0.115408
Si Si5 0.000000 0.000000 0.500000
Si Si6 0.803829 0.993702 0.784308
Si Si7 0.093047 0.787986 0.863359
Si Si8 0.444426 0.364111 0.784114
O O1 0.517816 0.145353 0.476335
O O2 0.510255 0.477289 0.236938
O O3 0.284865 0.105982 0.277397
O O4 0.742962 0.712751 0.027473
O O5 0.469371 0.854829 0.345043
O O6 0.184151 0.489101 0.362862
O O7 0.278535 0.299386 0.685880
O O8 0.609414 0.835176 0.304565
O O9 0.358811 0.035565 0.232715
O O10 0.083784 0.397643 0.607179
O O11 0.064553 0.657318 0.051872
O O12 0.500000 0.000000 0.000000
O O13 0.338570 0.025389 0.016759
O O14 0.705803 0.671944 0.618306
O O15 0.977925 0.836118 0.716693
O O16 0.000000 0.500000 0.000000
#
# Coordination Sequence:
#
# PCOD9096532 Si02
#       8
#     2   2   2   2   1   2   2   2
#     4  10  21  40  60  87 124 153 200 244 300 352
#     4   9  20  37  58  82 114 153 189 244 286 345
#     4  10  20  39  62  89 121 151 200 244 301 356
#     4  10  20  36  57  77 111 155 191 234 286 341
#     4  10  20  36  56  82 116 146 186 240 276 342
#     4  10  21  37  64  89 116 160 193 247 303 355
#     4  10  21  36  54  82 113 153 190 235 287 341
#     4  10  21  38  57  84 115 153 194 237 292 344
#
# _framework density 25.431564000000002
#
# number of rings (size 3 to 8) (size 9 to 14) (size 15 to 20)
#    0.000    2.133    0.000    3.200    0.000    5.867 
#   16.800    0.000    8.800    0.000    0.000    0.000 
#    0.000    0.000    0.000    0.000    0.000    0.000 
#
# Total GULP energy -83521.343892 kJ/mol
# GULP energy per Si atom -5568.089593 kJ/mol
# Density = 2.537368 g / cm^3
# Si number density = 25.431564 Si / 1000 Ang^3
#
#
#
# Elastic Constant Matrix: (Units=GPa)
#
#
# Indices 1 2 3 4 5 6 
#
# 1 48.2385 8.1779 8.4171 1.2843 13.9809 -11.1538
# 2 8.1779 87.5017 41.4275 51.1183 4.9636 -7.6490
# 3 8.4171 41.4275 95.5935 46.2334 12.0617 11.5149
# 4 1.2843 51.1183 46.2334 57.2307 11.0293 11.4692
# 5 13.9809 4.9636 12.0617 11.0293 28.8307 -0.5981
# 6 -11.1538 -7.6490 11.5149 11.4692 -0.5981 29.7059
#
#
#
# Elastic Compliance Matrix: (Units=1/GPa)
#
#
# Indices 1 2 3 4 5 6 
#
# 1 0.027410 -0.002409 -0.003088 0.004834 -0.013254 0.008735
# 2 -0.002409 0.035490 -0.001235 -0.037314 0.010333 0.023327
# 3 -0.003088 -0.001235 0.017765 -0.012228 -0.001120 -0.003665
# 4 0.004834 -0.037314 -0.012228 0.070217 -0.018300 -0.030531
# 5 -0.013254 0.010333 -0.001120 -0.018300 0.046930 0.006129
# 6 0.008735 0.023327 -0.003665 -0.030531 0.006129 0.056282
#
#
# Mechanical properties :
#
#
# Convention : Reuss Voigt Hill
#
# Bulk Modulus (GPa) = 14.88062 38.59761 26.73912
# Shear Modulus (GPa) = 17.24390 34.70753 25.97571
#
# Velocity S-wave (km/s) = 2.60677 3.69825 3.19940
# Velocity P-wave (km/s) = 3.86319 5.78326 4.91784
#
# Compressibility (1/GPa) = 0.06720151
#
# Stress axis : x y z
#
# Youngs Moduli (GPa) = 36.48343 28.17693 56.28962
#
# Poissons Ratio (x) = 0.06787 0.17380
# Poissons Ratio (y) = 0.08788 0.06954
# Poissons Ratio (z) = 0.11264 0.03481
#
# Static dielectric constant tensor:
#      x y z
#    x 2.014120 0.011530 0.010870 
#    y 0.011530 1.928580 -0.003710 
#    z 0.010870 -0.003710 1.997510 
# 
# From -- ./inp_files/504966.got.cif
#   From: 2010.05.17/outbox.cif.g08.bks.cpg/sg2_253_cif.got.tgz:504966.got - 2010.06.03 11:33:40.
