data_PCOD9096000
_publ_section_title
;
Structure prediction by ZEFSAII (Michael W. Deem and Ramdas Pophale) SiO2 
 PCOD9096000
Probable space group: P -1
;
_chemical_formula_sum "Si O2"
_cell_formula_units_Z 14
_cell_length_a 11.149434
_cell_length_b 5.503707
_cell_length_c 12.550624
_cell_angle_alpha 67.676144
_cell_angle_beta 106.219985
_cell_angle_gamma 68.927588
_cell_volume 582.532032
_symmetry_space_group_name_H-M "P -1"
_symmetry_group_IT_number 2
_symmetry_cell_setting 'triclinic'
loop_
_space_group_symop_operation_xyz
x,y,z
-x,-y,-z
loop_
_atom_site_type_symbol
_atom_site_label
_atom_site_fract_x
_atom_site_fract_y
_atom_site_fract_z
Si Si1 0.327958 0.759725 0.404086
Si Si2 0.142683 0.775895 0.717140
Si Si3 0.683130 0.605146 0.731751
Si Si4 0.738386 0.347290 0.015728
Si Si5 0.647170 0.031973 0.338355
Si Si6 0.136997 0.620168 0.510144
Si Si7 0.425877 0.918371 0.904241
O O1 0.500000 0.500000 0.500000
O O2 0.273938 0.638461 0.312187
O O3 0.244251 0.746734 0.489413
O O4 0.298061 0.101925 0.325353
O O5 0.108893 0.639059 0.627376
O O6 0.294616 0.760970 0.730763
O O7 0.164895 0.646449 0.864123
O O8 0.014772 0.133966 0.623825
O O9 0.763606 0.415080 0.891120
O O10 0.504192 0.778100 0.669310
O O11 0.567440 0.606869 0.946787
O O12 0.717675 0.060397 0.083493
O O13 0.782703 0.715718 0.468236
O O14 0.615643 0.891303 0.247017
O O15 0.500000 0.000000 0.000000
#
# Coordination Sequence:
#
# PCOD9096000 Si02
#       7
#     2   2   2   2   2   2   2
#     4  12  25  43  66  97 130 171 215 264 318 380
#     4  10  22  41  60  94 123 169 213 266 326 374
#     4  11  25  41  68  97 129 170 211 265 322 382
#     4   9  20  36  57  87 127 159 211 261 318 377
#     4  10  20  35  61  91 125 157 205 269 319 377
#     4  11  23  38  65  88 127 167 220 263 316 386
#     4   9  17  29  55  87 119 158 198 258 320 371
#
# _framework density 24.033014000000001
#
# number of rings (size 3 to 8) (size 9 to 14) (size 15 to 20)
#    0.000    1.714    1.429    3.429    6.000    0.000 
#    0.000    1.429    0.000    0.000    0.000    0.000 
#    0.000    0.000    0.000    0.000    0.000    0.000 
#
# Total GULP energy -78047.424497 kJ/mol
# GULP energy per Si atom -5574.816035 kJ/mol
# Density = 2.397831 g / cm^3
# Si number density = 24.033014 Si / 1000 Ang^3
#
#
#
# Elastic Constant Matrix: (Units=GPa)
#
#
# Indices 1 2 3 4 5 6 
#
# 1 46.5138 -1.4248 9.3088 7.7683 -1.6704 8.7374
# 2 -1.4248 96.6564 45.1012 18.9043 -4.1492 6.5085
# 3 9.3088 45.1012 151.0909 29.8847 0.2963 -1.4893
# 4 7.7683 18.9043 29.8847 32.5908 -9.7437 5.2513
# 5 -1.6704 -4.1492 0.2963 -9.7437 31.2634 -9.2741
# 6 8.7374 6.5085 -1.4893 5.2513 -9.2741 26.1764
#
#
#
# Elastic Compliance Matrix: (Units=1/GPa)
#
#
# Indices 1 2 3 4 5 6 
#
# 1 0.024260 0.002470 -0.001226 -0.005490 -0.002630 -0.008612
# 2 0.002470 0.012994 -0.003087 -0.004939 -0.000687 -0.003484
# 3 -0.001226 -0.003087 0.009080 -0.007261 -0.002112 0.002402
# 4 -0.005490 -0.004939 -0.007261 0.045650 0.012757 -0.001991
# 5 -0.002630 -0.000687 -0.002112 0.012757 0.039409 0.012332
# 6 -0.008612 -0.003484 0.002402 -0.001991 0.012332 0.046848
#
#
# Mechanical properties :
#
#
# Convention : Reuss Voigt Hill
#
# Bulk Modulus (GPa) = 23.44731 44.47015 33.95873
# Shear Modulus (GPa) = 25.49176 34.09119 29.79147
#
# Velocity S-wave (km/s) = 3.26037 3.77040 3.52462
# Velocity P-wave (km/s) = 4.89396 6.12360 5.54298
#
# Compressibility (1/GPa) = 0.04264882
#
# Stress axis : x y z
#
# Youngs Moduli (GPa) = 41.21974 76.95923 110.13753
#
# Poissons Ratio (x) = -0.19012 0.13502
# Poissons Ratio (y) = -0.10183 0.33999
# Poissons Ratio (z) = 0.05053 0.23757
#
# Static dielectric constant tensor:
#      x y z
#    x 1.935900 0.097890 -0.032530 
#    y 0.097890 2.122860 -0.145610 
#    z -0.032530 -0.145610 2.215050 
# 
# From -- ./inp_files/67205.got.cif
#   From: 2010.05.17/outbox.cif.g08.bks.cpg/sg2_34_cif.got.tgz:67205.got - 2010.06.03 11:33:40.
