data_PCOD9096643
_publ_section_title
;
Structure prediction by ZEFSAII (Michael W. Deem and Ramdas Pophale) SiO2 
 PCOD9096643
Probable space group: P -1
;
_chemical_formula_sum "Si O2"
_cell_formula_units_Z 16
_cell_length_a 6.275085
_cell_length_b 7.903349
_cell_length_c 22.419308
_cell_angle_alpha 50.582548
_cell_angle_beta 52.805121
_cell_angle_gamma 69.975563
_cell_volume 682.682886
_symmetry_space_group_name_H-M "P -1"
_symmetry_group_IT_number 2
_symmetry_cell_setting 'triclinic'
loop_
_space_group_symop_operation_xyz
x,y,z
-x,-y,-z
loop_
_atom_site_type_symbol
_atom_site_label
_atom_site_fract_x
_atom_site_fract_y
_atom_site_fract_z
Si Si1 0.627193 0.342397 0.435675
Si Si2 0.123127 0.988092 0.613924
Si Si3 0.776682 0.205882 0.951383
Si Si4 0.964046 0.580162 0.921669
Si Si5 0.445836 0.500654 0.169834
Si Si6 0.623683 0.827992 0.153194
Si Si7 0.230431 0.670512 0.448625
Si Si8 0.217671 0.120346 0.206871
O O1 0.374187 0.161984 0.522224
O O2 0.502827 0.578507 0.396555
O O3 0.759399 0.345500 0.477938
O O4 0.810362 0.241603 0.376553
O O5 0.862428 0.090845 0.605954
O O6 0.056846 0.985433 0.695811
O O7 0.568231 0.301822 0.920128
O O8 0.805356 0.378295 0.961674
O O9 0.073975 0.219051 0.867570
O O10 0.699936 0.979067 0.048091
O O11 0.269096 0.595868 0.845180
O O12 0.827510 0.789199 0.872353
O O13 0.000000 0.500000 0.000000
O O14 0.421781 0.626350 0.209035
O O15 0.280066 0.312299 0.202494
O O16 0.461129 0.965819 0.195956
O O17 0.000000 0.500000 0.500000
#
# Coordination Sequence:
#
# PCOD9096643 Si02
#       8
#     2   2   2   2   2   2   2   2
#     4   9  19  39  65  91 124 164 206 251 302 381
#     4  10  21  39  60  92 126 166 205 255 312 375
#     4   9  19  36  59  81 108 150 211 254 306 374
#     4  10  20  36  59  84 116 161 206 258 309 366
#     4  10  21  38  54  81 115 152 199 251 311 364
#     4  10  20  36  57  82 113 154 196 258 308 365
#     4   9  18  37  64  96 120 156 210 248 305 375
#     4  11  24  39  55  91 125 156 210 254 316 372
#
# _framework density 23.436942999999999
#
# number of rings (size 3 to 8) (size 9 to 14) (size 15 to 20)
#    0.000    2.250    0.000    2.250    0.000    6.000 
#   13.500    0.000    0.000    0.000    0.000    0.000 
#    0.000    0.000    0.000    0.000    0.000    0.000 
#
# Total GULP energy -89134.888417 kJ/mol
# GULP energy per Si atom -5570.930526 kJ/mol
# Density = 2.338360 g / cm^3
# Si number density = 23.436943 Si / 1000 Ang^3
#
#
#
# Elastic Constant Matrix: (Units=GPa)
#
#
# Indices 1 2 3 4 5 6 
#
# 1 85.3957 30.5485 6.0298 6.2190 9.0055 -6.6760
# 2 30.5485 105.9822 34.5146 31.2487 -1.2699 -7.4022
# 3 6.0298 34.5146 41.0191 23.1760 5.1035 -7.0598
# 4 6.2190 31.2487 23.1760 26.5370 0.1735 -0.7050
# 5 9.0055 -1.2699 5.1035 0.1735 10.1057 -2.2035
# 6 -6.6760 -7.4022 -7.0598 -0.7050 -2.2035 30.0485
#
#
#
# Elastic Compliance Matrix: (Units=1/GPa)
#
#
# Indices 1 2 3 4 5 6 
#
# 1 0.015574 -0.006070 0.006482 -0.001991 -0.017409 0.002164
# 2 -0.006070 0.017802 -0.008473 -0.012178 0.012500 0.001677
# 3 0.006482 -0.008473 0.062536 -0.045650 -0.035375 0.010380
# 4 -0.001991 -0.012178 -0.045650 0.091950 0.019411 -0.010587
# 5 -0.017409 0.012500 -0.035375 0.019411 0.133824 0.001169
# 6 0.002164 0.001677 0.010380 -0.010587 0.001169 0.036450
#
#
# Mechanical properties :
#
#
# Convention : Reuss Voigt Hill
#
# Bulk Modulus (GPa) = 12.53302 41.62031 27.07667
# Shear Modulus (GPa) = 12.47333 24.09186 18.28260
#
# Velocity S-wave (km/s) = 2.30947 3.20963 2.79601
# Velocity P-wave (km/s) = 3.53138 5.61539 4.69059
#
# Compressibility (1/GPa) = 0.07978922
#
# Stress axis : x y z
#
# Youngs Moduli (GPa) = 64.20926 56.17334 15.99080
#
# Poissons Ratio (x) = 0.34099 -0.10365
# Poissons Ratio (y) = 0.38977 0.13549
# Poissons Ratio (z) = -0.41620 0.47596
#
# Static dielectric constant tensor:
#      x y z
#    x 1.893250 -0.046980 -0.039930 
#    y -0.046980 2.080070 0.093910 
#    z -0.039930 0.093910 2.129120 
# 
# From -- ./inp_files/582050.got.cif
#   From: 2010.05.17/outbox.cif.g08.bks.cpg/sg2_292_cif.got.tgz:582050.got - 2010.06.03 11:33:40.
