data_PCOD9096024
_publ_section_title
;
Structure prediction by ZEFSAII (Michael W. Deem and Ramdas Pophale) SiO2 
 PCOD9096024
Probable space group: P -1
;
_chemical_formula_sum "Si O2"
_cell_formula_units_Z 16
_cell_length_a 8.718920
_cell_length_b 15.641431
_cell_length_c 15.171103
_cell_angle_alpha 139.355717
_cell_angle_beta 132.117732
_cell_angle_gamma 80.194562
_cell_volume 713.162640
_symmetry_space_group_name_H-M "P -1"
_symmetry_group_IT_number 2
_symmetry_cell_setting 'triclinic'
loop_
_space_group_symop_operation_xyz
x,y,z
-x,-y,-z
loop_
_atom_site_type_symbol
_atom_site_label
_atom_site_fract_x
_atom_site_fract_y
_atom_site_fract_z
Si Si1 0.443910 0.190704 0.773938
Si Si2 0.224282 0.476802 0.057038
Si Si3 0.116564 0.948246 0.631647
Si Si4 0.814599 0.137965 0.896429
Si Si5 0.050085 0.408561 0.739612
Si Si6 0.744047 0.607887 0.602643
Si Si7 0.527653 0.746085 0.528853
Si Si8 0.303889 0.271861 0.057357
O O1 0.208882 0.142485 0.579335
O O2 0.636451 0.159068 0.783949
O O3 0.681018 0.404959 0.060040
O O4 0.278441 0.050699 0.681983
O O5 0.498257 0.664286 0.358030
O O6 0.191949 0.430627 0.905835
O O7 0.200965 0.329474 0.986636
O O8 0.000000 0.500000 0.000000
O O9 0.084610 0.779790 0.503987
O O10 0.280219 0.112870 0.892220
O O11 0.072263 0.189824 0.981208
O O12 0.618265 0.934542 0.697555
O O13 0.954644 0.278496 0.142794
O O14 0.785546 0.389527 0.647860
O O15 0.500000 0.500000 0.500000
O O16 0.740778 0.751703 0.671968
O O17 0.615814 0.454059 0.358710
#
# Coordination Sequence:
#
# PCOD9096024 Si02
#       8
#     2   2   2   2   2   2   2   2
#     4  11  23  39  63  86 121 166 197 242 300 353
#     4   9  18  32  53  86 119 150 192 241 288 344
#     4  11  24  40  57  89 127 159 202 238 295 370
#     4  11  21  38  64  90 114 157 204 250 298 351
#     4  11  21  40  59  86 128 165 193 242 299 359
#     4   9  19  39  62  86 116 153 197 256 303 339
#     4  10  20  35  61  94 119 149 204 250 292 358
#     4  10  22  38  59  87 121 154 200 250 299 351
#
# _framework density 22.435275000000001
#
# number of rings (size 3 to 8) (size 9 to 14) (size 15 to 20)
#    0.000    1.750    1.250    5.250    3.500    0.500 
#    2.250    0.625    0.000    3.750    0.000    0.000 
#    0.000    0.000    0.000    0.000    0.000    0.000 
#
# Total GULP energy -89292.841361 kJ/mol
# GULP energy per Si atom -5580.802585 kJ/mol
# Density = 2.238421 g / cm^3
# Si number density = 22.435275 Si / 1000 Ang^3
#
#
#
# Elastic Constant Matrix: (Units=GPa)
#
#
# Indices 1 2 3 4 5 6 
#
# 1 21.2885 1.2833 16.1615 1.2752 -10.5920 -9.5907
# 2 1.2833 63.9438 18.7577 8.1411 -5.3529 -3.0108
# 3 16.1615 18.7577 85.6578 24.0920 -13.7122 -7.0206
# 4 1.2752 8.1411 24.0920 39.2094 -1.7711 -1.4743
# 5 -10.5920 -5.3529 -13.7122 -1.7711 36.3489 8.4643
# 6 -9.5907 -3.0108 -7.0206 -1.4743 8.4643 14.9244
#
#
#
# Elastic Compliance Matrix: (Units=1/GPa)
#
#
# Indices 1 2 3 4 5 6 
#
# 1 0.079259 0.004070 -0.012738 0.006379 0.009676 0.040905
# 2 0.004070 0.017067 -0.003641 -0.001245 0.001477 0.003385
# 3 -0.012738 -0.003641 0.017804 -0.009761 0.002701 -0.003041
# 4 0.006379 -0.001245 -0.009761 0.031614 -0.001176 0.003046
# 5 0.009676 0.001477 0.002701 -0.001176 0.034246 -0.011753
# 6 0.040905 0.003385 -0.003041 0.003046 -0.011753 0.099509
#
#
# Mechanical properties :
#
#
# Convention : Reuss Voigt Hill
#
# Bulk Modulus (GPa) = 11.17195 27.03279 19.10237
# Shear Modulus (GPa) = 14.97209 27.07571 21.02390
#
# Velocity S-wave (km/s) = 2.58611 3.47772 3.06452
# Velocity P-wave (km/s) = 3.72930 5.31051 4.58853
#
# Compressibility (1/GPa) = 0.08950987
#
# Stress axis : x y z
#
# Youngs Moduli (GPa) = 12.61691 58.59362 56.16822
#
# Poissons Ratio (x) = -0.23847 0.71548
# Poissons Ratio (y) = -0.05135 0.20453
# Poissons Ratio (z) = 0.16072 0.21336
#
# Static dielectric constant tensor:
#      x y z
#    x 1.851790 0.008190 -0.001920 
#    y 0.008190 1.842600 0.006340 
#    z -0.001920 0.006340 1.859030 
# 
# From -- ./inp_files/402374.got.cif
#   From: 2010.05.17/outbox.cif.g08.bks.cpg/sg2_202_cif.got.tgz:402374.got - 2010.06.03 11:33:40.
