data_PCOD9096549
_publ_section_title
;
Structure prediction by ZEFSAII (Michael W. Deem and Ramdas Pophale) SiO2 
 PCOD9096549
Probable space group: P -1
;
_chemical_formula_sum "Si O2"
_cell_formula_units_Z 14
_cell_length_a 14.325275
_cell_length_b 10.870669
_cell_length_c 11.673431
_cell_angle_alpha 127.587129
_cell_angle_beta 131.086349
_cell_angle_gamma 28.563489
_cell_volume 652.400005
_symmetry_space_group_name_H-M "P -1"
_symmetry_group_IT_number 2
_symmetry_cell_setting 'triclinic'
loop_
_space_group_symop_operation_xyz
x,y,z
-x,-y,-z
loop_
_atom_site_type_symbol
_atom_site_label
_atom_site_fract_x
_atom_site_fract_y
_atom_site_fract_z
Si Si1 0.939045 0.555411 0.345870
Si Si2 0.722832 0.328196 0.534625
Si Si3 0.227794 0.482758 0.147504
Si Si4 0.187048 0.188287 0.043785
Si Si5 0.573883 0.786636 0.268293
Si Si6 0.281125 0.990784 0.750275
Si Si7 0.351344 0.296885 0.464255
O O1 0.000000 0.500000 0.500000
O O2 0.162503 0.363121 0.361051
O O3 0.778132 0.573781 0.234825
O O4 0.805222 0.813819 0.310019
O O5 0.500000 0.500000 0.500000
O O6 0.828692 0.297589 0.713595
O O7 0.797275 0.101969 0.400277
O O8 0.697833 0.500973 0.531021
O O9 0.468308 0.249935 0.176111
O O10 0.041553 0.627866 0.993919
O O11 0.216357 0.344670 0.144623
O O12 0.205133 0.115556 0.884980
O O13 0.374573 0.932437 0.121597
O O14 0.533364 0.010925 0.394766
O O15 0.598294 0.694975 0.362304
#
# Coordination Sequence:
#
# PCOD9096549 Si02
#       7
#     2   2   2   2   2   2   2
#     4  10  21  35  55  86 114 145 190 235 280 337
#     4  10  20  39  60  82 114 151 194 232 278 341
#     4  10  21  35  56  84 113 145 188 231 279 335
#     4  11  21  34  57  87 116 144 188 236 285 335
#     4  10  20  36  56  83 118 146 188 236 280 333
#     4  11  22  35  59  83 117 148 185 239 285 324
#     4  10  20  36  58  82 110 155 190 229 282 333
#
# _framework density 21.459228
#
# number of rings (size 3 to 8) (size 9 to 14) (size 15 to 20)
#    0.000    1.714    2.857    2.143    2.000    2.286 
#    0.000    0.714    0.000    3.429    0.000    0.000 
#    0.000    0.000    0.000    0.000    0.000    0.000 
#
# Total GULP energy -77953.557048 kJ/mol
# GULP energy per Si atom -5568.111218 kJ/mol
# Density = 2.141039 g / cm^3
# Si number density = 21.459228 Si / 1000 Ang^3
#
#
#
# Elastic Constant Matrix: (Units=GPa)
#
#
# Indices 1 2 3 4 5 6 
#
# 1 70.6397 20.9126 29.3292 -2.9059 -5.1897 -19.0913
# 2 20.9126 57.1467 31.7011 -12.9672 -0.3376 -19.9849
# 3 29.3292 31.7011 96.4674 -12.2595 11.6650 -4.4628
# 4 -2.9059 -12.9672 -12.2595 53.6125 -4.9759 8.4668
# 5 -5.1897 -0.3376 11.6650 -4.9759 37.3325 -6.9403
# 6 -19.0913 -19.9849 -4.4628 8.4668 -6.9403 35.8174
#
#
#
# Elastic Compliance Matrix: (Units=1/GPa)
#
#
# Indices 1 2 3 4 5 6 
#
# 1 0.020629 0.000056 -0.006794 -0.001657 0.006987 0.011926
# 2 0.000056 0.028632 -0.009102 0.003007 0.006373 0.015395
# 3 -0.006794 -0.009102 0.016152 0.001785 -0.007425 -0.008548
# 4 -0.001657 0.003007 0.001785 0.020379 0.001296 -0.003549
# 5 0.006987 0.006373 -0.007425 0.001296 0.032607 0.012367
# 6 0.011926 0.015395 -0.008548 -0.003549 0.012367 0.045036
#
#
# Mechanical properties :
#
#
# Convention : Reuss Voigt Hill
#
# Bulk Modulus (GPa) = 29.64573 43.12660 36.38617
# Shear Modulus (GPa) = 24.22960 34.83989 29.53475
#
# Velocity S-wave (km/s) = 3.36385 4.03369 3.71390
# Velocity P-wave (km/s) = 5.37887 6.46798 5.94841
#
# Compressibility (1/GPa) = 0.03373167
#
# Stress axis : x y z
#
# Youngs Moduli (GPa) = 48.47570 34.92653 61.91164
#
# Poissons Ratio (x) = -0.00194 0.42062
# Poissons Ratio (y) = -0.00269 0.56353
# Poissons Ratio (z) = 0.32934 0.31791
#
# Static dielectric constant tensor:
#      x y z
#    x 1.783300 -0.090140 -0.033080 
#    y -0.090140 1.869440 0.020320 
#    z -0.033080 0.020320 1.886350 
# 
# From -- ./inp_files/451658.got.cif
#   From: 2010.05.17/outbox.cif.g08.bks.cpg/sg2_226_cif.got.tgz:451658.got - 2010.06.03 11:33:40.
