data_PCOD9096623
_publ_section_title
;
Structure prediction by ZEFSAII (Michael W. Deem and Ramdas Pophale) SiO2 
 PCOD9096623
Probable space group: P -1
;
_chemical_formula_sum "Si O2"
_cell_formula_units_Z 14
_cell_length_a 5.253679
_cell_length_b 17.046190
_cell_length_c 6.638839
_cell_angle_alpha 102.130221
_cell_angle_beta 67.328761
_cell_angle_gamma 77.822105
_cell_volume 507.492582
_symmetry_space_group_name_H-M "P -1"
_symmetry_group_IT_number 2
_symmetry_cell_setting 'triclinic'
loop_
_space_group_symop_operation_xyz
x,y,z
-x,-y,-z
loop_
_atom_site_type_symbol
_atom_site_label
_atom_site_fract_x
_atom_site_fract_y
_atom_site_fract_z
Si Si1 0.230445 0.170907 0.091401
Si Si2 0.805143 0.978190 0.216781
Si Si3 0.936381 0.564515 0.369251
Si Si4 0.388696 0.278819 0.819832
Si Si5 0.262405 0.134410 0.530661
Si Si6 0.817622 0.427337 0.092638
Si Si7 0.390424 0.699144 0.642765
O O1 0.232557 0.153706 0.316586
O O2 0.887341 0.219872 0.171751
O O3 0.340621 0.081442 0.895512
O O4 0.429403 0.227884 0.990751
O O5 0.932308 0.916980 0.335814
O O6 0.585878 0.065933 0.409178
O O7 0.000000 0.000000 0.000000
O O8 0.760286 0.518634 0.255508
O O9 0.745371 0.660199 0.533507
O O10 0.000000 0.500000 0.500000
O O11 0.198238 0.566901 0.142220
O O12 0.246416 0.217845 0.704661
O O13 0.620321 0.291342 0.596343
O O14 0.155611 0.368907 0.987753
O O15 0.664553 0.374905 0.245018
#
# Coordination Sequence:
#
# PCOD9096623 Si02
#       7
#     2   2   2   2   2   2   2
#     4  10  21  37  56  81 111 144 181 223 273 321
#     4  10  21  37  57  83 111 141 184 226 265 323
#     4  10  21  38  58  80 110 145 179 223 275 320
#     4   9  20  37  54  79 112 141 179 226 267 319
#     4  10  21  37  57  80 111 146 179 223 273 319
#     4   9  20  38  55  80 111 139 181 227 266 322
#     4  10  20  36  57  80 110 142 180 225 267 320
#
# _framework density 27.586611000000001
#
# number of rings (size 3 to 8) (size 9 to 14) (size 15 to 20)
#    0.000    2.286    0.000    1.714    0.000    6.857 
#    0.000   14.286    0.000    0.000    0.000    0.000 
#    0.000    0.000    0.000    0.000    0.000    0.000 
#
# Total GULP energy -78078.712128 kJ/mol
# GULP energy per Si atom -5577.050866 kJ/mol
# Density = 2.752382 g / cm^3
# Si number density = 27.586611 Si / 1000 Ang^3
#
#
#
# Elastic Constant Matrix: (Units=GPa)
#
#
# Indices 1 2 3 4 5 6 
#
# 1 47.2294 28.8025 34.4091 -6.4810 -3.7401 -7.9990
# 2 28.8025 152.6299 69.8189 -50.2744 -3.0231 2.1191
# 3 34.4091 69.8189 223.7312 -47.9141 -18.8121 -4.5118
# 4 -6.4810 -50.2744 -47.9141 92.3537 3.7453 -11.3146
# 5 -3.7401 -3.0231 -18.8121 3.7453 45.9572 -3.5058
# 6 -7.9990 2.1191 -4.5118 -11.3146 -3.5058 35.1980
#
#
#
# Elastic Compliance Matrix: (Units=1/GPa)
#
#
# Indices 1 2 3 4 5 6 
#
# 1 0.026697 -0.004202 -0.002839 -0.001242 0.001269 0.005683
# 2 -0.004202 0.009326 -0.001480 0.003982 -0.000697 -0.000496
# 3 -0.002839 -0.001480 0.006029 0.002177 0.002048 0.001121
# 4 -0.001242 0.003982 0.002177 0.014576 0.000205 0.004463
# 5 0.001269 -0.000697 0.002048 0.000205 0.022862 0.002936
# 6 0.005683 -0.000496 0.001121 0.004463 0.002936 0.031603
#
#
# Mechanical properties :
#
#
# Convention : Reuss Voigt Hill
#
# Bulk Modulus (GPa) = 39.98433 76.62797 58.30615
# Shear Modulus (GPa) = 36.63712 54.07244 45.35478
#
# Velocity S-wave (km/s) = 3.64823 4.43210 4.05913
# Velocity P-wave (km/s) = 5.68082 7.35044 6.56889
#
# Compressibility (1/GPa) = 0.02500980
#
# Stress axis : x y z
#
# Youngs Moduli (GPa) = 37.45744 107.22230 165.85760
#
# Poissons Ratio (x) = 0.45056 0.47092
# Poissons Ratio (y) = 0.15740 0.24547
# Poissons Ratio (z) = 0.10635 0.15869
#
# Static dielectric constant tensor:
#      x y z
#    x 2.234600 -0.013200 0.029230 
#    y -0.013200 2.103610 -0.113520 
#    z 0.029230 -0.113520 2.230460 
# 
# From -- ./inp_files/47259.got.cif
#   From: 2010.05.17/outbox.cif.g08.bks.cpg/sg2_24_cif.got.tgz:47259.got - 2010.06.03 11:33:40.
