data_PCOD9096226
_publ_section_title
;
Structure prediction by ZEFSAII (Michael W. Deem and Ramdas Pophale) SiO2 
 PCOD9096226
Probable space group: P -1
;
_chemical_formula_sum "Si O2"
_cell_formula_units_Z 14
_cell_length_a 9.771068
_cell_length_b 8.895434
_cell_length_c 8.528919
_cell_angle_alpha 105.052928
_cell_angle_beta 63.902359
_cell_angle_gamma 88.405541
_cell_volume 634.205844
_symmetry_space_group_name_H-M "P -1"
_symmetry_group_IT_number 2
_symmetry_cell_setting 'triclinic'
loop_
_space_group_symop_operation_xyz
x,y,z
-x,-y,-z
loop_
_atom_site_type_symbol
_atom_site_label
_atom_site_fract_x
_atom_site_fract_y
_atom_site_fract_z
Si Si1 0.915213 0.905397 0.149626
Si Si2 0.021363 0.263186 0.533329
Si Si3 0.206821 0.960312 0.417012
Si Si4 0.902678 0.424382 0.334026
Si Si5 0.224007 0.663106 0.930010
Si Si6 0.537040 0.163640 0.959197
Si Si7 0.757902 0.671599 0.998411
O O1 0.846722 0.003045 0.365308
O O2 0.773461 0.826936 0.133673
O O3 0.051647 0.757873 0.075702
O O4 0.000000 0.000000 0.000000
O O5 0.162550 0.123202 0.385202
O O6 0.102244 0.388804 0.619015
O O7 0.909143 0.364719 0.491477
O O8 0.901369 0.156886 0.628129
O O9 0.376602 0.879329 0.262880
O O10 0.782725 0.363926 0.261866
O O11 0.077321 0.355958 0.177348
O O12 0.247814 0.489539 0.948237
O O13 0.348973 0.761932 0.961215
O O14 0.384230 0.287976 0.035923
O O15 0.500000 0.000000 0.000000
#
# Coordination Sequence:
#
# PCOD9096226 Si02
#       7
#     2   2   2   2   2   2   2
#     4  11  22  40  69  98 123 157 206 263 313 363
#     4  10  20  35  63  95 120 152 202 265 312 358
#     4  11  21  38  60  92 128 158 202 254 310 369
#     4  10  20  38  64  92 119 154 207 260 309 363
#     4  11  22  40  64  90 121 164 213 260 309 363
#     4  12  26  41  60  88 128 173 208 249 310 374
#     4  11  22  39  62  89 124 166 207 251 309 373
#
# _framework density 22.074852
#
# number of rings (size 3 to 8) (size 9 to 14) (size 15 to 20)
#    0.000    1.143    0.000    9.857    0.000    0.571 
#    0.000    0.000    0.000   12.000    0.000    0.000 
#    0.000    0.000    0.000    0.000    0.000    0.000 
#
# Total GULP energy -78042.641205 kJ/mol
# GULP energy per Si atom -5574.474372 kJ/mol
# Density = 2.202461 g / cm^3
# Si number density = 22.074852 Si / 1000 Ang^3
#
#
#
# Elastic Constant Matrix: (Units=GPa)
#
#
# Indices 1 2 3 4 5 6 
#
# 1 133.0052 39.8134 21.6798 6.2514 12.3077 15.9359
# 2 39.8134 119.4104 29.1646 3.8473 10.7120 8.1421
# 3 21.6798 29.1646 63.6742 1.0097 17.6908 17.0557
# 4 6.2514 3.8473 1.0097 18.1005 1.1424 7.1170
# 5 12.3077 10.7120 17.6908 1.1424 31.2371 9.5987
# 6 15.9359 8.1421 17.0557 7.1170 9.5987 39.6320
#
#
#
# Elastic Compliance Matrix: (Units=1/GPa)
#
#
# Indices 1 2 3 4 5 6 
#
# 1 0.008841 -0.002398 -0.000944 -0.001607 -0.001448 -0.002017
# 2 -0.002398 0.010162 -0.003915 -0.001455 -0.000564 0.000959
# 3 -0.000944 -0.003915 0.022016 0.003128 -0.008803 -0.006720
# 4 -0.001607 -0.001455 0.003128 0.060379 0.000656 -0.011403
# 5 -0.001448 -0.000564 -0.008803 0.000656 0.039323 -0.005155
# 6 -0.002017 0.000959 -0.006720 -0.011403 -0.005155 0.032034
#
#
# Mechanical properties :
#
#
# Convention : Reuss Voigt Hill
#
# Bulk Modulus (GPa) = 37.72836 55.26728 46.49782
# Shear Modulus (GPa) = 25.49648 32.82273 29.15960
#
# Velocity S-wave (km/s) = 3.40222 3.86020 3.63842
# Velocity P-wave (km/s) = 5.70628 6.70513 6.22577
#
# Compressibility (1/GPa) = 0.02650526
#
# Stress axis : x y z
#
# Youngs Moduli (GPa) = 113.10451 98.40199 45.42156
#
# Poissons Ratio (x) = 0.23598 0.04287
# Poissons Ratio (y) = 0.27124 0.17784
# Poissons Ratio (z) = 0.10675 0.38527
#
# Static dielectric constant tensor:
#      x y z
#    x 1.953330 -0.143000 0.132950 
#    y -0.143000 1.957800 -0.043500 
#    z 0.132950 -0.043500 1.975190 
# 
# From -- ./inp_files/159063.got.cif
#   From: 2010.05.17/outbox.cif.g08.bks.cpg/sg2_80_cif.got.tgz:159063.got - 2010.06.03 11:33:40.
