data_PCOD9096974
_publ_section_title
;
Structure prediction by ZEFSAII (Michael W. Deem and Ramdas Pophale) SiO2 
 PCOD9096974
Probable space group: P -1
;
_chemical_formula_sum "Si O2"
_cell_formula_units_Z 16
_cell_length_a 8.468610
_cell_length_b 24.251741
_cell_length_c 13.029901
_cell_angle_alpha 162.299188
_cell_angle_beta 120.241902
_cell_angle_gamma 52.721543
_cell_volume 616.936518
_symmetry_space_group_name_H-M "P -1"
_symmetry_group_IT_number 2
_symmetry_cell_setting 'triclinic'
loop_
_space_group_symop_operation_xyz
x,y,z
-x,-y,-z
loop_
_atom_site_type_symbol
_atom_site_label
_atom_site_fract_x
_atom_site_fract_y
_atom_site_fract_z
Si Si1 0.585780 0.295852 0.795466
Si Si2 0.530067 0.821839 0.051095
Si Si3 0.056431 0.705857 0.192624
Si Si4 0.084921 0.546490 0.449888
Si Si5 0.281285 0.892297 0.289756
Si Si6 0.974101 0.859424 0.822431
Si Si7 0.311935 0.040353 0.932974
Si Si8 0.786250 0.764884 0.410548
O O1 0.347430 0.358982 0.862123
O O2 0.697971 0.389686 0.923963
O O3 0.708815 0.246007 0.855781
O O4 0.622786 0.095647 0.386452
O O5 0.622787 0.967560 0.383931
O O6 0.426106 0.776467 0.035535
O O7 0.353511 0.985655 0.210247
O O8 0.719172 0.609228 0.695604
O O9 0.942572 0.946278 0.542390
O O10 0.956859 0.702865 0.265453
O O11 0.970836 0.596704 0.892783
O O12 0.148039 0.679028 0.627103
O O13 0.862173 0.724486 0.733759
O O14 0.822637 0.019952 0.141718
O O15 0.870676 0.747740 0.522860
O O16 0.000000 0.000000 0.000000
O O17 0.500000 0.000000 0.000000
#
# Coordination Sequence:
#
# PCOD9096974 Si02
#       8
#     2   2   2   2   2   2   2   2
#     4  11  18  34  63  82 114 162 195 227 298 357
#     4   8  15  34  57  88 116 147 186 255 290 335
#     4  10  20  36  58  93 119 146 194 253 288 347
#     4   9  20  37  59  83 125 145 195 254 284 337
#     4   8  16  30  57  85 122 151 185 232 308 351
#     4  10  21  39  60  77 112 162 197 231 293 354
#     4  10  21  39  55  77 120 158 194 235 286 350
#     4  10  20  36  63  87 116 157 196 234 304 351
#
# _framework density 25.934598000000001
#
# number of rings (size 3 to 8) (size 9 to 14) (size 15 to 20)
#    0.750    1.750    1.250    3.375    0.000    0.500 
#    0.000   11.250    0.000    0.000    0.000    0.000 
#    0.000    0.000    0.000    0.000    0.000    0.000 
#
# Total GULP energy -89148.341067 kJ/mol
# GULP energy per Si atom -5571.771317 kJ/mol
# Density = 2.587557 g / cm^3
# Si number density = 25.934598 Si / 1000 Ang^3
#
#
#
# Elastic Constant Matrix: (Units=GPa)
#
#
# Indices 1 2 3 4 5 6 
#
# 1 150.7075 34.9154 8.5718 4.6523 0.8499 28.0002
# 2 34.9154 104.1723 22.5065 6.0330 -15.8032 -2.7583
# 3 8.5718 22.5065 54.4588 16.5246 -6.5499 -11.4381
# 4 4.6523 6.0330 16.5246 44.2400 -8.6415 -7.6421
# 5 0.8499 -15.8032 -6.5499 -8.6415 23.3626 -2.6470
# 6 28.0002 -2.7583 -11.4381 -7.6421 -2.6470 41.3832
#
#
#
# Elastic Compliance Matrix: (Units=1/GPa)
#
#
# Indices 1 2 3 4 5 6 
#
# 1 0.008998 -0.003492 -0.001453 -0.002132 -0.004726 -0.007418
# 2 -0.003492 0.012894 -0.003725 0.002315 0.009023 0.003197
# 3 -0.001453 -0.003725 0.023752 -0.006660 0.002434 0.006225
# 4 -0.002132 0.002315 -0.006660 0.028083 0.010802 0.005633
# 5 -0.004726 0.009023 0.002434 0.010802 0.054887 0.009977
# 6 -0.007418 0.003197 0.006225 0.005633 0.009977 0.032796
#
#
# Mechanical properties :
#
#
# Convention : Reuss Voigt Hill
#
# Bulk Modulus (GPa) = 35.32966 49.03621 42.18294
# Shear Modulus (GPa) = 26.56988 38.02015 32.29501
#
# Velocity S-wave (km/s) = 3.20425 3.83299 3.53264
# Velocity P-wave (km/s) = 5.22894 6.20788 5.73932
#
# Compressibility (1/GPa) = 0.02830483
#
# Stress axis : x y z
#
# Youngs Moduli (GPa) = 111.14064 77.55569 42.10207
#
# Poissons Ratio (x) = 0.27080 0.06116
# Poissons Ratio (y) = 0.38807 0.15682
# Poissons Ratio (z) = 0.16145 0.28889
#
# Static dielectric constant tensor:
#      x y z
#    x 2.201050 -0.079040 -0.009280 
#    y -0.079040 2.037290 0.028900 
#    z -0.009280 0.028900 2.097350 
# 
# From -- ./inp_files/508938.got.cif
#   From: 2010.05.17/outbox.cif.g08.bks.cpg/sg2_255_cif.got.tgz:508938.got - 2010.06.03 11:33:40.
