data_PCOD9096780
_publ_section_title
;
Structure prediction by ZEFSAII (Michael W. Deem and Ramdas Pophale) SiO2 
 PCOD9096780
Probable space group: P -1
;
_chemical_formula_sum "Si O2"
_cell_formula_units_Z 16
_cell_length_a 7.465690
_cell_length_b 14.129130
_cell_length_c 7.733773
_cell_angle_alpha 82.414086
_cell_angle_beta 100.449802
_cell_angle_gamma 53.319308
_cell_volume 612.784479
_symmetry_space_group_name_H-M "P -1"
_symmetry_group_IT_number 2
_symmetry_cell_setting 'triclinic'
loop_
_space_group_symop_operation_xyz
x,y,z
-x,-y,-z
loop_
_atom_site_type_symbol
_atom_site_label
_atom_site_fract_x
_atom_site_fract_y
_atom_site_fract_z
Si Si1 0.930445 0.810787 0.397884
Si Si2 0.439040 0.432015 0.815411
Si Si3 0.623929 0.043880 0.681400
Si Si4 0.144074 0.538575 0.442113
Si Si5 0.325021 0.445563 0.143108
Si Si6 0.621396 0.171665 0.986367
Si Si7 0.283476 0.839901 0.629781
Si Si8 0.270456 0.133024 0.002944
O O1 0.655198 0.891748 0.385526
O O2 0.924269 0.825342 0.184036
O O3 0.046028 0.668394 0.471833
O O4 0.086419 0.836164 0.517024
O O5 0.394479 0.437193 0.602543
O O6 0.504021 0.519689 0.827878
O O7 0.613868 0.287578 0.929548
O O8 0.243799 0.475328 0.921684
O O9 0.676515 0.100983 0.833997
O O10 0.674737 0.085635 0.507731
O O11 0.760610 0.902346 0.804944
O O12 0.145292 0.533180 0.239613
O O13 0.000000 0.500000 0.500000
O O14 0.477847 0.303002 0.264070
O O15 0.365517 0.209318 0.984896
O O16 0.776549 0.102456 0.201258
O O17 0.500000 0.000000 0.000000
#
# Coordination Sequence:
#
# PCOD9096780 Si02
#       8
#     2   2   2   2   2   2   2   2
#     4  10  21  37  59  91 116 148 207 248 279 359
#     4  10  20  36  58  81 117 157 190 233 289 350
#     4  10  22  43  63  80 121 160 187 250 315 340
#     4  12  22  35  58  84 119 159 198 237 290 351
#     4  10  22  37  55  84 120 157 188 236 292 344
#     4   9  19  36  62  85 114 156 196 234 296 354
#     4  11  21  37  62  89 117 154 200 243 288 356
#     4   8  18  41  60  81 119 154 189 248 306 349
#
# _framework density 26.110325
#
# number of rings (size 3 to 8) (size 9 to 14) (size 15 to 20)
#    0.000    2.250    1.250    3.375    1.750    1.500 
#    0.000   10.625    0.000    0.000    0.000    0.000 
#    0.000    0.000    0.000    0.000    0.000    0.000 
#
# Total GULP energy -89368.412944 kJ/mol
# GULP energy per Si atom -5585.525809 kJ/mol
# Density = 2.605090 g / cm^3
# Si number density = 26.110325 Si / 1000 Ang^3
#
#
#
# Elastic Constant Matrix: (Units=GPa)
#
#
# Indices 1 2 3 4 5 6 
#
# 1 62.4360 27.2423 68.7598 10.1626 -0.8323 8.5911
# 2 27.2423 73.4891 33.6237 0.7703 -5.4635 18.4740
# 3 68.7598 33.6237 153.7568 7.9723 -6.0749 12.7783
# 4 10.1626 0.7703 7.9723 43.3097 11.0678 -1.6997
# 5 -0.8323 -5.4635 -6.0749 11.0678 51.5985 1.6052
# 6 8.5911 18.4740 12.7783 -1.6997 1.6052 23.5544
#
#
#
# Elastic Compliance Matrix: (Units=1/GPa)
#
#
# Indices 1 2 3 4 5 6 
#
# 1 0.035281 -0.006513 -0.014054 -0.005444 -0.000592 -0.000488
# 2 -0.006513 0.019552 -0.000197 0.000113 0.002322 -0.013003
# 3 -0.014054 -0.000197 0.013004 0.000522 0.001228 -0.001821
# 4 -0.005444 0.000113 0.000522 0.025873 -0.005685 0.003868
# 5 -0.000592 0.002322 0.001228 -0.005685 0.021109 -0.004120
# 6 -0.000488 -0.013003 -0.001821 0.003868 -0.004120 0.054379
#
#
# Mechanical properties :
#
#
# Convention : Reuss Voigt Hill
#
# Bulk Modulus (GPa) = 38.00737 60.99263 49.50000
# Shear Modulus (GPa) = 22.77964 34.36292 28.57128
#
# Velocity S-wave (km/s) = 2.95691 3.63170 3.31154
# Velocity P-wave (km/s) = 5.12307 6.40281 5.79835
#
# Compressibility (1/GPa) = 0.02631068
#
# Stress axis : x y z
#
# Youngs Moduli (GPa) = 28.34419 51.14621 76.89703
#
# Poissons Ratio (x) = 0.33309 1.08070
# Poissons Ratio (y) = 0.18459 0.01512
# Poissons Ratio (z) = 0.39834 0.01006
#
# Static dielectric constant tensor:
#      x y z
#    x 1.886690 0.110180 -0.341570 
#    y 0.110180 1.829100 0.385740 
#    z -0.341570 0.385740 1.417290 
# 
# From -- ./inp_files/206983.got.cif
#   From: 2010.05.17/outbox.cif.g08.bks.cpg/sg2_104_cif.got.tgz:206983.got - 2010.06.03 11:33:40.
