data_PCOD9096008
_publ_section_title
;
Structure prediction by ZEFSAII (Michael W. Deem and Ramdas Pophale) SiO2 
 PCOD9096008
Probable space group: P -1
;
_chemical_formula_sum "Si O2"
_cell_formula_units_Z 16
_cell_length_a 9.754303
_cell_length_b 14.562381
_cell_length_c 8.218816
_cell_angle_alpha 136.176553
_cell_angle_beta 110.317938
_cell_angle_gamma 79.267416
_cell_volume 754.364066
_symmetry_space_group_name_H-M "P -1"
_symmetry_group_IT_number 2
_symmetry_cell_setting 'triclinic'
loop_
_space_group_symop_operation_xyz
x,y,z
-x,-y,-z
loop_
_atom_site_type_symbol
_atom_site_label
_atom_site_fract_x
_atom_site_fract_y
_atom_site_fract_z
Si Si1 0.933989 0.684977 0.650435
Si Si2 0.473360 0.291506 0.274774
Si Si3 0.434219 0.442922 0.139335
Si Si4 0.688727 0.870726 0.725295
Si Si5 0.051457 0.462744 0.223518
Si Si6 0.201002 0.607456 0.196082
Si Si7 0.735826 0.171084 0.041302
Si Si8 0.416253 0.765306 0.266218
O O1 0.938511 0.547079 0.380279
O O2 0.823354 0.780368 0.651991
O O3 0.887439 0.636637 0.751034
O O4 0.101374 0.753237 0.811426
O O5 0.397581 0.343813 0.148782
O O6 0.498487 0.418161 0.571164
O O7 0.387871 0.173298 0.190701
O O8 0.622961 0.243584 0.200753
O O9 0.290560 0.479825 0.033314
O O10 0.541190 0.371672 0.975067
O O11 0.565223 0.837539 0.493366
O O12 0.743705 0.025022 0.930871
O O13 0.163273 0.572505 0.322662
O O14 0.954104 0.386956 0.947749
O O15 0.306229 0.730176 0.326773
O O16 0.662690 0.163452 0.820790
#
# Coordination Sequence:
#
# PCOD9096008 Si02
#       8
#     2   2   2   2   2   2   2   2
#     4  11  23  41  62  92 121 163 203 260 306 364
#     4  10  22  37  62  92 122 157 204 258 308 357
#     4  10  20  35  61  92 123 148 196 261 318 352
#     4  12  24  40  64  91 123 167 212 246 297 366
#     4  10  23  36  63  89 127 154 202 253 326 362
#     4  11  19  37  57  93 123 158 189 252 316 378
#     4  11  24  44  61  85 128 172 207 245 297 369
#     4  11  23  38  64  92 125 159 205 255 308 363
#
# _framework density 21.209918999999999
#
# number of rings (size 3 to 8) (size 9 to 14) (size 15 to 20)
#    0.000    1.250    2.500    3.750    1.750    2.000 
#    0.000    0.000    0.000    0.750    0.000    0.000 
#    0.000    0.000    0.000    0.000    0.000    0.000 
#
# Total GULP energy -89296.462868 kJ/mol
# GULP energy per Si atom -5581.028929 kJ/mol
# Density = 2.116164 g / cm^3
# Si number density = 21.209919 Si / 1000 Ang^3
#
#
#
# Elastic Constant Matrix: (Units=GPa)
#
#
# Indices 1 2 3 4 5 6 
#
# 1 75.4854 16.9985 5.9119 -4.7632 1.6695 16.0252
# 2 16.9985 95.4819 15.9640 -1.9674 10.0068 15.6026
# 3 5.9119 15.9640 37.9367 -2.2056 7.9170 10.1496
# 4 -4.7632 -1.9674 -2.2056 20.0791 -6.2754 -1.1816
# 5 1.6695 10.0068 7.9170 -6.2754 19.4118 -7.8088
# 6 16.0252 15.6026 10.1496 -1.1816 -7.8088 38.5510
#
#
#
# Elastic Compliance Matrix: (Units=1/GPa)
#
#
# Indices 1 2 3 4 5 6 
#
# 1 0.015063 -0.001437 0.000617 0.002321 -0.002589 -0.006296
# 2 -0.001437 0.012920 -0.001862 -0.002447 -0.008998 -0.006039
# 3 0.000617 -0.001862 0.034163 -0.002947 -0.018980 -0.012432
# 4 0.002321 -0.002447 -0.002947 0.057694 0.023896 0.007410
# 5 -0.002589 -0.008998 -0.018980 0.023896 0.082791 0.027217
# 6 -0.006296 -0.006039 -0.012432 0.007410 0.027217 0.040014
#
#
# Mechanical properties :
#
#
# Convention : Reuss Voigt Hill
#
# Bulk Modulus (GPa) = 17.61124 31.85031 24.73077
# Shear Modulus (GPa) = 18.73113 26.94369 22.83741
#
# Velocity S-wave (km/s) = 2.97498 3.56804 3.28492
# Velocity P-wave (km/s) = 4.48575 5.65896 5.10616
#
# Compressibility (1/GPa) = 0.05678193
#
# Stress axis : x y z
#
# Youngs Moduli (GPa) = 66.38752 77.40154 29.27166
#
# Poissons Ratio (x) = 0.11122 -0.01805
# Poissons Ratio (y) = 0.09539 0.05449
# Poissons Ratio (z) = -0.04094 0.14409
#
# Static dielectric constant tensor:
#      x y z
#    x 1.826530 0.011260 0.000510 
#    y 0.011260 1.766850 -0.050120 
#    z 0.000510 -0.050120 1.781970 
# 
# From -- ./inp_files/209113.got.cif
#   From: 2010.05.17/outbox.cif.g08.bks.cpg/sg2_105_cif.got.tgz:209113.got - 2010.06.03 11:33:40.
