data_PCOD9096384
_publ_section_title
;
Structure prediction by ZEFSAII (Michael W. Deem and Ramdas Pophale) SiO2 
 PCOD9096384
Probable space group: P -1
;
_chemical_formula_sum "Si O2"
_cell_formula_units_Z 16
_cell_length_a 5.303373
_cell_length_b 22.139659
_cell_length_c 11.967375
_cell_angle_alpha 150.073348
_cell_angle_beta 97.603489
_cell_angle_gamma 77.465256
_cell_volume 679.803477
_symmetry_space_group_name_H-M "P -1"
_symmetry_group_IT_number 2
_symmetry_cell_setting 'triclinic'
loop_
_space_group_symop_operation_xyz
x,y,z
-x,-y,-z
loop_
_atom_site_type_symbol
_atom_site_label
_atom_site_fract_x
_atom_site_fract_y
_atom_site_fract_z
Si Si1 0.819991 0.110618 0.504287
Si Si2 0.276628 0.538013 0.429638
Si Si3 0.235688 0.384024 0.396148
Si Si4 0.539876 0.712722 0.090167
Si Si5 0.674269 0.105649 0.042571
Si Si6 0.690918 0.853035 0.116406
Si Si7 0.818251 0.837197 0.740454
Si Si8 0.745760 0.786444 0.429954
O O1 0.739999 0.211973 0.761411
O O2 0.558105 0.144043 0.466329
O O3 0.064166 0.134801 0.490331
O O4 0.830015 0.969275 0.313508
O O5 0.243591 0.496197 0.489142
O O6 0.460058 0.635659 0.585242
O O7 0.968682 0.584041 0.464096
O O8 0.420030 0.416480 0.177545
O O9 0.168267 0.271407 0.139462
O O10 0.715355 0.690617 0.176571
O O11 0.628792 0.809528 0.165635
O O12 0.568513 0.109739 0.916168
O O13 0.424922 0.164577 0.198135
O O14 0.931699 0.157467 0.163068
O O15 0.753719 0.966405 0.874109
O O16 0.851288 0.742540 0.487003
#
# Coordination Sequence:
#
# PCOD9096384 Si02
#       8
#     2   2   2   2   2   2   2   2
#     4  10  22  34  53  84 114 150 180 218 278 335
#     4   9  18  36  53  77 104 145 192 219 269 321
#     4   9  20  33  54  76 109 146 178 230 269 326
#     4   9  22  37  59  82 116 150 184 230 272 334
#     4  10  21  33  55  77 106 153 181 227 274 322
#     4  11  21  39  53  89 120 147 178 227 288 344
#     4  10  20  36  53  75 109 147 192 225 261 329
#     4  10  21  37  53  82 108 150 188 222 271 321
#
# _framework density 23.536214999999999
#
# number of rings (size 3 to 8) (size 9 to 14) (size 15 to 20)
#    0.750    1.500    1.250    1.125    5.250    2.500 
#    4.500    0.000    0.000    0.000    0.000    5.250 
#    0.000    0.000    0.000    0.000    0.000    0.000 
#
# Total GULP energy -89207.540902 kJ/mol
# GULP energy per Si atom -5575.471306 kJ/mol
# Density = 2.348265 g / cm^3
# Si number density = 23.536215 Si / 1000 Ang^3
#
#
#
# Elastic Constant Matrix: (Units=GPa)
#
#
# Indices 1 2 3 4 5 6 
#
# 1 128.9971 20.5934 52.5525 -0.6260 -10.5539 13.5605
# 2 20.5934 59.8329 12.8889 -11.4361 -6.2245 3.2914
# 3 52.5525 12.8889 105.6247 -5.2859 -13.6065 11.0338
# 4 -0.6260 -11.4361 -5.2859 36.2247 -2.5901 -1.6572
# 5 -10.5539 -6.2245 -13.6065 -2.5901 29.7985 -3.0064
# 6 13.5605 3.2914 11.0338 -1.6572 -3.0064 32.0259
#
#
#
# Elastic Compliance Matrix: (Units=1/GPa)
#
#
# Indices 1 2 3 4 5 6 
#
# 1 0.010338 -0.002636 -0.004540 -0.001385 0.000660 -0.002552
# 2 -0.002636 0.019239 -0.000261 0.006234 0.003496 -0.000120
# 3 -0.004540 -0.000261 0.012573 0.001876 0.004049 -0.001905
# 4 -0.001385 0.006234 0.001876 0.030198 0.004422 0.001277
# 5 0.000660 0.003496 0.004049 0.004422 0.036924 0.001661
# 6 -0.002552 -0.000120 -0.001905 0.001277 0.001661 0.033196
#
#
# Mechanical properties :
#
#
# Convention : Reuss Voigt Hill
#
# Bulk Modulus (GPa) = 36.66300 51.83607 44.24953
# Shear Modulus (GPa) = 30.04223 33.50446 31.77335
#
# Velocity S-wave (km/s) = 3.57659 3.77706 3.67819
# Velocity P-wave (km/s) = 5.71551 6.41041 6.07291
#
# Compressibility (1/GPa) = 0.02727546
#
# Stress axis : x y z
#
# Youngs Moduli (GPa) = 96.73173 51.97879 79.53858
#
# Poissons Ratio (x) = 0.13701 0.36107
# Poissons Ratio (y) = 0.25498 0.02078
# Poissons Ratio (z) = 0.43912 0.01358
#
# Static dielectric constant tensor:
#      x y z
#    x 1.955970 -0.125150 -0.014070 
#    y -0.125150 1.989580 0.027270 
#    z -0.014070 0.027270 1.960120 
# 
# From -- ./inp_files/371357.got.cif
#   From: 2010.05.17/outbox.cif.g08.bks.cpg/sg2_186_cif.got.tgz:371357.got - 2010.06.03 11:33:40.
