data_PCOD9096678
_publ_section_title
;
Structure prediction by ZEFSAII (Michael W. Deem and Ramdas Pophale) SiO2 
 PCOD9096678
Probable space group: P -1
;
_chemical_formula_sum "Si O2"
_cell_formula_units_Z 14
_cell_length_a 19.931485
_cell_length_b 15.475079
_cell_length_c 11.188897
_cell_angle_alpha 28.071940
_cell_angle_beta 149.416263
_cell_angle_gamma 154.058095
_cell_volume 671.244099
_symmetry_space_group_name_H-M "P -1"
_symmetry_group_IT_number 2
_symmetry_cell_setting 'triclinic'
loop_
_space_group_symop_operation_xyz
x,y,z
-x,-y,-z
loop_
_atom_site_type_symbol
_atom_site_label
_atom_site_fract_x
_atom_site_fract_y
_atom_site_fract_z
Si Si1 0.837504 0.893639 0.224385
Si Si2 0.448999 0.145903 0.304068
Si Si3 0.189729 0.294410 0.327999
Si Si4 0.226606 0.525819 0.501128
Si Si5 0.498197 0.918046 0.288375
Si Si6 0.909027 0.396392 0.114803
Si Si7 0.372811 0.134411 0.687465
O O1 0.808337 0.825666 0.401460
O O2 0.834745 0.702813 0.380780
O O3 0.690182 0.883801 0.953188
O O4 0.013677 0.126440 0.202720
O O5 0.620807 0.396185 0.273538
O O6 0.392569 0.047770 0.471987
O O7 0.500000 0.000000 0.500000
O O8 0.322336 0.299034 0.444256
O O9 0.190680 0.505926 0.114466
O O10 0.322443 0.730700 0.303276
O O11 0.059889 0.488999 0.325615
O O12 0.542110 0.822174 0.362926
O O13 0.484571 0.113924 0.979372
O O14 0.789939 0.125027 0.255452
O O15 0.000000 0.500000 0.000000
#
# Coordination Sequence:
#
# PCOD9096678 Si02
#       7
#     2   2   2   2   2   2   2
#     4  11  19  34  57  90 112 147 200 243 284 331
#     4  10  20  36  57  84 118 152 197 238 288 348
#     4  11  22  32  62  92 113 151 198 241 288 347
#     4  10  20  36  59  88 111 153 193 243 288 337
#     4   9  22  36  59  82 122 159 182 241 303 337
#     4  12  18  36  61  85 115 147 199 247 278 333
#     4  11  20  40  57  85 125 153 189 240 296 346
#
# _framework density 20.856794000000001
#
# number of rings (size 3 to 8) (size 9 to 14) (size 15 to 20)
#    0.857    0.571    4.286    3.000    0.000    0.000 
#    0.000    8.571    0.000    1.714    0.000    0.000 
#    0.000    0.000    0.000    0.000    0.000    0.000 
#
# Total GULP energy -78021.978411 kJ/mol
# GULP energy per Si atom -5572.998458 kJ/mol
# Density = 2.080932 g / cm^3
# Si number density = 20.856794 Si / 1000 Ang^3
#
#
#
# Elastic Constant Matrix: (Units=GPa)
#
#
# Indices 1 2 3 4 5 6 
#
# 1 54.5080 13.2154 31.5941 3.7837 21.2504 -5.3521
# 2 13.2154 98.4909 22.2450 25.9195 -7.5244 -0.3576
# 3 31.5941 22.2450 114.9399 33.3615 18.6877 -7.0656
# 4 3.7837 25.9195 33.3615 44.3777 -6.7966 6.0958
# 5 21.2504 -7.5244 18.6877 -6.7966 26.1620 -4.7143
# 6 -5.3521 -0.3576 -7.0656 6.0958 -4.7143 26.9009
#
#
#
# Elastic Compliance Matrix: (Units=1/GPa)
#
#
# Indices 1 2 3 4 5 6 
#
# 1 0.031214 -0.005009 -0.003130 -0.001340 -0.024672 0.001301
# 2 -0.005009 0.013039 -0.000389 -0.006079 0.006814 0.001646
# 3 -0.003130 -0.000389 0.015819 -0.013813 -0.011625 0.004620
# 4 -0.001340 -0.006079 -0.013813 0.040716 0.017973 -0.010052
# 5 -0.024672 0.006814 -0.011625 0.017973 0.073361 0.000912
# 6 0.001301 0.001646 0.004620 -0.010052 0.000912 0.041105
#
#
# Mechanical properties :
#
#
# Convention : Reuss Voigt Hill
#
# Bulk Modulus (GPa) = 23.24679 44.67198 33.95939
# Shear Modulus (GPa) = 20.27157 32.88040 26.57599
#
# Velocity S-wave (km/s) = 3.12098 3.97480 3.57348
# Velocity P-wave (km/s) = 4.91502 6.52153 5.77442
#
# Compressibility (1/GPa) = 0.04301669
#
# Stress axis : x y z
#
# Youngs Moduli (GPa) = 32.03675 76.69008 63.21372
#
# Poissons Ratio (x) = 0.38412 0.19788
# Poissons Ratio (y) = 0.16047 0.02460
# Poissons Ratio (z) = 0.10028 0.02984
#
# Static dielectric constant tensor:
#      x y z
#    x 1.742940 -0.005560 0.015200 
#    y -0.005560 1.893560 0.134140 
#    z 0.015200 0.134140 1.937860 
# 
# From -- ./inp_files/471503.got.cif
#   From: 2010.05.17/outbox.cif.g08.bks.cpg/sg2_236_cif.got.tgz:471503.got - 2010.06.03 11:33:40.
