data_PCOD9096163
_publ_section_title
;
Structure prediction by ZEFSAII (Michael W. Deem and Ramdas Pophale) SiO2 
 PCOD9096163
Probable space group: P -1
;
_chemical_formula_sum "Si O2"
_cell_formula_units_Z 16
_cell_length_a 8.762091
_cell_length_b 15.390260
_cell_length_c 9.656433
_cell_angle_alpha 114.298666
_cell_angle_beta 50.623671
_cell_angle_gamma 144.610090
_cell_volume 566.465844
_symmetry_space_group_name_H-M "P -1"
_symmetry_group_IT_number 2
_symmetry_cell_setting 'triclinic'
loop_
_space_group_symop_operation_xyz
x,y,z
-x,-y,-z
loop_
_atom_site_type_symbol
_atom_site_label
_atom_site_fract_x
_atom_site_fract_y
_atom_site_fract_z
Si Si1 0.941972 0.323399 0.424418
Si Si2 0.403002 0.062671 0.742278
Si Si3 0.471994 0.374776 0.251405
Si Si4 0.306291 0.245200 0.995728
Si Si5 0.153561 0.559891 0.661838
Si Si6 0.690936 0.159564 0.928265
Si Si7 0.754114 0.743433 0.253649
Si Si8 0.828218 0.924651 0.696044
O O1 0.604844 0.142983 0.537147
O O2 0.933526 0.366091 0.301970
O O3 0.259420 0.387507 0.339386
O O4 0.931137 0.406577 0.596765
O O5 0.328492 0.142104 0.887582
O O6 0.630942 0.121258 0.775943
O O7 0.064547 0.879268 0.827466
O O8 0.567281 0.372996 0.042900
O O9 0.751553 0.458812 0.258722
O O10 0.188139 0.192426 0.339030
O O11 0.364065 0.322786 0.873753
O O12 0.496613 0.678026 0.467001
O O13 0.538366 0.186798 0.123995
O O14 0.058974 0.278326 0.818461
O O15 0.500000 0.000000 0.000000
O O16 0.980865 0.923991 0.225325
O O17 0.000000 0.000000 0.500000
#
# Coordination Sequence:
#
# PCOD9096163 Si02
#       8
#     2   2   2   2   2   2   2   2
#     4  11  27  46  74  96 130 194 240 270 344 407
#     4  11  20  41  66  97 134 180 223 270 341 421
#     4  12  25  42  69 105 139 168 228 296 343 403
#     4  11  22  38  65  97 140 164 214 288 352 399
#     4  11  25  50  71  92 141 186 239 284 324 414
#     4  10  20  35  62  98 136 184 221 259 354 418
#     4  11  21  43  69  94 137 188 220 274 352 414
#     4  11  21  36  64 106 144 166 220 289 345 404
#
# _framework density 28.245307
#
# number of rings (size 3 to 8) (size 9 to 14) (size 15 to 20)
#    0.000    1.000    6.250    1.875    1.750    1.500 
#    0.000    1.250    2.750    0.000    0.000    0.000 
#    0.000    0.000    0.000    0.000    0.000    0.000 
#
# Total GULP energy -89263.771250 kJ/mol
# GULP energy per Si atom -5578.985703 kJ/mol
# Density = 2.818102 g / cm^3
# Si number density = 28.245307 Si / 1000 Ang^3
#
#
#
# Elastic Constant Matrix: (Units=GPa)
#
#
# Indices 1 2 3 4 5 6 
#
# 1 233.7527 25.8683 52.5869 -3.4124 23.4590 3.4532
# 2 25.8683 58.5824 -2.5942 -12.8424 -7.3102 -6.5460
# 3 52.5869 -2.5942 59.9924 2.9976 -16.2116 2.9524
# 4 -3.4124 -12.8424 2.9976 33.1132 8.3822 -5.9353
# 5 23.4590 -7.3102 -16.2116 8.3822 64.2399 0.3254
# 6 3.4532 -6.5460 2.9524 -5.9353 0.3254 51.8859
#
#
#
# Elastic Compliance Matrix: (Units=1/GPa)
#
#
# Indices 1 2 3 4 5 6 
#
# 1 0.006958 -0.003831 -0.007672 0.001144 -0.005061 -0.000347
# 2 -0.003831 0.021425 0.004879 0.007047 0.004131 0.003461
# 3 -0.007672 0.004879 0.026740 -0.004185 0.010656 -0.000941
# 4 0.001144 0.007047 -0.004185 0.035712 -0.005358 0.005170
# 5 -0.005061 0.004131 0.010656 -0.005358 0.021276 -0.000495
# 6 -0.000347 0.003461 -0.000941 0.005170 -0.000495 0.020381
#
#
# Mechanical properties :
#
#
# Convention : Reuss Voigt Hill
#
# Bulk Modulus (GPa) = 23.88157 56.00549 39.94353
# Shear Modulus (GPa) = 31.30907 48.27890 39.79399
#
# Velocity S-wave (km/s) = 3.33298 4.13882 3.75756
# Velocity P-wave (km/s) = 4.82546 6.53537 5.74440
#
# Compressibility (1/GPa) = 0.04187329
#
# Stress axis : x y z
#
# Youngs Moduli (GPa) = 143.72533 46.67435 37.39753
#
# Poissons Ratio (x) = 0.17883 0.28692
# Poissons Ratio (y) = 0.55068 -0.18246
# Poissons Ratio (z) = 1.10268 -0.22772
#
# Static dielectric constant tensor:
#      x y z
#    x 2.362960 0.045600 0.006980 
#    y 0.045600 2.325650 0.111860 
#    z 0.006980 0.111860 2.474150 
# 
# From -- ./inp_files/397542.got.cif
#   From: 2010.05.17/outbox.cif.g08.bks.cpg/sg2_199_cif.got.tgz:397542.got - 2010.06.03 11:33:40.
