data_PCOD9096814
_publ_section_title
;
Structure prediction by ZEFSAII (Michael W. Deem and Ramdas Pophale) SiO2 
 PCOD9096814
Probable space group: P -1
;
_chemical_formula_sum "Si O2"
_cell_formula_units_Z 16
_cell_length_a 8.082133
_cell_length_b 8.364415
_cell_length_c 18.771752
_cell_angle_alpha 82.720801
_cell_angle_beta 150.302344
_cell_angle_gamma 103.508396
_cell_volume 603.609356
_symmetry_space_group_name_H-M "P -1"
_symmetry_group_IT_number 2
_symmetry_cell_setting 'triclinic'
loop_
_space_group_symop_operation_xyz
x,y,z
-x,-y,-z
loop_
_atom_site_type_symbol
_atom_site_label
_atom_site_fract_x
_atom_site_fract_y
_atom_site_fract_z
Si Si1 0.873298 0.328072 0.554985
Si Si2 0.085534 0.657595 0.703780
Si Si3 0.536512 0.495582 0.698139
Si Si4 0.385509 0.918712 0.037538
Si Si5 0.890838 0.003903 0.352099
Si Si6 0.842544 0.722856 0.917071
Si Si7 0.503729 0.689576 0.995531
Si Si8 0.250931 0.810547 0.207390
O O1 0.921898 0.463797 0.630918
O O2 0.191747 0.405142 0.617047
O O3 0.890624 0.134100 0.574881
O O4 0.543685 0.360485 0.388829
O O5 0.466921 0.700533 0.808919
O O6 0.186251 0.692264 0.822697
O O7 0.922256 0.798492 0.597410
O O8 0.798310 0.576051 0.853148
O O9 0.653792 0.348723 0.712102
O O10 0.635321 0.989786 0.190052
O O11 0.445273 0.738037 0.051429
O O12 0.992180 0.889487 0.917255
O O13 0.500000 0.000000 0.000000
O O14 0.622323 0.946422 0.322567
O O15 0.115330 0.750746 0.080594
O O16 0.500000 0.500000 0.000000
O O17 0.879874 0.802585 0.105959
#
# Coordination Sequence:
#
# PCOD9096814 Si02
#       8
#     2   2   2   2   2   2   2   2
#     4   9  19  34  57  83 110 148 193 229 275 326
#     4  10  20  36  58  83 115 151 185 230 281 334
#     4   9  16  34  54  83 112 142 186 236 273 329
#     4  11  21  33  54  83 113 144 180 231 288 334
#     4  10  20  37  58  82 116 150 184 234 281 334
#     4   9  19  32  56  82 112 145 181 228 287 335
#     4  11  21  33  54  86 114 144 186 232 284 342
#     4   9  19  32  57  84 114 143 184 230 289 338
#
# _framework density 26.507210000000001
#
# number of rings (size 3 to 8) (size 9 to 14) (size 15 to 20)
#    0.000    2.250    1.250    1.875    1.750    5.500 
#    0.000   10.000    0.000    7.500    0.000    0.000 
#    0.000    0.000    0.000    0.000    0.000    0.000 
#
# Total GULP energy -89157.547906 kJ/mol
# GULP energy per Si atom -5572.346744 kJ/mol
# Density = 2.644688 g / cm^3
# Si number density = 26.507210 Si / 1000 Ang^3
#
#
#
# Elastic Constant Matrix: (Units=GPa)
#
#
# Indices 1 2 3 4 5 6 
#
# 1 56.7981 -0.8071 28.0068 18.7696 9.6568 3.0775
# 2 -0.8071 109.0088 19.2543 -15.2030 4.1684 -3.1211
# 3 28.0068 19.2543 53.0078 6.8628 4.4411 -4.9929
# 4 18.7696 -15.2030 6.8628 22.7029 -1.4098 -13.7076
# 5 9.6568 4.1684 4.4411 -1.4098 18.9974 5.4433
# 6 3.0775 -3.1211 -4.9929 -13.7076 5.4433 30.7725
#
#
#
# Elastic Compliance Matrix: (Units=1/GPa)
#
#
# Indices 1 2 3 4 5 6 
#
# 1 0.052183 -0.005194 -0.019506 -0.062103 -0.015754 -0.033788
# 2 -0.005194 0.012910 -0.003512 0.020245 -0.000857 0.010429
# 3 -0.019506 -0.003512 0.029899 0.011725 0.001289 0.011440
# 4 -0.062103 0.020245 0.011725 0.151718 0.014081 0.075259
# 5 -0.015754 -0.000857 0.001289 0.014081 0.062460 -0.003078
# 6 -0.033788 0.010429 0.011440 0.075259 -0.003078 0.072858
#
#
# Mechanical properties :
#
#
# Convention : Reuss Voigt Hill
#
# Bulk Modulus (GPa) = 25.92948 34.63586 30.28267
# Shear Modulus (GPa) = 11.07888 25.98528 18.53208
#
# Velocity S-wave (km/s) = 2.04662 3.13439 2.64698
# Velocity P-wave (km/s) = 3.92277 5.11802 4.55973
#
# Compressibility (1/GPa) = 0.03856615
#
# Stress axis : x y z
#
# Youngs Moduli (GPa) = 19.16349 77.45745 33.44631
#
# Poissons Ratio (x) = 0.40235 0.65241
# Poissons Ratio (y) = 0.09954 0.11746
# Poissons Ratio (z) = 0.37381 0.27203
#
# Static dielectric constant tensor:
#      x y z
#    x 2.169340 0.035020 0.018270 
#    y 0.035020 2.377850 -0.081770 
#    z 0.018270 -0.081770 2.083440 
# 
# From -- ./inp_files/406645.got.cif
#   From: 2010.05.17/outbox.cif.g08.bks.cpg/sg2_204_cif.got.tgz:406645.got - 2010.06.03 11:33:40.
