data_PCOD9096907
_publ_section_title
;
Structure prediction by ZEFSAII (Michael W. Deem and Ramdas Pophale) SiO2 
 PCOD9096907
Probable space group: P -1
;
_chemical_formula_sum "Si O2"
_cell_formula_units_Z 16
_cell_length_a 17.334810
_cell_length_b 18.561352
_cell_length_c 13.421063
_cell_angle_alpha 30.113910
_cell_angle_beta 133.040674
_cell_angle_gamma 155.702529
_cell_volume 765.295714
_symmetry_space_group_name_H-M "P -1"
_symmetry_group_IT_number 2
_symmetry_cell_setting 'triclinic'
loop_
_space_group_symop_operation_xyz
x,y,z
-x,-y,-z
loop_
_atom_site_type_symbol
_atom_site_label
_atom_site_fract_x
_atom_site_fract_y
_atom_site_fract_z
Si Si1 0.119852 0.765278 0.184325
Si Si2 0.538817 0.781228 0.397064
Si Si3 0.425894 0.221276 0.092789
Si Si4 0.249537 0.302411 0.888529
Si Si5 0.472393 0.981263 0.216758
Si Si6 0.638764 0.298507 0.351609
Si Si7 0.499341 0.307494 0.757583
Si Si8 0.235743 0.221241 0.420223
O O1 0.211817 0.714234 0.303117
O O2 0.864997 0.487765 0.298582
O O3 0.243272 0.960146 0.162216
O O4 0.241082 0.002519 0.921844
O O5 0.374459 0.507665 0.655012
O O6 0.549797 0.955417 0.237871
O O7 0.459037 0.678939 0.335798
O O8 0.752045 0.933463 0.407981
O O9 0.500100 0.178039 0.277862
O O10 0.332640 0.240259 0.054604
O O11 0.634203 0.535878 0.841050
O O12 0.291812 0.467751 0.814344
O O13 0.000000 0.000000 0.000000
O O14 0.497377 0.947897 0.388938
O O15 0.574928 0.256169 0.950097
O O16 0.621511 0.583140 0.587855
O O17 0.000000 0.000000 0.500000
#
# Coordination Sequence:
#
# PCOD9096907 Si02
#       8
#     2   2   2   2   2   2   2   2
#     4   9  20  36  57  83 119 149 202 237 285 353
#     4  10  20  37  62  84 114 160 191 243 297 347
#     4  10  21  37  57  89 120 153 193 249 291 348
#     4  10  20  36  58  87 122 151 198 245 291 356
#     4   9  21  37  59  85 120 152 200 245 286 360
#     4  11  20  35  62  85 118 160 195 239 305 344
#     4   9  20  38  59  85 113 151 201 239 293 348
#     4  10  22  37  57  86 120 148 201 244 291 355
#
# _framework density 20.906949999999998
#
# number of rings (size 3 to 8) (size 9 to 14) (size 15 to 20)
#    0.750    1.500    1.250    1.500    1.750    1.500 
#    0.000    0.625    2.750    0.000    0.000    0.000 
#    0.000    0.000    0.000    0.000    0.000    0.000 
#
# Total GULP energy -89217.541944 kJ/mol
# GULP energy per Si atom -5576.096372 kJ/mol
# Density = 2.085936 g / cm^3
# Si number density = 20.906950 Si / 1000 Ang^3
#
#
#
# Elastic Constant Matrix: (Units=GPa)
#
#
# Indices 1 2 3 4 5 6 
#
# 1 135.5978 30.6945 15.9468 4.4604 16.5360 16.3250
# 2 30.6945 72.2492 14.5594 5.2769 -4.7958 15.5566
# 3 15.9468 14.5594 37.0133 10.8973 9.1567 5.1673
# 4 4.4604 5.2769 10.8973 28.3050 3.0358 -1.9075
# 5 16.5360 -4.7958 9.1567 3.0358 29.1597 6.8537
# 6 16.3250 15.5566 5.1673 -1.9075 6.8537 36.6858
#
#
#
# Elastic Compliance Matrix: (Units=1/GPa)
#
#
# Indices 1 2 3 4 5 6 
#
# 1 0.009130 -0.003726 -0.001035 0.000115 -0.005156 -0.001368
# 2 -0.003726 0.019087 -0.006603 -0.001915 0.009249 -0.007333
# 3 -0.001035 -0.006603 0.036086 -0.011399 -0.010539 -0.000446
# 4 0.000115 -0.001915 -0.011399 0.040620 -0.002178 0.004885
# 5 -0.005156 0.009249 -0.010539 -0.002178 0.044280 -0.008529
# 6 -0.001368 -0.007333 -0.000446 0.004885 -0.008529 0.032887
#
#
# Mechanical properties :
#
#
# Convention : Reuss Voigt Hill
#
# Bulk Modulus (GPa) = 24.05356 40.80687 32.43021
# Shear Modulus (GPa) = 22.86481 31.07407 26.96944
#
# Velocity S-wave (km/s) = 3.31062 3.85944 3.59552
# Velocity P-wave (km/s) = 5.11308 6.27862 5.72559
#
# Compressibility (1/GPa) = 0.04157390
#
# Stress axis : x y z
#
# Youngs Moduli (GPa) = 109.53453 52.39036 27.71136
#
# Poissons Ratio (x) = 0.19522 0.02869
# Poissons Ratio (y) = 0.40815 0.18298
# Poissons Ratio (z) = 0.11340 0.34595
#
# Static dielectric constant tensor:
#      x y z
#    x 1.784580 0.024480 0.031450 
#    y 0.024480 1.748150 0.051530 
#    z 0.031450 0.051530 1.847180 
# 
# From -- ./inp_files/539187.got.cif
#   From: 2010.05.17/outbox.cif.g08.bks.cpg/sg2_270_cif.got.tgz:539187.got - 2010.06.03 11:33:40.
