data_PCOD9096591
_publ_section_title
;
Structure prediction by ZEFSAII (Michael W. Deem and Ramdas Pophale) SiO2 
 PCOD9096591
Probable space group: P -1
;
_chemical_formula_sum "Si O2"
_cell_formula_units_Z 16
_cell_length_a 9.496825
_cell_length_b 10.912611
_cell_length_c 8.704248
_cell_angle_alpha 112.416828
_cell_angle_beta 98.544801
_cell_angle_gamma 72.927115
_cell_volume 796.467419
_symmetry_space_group_name_H-M "P -1"
_symmetry_group_IT_number 2
_symmetry_cell_setting 'triclinic'
loop_
_space_group_symop_operation_xyz
x,y,z
-x,-y,-z
loop_
_atom_site_type_symbol
_atom_site_label
_atom_site_fract_x
_atom_site_fract_y
_atom_site_fract_z
Si Si1 0.174111 0.441742 0.001192
Si Si2 0.842497 0.075893 0.438345
Si Si3 0.360474 0.617099 0.971252
Si Si4 0.979403 0.726931 0.541410
Si Si5 0.853313 0.569647 0.665740
Si Si6 0.272041 0.162897 0.688877
Si Si7 0.402332 0.469249 0.606531
Si Si8 0.423116 0.801526 0.311589
O O1 0.229263 0.566262 0.000613
O O2 0.234001 0.304742 0.845714
O O3 0.220829 0.408956 0.169919
O O4 0.000000 0.500000 0.000000
O O5 0.719020 0.132114 0.576053
O O6 0.890485 0.195469 0.409511
O O7 0.778395 0.959388 0.291495
O O8 0.000000 0.000000 0.500000
O O9 0.359415 0.595247 0.779007
O O10 0.500000 0.500000 0.000000
O O11 0.372293 0.757378 0.116790
O O12 0.937227 0.682448 0.681457
O O13 0.832037 0.808482 0.466426
O O14 0.037216 0.582297 0.392364
O O15 0.738169 0.565119 0.510098
O O16 0.445298 0.125456 0.659505
O O17 0.500000 0.500000 0.500000
O O18 0.493806 0.337326 0.651211
#
# Coordination Sequence:
#
# PCOD9096591 Si02
#       8
#     2   2   2   2   2   2   2   2
#     4  12  22  36  60  91 127 157 200 249 305 360
#     4  10  23  39  63  88 117 164 214 251 294 363
#     4  10  20  36  56  88 125 149 197 249 300 360
#     4  10  20  39  57  91 122 155 205 247 303 364
#     4  11  21  34  63  90 127 157 191 256 313 352
#     4  11  21  40  61  88 121 164 210 245 295 366
#     4  11  21  34  59  94 128 156 187 246 321 366
#     4  11  21  40  60  87 124 156 210 253 297 362
#
# _framework density 20.088705999999998
#
# number of rings (size 3 to 8) (size 9 to 14) (size 15 to 20)
#    0.000    1.250    5.000    3.375    3.500    0.000 
#    0.000    0.625    0.000    5.250    0.000    0.000 
#    0.000    0.000    0.000    0.000    0.000    0.000 
#
# Total GULP energy -89249.025591 kJ/mol
# GULP energy per Si atom -5578.064099 kJ/mol
# Density = 2.004298 g / cm^3
# Si number density = 20.088706 Si / 1000 Ang^3
#
#
#
# Elastic Constant Matrix: (Units=GPa)
#
#
# Indices 1 2 3 4 5 6 
#
# 1 156.2423 33.7820 30.8253 8.3838 3.4313 21.8000
# 2 33.7820 59.4986 26.7189 4.1410 4.7286 24.4439
# 3 30.8253 26.7189 80.2295 -6.1516 0.7000 3.5722
# 4 8.3838 4.1410 -6.1516 24.1580 6.0511 -2.6586
# 5 3.4313 4.7286 0.7000 6.0511 23.5549 3.6348
# 6 21.8000 24.4439 3.5722 -2.6586 3.6348 49.3669
#
#
#
# Elastic Compliance Matrix: (Units=1/GPa)
#
#
# Indices 1 2 3 4 5 6 
#
# 1 0.007865 -0.002166 -0.002458 -0.003408 0.000616 -0.002451
# 2 -0.002166 0.027401 -0.008279 -0.007103 -0.001216 -0.012305
# 3 -0.002458 -0.008279 0.016531 0.007226 -0.001014 0.004453
# 4 -0.003408 -0.007103 0.007226 0.049599 -0.012280 0.008074
# 5 0.000616 -0.001216 -0.001014 -0.012280 0.046360 -0.003671
# 6 -0.002451 -0.012305 0.004453 0.008074 -0.003671 0.027815
#
#
# Mechanical properties :
#
#
# Convention : Reuss Voigt Hill
#
# Bulk Modulus (GPa) = 38.47685 53.18032 45.82859
# Shear Modulus (GPa) = 23.80488 33.05890 28.43189
#
# Velocity S-wave (km/s) = 3.44610 4.06106 3.76615
# Velocity P-wave (km/s) = 5.91855 6.96562 6.46332
#
# Compressibility (1/GPa) = 0.02598965
#
# Stress axis : x y z
#
# Youngs Moduli (GPa) = 127.14473 36.49444 60.49422
#
# Poissons Ratio (x) = 0.07906 0.14869
# Poissons Ratio (y) = 0.27545 0.50085
# Poissons Ratio (z) = 0.31251 0.30215
#
# Static dielectric constant tensor:
#      x y z
#    x 1.742710 0.010580 0.018360 
#    y 0.010580 1.746340 -0.003840 
#    z 0.018360 -0.003840 1.754400 
# 
# From -- ./inp_files/182682.got.cif
#   From: 2010.05.17/outbox.cif.g08.bks.cpg/sg2_92_cif.got.tgz:182682.got - 2010.06.03 11:33:40.
