data_PCOD9096057
_publ_section_title
;
Structure prediction by ZEFSAII (Michael W. Deem and Ramdas Pophale) SiO2 
 PCOD9096057
Probable space group: P -1
;
_chemical_formula_sum "Si O2"
_cell_formula_units_Z 16
_cell_length_a 8.349868
_cell_length_b 6.495376
_cell_length_c 24.281815
_cell_angle_alpha 50.102735
_cell_angle_beta 130.516219
_cell_angle_gamma 130.157676
_cell_volume 706.861505
_symmetry_space_group_name_H-M "P -1"
_symmetry_group_IT_number 2
_symmetry_cell_setting 'triclinic'
loop_
_space_group_symop_operation_xyz
x,y,z
-x,-y,-z
loop_
_atom_site_type_symbol
_atom_site_label
_atom_site_fract_x
_atom_site_fract_y
_atom_site_fract_z
Si Si1 0.294093 0.633841 0.385568
Si Si2 0.433278 0.075684 0.252883
Si Si3 0.175757 0.792837 0.817815
Si Si4 0.179958 0.832742 0.126135
Si Si5 0.178453 0.295254 0.517861
Si Si6 0.573917 0.586204 0.939759
Si Si7 0.073972 0.936464 0.653459
Si Si8 0.490042 0.721107 0.125882
O O1 0.192007 0.567902 0.435915
O O2 0.560741 0.679398 0.435364
O O3 0.144789 0.339620 0.369230
O O4 0.299600 0.914321 0.305495
O O5 0.694776 0.103737 0.307051
O O6 0.445378 0.399913 0.193753
O O7 0.299522 0.872491 0.206521
O O8 0.388225 0.716963 0.855819
O O9 0.081466 0.918083 0.724218
O O10 0.018966 0.480730 0.860008
O O11 0.266428 0.037816 0.842951
O O12 0.316225 0.813349 0.105448
O O13 0.179312 0.154498 0.060798
O O14 0.105251 0.232963 0.576251
O O15 0.000000 0.000000 0.500000
O O16 0.545046 0.319760 0.939758
O O17 0.500000 0.500000 0.000000
#
# Coordination Sequence:
#
# PCOD9096057 Si02
#       8
#     2   2   2   2   2   2   2   2
#     4   9  16  27  51  80 111 147 190 234 278 331
#     4  10  18  33  55  80 113 147 187 233 280 329
#     4  11  21  36  58  86 114 148 189 235 281 333
#     4  10  21  36  57  86 113 144 188 229 280 339
#     4   8  16  27  45  81 111 147 191 228 278 333
#     4  10  23  43  61  81 116 150 182 230 283 337
#     4  10  16  30  53  79 111 145 189 236 279 328
#     4  10  21  37  56  85 113 147 187 231 281 334
#
# _framework density 22.635270999999999
#
# number of rings (size 3 to 8) (size 9 to 14) (size 15 to 20)
#    0.000    2.250    5.000    0.000    0.000    5.500 
#    0.000    1.250    0.000    0.750    0.000   13.125 
#    0.000    0.000    0.000    0.000    0.000    0.000 
#
# Total GULP energy -89080.245928 kJ/mol
# GULP energy per Si atom -5567.515370 kJ/mol
# Density = 2.258375 g / cm^3
# Si number density = 22.635271 Si / 1000 Ang^3
#
#
#
# Elastic Constant Matrix: (Units=GPa)
#
#
# Indices 1 2 3 4 5 6 
#
# 1 49.8780 42.3981 29.3457 4.2434 -22.8225 9.4486
# 2 42.3981 155.8524 49.4102 -0.2272 -23.2192 23.7278
# 3 29.3457 49.4102 114.8842 -9.9116 -40.8517 11.0514
# 4 4.2434 -0.2272 -9.9116 37.8421 14.0351 -8.9273
# 5 -22.8225 -23.2192 -40.8517 14.0351 36.9895 -7.0760
# 6 9.4486 23.7278 11.0514 -8.9273 -7.0760 39.6679
#
#
#
# Elastic Compliance Matrix: (Units=1/GPa)
#
#
# Indices 1 2 3 4 5 6 
#
# 1 0.038768 -0.006417 0.001273 -0.014758 0.026051 -0.004425
# 2 -0.006417 0.009297 -0.002605 -0.000158 -0.001636 -0.003634
# 3 0.001273 -0.002605 0.015378 -0.002571 0.016999 -0.000575
# 4 -0.014758 -0.000158 -0.002571 0.038738 -0.025104 0.008566
# 5 0.026051 -0.001636 0.016999 -0.025104 0.069775 -0.003166
# 6 -0.004425 -0.003634 -0.000575 0.008566 -0.003166 0.029961
#
#
# Mechanical properties :
#
#
# Convention : Reuss Voigt Hill
#
# Bulk Modulus (GPa) = 20.85701 62.54698 41.70199
# Shear Modulus (GPa) = 21.42269 36.19729 28.80999
#
# Velocity S-wave (km/s) = 3.07975 4.00328 3.57149
# Velocity P-wave (km/s) = 4.67770 7.00435 5.95574
#
# Compressibility (1/GPa) = 0.04794551
#
# Stress axis : x y z
#
# Youngs Moduli (GPa) = 25.79415 107.55852 65.02789
#
# Poissons Ratio (x) = 0.69018 -0.08277
# Poissons Ratio (y) = 0.16552 0.16941
# Poissons Ratio (z) = -0.03283 0.28021
#
# Static dielectric constant tensor:
#      x y z
#    x 1.869910 0.074040 0.005090 
#    y 0.074040 1.877500 0.011840 
#    z 0.005090 0.011840 1.981060 
# 
# From -- ./inp_files/51441.got.cif
#   From: 2010.05.17/outbox.cif.g08.bks.cpg/sg2_26_cif.got.tgz:51441.got - 2010.06.03 11:33:40.
