data_PCOD9096206
_publ_section_title
;
Structure prediction by ZEFSAII (Michael W. Deem and Ramdas Pophale) SiO2 
 PCOD9096206
Probable space group: P -1
;
_chemical_formula_sum "Si O2"
_cell_formula_units_Z 16
_cell_length_a 12.132517
_cell_length_b 14.769665
_cell_length_c 13.681463
_cell_angle_alpha 53.739630
_cell_angle_beta 107.077386
_cell_angle_gamma 151.884637
_cell_volume 745.246979
_symmetry_space_group_name_H-M "P -1"
_symmetry_group_IT_number 2
_symmetry_cell_setting 'triclinic'
loop_
_space_group_symop_operation_xyz
x,y,z
-x,-y,-z
loop_
_atom_site_type_symbol
_atom_site_label
_atom_site_fract_x
_atom_site_fract_y
_atom_site_fract_z
Si Si1 0.650899 0.675526 0.599855
Si Si2 0.601028 0.435698 0.997170
Si Si3 0.380741 0.618340 0.244804
Si Si4 0.157510 0.867190 0.188581
Si Si5 0.285790 0.228018 0.241695
Si Si6 0.754948 0.320664 0.976242
Si Si7 0.821655 0.624636 0.452056
Si Si8 0.059449 0.726984 0.046210
O O1 0.584997 0.484615 0.694466
O O2 0.541705 0.629046 0.703691
O O3 0.484850 0.598129 0.523876
O O4 0.000000 0.000000 0.500000
O O5 0.484550 0.377589 0.106502
O O6 0.320135 0.135379 0.058744
O O7 0.774549 0.692504 0.829298
O O8 0.809375 0.523436 0.031554
O O9 0.216924 0.534451 0.165728
O O10 0.228439 0.496355 0.388578
O O11 0.691966 0.957995 0.110393
O O12 0.993600 0.721165 0.343699
O O13 0.964681 0.665534 0.172388
O O14 0.440795 0.041311 0.128200
O O15 0.012023 0.901089 0.364541
O O16 0.798761 0.266981 0.937215
O O17 0.000000 0.500000 0.000000
#
# Coordination Sequence:
#
# PCOD9096206 Si02
#       8
#     2   2   2   2   2   2   2   2
#     4  12  24  38  62  92 134 171 209 248 324 382
#     4  10  20  35  63  91 124 169 207 262 310 378
#     4  11  24  41  64  97 127 170 216 262 321 379
#     4  10  21  41  64  91 127 167 210 262 319 375
#     4  10  21  37  58  93 130 165 212 250 321 380
#     4  11  23  44  69  96 122 165 222 271 314 375
#     4  11  24  42  61  93 136 168 207 261 322 388
#     4  11  22  40  67  88 125 162 221 263 317 362
#
# _framework density 21.469391999999999
#
# number of rings (size 3 to 8) (size 9 to 14) (size 15 to 20)
#    0.000    1.250    2.500    4.875    1.750    0.000 
#    0.000   10.000    0.000    0.000    0.000    0.000 
#    0.000    0.000    0.000    0.000    0.000    0.000 
#
# Total GULP energy -89157.997899 kJ/mol
# GULP energy per Si atom -5572.374869 kJ/mol
# Density = 2.142053 g / cm^3
# Si number density = 21.469392 Si / 1000 Ang^3
#
#
#
# Elastic Constant Matrix: (Units=GPa)
#
#
# Indices 1 2 3 4 5 6 
#
# 1 106.7264 13.0196 22.2412 12.5065 -18.8975 -6.3685
# 2 13.0196 87.3900 17.9789 31.3866 -2.0042 1.0382
# 3 22.2412 17.9789 79.2489 21.8205 -22.0009 -3.3096
# 4 12.5065 31.3866 21.8205 29.8010 -6.4236 0.4192
# 5 -18.8975 -2.0042 -22.0009 -6.4236 26.6879 8.4590
# 6 -6.3685 1.0382 -3.3096 0.4192 8.4590 45.4680
#
#
#
# Elastic Compliance Matrix: (Units=1/GPa)
#
#
# Indices 1 2 3 4 5 6 
#
# 1 0.011009 -0.000606 -0.000463 -0.002192 0.006750 0.000287
# 2 -0.000606 0.018775 0.000644 -0.020776 -0.003615 0.000397
# 3 -0.000463 0.000644 0.019521 -0.011903 0.013271 -0.001018
# 4 -0.002192 -0.020776 -0.011903 0.065866 0.003552 -0.001967
# 5 0.006750 -0.003615 0.013271 0.003552 0.056483 -0.008547
# 6 0.000287 0.000397 -0.001018 -0.001967 -0.008547 0.023559
#
#
# Mechanical properties :
#
#
# Convention : Reuss Voigt Hill
#
# Bulk Modulus (GPa) = 20.63728 42.20496 31.42112
# Shear Modulus (GPa) = 23.56100 35.06642 29.31371
#
# Velocity S-wave (km/s) = 3.31633 4.04582 3.69910
# Velocity P-wave (km/s) = 4.92924 6.44405 5.73686
#
# Compressibility (1/GPa) = 0.04845600
#
# Stress axis : x y z
#
# Youngs Moduli (GPa) = 90.83207 53.26263 51.22569
#
# Poissons Ratio (x) = 0.03230 0.02371
# Poissons Ratio (y) = 0.05508 -0.03301
# Poissons Ratio (z) = 0.04203 -0.03432
#
# Static dielectric constant tensor:
#      x y z
#    x 1.863060 -0.026900 -0.040240 
#    y -0.026900 1.816010 0.040230 
#    z -0.040240 0.040230 1.807540 
# 
# From -- ./inp_files/522351.got.cif
#   From: 2010.05.17/outbox.cif.g08.bks.cpg/sg2_262_cif.got.tgz:522351.got - 2010.06.03 11:33:40.
