data_PCOD9096113
_publ_section_title
;
Structure prediction by ZEFSAII (Michael W. Deem and Ramdas Pophale) SiO2 
 PCOD9096113
Probable space group: P -1
;
_chemical_formula_sum "Si O2"
_cell_formula_units_Z 15
_cell_length_a 9.680133
_cell_length_b 12.869826
_cell_length_c 8.097012
_cell_angle_alpha 57.843222
_cell_angle_beta 123.861053
_cell_angle_gamma 84.308737
_cell_volume 586.129535
_symmetry_space_group_name_H-M "P -1"
_symmetry_group_IT_number 2
_symmetry_cell_setting 'triclinic'
loop_
_space_group_symop_operation_xyz
x,y,z
-x,-y,-z
loop_
_atom_site_type_symbol
_atom_site_label
_atom_site_fract_x
_atom_site_fract_y
_atom_site_fract_z
Si Si1 0.677416 0.272797 0.735114
Si Si2 0.792071 0.488124 0.189679
Si Si3 0.000000 0.500000 0.000000
Si Si4 0.479628 0.579962 0.151065
Si Si5 0.825631 0.828942 0.598483
Si Si6 0.084025 0.986468 0.310714
Si Si7 0.431313 0.907863 0.377856
Si Si8 0.861371 0.823943 0.264073
O O1 0.613110 0.420700 0.469041
O O2 0.634047 0.305008 0.873494
O O3 0.542129 0.217179 0.625661
O O4 0.907666 0.137265 0.971966
O O5 0.631473 0.597861 0.126735
O O6 0.874085 0.541770 0.056471
O O7 0.987628 0.349140 0.526119
O O8 0.671630 0.428866 0.063473
O O9 0.006687 0.345272 0.122839
O O10 0.890011 0.941737 0.571173
O O11 0.648689 0.875177 0.571141
O O12 0.753596 0.840707 0.352435
O O13 0.298578 0.902417 0.436089
O O14 0.000009 0.885424 0.341847
O O15 0.295117 0.068341 0.066268
#
# Coordination Sequence:
#
# PCOD9096113 Si02
#       8
#     2   2   1   2   2   2   2   2
#     4  10  20  37  61  91 123 156 199 254 301 351
#     4  10  20  38  61  91 120 157 201 248 296 355
#     4  10  22  38  58  84 122 154 188 244 302 348
#     4  10  20  35  62  90 118 157 207 246 292 355
#     4  11  23  40  60  86 120 158 197 244 300 357
#     4  11  22  39  63  87 116 158 202 246 296 355
#     4  11  22  38  60  88 121 155 196 248 303 355
#     4  10  21  39  61  86 118 153 195 247 299 351
#
# _framework density 25.591614
#
# number of rings (size 3 to 8) (size 9 to 14) (size 15 to 20)
#    0.000    1.600    0.000    6.800    0.000    3.200 
#    0.000    4.000    0.000   13.600    0.000    0.000 
#    0.000    0.000    0.000    0.000    0.000    0.000 
#
# Total GULP energy -83673.881957 kJ/mol
# GULP energy per Si atom -5578.258797 kJ/mol
# Density = 2.553337 g / cm^3
# Si number density = 25.591614 Si / 1000 Ang^3
#
#
#
# Elastic Constant Matrix: (Units=GPa)
#
#
# Indices 1 2 3 4 5 6 
#
# 1 154.7925 32.1577 14.6419 -19.4832 -4.1787 -12.0875
# 2 32.1577 61.0773 5.1519 1.8406 -0.4479 -12.1553
# 3 14.6419 5.1519 62.6183 -21.2580 -0.2740 -10.6191
# 4 -19.4832 1.8406 -21.2580 27.5133 -1.8797 -2.2264
# 5 -4.1787 -0.4479 -0.2740 -1.8797 20.7941 5.5516
# 6 -12.0875 -12.1553 -10.6191 -2.2264 5.5516 27.3886
#
#
#
# Elastic Compliance Matrix: (Units=1/GPa)
#
#
# Indices 1 2 3 4 5 6 
#
# 1 0.008428 -0.004243 0.001462 0.007710 0.001596 0.002707
# 2 -0.004243 0.020182 -0.001204 -0.004921 -0.002684 0.006762
# 3 0.001462 -0.001204 0.024914 0.021265 -0.000583 0.011617
# 4 0.007710 -0.004921 0.021265 0.059907 0.003502 0.013623
# 5 0.001596 -0.002684 -0.000583 0.003502 0.051567 -0.010881
# 6 0.002707 0.006762 0.011617 0.013623 -0.010881 0.048524
#
#
# Mechanical properties :
#
#
# Convention : Reuss Voigt Hill
#
# Bulk Modulus (GPa) = 21.95204 42.48789 32.21996
# Shear Modulus (GPa) = 21.12571 30.24165 25.68368
#
# Velocity S-wave (km/s) = 2.87626 3.44132 3.17140
# Velocity P-wave (km/s) = 4.43023 5.69461 5.10174
#
# Compressibility (1/GPa) = 0.04555385
#
# Stress axis : x y z
#
# Youngs Moduli (GPa) = 118.64848 49.54794 40.13813
#
# Poissons Ratio (x) = 0.21022 -0.05867
# Poissons Ratio (y) = 0.50340 0.04833
# Poissons Ratio (z) = -0.17341 0.05966
#
# Static dielectric constant tensor:
#      x y z
#    x 1.978590 -0.015090 0.026370 
#    y -0.015090 2.031490 0.030920 
#    z 0.026370 0.030920 2.024960 
# 
# From -- ./inp_files/199861.got.cif
#   From: 2010.05.17/outbox.cif.g08.bks.cpg/sg2_100_cif.got.tgz:199861.got - 2010.06.03 11:33:40.
