data_PCOD9096817
_publ_section_title
;
Structure prediction by ZEFSAII (Michael W. Deem and Ramdas Pophale) SiO2 
 PCOD9096817
Probable space group: P -1
;
_chemical_formula_sum "Si O2"
_cell_formula_units_Z 16
_cell_length_a 9.809118
_cell_length_b 14.420077
_cell_length_c 7.354231
_cell_angle_alpha 80.637296
_cell_angle_beta 134.646973
_cell_angle_gamma 75.705982
_cell_volume 626.122765
_symmetry_space_group_name_H-M "P -1"
_symmetry_group_IT_number 2
_symmetry_cell_setting 'triclinic'
loop_
_space_group_symop_operation_xyz
x,y,z
-x,-y,-z
loop_
_atom_site_type_symbol
_atom_site_label
_atom_site_fract_x
_atom_site_fract_y
_atom_site_fract_z
Si Si1 0.408855 0.877966 0.569229
Si Si2 0.304560 0.751262 0.258667
Si Si3 0.160305 0.191616 0.512827
Si Si4 0.775845 0.178833 0.251135
Si Si5 0.192653 0.109503 0.168437
Si Si6 0.311400 0.337144 0.761157
Si Si7 0.806095 0.407719 0.921644
Si Si8 0.947914 0.552290 0.168018
O O1 0.457815 0.773073 0.527294
O O2 0.280957 0.886722 0.633249
O O3 0.640419 0.875384 0.807385
O O4 0.255335 0.984608 0.268896
O O5 0.252625 0.818516 0.997548
O O6 0.363013 0.627956 0.303739
O O7 0.068239 0.807213 0.125639
O O8 0.243319 0.128921 0.419847
O O9 0.325835 0.226836 0.736353
O O10 0.033555 0.145606 0.528356
O O11 0.946134 0.310826 0.226153
O O12 0.564185 0.302266 0.054964
O O13 0.151940 0.375674 0.772125
O O14 0.180382 0.438961 0.469980
O O15 0.774249 0.515689 0.953150
O O16 0.982250 0.391721 0.935274
#
# Coordination Sequence:
#
# PCOD9096817 Si02
#       8
#     2   2   2   2   2   2   2   2
#     4  11  22  38  64  90 114 158 200 235 290 356
#     4  10  22  41  60  86 126 154 191 243 295 347
#     4   9  20  38  58  82 123 152 187 245 293 345
#     4  10  23  37  58  90 118 149 200 242 286 349
#     4   9  21  40  60  89 121 150 196 243 283 350
#     4  10  20  36  58  83 116 154 192 241 292 345
#     4   8  17  35  57  81 111 153 190 233 292 343
#     4   9  18  34  59  84 112 153 198 236 293 349
#
# _framework density 25.554093000000002
#
# number of rings (size 3 to 8) (size 9 to 14) (size 15 to 20)
#    0.000    2.750    0.000    1.125    5.250    2.000 
#    2.250   18.125    0.000    0.000    0.000    0.000 
#    0.000    0.000    0.000    0.000    0.000    0.000 
#
# Total GULP energy -89280.767929 kJ/mol
# GULP energy per Si atom -5580.047996 kJ/mol
# Density = 2.549593 g / cm^3
# Si number density = 25.554093 Si / 1000 Ang^3
#
#
#
# Elastic Constant Matrix: (Units=GPa)
#
#
# Indices 1 2 3 4 5 6 
#
# 1 130.6264 18.0499 -5.6761 7.9133 0.3028 27.0419
# 2 18.0499 103.8959 13.4148 8.4074 -4.3702 8.5053
# 3 -5.6761 13.4148 53.6263 4.3049 6.7560 17.1292
# 4 7.9133 8.4074 4.3049 24.0064 -3.8619 -1.9175
# 5 0.3028 -4.3702 6.7560 -3.8619 30.9232 -2.3252
# 6 27.0419 8.5053 17.1292 -1.9175 -2.3252 35.9535
#
#
#
# Elastic Compliance Matrix: (Units=1/GPa)
#
#
# Indices 1 2 3 4 5 6 
#
# 1 0.010716 -0.001401 0.005823 -0.005460 -0.003084 -0.010993
# 2 -0.001401 0.010509 -0.002765 -0.002445 0.001788 -0.000130
# 3 0.005823 -0.002765 0.027480 -0.008735 -0.008885 -0.017858
# 4 -0.005460 -0.002445 -0.008735 0.048207 0.008537 0.011970
# 5 -0.003084 0.001788 -0.008885 0.008537 0.036300 0.008932
# 6 -0.010993 -0.000130 -0.017858 0.011970 0.008932 0.045837
#
#
# Mechanical properties :
#
#
# Convention : Reuss Voigt Hill
#
# Bulk Modulus (GPa) = 19.22394 37.74731 28.48563
# Shear Modulus (GPa) = 25.89658 35.66727 30.78193
#
# Velocity S-wave (km/s) = 3.18685 3.74003 3.47447
# Velocity P-wave (km/s) = 4.59135 5.78395 5.22181
#
# Compressibility (1/GPa) = 0.05201847
#
# Stress axis : x y z
#
# Youngs Moduli (GPa) = 93.32105 95.15491 36.38964
#
# Poissons Ratio (x) = 0.13336 -0.21189
# Poissons Ratio (y) = 0.13079 0.10061
# Poissons Ratio (z) = -0.54340 0.26308
#
# Static dielectric constant tensor:
#      x y z
#    x 1.988680 0.049770 -0.012680 
#    y 0.049770 2.076580 0.048620 
#    z -0.012680 0.048620 2.074260 
# 
# From -- ./inp_files/201086.got.cif
#   From: 2010.05.17/outbox.cif.g08.bks.cpg/sg2_101_cif.got.tgz:201086.got - 2010.06.03 11:33:40.
