data_PCOD9096935
_publ_section_title
;
Structure prediction by ZEFSAII (Michael W. Deem and Ramdas Pophale) SiO2 
 PCOD9096935
Probable space group: P -1
;
_chemical_formula_sum "Si O2"
_cell_formula_units_Z 15
_cell_length_a 8.197317
_cell_length_b 14.375353
_cell_length_c 7.064361
_cell_angle_alpha 73.727237
_cell_angle_beta 124.015714
_cell_angle_gamma 84.144458
_cell_volume 626.360559
_symmetry_space_group_name_H-M "P -1"
_symmetry_group_IT_number 2
_symmetry_cell_setting 'triclinic'
loop_
_space_group_symop_operation_xyz
x,y,z
-x,-y,-z
loop_
_atom_site_type_symbol
_atom_site_label
_atom_site_fract_x
_atom_site_fract_y
_atom_site_fract_z
Si Si1 0.376832 0.556800 0.632031
Si Si2 0.861224 0.675798 0.990933
Si Si3 0.250361 0.845095 0.855156
Si Si4 0.631973 0.239438 0.407525
Si Si5 0.591909 0.085507 0.747259
Si Si6 0.000000 0.500000 0.500000
Si Si7 0.171600 0.103829 0.237568
Si Si8 0.261121 0.618469 0.092048
O O1 0.286085 0.664839 0.619295
O O2 0.243068 0.483284 0.620318
O O3 0.353551 0.595479 0.377740
O O4 0.610634 0.485212 0.872965
O O5 0.936116 0.599084 0.255454
O O6 0.016649 0.630066 0.940492
O O7 0.616657 0.704080 0.786417
O O8 0.892752 0.786123 0.970613
O O9 0.290426 0.844167 0.658849
O O10 0.019318 0.900545 0.754062
O O11 0.398892 0.895283 0.035452
O O12 0.292082 0.723704 0.988911
O O13 0.671388 0.175431 0.661657
O O14 0.366426 0.098138 0.505629
O O15 0.747080 0.981692 0.820757
#
# Coordination Sequence:
#
# PCOD9096935 Si02
#       8
#     2   2   2   2   2   1   2   2
#     4  10  20  38  58  88 123 167 206 264 308 381
#     4   9  20  38  59  92 123 162 210 261 308 387
#     4  11  21  39  62  98 124 170 213 262 319 387
#     4  11  23  39  64  96 128 163 217 256 326 378
#     4  10  21  44  66  91 133 168 207 278 305 381
#     4  10  20  36  58  88 126 160 210 260 320 360
#     4   9  21  42  66  92 127 172 217 251 333 376
#     4   9  19  37  60  82 123 167 212 248 326 368
#
# _framework density 23.947869000000001
#
# number of rings (size 3 to 8) (size 9 to 14) (size 15 to 20)
#    0.000    2.133    1.333    1.200    0.000    3.200 
#    7.200    8.667    0.000    0.000    0.000    0.000 
#    0.000    0.000    0.000    0.000    0.000    0.000 
#
# Total GULP energy -83550.870832 kJ/mol
# GULP energy per Si atom -5570.058055 kJ/mol
# Density = 2.389336 g / cm^3
# Si number density = 23.947869 Si / 1000 Ang^3
#
#
#
# Elastic Constant Matrix: (Units=GPa)
#
#
# Indices 1 2 3 4 5 6 
#
# 1 44.5500 7.3821 8.7753 -7.3039 15.6032 -4.3473
# 2 7.3821 75.3563 6.9765 -1.5755 1.4304 -20.5578
# 3 8.7753 6.9765 35.3463 -10.5777 6.1461 -10.3576
# 4 -7.3039 -1.5755 -10.5777 36.5964 -8.6221 -3.7404
# 5 15.6032 1.4304 6.1461 -8.6221 26.0034 0.8506
# 6 -4.3473 -20.5578 -10.3576 -3.7404 0.8506 36.3578
#
#
#
# Elastic Compliance Matrix: (Units=1/GPa)
#
#
# Indices 1 2 3 4 5 6 
#
# 1 0.029559 -0.001660 -0.003101 0.001256 -0.016569 0.002229
# 2 -0.001660 0.015889 0.000301 0.001414 0.000225 0.009011
# 3 -0.003101 0.000301 0.035916 0.010048 -0.003678 0.011151
# 4 0.001256 0.001414 0.010048 0.033031 0.007516 0.007034
# 5 -0.016569 0.000225 -0.003678 0.007516 0.051857 -0.003342
# 6 0.002229 0.009011 0.011151 0.007034 -0.003342 0.036845
#
#
# Mechanical properties :
#
#
# Convention : Reuss Voigt Hill
#
# Bulk Modulus (GPa) = 13.80373 22.39116 18.09744
# Shear Modulus (GPa) = 21.17174 28.59943 24.88559
#
# Velocity S-wave (km/s) = 2.97657 3.45952 3.22709
# Velocity P-wave (km/s) = 4.19403 5.03269 4.63238
#
# Compressibility (1/GPa) = 0.07244418
#
# Stress axis : x y z
#
# Youngs Moduli (GPa) = 33.83050 62.93791 27.84272
#
# Poissons Ratio (x) = 0.10445 0.08633
# Poissons Ratio (y) = 0.05615 -0.00837
# Poissons Ratio (z) = 0.10490 -0.01891
#
# Static dielectric constant tensor:
#      x y z
#    x 1.952140 -0.025420 0.027770 
#    y -0.025420 1.931430 0.029820 
#    z 0.027770 0.029820 1.923990 
# 
# From -- ./inp_files/196386.got.cif
#   From: 2010.05.17/outbox.cif.g08.bks.cpg/sg2_99_cif.got.tgz:196386.got - 2010.06.03 11:33:40.
