data_PCOD9096531
_publ_section_title
;
Structure prediction by ZEFSAII (Michael W. Deem and Ramdas Pophale) SiO2 
 PCOD9096531
Probable space group: P -1
;
_chemical_formula_sum "Si O2"
_cell_formula_units_Z 16
_cell_length_a 16.760647
_cell_length_b 14.135109
_cell_length_c 7.888491
_cell_angle_alpha 58.795474
_cell_angle_beta 39.087869
_cell_angle_gamma 39.239169
_cell_volume 729.034756
_symmetry_space_group_name_H-M "P -1"
_symmetry_group_IT_number 2
_symmetry_cell_setting 'triclinic'
loop_
_space_group_symop_operation_xyz
x,y,z
-x,-y,-z
loop_
_atom_site_type_symbol
_atom_site_label
_atom_site_fract_x
_atom_site_fract_y
_atom_site_fract_z
Si Si1 0.189921 0.434595 0.694953
Si Si2 0.480462 0.386911 0.803663
Si Si3 0.208916 0.672302 0.526141
Si Si4 0.621331 0.835844 0.151866
Si Si5 0.772210 0.280415 0.187611
Si Si6 0.002101 0.847269 0.360359
Si Si7 0.615346 0.083666 0.835073
Si Si8 0.020380 0.392116 0.430858
O O1 0.222988 0.531516 0.641010
O O2 0.341397 0.256287 0.655110
O O3 0.148874 0.491253 0.517927
O O4 0.000000 0.500000 0.000000
O O5 0.599706 0.386686 0.735164
O O6 0.593129 0.327727 0.496412
O O7 0.301016 0.556480 0.908137
O O8 0.490817 0.253238 0.956267
O O9 0.131118 0.759322 0.755097
O O10 0.100625 0.770987 0.447273
O O11 0.457242 0.904206 0.242441
O O12 0.793983 0.699963 0.883858
O O13 0.621339 0.968408 0.042858
O O14 0.879574 0.164893 0.963909
O O15 0.965618 0.747871 0.429335
O O16 0.812240 0.010502 0.561461
O O17 0.000000 0.500000 0.500000
#
# Coordination Sequence:
#
# PCOD9096531 Si02
#       8
#     2   2   2   2   2   2   2   2
#     4   9  17  31  56  84 106 143 181 232 281 322
#     4   9  20  36  59  82 111 148 187 234 282 335
#     4   9  19  36  55  85 114 140 188 238 278 325
#     4   9  19  34  58  76 116 154 175 229 282 339
#     4   9  20  37  59  85 103 148 192 236 275 327
#     4  10  21  35  56  83 115 145 187 230 280 339
#     4  10  20  36  56  82 115 154 184 218 294 334
#     4   9  19  31  54  89 106 137 191 236 273 327
#
# _framework density 21.946828
#
# number of rings (size 3 to 8) (size 9 to 14) (size 15 to 20)
#    0.750    2.000    0.000    1.500    5.250    1.500 
#    0.000    0.000    2.750    2.250    0.000    0.000 
#    0.000    0.000    0.000    0.000    0.000    0.000 
#
# Total GULP energy -89135.874868 kJ/mol
# GULP energy per Si atom -5570.992179 kJ/mol
# Density = 2.189688 g / cm^3
# Si number density = 21.946828 Si / 1000 Ang^3
#
#
#
# Elastic Constant Matrix: (Units=GPa)
#
#
# Indices 1 2 3 4 5 6 
#
# 1 78.2816 25.8606 8.0862 0.4631 -8.5684 -9.3636
# 2 25.8606 117.8579 9.7728 -12.6501 4.7984 -9.3941
# 3 8.0862 9.7728 39.1902 11.6440 5.0371 -6.0923
# 4 0.4631 -12.6501 11.6440 19.9193 -0.2670 -7.1034
# 5 -8.5684 4.7984 5.0371 -0.2670 13.2207 -4.6502
# 6 -9.3636 -9.3941 -6.0923 -7.1034 -4.6502 35.9466
#
#
#
# Elastic Compliance Matrix: (Units=1/GPa)
#
#
# Indices 1 2 3 4 5 6 
#
# 1 0.016614 -0.003260 -0.004460 0.002199 0.015509 0.005161
# 2 -0.003260 0.011084 -0.004398 0.010716 -0.003185 0.003008
# 3 -0.004460 -0.004398 0.036816 -0.025629 -0.017012 -0.003337
# 4 0.002199 0.010716 -0.025629 0.077956 0.014617 0.016325
# 5 0.015509 -0.003185 -0.017012 0.014617 0.099270 0.016055
# 6 0.005161 0.003008 -0.003337 0.016325 0.016055 0.034687
#
#
# Mechanical properties :
#
#
# Convention : Reuss Voigt Hill
#
# Bulk Modulus (GPa) = 24.82687 35.86322 30.34504
# Shear Modulus (GPa) = 15.91906 26.59134 21.25520
#
# Velocity S-wave (km/s) = 2.69615 3.48462 3.11543
# Velocity P-wave (km/s) = 4.58575 5.70671 5.17666
#
# Compressibility (1/GPa) = 0.04027895
#
# Stress axis : x y z
#
# Youngs Moduli (GPa) = 60.19097 90.21702 27.16203
#
# Poissons Ratio (x) = 0.29408 0.12113
# Poissons Ratio (y) = 0.19621 0.11947
# Poissons Ratio (z) = 0.26842 0.39681
#
# Static dielectric constant tensor:
#      x y z
#    x 1.810010 -0.024490 0.020930 
#    y -0.024490 1.940620 -0.141280 
#    z 0.020930 -0.141280 1.924200 
# 
# From -- ./inp_files/334770.got.cif
#   From: 2010.05.17/outbox.cif.g08.bks.cpg/sg2_168_cif.got.tgz:334770.got - 2010.06.03 11:33:40.
