data_PCOD9096932
_publ_section_title
;
Structure prediction by ZEFSAII (Michael W. Deem and Ramdas Pophale) SiO2 
 PCOD9096932
Probable space group: P -1
;
_chemical_formula_sum "Si O2"
_cell_formula_units_Z 16
_cell_length_a 13.937654
_cell_length_b 14.496789
_cell_length_c 14.841268
_cell_angle_alpha 144.544241
_cell_angle_beta 30.302495
_cell_angle_gamma 124.844567
_cell_volume 783.467060
_symmetry_space_group_name_H-M "P -1"
_symmetry_group_IT_number 2
_symmetry_cell_setting 'triclinic'
loop_
_space_group_symop_operation_xyz
x,y,z
-x,-y,-z
loop_
_atom_site_type_symbol
_atom_site_label
_atom_site_fract_x
_atom_site_fract_y
_atom_site_fract_z
Si Si1 0.770293 0.575473 0.014567
Si Si2 0.222472 0.731026 0.135473
Si Si3 0.488654 0.474164 0.592328
Si Si4 0.717719 0.512442 0.809169
Si Si5 0.747378 0.673743 0.578519
Si Si6 0.807728 0.757989 0.797358
Si Si7 0.737786 0.922924 0.640326
Si Si8 0.536570 0.854899 0.577621
O O1 0.645164 0.752549 0.315794
O O2 0.694958 0.421721 0.976501
O O3 0.757827 0.600601 0.937785
O O4 0.017470 0.471750 0.758891
O O5 0.970425 0.850234 0.439570
O O6 0.323199 0.867984 0.153656
O O7 0.255429 0.610382 0.924238
O O8 0.500000 0.500000 0.500000
O O9 0.629874 0.551304 0.589260
O O10 0.544222 0.276959 0.416594
O O11 0.724375 0.629596 0.812409
O O12 0.934545 0.327021 0.470864
O O13 0.500000 0.500000 0.000000
O O14 0.771034 0.759907 0.721098
O O15 0.641311 0.825042 0.707871
O O16 0.662694 0.951236 0.110471
O O17 0.705119 0.866783 0.521574
#
# Coordination Sequence:
#
# PCOD9096932 Si02
#       8
#     2   2   2   2   2   2   2   2
#     4   9  22  41  61  89 121 160 205 252 319 361
#     4   9  21  35  56  85 124 165 207 237 297 366
#     4  11  22  33  52  85 129 169 195 236 301 354
#     4  10  23  46  72  88 116 159 207 265 324 370
#     4  10  21  39  60  85 127 171 200 245 300 369
#     4  10  24  44  67  93 118 157 214 261 308 371
#     4  10  20  36  58  88 125 164 204 247 284 365
#     4  11  23  37  60  91 128 156 203 251 301 365
#
# _framework density 20.422046000000002
#
# number of rings (size 3 to 8) (size 9 to 14) (size 15 to 20)
#    0.000    2.000    1.250    0.750    8.750    3.000 
#    2.250    0.625    0.000    0.000    0.000    0.000 
#    0.000    0.000    0.000    0.000    0.000    0.000 
#
# Total GULP energy -89073.337542 kJ/mol
# GULP energy per Si atom -5567.083596 kJ/mol
# Density = 2.037556 g / cm^3
# Si number density = 20.422046 Si / 1000 Ang^3
#
#
#
# Elastic Constant Matrix: (Units=GPa)
#
#
# Indices 1 2 3 4 5 6 
#
# 1 46.6027 10.5120 29.5850 6.2394 9.8499 -7.3857
# 2 10.5120 76.4892 30.6329 6.1497 -4.9023 6.3504
# 3 29.5850 30.6329 138.5996 13.1680 0.7550 -1.2058
# 4 6.2394 6.1497 13.1680 35.4256 0.4643 5.5121
# 5 9.8499 -4.9023 0.7550 0.4643 23.5052 -13.8373
# 6 -7.3857 6.3504 -1.2058 5.5121 -13.8373 28.9214
#
#
#
# Elastic Compliance Matrix: (Units=1/GPa)
#
#
# Indices 1 2 3 4 5 6 
#
# 1 0.028376 -0.002532 -0.005126 -0.003023 -0.010285 0.003244
# 2 -0.002532 0.014969 -0.002732 -0.000773 0.002771 -0.002575
# 3 -0.005126 -0.002732 0.009120 -0.002195 0.001923 0.001009
# 4 -0.003023 -0.000773 -0.002195 0.031150 -0.004653 -0.008857
# 5 -0.010285 0.002771 0.001923 -0.004653 0.064213 0.028454
# 6 0.003244 -0.002575 0.001009 -0.008857 0.028454 0.051314
#
#
# Mechanical properties :
#
#
# Convention : Reuss Voigt Hill
#
# Bulk Modulus (GPa) = 31.56109 44.79463 38.17786
# Shear Modulus (GPa) = 21.69348 30.30120 25.99734
#
# Velocity S-wave (km/s) = 3.26277 3.85613 3.57179
# Velocity P-wave (km/s) = 5.44813 6.46594 5.97873
#
# Compressibility (1/GPa) = 0.03168459
#
# Stress axis : x y z
#
# Youngs Moduli (GPa) = 35.24109 66.80315 109.65061
#
# Poissons Ratio (x) = 0.16917 0.56206
# Poissons Ratio (y) = 0.08924 0.29957
# Poissons Ratio (z) = 0.18064 0.18251
#
# Static dielectric constant tensor:
#      x y z
#    x 1.744820 -0.004730 -0.023940 
#    y -0.004730 1.837240 -0.062530 
#    z -0.023940 -0.062530 1.806790 
# 
# From -- ./inp_files/315753.got.cif
#   From: 2010.05.17/outbox.cif.g08.bks.cpg/sg2_158_cif.got.tgz:315753.got - 2010.06.03 11:33:40.
