data_PCOD9096861
_publ_section_title
;
Structure prediction by ZEFSAII (Michael W. Deem and Ramdas Pophale) SiO2 
 PCOD9096861
Probable space group: P -1
;
_chemical_formula_sum "Si O2"
_cell_formula_units_Z 10
_cell_length_a 6.953796
_cell_length_b 7.668243
_cell_length_c 7.516820
_cell_angle_alpha 92.602157
_cell_angle_beta 55.676927
_cell_angle_gamma 86.922788
_cell_volume 329.155967
_symmetry_space_group_name_H-M "P -1"
_symmetry_group_IT_number 2
_symmetry_cell_setting 'triclinic'
loop_
_space_group_symop_operation_xyz
x,y,z
-x,-y,-z
loop_
_atom_site_type_symbol
_atom_site_label
_atom_site_fract_x
_atom_site_fract_y
_atom_site_fract_z
Si Si1 0.714701 0.024713 0.023634
Si Si2 0.999725 0.357900 0.844902
Si Si3 0.429197 0.244731 0.423772
Si Si4 0.996221 0.817947 0.606840
Si Si5 0.329906 0.519012 0.266357
O O1 0.596723 0.075417 0.278125
O O2 0.834725 0.201085 0.927555
O O3 0.500000 0.000000 0.000000
O O4 0.914415 0.872029 0.853348
O O5 0.916710 0.469776 0.718992
O O6 0.258671 0.261709 0.677371
O O7 0.000000 0.500000 0.000000
O O8 0.232557 0.261123 0.361219
O O9 0.507258 0.425838 0.320586
O O10 0.240611 0.703585 0.434993
O O11 0.000000 0.000000 0.500000
O O12 0.500000 0.500000 0.000000
#
# Coordination Sequence:
#
# PCOD9096861 Si02
#       5
#     2   2   2   2   2
#     4  10  20  35  59  91 114 155 202 245 284 353
#     4  11  22  37  60  92 122 151 195 250 298 348
#     4  10  20  36  61  85 117 155 203 240 289 350
#     4  10  16  30  56  86 112 143 200 248 274 335
#     4  11  20  37  59  91 115 157 204 241 285 357
#
# _framework density 30.380735000000001
#
# number of rings (size 3 to 8) (size 9 to 14) (size 15 to 20)
#    0.000    1.600    6.000    2.400    0.000    0.800 
#    0.000    0.000    0.000   12.000    0.000    1.400 
#    0.000    0.000    0.000    0.000    0.000    0.000 
#
# Total GULP energy -55759.549733 kJ/mol
# GULP energy per Si atom -5575.954973 kJ/mol
# Density = 3.031159 g / cm^3
# Si number density = 30.380735 Si / 1000 Ang^3
#
#
#
# Elastic Constant Matrix: (Units=GPa)
#
#
# Indices 1 2 3 4 5 6 
#
# 1 108.3325 61.4306 32.2199 6.7065 -29.4512 8.6143
# 2 61.4306 -17.0081 41.6063 37.1447 21.2205 -18.1127
# 3 32.2199 41.6063 306.4201 81.3711 -24.1655 -8.8179
# 4 6.7065 37.1447 81.3711 78.8209 -14.5902 -18.5055
# 5 -29.4512 21.2205 -24.1655 -14.5902 46.0467 13.2064
# 6 8.6143 -18.1127 -8.8179 -18.5055 13.2064 64.1903
#
#
#
# Elastic Compliance Matrix: (Units=1/GPa)
#
#
# Indices 1 2 3 4 5 6 
#
# 1 0.005134 0.007127 -0.000783 -0.003131 -0.001587 0.000639
# 2 0.007127 -0.007424 -0.000091 0.003949 0.010346 -0.004054
# 3 -0.000783 -0.000091 0.004652 -0.004749 0.000706 -0.000796
# 4 -0.003131 0.003949 -0.004749 0.016974 -0.002756 0.006343
# 5 -0.001587 0.010346 0.000706 -0.002756 0.015657 -0.000786
# 6 0.000639 -0.004054 -0.000796 0.006343 -0.000786 0.016230
#
#
# Mechanical properties :
#
#
# Convention : Reuss Voigt Hill
#
# Bulk Modulus (GPa) = 67.25316 74.25089 70.75202
# Shear Modulus (GPa) = 114.49024 55.31076 84.90050
#
# Velocity S-wave (km/s) = 6.14548 4.27146 5.29209
# Velocity P-wave (km/s) = 8.51709 6.98716 7.78977
#
# Compressibility (1/GPa) = 0.01486919
#
# Stress axis : x y z
#
# Youngs Moduli (GPa) = 194.79605 -134.70029 214.95426
#
# Poissons Ratio (x) = 0.96006 0.16827
# Poissons Ratio (y) = -1.38839 0.01953
# Poissons Ratio (z) = 0.15249 -0.01224
#
# Static dielectric constant tensor:
#      x y z
#    x 2.443120 0.268330 0.093740 
#    y 0.268330 2.158150 0.178220 
#    z 0.093740 0.178220 2.456930 
# 
# From -- ./inp_files/159459.got.cif
#   From: 2010.05.17/outbox.cif.g08.bks.cpg/sg2_80_cif.got.tgz:159459.got - 2010.06.03 11:33:40.
