data_PCOD9096484
_publ_section_title
;
Structure prediction by ZEFSAII (Michael W. Deem and Ramdas Pophale) SiO2 
 PCOD9096484
Probable space group: P -1
;
_chemical_formula_sum "Si O2"
_cell_formula_units_Z 16
_cell_length_a 23.752073
_cell_length_b 11.110126
_cell_length_c 11.964478
_cell_angle_alpha 24.895705
_cell_angle_beta 141.395341
_cell_angle_gamma 140.292871
_cell_volume 807.018570
_symmetry_space_group_name_H-M "P -1"
_symmetry_group_IT_number 2
_symmetry_cell_setting 'triclinic'
loop_
_space_group_symop_operation_xyz
x,y,z
-x,-y,-z
loop_
_atom_site_type_symbol
_atom_site_label
_atom_site_fract_x
_atom_site_fract_y
_atom_site_fract_z
Si Si1 0.814559 0.678092 0.607145
Si Si2 0.497616 0.301048 0.051587
Si Si3 0.932514 0.693995 0.185789
Si Si4 0.616904 0.333211 0.539085
Si Si5 0.310723 0.658051 0.609917
Si Si6 0.100058 0.639687 0.802781
Si Si7 0.927099 0.818256 0.451895
Si Si8 0.187244 0.085520 0.000505
O O1 0.706851 0.520371 0.583744
O O2 0.845563 0.660119 0.541085
O O3 0.842613 0.022246 0.392690
O O4 0.872870 0.512437 0.916350
O O5 0.599163 0.233971 0.263001
O O6 0.421952 0.995823 0.201701
O O7 0.500000 0.500000 0.000000
O O8 0.465118 0.493223 0.742954
O O9 0.882478 0.534498 0.132727
O O10 0.000000 0.500000 0.500000
O O11 0.861777 0.755950 0.116331
O O12 0.000000 0.000000 0.000000
O O13 0.651263 0.313362 0.481620
O O14 0.231339 0.840892 0.332333
O O15 0.267849 0.327493 0.861764
O O16 0.990108 0.632975 0.642285
O O17 0.886588 0.003835 0.140212
O O18 0.000000 0.000000 0.500000
#
# Coordination Sequence:
#
# PCOD9096484 Si02
#       8
#     2   2   2   2   2   2   2   2
#     4  11  23  37  60  89 118 156 197 241 294 361
#     4  10  20  36  55  87 125 163 182 233 299 371
#     4  12  25  43  62  82 115 161 215 251 292 337
#     4  11  20  35  60  87 125 158 190 230 304 369
#     4  11  22  36  57  88 124 150 197 238 295 360
#     4  11  24  41  57  82 119 160 203 250 286 338
#     4  10  23  37  58  84 124 157 197 235 300 345
#     4  12  24  38  60  88 115 165 199 246 292 342
#
# _framework density 19.826060999999999
#
# number of rings (size 3 to 8) (size 9 to 14) (size 15 to 20)
#    0.000    1.000    2.500    6.375    5.250    0.000 
#    0.000    0.000    0.000    0.000    0.000   17.500 
#    0.000    0.000    0.000    0.000    0.000    0.000 
#
# Total GULP energy -89384.559702 kJ/mol
# GULP energy per Si atom -5586.534981 kJ/mol
# Density = 1.978094 g / cm^3
# Si number density = 19.826061 Si / 1000 Ang^3
#
#
#
# Elastic Constant Matrix: (Units=GPa)
#
#
# Indices 1 2 3 4 5 6 
#
# 1 45.2624 21.6339 5.6042 8.3498 9.5732 -11.0916
# 2 21.6339 100.2894 36.0483 -5.9359 7.3944 5.3000
# 3 5.6042 36.0483 116.5804 -2.8371 12.5089 2.0505
# 4 8.3498 -5.9359 -2.8371 42.9329 12.6719 1.7967
# 5 9.5732 7.3944 12.5089 12.6719 24.3910 -0.5984
# 6 -11.0916 5.3000 2.0505 1.7967 -0.5984 21.2895
#
#
#
# Elastic Compliance Matrix: (Units=1/GPa)
#
#
# Indices 1 2 3 4 5 6 
#
# 1 0.033661 -0.008610 0.001354 -0.006246 -0.007563 0.019864
# 2 -0.008610 0.013843 -0.003482 0.004092 -0.001354 -0.007980
# 3 0.001354 -0.003482 0.010212 0.001543 -0.005508 0.000304
# 4 -0.006246 0.004092 0.001543 0.030016 -0.015356 -0.007386
# 5 -0.007563 -0.001354 -0.005508 -0.015356 0.055174 -0.000226
# 6 0.019864 -0.007980 0.000304 -0.007386 -0.000226 0.059895
#
#
# Mechanical properties :
#
#
# Convention : Reuss Voigt Hill
#
# Bulk Modulus (GPa) = 27.59191 43.18946 35.39068
# Shear Modulus (GPa) = 21.15447 30.97906 26.06676
#
# Velocity S-wave (km/s) = 3.27005 3.95719 3.62991
# Velocity P-wave (km/s) = 5.31082 6.53533 5.95464
#
# Compressibility (1/GPa) = 0.03624251
#
# Stress axis : x y z
#
# Youngs Moduli (GPa) = 29.70838 72.23607 97.92027
#
# Poissons Ratio (x) = 0.62193 -0.13261
# Poissons Ratio (y) = 0.25578 0.34091
# Poissons Ratio (z) = -0.04023 0.25149
#
# Static dielectric constant tensor:
#      x y z
#    x 1.717340 0.024230 0.029710 
#    y 0.024230 1.744740 0.005590 
#    z 0.029710 0.005590 1.724530 
# 
# From -- ./inp_files/474817.got.cif
#   From: 2010.05.17/outbox.cif.g08.bks.cpg/sg2_238_cif.got.tgz:474817.got - 2010.06.03 11:33:40.
