data_PCOD9096575
_publ_section_title
;
Structure prediction by ZEFSAII (Michael W. Deem and Ramdas Pophale) SiO2 
 PCOD9096575
Probable space group: P -1
;
_chemical_formula_sum "Si O2"
_cell_formula_units_Z 16
_cell_length_a 11.938869
_cell_length_b 8.233106
_cell_length_c 14.934025
_cell_angle_alpha 94.163188
_cell_angle_beta 33.277268
_cell_angle_gamma 84.687270
_cell_volume 771.155151
_symmetry_space_group_name_H-M "P -1"
_symmetry_group_IT_number 2
_symmetry_cell_setting 'triclinic'
loop_
_space_group_symop_operation_xyz
x,y,z
-x,-y,-z
loop_
_atom_site_type_symbol
_atom_site_label
_atom_site_fract_x
_atom_site_fract_y
_atom_site_fract_z
Si Si1 0.545281 0.236211 0.952801
Si Si2 0.216870 0.366501 0.462616
Si Si3 0.972377 0.231130 0.752336
Si Si4 0.056093 0.529914 0.065996
Si Si5 0.289033 0.549405 0.584716
Si Si6 0.549661 0.392157 0.773838
Si Si7 0.809675 0.135860 0.471563
Si Si8 0.250120 0.133605 0.267441
O O1 0.540233 0.371816 0.885223
O O2 0.733779 0.220336 0.897448
O O3 0.603328 0.055225 0.855278
O O4 0.329641 0.253250 0.150103
O O5 0.001999 0.359888 0.658286
O O6 0.336282 0.395594 0.474211
O O7 0.274903 0.510642 0.367893
O O8 0.263163 0.205798 0.360077
O O9 0.008149 0.289966 0.830672
O O10 0.138004 0.051113 0.611330
O O11 0.919136 0.436368 0.215089
O O12 0.000000 0.500000 0.000000
O O13 0.310643 0.476332 0.904065
O O14 0.500000 0.500000 0.500000
O O15 0.238282 0.723014 0.569011
O O16 0.619815 0.210171 0.670252
O O17 0.016201 0.133981 0.393381
#
# Coordination Sequence:
#
# PCOD9096575 Si02
#       8
#     2   2   2   2   2   2   2   2
#     4  10  21  35  56  87 121 155 192 241 291 345
#     4  10  21  35  56  84 114 153 191 235 284 340
#     4  10  22  40  60  84 118 156 195 236 289 349
#     4  11  23  41  61  85 116 151 192 244 293 339
#     4  10  22  41  62  86 115 149 195 243 288 341
#     4  11  22  36  59  88 119 153 195 239 290 341
#     4  10  21  39  62  86 116 156 194 234 288 351
#     4  10  20  36  56  85 123 155 191 238 292 347
#
# _framework density 20.748094999999999
#
# number of rings (size 3 to 8) (size 9 to 14) (size 15 to 20)
#    0.000    1.750    0.000    4.500    0.000    9.500 
#    0.000    8.750    0.000    0.000    0.000    0.000 
#    0.000    0.000    0.000    0.000    0.000    0.000 
#
# Total GULP energy -89113.208346 kJ/mol
# GULP energy per Si atom -5569.575522 kJ/mol
# Density = 2.070087 g / cm^3
# Si number density = 20.748095 Si / 1000 Ang^3
#
#
#
# Elastic Constant Matrix: (Units=GPa)
#
#
# Indices 1 2 3 4 5 6 
#
# 1 111.6921 50.1574 26.6689 18.6502 41.4773 20.6072
# 2 50.1574 74.2941 35.0095 10.2624 10.9457 12.4084
# 3 26.6689 35.0095 84.8282 12.9626 25.2890 5.4285
# 4 18.6502 10.2624 12.9626 37.2945 -0.5662 12.1365
# 5 41.4773 10.9457 25.2890 -0.5662 36.6451 5.1003
# 6 20.6072 12.4084 5.4285 12.1365 5.1003 29.1058
#
#
#
# Elastic Compliance Matrix: (Units=1/GPa)
#
#
# Indices 1 2 3 4 5 6 
#
# 1 0.031744 -0.018583 0.011370 -0.013907 -0.037850 -0.004242
# 2 -0.018583 0.028668 -0.013640 0.007681 0.022513 -0.003669
# 3 0.011370 -0.013640 0.022854 -0.011076 -0.025088 0.002517
# 4 -0.013907 0.007681 -0.011076 0.039780 0.023382 -0.012047
# 5 -0.037850 0.022513 -0.025088 0.023382 0.081377 -0.002130
# 6 -0.004242 -0.003669 0.002517 -0.012047 -0.002130 0.043852
#
#
# Mechanical properties :
#
#
# Convention : Reuss Voigt Hill
#
# Bulk Modulus (GPa) = 24.06107 54.94289 39.50198
# Shear Modulus (GPa) = 16.45631 31.20763 23.83197
#
# Velocity S-wave (km/s) = 2.81934 3.88251 3.39283
# Velocity P-wave (km/s) = 4.71383 6.82912 5.86758
#
# Compressibility (1/GPa) = 0.04156091
#
# Stress axis : x y z
#
# Youngs Moduli (GPa) = 31.50186 34.88176 43.75589
#
# Poissons Ratio (x) = 0.64821 -0.49751
# Poissons Ratio (y) = 0.58540 0.59682
# Poissons Ratio (z) = -0.35818 0.47578
#
# Static dielectric constant tensor:
#      x y z
#    x 1.728630 0.008400 0.026980 
#    y 0.008400 1.849380 -0.019450 
#    z 0.026980 -0.019450 1.758400 
# 
# From -- ./inp_files/515734.got.cif
#   From: 2010.05.17/outbox.cif.g08.bks.cpg/sg2_258_cif.got.tgz:515734.got - 2010.06.03 11:33:40.
