data_PCOD9096603
_publ_section_title
;
Structure prediction by ZEFSAII (Michael W. Deem and Ramdas Pophale) SiO2 
 PCOD9096603
Probable space group: P -1
;
_chemical_formula_sum "Si O2"
_cell_formula_units_Z 16
_cell_length_a 11.119049
_cell_length_b 13.012468
_cell_length_c 13.647455
_cell_angle_alpha 33.456772
_cell_angle_beta 51.833441
_cell_angle_gamma 36.496988
_cell_volume 639.056681
_symmetry_space_group_name_H-M "P -1"
_symmetry_group_IT_number 2
_symmetry_cell_setting 'triclinic'
loop_
_space_group_symop_operation_xyz
x,y,z
-x,-y,-z
loop_
_atom_site_type_symbol
_atom_site_label
_atom_site_fract_x
_atom_site_fract_y
_atom_site_fract_z
Si Si1 0.763028 0.463048 0.460050
Si Si2 0.282408 0.803568 0.463656
Si Si3 0.161569 0.278970 0.939292
Si Si4 0.250774 0.244632 0.130379
Si Si5 0.356068 0.151716 0.357034
Si Si6 0.320071 0.579517 0.101365
Si Si7 0.024621 0.000624 0.167371
Si Si8 0.303426 0.769094 0.688112
O O1 0.522281 0.659199 0.447907
O O2 0.790719 0.269469 0.525454
O O3 0.818205 0.601143 0.260070
O O4 0.883804 0.280302 0.637930
O O5 0.256133 0.724891 0.642431
O O6 0.180779 0.086032 0.288711
O O7 0.942410 0.491646 0.934857
O O8 0.307174 0.222513 0.004138
O O9 0.174877 0.054705 0.070810
O O10 0.416462 0.134167 0.224848
O O11 0.252376 0.426845 0.224512
O O12 0.500000 0.000000 0.500000
O O13 0.256978 0.028577 0.499147
O O14 0.456984 0.456980 0.227791
O O15 0.500000 0.500000 0.000000
O O16 0.119151 0.865558 0.962618
O O17 0.846635 0.177770 0.196429
#
# Coordination Sequence:
#
# PCOD9096603 Si02
#       8
#     2   2   2   2   2   2   2   2
#     4  11  24  39  56  81 121 163 185 235 288 346
#     4  10  22  40  56  82 119 156 199 227 286 349
#     4  11  23  35  60  87 117 146 192 246 292 339
#     4  10  20  36  56  91 111 144 194 243 281 340
#     4   9  16  31  53  83 114 144 176 231 294 329
#     4   9  18  32  55  88 117 141 186 243 291 339
#     4  11  21  38  59  90 116 147 195 238 298 339
#     4   9  20  35  61  85 112 147 193 247 279 342
#
# _framework density 25.036902000000001
#
# number of rings (size 3 to 8) (size 9 to 14) (size 15 to 20)
#    0.000    2.000    2.500    1.500    3.500    1.500 
#    0.000    0.625    0.000    0.750    0.000    0.000 
#    0.000    0.000    0.000    0.000    0.000    0.000 
#
# Total GULP energy -89129.398653 kJ/mol
# GULP energy per Si atom -5570.587416 kJ/mol
# Density = 2.497992 g / cm^3
# Si number density = 25.036902 Si / 1000 Ang^3
#
#
#
# Elastic Constant Matrix: (Units=GPa)
#
#
# Indices 1 2 3 4 5 6 
#
# 1 42.9956 35.4157 32.8207 -18.7547 11.2778 -23.2668
# 2 35.4157 50.5230 26.9487 23.7996 16.7046 -3.4435
# 3 32.8207 26.9487 143.1198 -7.9431 9.4274 -17.2441
# 4 -18.7547 23.7996 -7.9431 11.2509 -12.0235 -1.6565
# 5 11.2778 16.7046 9.4274 -12.0235 34.4285 -6.0675
# 6 -23.2668 -3.4435 -17.2441 -1.6565 -6.0675 18.8594
#
#
#
# Elastic Compliance Matrix: (Units=1/GPa)
#
#
# Indices 1 2 3 4 5 6 
#
# 1 0.012471 0.012484 -0.004921 -0.026667 -0.017174 0.005298
# 2 0.012484 0.004649 -0.000925 0.015470 0.002401 0.017536
# 3 -0.004921 -0.000925 0.008467 -0.000071 -0.000020 0.001489
# 4 -0.026667 0.015470 -0.000071 0.004340 -0.002629 -0.030604
# 5 -0.017174 0.002401 -0.000020 -0.002629 0.030630 -0.011144
# 6 0.005298 0.017536 0.001489 -0.030604 -0.011144 0.057850
#
#
# Mechanical properties :
#
#
# Convention : Reuss Voigt Hill
#
# Bulk Modulus (GPa) = 25.73134 47.44539 36.58836
# Shear Modulus (GPa) = 42.34219 22.33796 32.34007
#
# Velocity S-wave (km/s) = 4.11687 2.99021 3.59792
# Velocity P-wave (km/s) = 5.73566 5.55996 5.64850
#
# Compressibility (1/GPa) = 0.03886312
#
# Stress axis : x y z
#
# Youngs Moduli (GPa) = 80.18488 215.07980 118.11105
#
# Poissons Ratio (x) = -2.68506 0.58122
# Poissons Ratio (y) = -1.00103 0.10926
# Poissons Ratio (z) = 0.39459 0.19897
#
# Static dielectric constant tensor:
#      x y z
#    x 2.066820 -0.047820 0.141640 
#    y -0.047820 1.997510 -0.005600 
#    z 0.141640 -0.005600 2.117840 
# 
# From -- ./inp_files/455540.got.cif
#   From: 2010.05.17/outbox.cif.g08.bks.cpg/sg2_228_cif.got.tgz:455540.got - 2010.06.03 11:33:40.
