data_PCOD9096472
_publ_section_title
;
Structure prediction by ZEFSAII (Michael W. Deem and Ramdas Pophale) SiO2 
 PCOD9096472
Probable space group: P -1
;
_chemical_formula_sum "Si O2"
_cell_formula_units_Z 14
_cell_length_a 18.314433
_cell_length_b 15.234824
_cell_length_c 7.046503
_cell_angle_alpha 96.944460
_cell_angle_beta 93.139544
_cell_angle_gamma 159.789835
_cell_volume 587.528675
_symmetry_space_group_name_H-M "P -1"
_symmetry_group_IT_number 2
_symmetry_cell_setting 'triclinic'
loop_
_space_group_symop_operation_xyz
x,y,z
-x,-y,-z
loop_
_atom_site_type_symbol
_atom_site_label
_atom_site_fract_x
_atom_site_fract_y
_atom_site_fract_z
Si Si1 0.153630 0.286212 0.480554
Si Si2 0.149747 0.684579 0.371596
Si Si3 0.038141 0.263966 0.801056
Si Si4 0.391565 0.297859 0.805587
Si Si5 0.585818 0.838557 0.414094
Si Si6 0.180643 0.159730 0.218183
Si Si7 0.724687 0.283574 0.961355
O O1 0.358483 0.561138 0.444552
O O2 0.146741 0.173198 0.413374
O O3 0.184026 0.365732 0.709843
O O4 0.891901 0.018249 0.309235
O O5 0.000000 0.500000 0.500000
O O6 0.268373 0.747544 0.262188
O O7 0.953374 0.503480 0.158436
O O8 0.354672 0.990474 0.542272
O O9 0.825977 0.070379 0.603680
O O10 0.891555 0.025572 0.847350
O O11 0.211335 0.538014 0.984047
O O12 0.450221 0.260821 0.808708
O O13 0.539095 0.496017 0.691223
O O14 0.500000 0.500000 0.000000
O O15 0.000000 0.000000 0.000000
O O16 0.500000 0.000000 0.000000
#
# Coordination Sequence:
#
# PCOD9096472 Si02
#       7
#     2   2   2   2   2   2   2
#     4  10  20  38  61  82 120 167 202 248 314 382
#     4  10  22  43  67  97 131 167 216 277 330 390
#     4  10  22  39  60  88 121 164 207 254 321 379
#     4  10  20  36  55  84 121 155 201 252 300 371
#     4   9  21  38  61  87 122 164 206 253 318 381
#     4  11  22  37  55  86 122 158 205 254 307 375
#     4  10  22  44  67  97 132 168 219 273 327 395
#
# _framework density 23.828624000000001
#
# number of rings (size 3 to 8) (size 9 to 14) (size 15 to 20)
#    0.000    2.000    1.429    1.286    0.000    8.000 
#    7.714    0.000    0.000    0.000    0.000    0.000 
#    0.000    0.000    0.000    0.000    0.000    0.000 
#
# Total GULP energy -78022.628104 kJ/mol
# GULP energy per Si atom -5573.044865 kJ/mol
# Density = 2.377439 g / cm^3
# Si number density = 23.828624 Si / 1000 Ang^3
#
#
#
# Elastic Constant Matrix: (Units=GPa)
#
#
# Indices 1 2 3 4 5 6 
#
# 1 110.5071 48.0426 71.5954 6.2755 -52.7180 -4.6123
# 2 48.0426 137.4253 55.2463 14.2577 -38.1785 6.9664
# 3 71.5954 55.2463 139.6784 5.9896 -45.6184 0.1163
# 4 6.2755 14.2577 5.9896 42.7373 -0.4683 -10.6358
# 5 -52.7180 -38.1785 -45.6184 -0.4683 62.0796 7.9883
# 6 -4.6123 6.9664 0.1163 -10.6358 7.9883 43.6599
#
#
#
# Elastic Compliance Matrix: (Units=1/GPa)
#
#
# Indices 1 2 3 4 5 6 
#
# 1 0.018244 -0.001020 -0.005287 -0.001549 0.011006 -0.000287
# 2 -0.001020 0.010196 -0.001899 -0.003800 0.004427 -0.003465
# 3 -0.005287 -0.001899 0.011618 -0.000419 0.002997 -0.000937
# 4 -0.001549 -0.003800 -0.000419 0.026856 -0.004768 0.007858
# 5 0.011006 0.004427 0.002997 -0.004768 0.031169 -0.006416
# 6 -0.000287 -0.003465 -0.000937 0.007858 -0.006416 0.026518
#
#
# Mechanical properties :
#
#
# Convention : Reuss Voigt Hill
#
# Bulk Modulus (GPa) = 42.28771 81.93103 62.10937
# Shear Modulus (GPa) = 33.58086 43.87713 38.72899
#
# Velocity S-wave (km/s) = 3.75809 4.29576 4.03589
# Velocity P-wave (km/s) = 6.05113 7.68524 6.91661
#
# Compressibility (1/GPa) = 0.02364753
#
# Stress axis : x y z
#
# Youngs Moduli (GPa) = 54.81137 98.07735 86.07429
#
# Poissons Ratio (x) = 0.10002 0.45508
# Poissons Ratio (y) = 0.05590 0.16342
# Poissons Ratio (z) = 0.28979 0.18621
#
# Static dielectric constant tensor:
#      x y z
#    x 1.977060 0.024150 -0.034560 
#    y 0.024150 2.017160 -0.122730 
#    z -0.034560 -0.122730 2.077970 
# 
# From -- ./inp_files/335451.got.cif
#   From: 2010.05.17/outbox.cif.g08.bks.cpg/sg2_168_cif.got.tgz:335451.got - 2010.06.03 11:33:40.
