data_PCOD9096104
_publ_section_title
;
Structure prediction by ZEFSAII (Michael W. Deem and Ramdas Pophale) SiO2 
 PCOD9096104
Probable space group: P -1
;
_chemical_formula_sum "Si O2"
_cell_formula_units_Z 14
_cell_length_a 9.439686
_cell_length_b 7.841071
_cell_length_c 11.268180
_cell_angle_alpha 73.494130
_cell_angle_beta 67.560302
_cell_angle_gamma 45.696363
_cell_volume 551.491344
_symmetry_space_group_name_H-M "P -1"
_symmetry_group_IT_number 2
_symmetry_cell_setting 'triclinic'
loop_
_space_group_symop_operation_xyz
x,y,z
-x,-y,-z
loop_
_atom_site_type_symbol
_atom_site_label
_atom_site_fract_x
_atom_site_fract_y
_atom_site_fract_z
Si Si1 0.776879 0.689073 0.977855
Si Si2 0.036197 0.972256 0.285948
Si Si3 0.201482 0.500555 0.430644
Si Si4 0.798494 0.820578 0.684547
Si Si5 0.640157 0.212327 0.227386
Si Si6 0.603565 0.210129 0.967858
Si Si7 0.609531 0.848688 0.373211
O O1 0.793016 0.707655 0.827768
O O2 0.680546 0.945603 0.006802
O O3 0.617714 0.649828 0.050805
O O4 0.000000 0.500000 0.000000
O O5 0.047739 0.776556 0.389927
O O6 0.223094 0.832611 0.158946
O O7 0.076884 0.100986 0.337422
O O8 0.825876 0.163856 0.244107
O O9 0.154230 0.357587 0.398931
O O10 0.425544 0.391184 0.330777
O O11 0.243297 0.416657 0.571247
O O12 0.570711 0.067975 0.673840
O O13 0.706048 0.951520 0.267405
O O14 0.600167 0.284921 0.088067
O O15 0.500000 0.000000 0.500000
#
# Coordination Sequence:
#
# PCOD9096104 Si02
#       7
#     2   2   2   2   2   2   2
#     4  10  20  35  62  89 118 162 204 235 306 368
#     4  11  24  35  61  95 122 156 207 242 305 367
#     4  10  22  42  63  85 118 169 206 246 307 349
#     4   9  19  41  58  86 123 152 199 259 287 352
#     4  10  20  39  60  86 127 160 200 255 295 358
#     4  10  21  37  56  90 129 156 193 257 295 358
#     4   8  17  39  65  80 118 167 199 253 303 341
#
# _framework density 25.385712000000002
#
# number of rings (size 3 to 8) (size 9 to 14) (size 15 to 20)
#    0.000    2.571    2.857    0.429    2.000    4.000 
#    0.000    9.286    0.000    0.000    0.000    0.000 
#    0.000    0.000    0.000    0.000    0.000    0.000 
#
# Total GULP energy -78352.330642 kJ/mol
# GULP energy per Si atom -5596.595046 kJ/mol
# Density = 2.532793 g / cm^3
# Si number density = 25.385712 Si / 1000 Ang^3
#
#
#
# Elastic Constant Matrix: (Units=GPa)
#
#
# Indices 1 2 3 4 5 6 
#
# 1 187.0842 43.1143 35.4650 -16.7301 27.7729 -26.8943
# 2 43.1143 78.2819 17.7875 -17.7935 16.3784 -18.3433
# 3 35.4650 17.7875 128.9087 -12.7394 19.1923 -15.5969
# 4 -16.7301 -17.7935 -12.7394 38.6891 -7.0968 10.4201
# 5 27.7729 16.3784 19.1923 -7.0968 42.3624 -16.1852
# 6 -26.8943 -18.3433 -15.5969 10.4201 -16.1852 49.3010
#
#
#
# Elastic Compliance Matrix: (Units=1/GPa)
#
#
# Indices 1 2 3 4 5 6 
#
# 1 0.006718 -0.002504 -0.000908 0.000609 -0.002330 0.001552
# 2 -0.002504 0.016624 -0.000357 0.005217 -0.002713 0.002713
# 3 -0.000908 -0.000357 0.008712 0.001583 -0.002588 0.000944
# 4 0.000609 0.005217 0.001583 0.030053 0.000611 -0.003377
# 5 -0.002330 -0.002713 -0.002588 0.000611 0.029985 0.006615
# 6 0.001552 0.002713 0.000944 -0.003377 0.006615 0.025324
#
#
# Mechanical properties :
#
#
# Convention : Reuss Voigt Hill
#
# Bulk Modulus (GPa) = 40.78984 65.22315 53.00649
# Shear Modulus (GPa) = 37.55867 45.93103 41.74485
#
# Velocity S-wave (km/s) = 3.85063 4.25823 4.05955
# Velocity P-wave (km/s) = 5.98938 7.06579 6.54973
#
# Compressibility (1/GPa) = 0.02451591
#
# Stress axis : x y z
#
# Youngs Moduli (GPa) = 148.85851 60.15496 114.77842
#
# Poissons Ratio (x) = 0.15063 0.10420
# Poissons Ratio (y) = 0.37274 0.04100
# Poissons Ratio (z) = 0.13514 0.02149
#
# Static dielectric constant tensor:
#      x y z
#    x 2.002330 -0.049120 -0.067920 
#    y -0.049120 2.099040 0.030950 
#    z -0.067920 0.030950 2.047490 
# 
# From -- ./inp_files/378272.got.cif
#   From: 2010.05.17/outbox.cif.g08.bks.cpg/sg2_190_cif.got.tgz:378272.got - 2010.06.03 11:33:40.
