data_PCOD9096308
_publ_section_title
;
Structure prediction by ZEFSAII (Michael W. Deem and Ramdas Pophale) SiO2 
 PCOD9096308
Probable space group: P -1
;
_chemical_formula_sum "Si O2"
_cell_formula_units_Z 12
_cell_length_a 8.034510
_cell_length_b 8.830334
_cell_length_c 9.616626
_cell_angle_alpha 101.337608
_cell_angle_beta 61.080863
_cell_angle_gamma 67.138545
_cell_volume 483.744529
_symmetry_space_group_name_H-M "P -1"
_symmetry_group_IT_number 2
_symmetry_cell_setting 'triclinic'
loop_
_space_group_symop_operation_xyz
x,y,z
-x,-y,-z
loop_
_atom_site_type_symbol
_atom_site_label
_atom_site_fract_x
_atom_site_fract_y
_atom_site_fract_z
Si Si1 0.054707 0.388981 0.250880
Si Si2 0.368343 0.442114 0.935664
Si Si3 0.967976 0.937734 0.723432
Si Si4 0.355205 0.256768 0.390383
Si Si5 0.217454 0.802513 0.928870
Si Si6 0.310006 0.944492 0.415616
O O1 0.825462 0.593919 0.399812
O O2 0.981566 0.243428 0.249488
O O3 0.212668 0.322983 0.314516
O O4 0.114530 0.064924 0.398789
O O5 0.207566 0.629406 0.943518
O O6 0.541366 0.268332 0.735352
O O7 0.500000 0.500000 0.000000
O O8 0.212432 0.389651 0.069142
O O9 0.757389 0.117026 0.918971
O O10 0.177614 0.958084 0.611923
O O11 0.569136 0.266189 0.269427
O O12 0.435410 0.051575 0.373223
O O13 0.000000 0.000000 0.000000
#
# Coordination Sequence:
#
# PCOD9096308 Si02
#       6
#     2   2   2   2   2   2
#     4  10  20  35  65  92 119 150 208 261 289 349
#     4  12  21  37  61  91 118 158 207 246 294 349
#     4  10  20  37  60  93 122 157 199 251 307 343
#     4  10  20  37  60  93 122 157 199 251 307 343
#     4  12  25  41  59  89 130 163 195 244 307 370
#     4  10  20  35  65  92 119 150 208 261 289 349
#
# _framework density 24.806484999999999
#
# number of rings (size 3 to 8) (size 9 to 14) (size 15 to 20)
#    0.000    1.333    3.333    3.000    4.667    2.667 
#    0.000   10.000    0.000    0.000    0.000    0.000 
#    0.000    0.000    0.000    0.000    0.000    0.000 
#
# Total GULP energy -67082.849155 kJ/mol
# GULP energy per Si atom -5590.237430 kJ/mol
# Density = 2.475002 g / cm^3
# Si number density = 24.806485 Si / 1000 Ang^3
#
#
#
# Elastic Constant Matrix: (Units=GPa)
#
#
# Indices 1 2 3 4 5 6 
#
# 1 59.1338 31.8776 7.7225 -7.0732 -13.0099 3.7414
# 2 31.8776 189.7279 36.2768 1.8318 -10.2244 13.5672
# 3 7.7225 36.2768 93.9266 0.2275 -30.8138 5.9768
# 4 -7.0732 1.8318 0.2275 53.2781 9.2939 -2.9035
# 5 -13.0099 -10.2244 -30.8138 9.2939 25.1317 -8.0092
# 6 3.7414 13.5672 5.9768 -2.9035 -8.0092 37.0324
#
#
#
# Elastic Compliance Matrix: (Units=1/GPa)
#
#
# Indices 1 2 3 4 5 6 
#
# 1 0.021851 -0.003877 0.004919 0.000279 0.016288 0.001964
# 2 -0.003877 0.006523 -0.003469 -0.000099 -0.004330 -0.002382
# 3 0.004919 -0.003469 0.021129 -0.004317 0.029739 0.003457
# 4 0.000279 -0.000099 -0.004317 0.021095 -0.013144 -0.000484
# 5 0.016288 -0.004330 0.029739 -0.013144 0.092267 0.014066
# 6 0.001964 -0.002382 0.003457 -0.000484 0.014066 0.030124
#
#
# Mechanical properties :
#
#
# Convention : Reuss Voigt Hill
#
# Bulk Modulus (GPa) = 22.39753 54.94913 38.67333
# Shear Modulus (GPa) = 23.50421 40.88251 32.19336
#
# Velocity S-wave (km/s) = 3.08149 4.06403 3.60638
# Velocity P-wave (km/s) = 4.65932 6.64989 5.74153
#
# Compressibility (1/GPa) = 0.04464778
#
# Stress axis : x y z
#
# Youngs Moduli (GPa) = 45.76424 153.29219 47.32855
#
# Poissons Ratio (x) = 0.59435 -0.23279
# Poissons Ratio (y) = 0.17744 0.16420
# Poissons Ratio (z) = -0.22510 0.53181
#
# Static dielectric constant tensor:
#      x y z
#    x 2.141910 -0.073390 0.127600 
#    y -0.073390 1.940110 -0.045160 
#    z 0.127600 -0.045160 1.938790 
# 
# From -- ./inp_files/382835.got.cif
#   From: 2010.05.17/outbox.cif.g08.bks.cpg/sg2_192_cif.got.tgz:382835.got - 2010.06.03 11:33:40.
