data_PCOD9096563
_publ_section_title
;
Structure prediction by ZEFSAII (Michael W. Deem and Ramdas Pophale) SiO2 
 PCOD9096563
Probable space group: P -1
;
_chemical_formula_sum "Si O2"
_cell_formula_units_Z 16
_cell_length_a 7.526266
_cell_length_b 8.270863
_cell_length_c 14.437561
_cell_angle_alpha 97.869493
_cell_angle_beta 101.447741
_cell_angle_gamma 126.524897
_cell_volume 669.702914
_symmetry_space_group_name_H-M "P -1"
_symmetry_group_IT_number 2
_symmetry_cell_setting 'triclinic'
loop_
_space_group_symop_operation_xyz
x,y,z
-x,-y,-z
loop_
_atom_site_type_symbol
_atom_site_label
_atom_site_fract_x
_atom_site_fract_y
_atom_site_fract_z
Si Si1 0.760227 0.306784 0.628272
Si Si2 0.142041 0.827409 0.997909
Si Si3 0.045604 0.022315 0.345836
Si Si4 0.361554 0.288754 0.034676
Si Si5 0.209525 0.906421 0.530604
Si Si6 0.577858 0.546665 0.617289
Si Si7 0.157818 0.615743 0.160251
Si Si8 0.595048 0.615632 0.227975
O O1 0.843822 0.299129 0.535500
O O2 0.751078 0.495120 0.644423
O O3 0.882731 0.328502 0.738540
O O4 0.488193 0.088887 0.591435
O O5 0.203406 0.773770 0.096960
O O6 0.322377 0.071504 0.998106
O O7 0.897700 0.783401 0.987638
O O8 0.060635 0.629600 0.908268
O O9 0.926663 0.105295 0.395918
O O10 0.273050 0.207962 0.327332
O O11 0.845852 0.833538 0.244755
O O12 0.145363 0.975078 0.437940
O O13 0.506433 0.402459 0.152951
O O14 0.500000 0.500000 0.000000
O O15 0.500000 0.500000 0.500000
O O16 0.377615 0.401461 0.660458
O O17 0.390670 0.633172 0.192187
#
# Coordination Sequence:
#
# PCOD9096563 Si02
#       8
#     2   2   2   2   2   2   2   2
#     4  10  20  36  58  87 123 159 205 254 303 356
#     4   9  20  40  64  87 118 160 202 257 322 369
#     4  11  20  37  61  82 120 168 205 246 310 359
#     4  10  22  40  63  91 124 153 206 263 313 377
#     4  10  20  36  56  84 121 160 202 254 298 357
#     4  11  20  37  60  85 119 169 209 247 305 366
#     4   9  18  39  63  84 121 163 204 255 315 372
#     4  10  22  39  56  91 122 158 209 256 304 373
#
# _framework density 23.891192
#
# number of rings (size 3 to 8) (size 9 to 14) (size 15 to 20)
#    0.000    2.000    3.750    0.750    0.000    6.500 
#    0.000    9.375    0.000    0.000    0.000    0.000 
#    0.000    0.000    0.000    0.000    0.000    0.000 
#
# Total GULP energy -89265.900981 kJ/mol
# GULP energy per Si atom -5579.118811 kJ/mol
# Density = 2.383681 g / cm^3
# Si number density = 23.891192 Si / 1000 Ang^3
#
#
#
# Elastic Constant Matrix: (Units=GPa)
#
#
# Indices 1 2 3 4 5 6 
#
# 1 30.0569 9.6691 9.8334 7.1889 3.5078 -0.2986
# 2 9.6691 142.6827 45.6009 9.6819 6.2221 2.8377
# 3 9.8334 45.6009 116.1384 7.0469 12.7850 -2.3682
# 4 7.1889 9.6819 7.0469 25.6580 1.6319 1.5080
# 5 3.5078 6.2221 12.7850 1.6319 19.0777 1.4005
# 6 -0.2986 2.8377 -2.3682 1.5080 1.4005 16.9201
#
#
#
# Elastic Compliance Matrix: (Units=1/GPa)
#
#
# Indices 1 2 3 4 5 6 
#
# 1 0.036951 -0.001216 -0.001531 -0.009283 -0.004714 0.001859
# 2 -0.001216 0.008223 -0.003032 -0.001823 -0.000149 -0.001650
# 3 -0.001531 -0.003032 0.010713 -0.001139 -0.006001 0.002579
# 4 -0.009283 -0.001823 -0.001139 0.042820 -0.000318 -0.003807
# 5 -0.004714 -0.000149 -0.006001 -0.000318 0.057796 -0.005653
# 6 0.001859 -0.001650 0.002579 -0.003807 -0.005653 0.060579
#
#
# Mechanical properties :
#
#
# Convention : Reuss Voigt Hill
#
# Bulk Modulus (GPa) = 22.55904 46.56499 34.56202
# Shear Modulus (GPa) = 20.54080 27.24947 23.89514
#
# Velocity S-wave (km/s) = 2.93536 3.38089 3.16597
# Velocity P-wave (km/s) = 4.57726 5.89689 5.27848
#
# Compressibility (1/GPa) = 0.04432814
#
# Stress axis : x y z
#
# Youngs Moduli (GPa) = 27.06262 121.60799 93.34456
#
# Poissons Ratio (x) = 0.14791 0.14291
# Poissons Ratio (y) = 0.03292 0.28306
# Poissons Ratio (z) = 0.04143 0.36877
#
# Static dielectric constant tensor:
#      x y z
#    x 1.992260 -0.035900 -0.064440 
#    y -0.035900 1.931920 0.000900 
#    z -0.064440 0.000900 1.957280 
# 
# From -- ./inp_files/493011.got.cif
#   From: 2010.05.17/outbox.cif.g08.bks.cpg/sg2_247_cif.got.tgz:493011.got - 2010.06.03 11:33:40.
