data_PCOD9096327
_publ_section_title
;
Structure prediction by ZEFSAII (Michael W. Deem and Ramdas Pophale) SiO2 
 PCOD9096327
Probable space group: P -1
;
_chemical_formula_sum "Si O2"
_cell_formula_units_Z 12
_cell_length_a 12.948109
_cell_length_b 8.712706
_cell_length_c 10.976543
_cell_angle_alpha 43.253631
_cell_angle_beta 130.502153
_cell_angle_gamma 146.474556
_cell_volume 465.704096
_symmetry_space_group_name_H-M "P -1"
_symmetry_group_IT_number 2
_symmetry_cell_setting 'triclinic'
loop_
_space_group_symop_operation_xyz
x,y,z
-x,-y,-z
loop_
_atom_site_type_symbol
_atom_site_label
_atom_site_fract_x
_atom_site_fract_y
_atom_site_fract_z
Si Si1 0.752062 0.539636 0.996835
Si Si2 0.957586 0.271315 0.503069
Si Si3 0.173720 0.381303 0.415995
Si Si4 0.165689 0.126739 0.891977
Si Si5 0.441687 0.348810 0.409562
Si Si6 0.224898 0.747596 0.026280
O O1 0.643487 0.593316 0.795556
O O2 0.705156 0.248935 0.057452
O O3 0.725723 0.594320 0.085496
O O4 0.977815 0.816358 0.993010
O O5 0.000000 0.500000 0.500000
O O6 0.062280 0.451614 0.355733
O O7 0.061496 0.165880 0.690773
O O8 0.735760 0.003021 0.485583
O O9 0.360162 0.530328 0.547732
O O10 0.253145 0.570209 0.241611
O O11 0.000000 0.000000 0.500000
O O12 0.274752 0.043820 0.956503
O O13 0.500000 0.500000 0.500000
O O14 0.000000 0.500000 0.000000
#
# Coordination Sequence:
#
# PCOD9096327 Si02
#       6
#     2   2   2   2   2   2
#     4   9  18  36  65  91 127 181 216 270 338 406
#     4  11  26  44  69 102 136 178 228 287 343 404
#     4  12  23  41  71  99 133 177 231 281 334 411
#     4   9  20  40  64  93 135 179 224 274 347 404
#     4  11  21  43  67 101 140 175 228 281 342 409
#     4  10  20  35  66  95 128 183 221 270 347 401
#
# _framework density 25.767434000000002
#
# number of rings (size 3 to 8) (size 9 to 14) (size 15 to 20)
#    0.000    1.667    3.333    2.000    9.333    0.667 
#    0.000    0.833    3.667   18.000    0.000    0.000 
#    0.000    0.000    0.000    0.000    0.000    0.000 
#
# Total GULP energy -66837.508213 kJ/mol
# GULP energy per Si atom -5569.792351 kJ/mol
# Density = 2.570879 g / cm^3
# Si number density = 25.767434 Si / 1000 Ang^3
#
#
#
# Elastic Constant Matrix: (Units=GPa)
#
#
# Indices 1 2 3 4 5 6 
#
# 1 139.3189 87.6746 30.6680 0.3598 -3.5175 -24.5733
# 2 87.6746 159.6386 32.6723 33.1790 -2.5803 -9.9488
# 3 30.6680 32.6723 121.8787 14.9006 21.3761 -4.9315
# 4 0.3598 33.1790 14.9006 24.9351 2.3865 -3.7969
# 5 -3.5175 -2.5803 21.3761 2.3865 40.9350 12.5743
# 6 -24.5733 -9.9488 -4.9315 -3.7969 12.5743 61.4900
#
#
#
# Elastic Compliance Matrix: (Units=1/GPa)
#
#
# Indices 1 2 3 4 5 6 
#
# 1 0.015953 -0.011538 -0.002744 0.017663 -0.000646 0.005511
# 2 -0.011538 0.017254 0.000656 -0.023969 0.002292 -0.003715
# 3 -0.002744 0.000656 0.010496 -0.006495 -0.005472 0.000569
# 4 0.017663 -0.023969 -0.006495 0.077213 -0.003611 0.008166
# 5 -0.000646 0.002292 -0.005472 -0.003611 0.029615 -0.006605
# 6 0.005511 -0.003715 0.000569 0.008166 -0.006605 0.019765
#
#
# Mechanical properties :
#
#
# Convention : Reuss Voigt Hill
#
# Bulk Modulus (GPa) = 60.78835 80.31845 70.55340
# Shear Modulus (GPa) = 24.62677 43.46011 34.04344
#
# Velocity S-wave (km/s) = 3.09485 4.11131 3.63875
# Velocity P-wave (km/s) = 6.03433 7.33317 6.71523
#
# Compressibility (1/GPa) = 0.01645052
#
# Stress axis : x y z
#
# Youngs Moduli (GPa) = 62.68460 57.95881 95.27073
#
# Poissons Ratio (x) = 0.66872 0.26146
# Poissons Ratio (y) = 0.72324 -0.06250
# Poissons Ratio (z) = 0.17203 -0.03802
#
# Static dielectric constant tensor:
#      x y z
#    x 2.098350 -0.135620 0.020290 
#    y -0.135620 1.987770 -0.113880 
#    z 0.020290 -0.113880 2.249680 
# 
# From -- ./inp_files/312025.got.cif
#   From: 2010.05.17/outbox.cif.g08.bks.cpg/sg2_157_cif.got.tgz:312025.got - 2010.06.03 11:33:40.
