data_PCOD9096004
_publ_section_title
;
Structure prediction by ZEFSAII (Michael W. Deem and Ramdas Pophale) SiO2 
 PCOD9096004
Probable space group: P -1
;
_chemical_formula_sum "Si O2"
_cell_formula_units_Z 14
_cell_length_a 20.438480
_cell_length_b 7.798345
_cell_length_c 10.803264
_cell_angle_alpha 122.228501
_cell_angle_beta 152.638991
_cell_angle_gamma 44.490948
_cell_volume 527.038435
_symmetry_space_group_name_H-M "P -1"
_symmetry_group_IT_number 2
_symmetry_cell_setting 'triclinic'
loop_
_space_group_symop_operation_xyz
x,y,z
-x,-y,-z
loop_
_atom_site_type_symbol
_atom_site_label
_atom_site_fract_x
_atom_site_fract_y
_atom_site_fract_z
Si Si1 0.443897 0.513500 0.553473
Si Si2 0.575884 0.805342 0.904759
Si Si3 0.644871 0.200343 0.170939
Si Si4 0.258863 0.985941 0.016622
Si Si5 0.177353 0.243684 0.345554
Si Si6 0.056402 0.778735 0.260279
Si Si7 0.852949 0.482154 0.031152
O O1 0.500000 0.500000 0.500000
O O2 0.525247 0.631766 0.813440
O O3 0.552944 0.231782 0.686606
O O4 0.236373 0.632790 0.230622
O O5 0.752627 0.600286 0.039271
O O6 0.384074 0.000528 0.586496
O O7 0.596040 0.017429 0.069490
O O8 0.795261 0.182054 0.497390
O O9 0.500000 0.500000 0.000000
O O10 0.732232 0.069042 0.133629
O O11 0.210311 0.264851 0.055364
O O12 0.096609 0.010398 0.820432
O O13 0.162138 0.494172 0.386483
O O14 0.059984 0.214216 0.042595
O O15 0.068943 0.303101 0.314921
#
# Coordination Sequence:
#
# PCOD9096004 Si02
#       7
#     2   2   2   2   2   2   2
#     4  10  20  36  60  90 124 156 191 244 307 354
#     4  10  21  40  60  89 125 156 194 248 301 354
#     4  11  22  38  62  85 120 158 204 242 297 351
#     4  10  21  37  62  86 117 159 202 243 294 357
#     4  10  20  35  61  92 118 149 204 250 295 347
#     4  10  20  36  59  92 116 150 202 255 290 348
#     4   9  20  35  62  88 116 152 199 243 298 343
#
# _framework density 26.563524999999998
#
# number of rings (size 3 to 8) (size 9 to 14) (size 15 to 20)
#    0.000    2.000    1.429    2.571    2.000    2.857 
#    0.000    1.429    0.000    0.000    0.000    0.000 
#    0.000    0.000    0.000    0.000    0.000    0.000 
#
# Total GULP energy -78229.218177 kJ/mol
# GULP energy per Si atom -5587.801298 kJ/mol
# Density = 2.650307 g / cm^3
# Si number density = 26.563525 Si / 1000 Ang^3
#
#
#
# Elastic Constant Matrix: (Units=GPa)
#
#
# Indices 1 2 3 4 5 6 
#
# 1 45.8706 36.3930 21.1931 9.8088 18.5355 -10.1209
# 2 36.3930 133.9184 37.1824 27.2451 7.9436 5.3810
# 3 21.1931 37.1824 95.2368 37.1376 17.3821 9.7023
# 4 9.8088 27.2451 37.1376 53.5995 12.2807 0.3127
# 5 18.5355 7.9436 17.3821 12.2807 33.4407 4.9748
# 6 -10.1209 5.3810 9.7023 0.3127 4.9748 51.3294
#
#
#
# Elastic Compliance Matrix: (Units=1/GPa)
#
#
# Indices 1 2 3 4 5 6 
#
# 1 0.043627 -0.010887 -0.004965 0.006235 -0.023223 0.012895
# 2 -0.010887 0.011407 -0.001014 -0.004466 0.006044 -0.003709
# 3 -0.004965 -0.001014 0.016382 -0.009573 -0.001446 -0.003771
# 4 0.006235 -0.004466 -0.009573 0.028329 -0.008440 0.004153
# 5 -0.023223 0.006044 -0.001446 -0.008440 0.046590 -0.009403
# 6 0.012895 -0.003709 -0.003771 0.004153 -0.009403 0.024012
#
#
# Mechanical properties :
#
#
# Convention : Reuss Voigt Hill
#
# Bulk Modulus (GPa) = 26.53605 51.61810 39.07707
# Shear Modulus (GPa) = 23.07973 39.69104 31.38539
#
# Velocity S-wave (km/s) = 2.95082 3.86967 3.44106
# Velocity P-wave (km/s) = 4.64986 6.28012 5.52545
#
# Compressibility (1/GPa) = 0.03768458
#
# Stress axis : x y z
#
# Youngs Moduli (GPa) = 22.92134 87.66902 61.04221
#
# Poissons Ratio (x) = 0.95443 0.30305
# Poissons Ratio (y) = 0.24954 0.06192
# Poissons Ratio (z) = 0.11380 0.08893
#
# Static dielectric constant tensor:
#      x y z
#    x 2.174040 -0.042000 0.024950 
#    y -0.042000 2.176490 0.026990 
#    z 0.024950 0.026990 2.003820 
# 
# From -- ./inp_files/200763.got.cif
#   From: 2010.05.17/outbox.cif.g08.bks.cpg/sg2_101_cif.got.tgz:200763.got - 2010.06.03 11:33:40.
