data_PCOD9096835
_publ_section_title
;
Structure prediction by ZEFSAII (Michael W. Deem and Ramdas Pophale) SiO2 
 PCOD9096835
Probable space group: P -1
;
_chemical_formula_sum "Si O2"
_cell_formula_units_Z 16
_cell_length_a 7.507998
_cell_length_b 12.316190
_cell_length_c 16.966233
_cell_angle_alpha 24.244704
_cell_angle_beta 107.872772
_cell_angle_gamma 111.059750
_cell_volume 600.318728
_symmetry_space_group_name_H-M "P -1"
_symmetry_group_IT_number 2
_symmetry_cell_setting 'triclinic'
loop_
_space_group_symop_operation_xyz
x,y,z
-x,-y,-z
loop_
_atom_site_type_symbol
_atom_site_label
_atom_site_fract_x
_atom_site_fract_y
_atom_site_fract_z
Si Si1 0.304164 0.700667 0.941604
Si Si2 0.499911 0.589712 0.727932
Si Si3 0.768130 0.142434 0.390693
Si Si4 0.702353 0.003191 0.797152
Si Si5 0.974930 0.846747 0.728971
Si Si6 0.293020 0.464374 0.629285
Si Si7 0.045964 0.900669 0.985093
Si Si8 0.626691 0.231901 0.807807
O O1 0.147606 0.885561 0.789091
O O2 0.506030 0.843931 0.836904
O O3 0.380688 0.629342 0.084104
O O4 0.189724 0.401422 0.099763
O O5 0.393873 0.693547 0.718768
O O6 0.335071 0.475072 0.720692
O O7 0.647856 0.846844 0.545365
O O8 0.918486 0.240011 0.277651
O O9 0.876822 0.080574 0.526554
O O10 0.779362 0.271869 0.580130
O O11 0.660768 0.119821 0.800575
O O12 0.860539 0.827765 0.953895
O O13 0.164601 0.178158 0.779632
O O14 0.505820 0.462427 0.627457
O O15 0.177427 0.692578 0.165658
O O16 0.000000 0.000000 0.000000
O O17 0.500000 0.000000 0.000000
#
# Coordination Sequence:
#
# PCOD9096835 Si02
#       8
#     2   2   2   2   2   2   2   2
#     4  10  20  36  58  84 114 147 185 233 284 339
#     4  10  20  36  59  84 115 148 183 230 288 340
#     4   9  19  38  60  84 112 145 185 236 287 336
#     4  11  21  37  57  84 116 149 190 233 281 335
#     4   9  19  38  60  83 111 144 189 238 283 337
#     4  11  21  37  58  85 116 149 189 232 281 337
#     4   9  19  37  58  80 113 148 185 231 281 333
#     4   9  19  37  60  81 113 150 187 231 279 331
#
# _framework density 26.652508000000001
#
# number of rings (size 3 to 8) (size 9 to 14) (size 15 to 20)
#    0.000    2.250    0.000    3.750    0.000    0.500 
#    0.000   28.750    0.000    0.000    0.000    0.000 
#    0.000    0.000    0.000    0.000    0.000    0.000 
#
# Total GULP energy -89379.175911 kJ/mol
# GULP energy per Si atom -5586.198494 kJ/mol
# Density = 2.659185 g / cm^3
# Si number density = 26.652508 Si / 1000 Ang^3
#
#
#
# Elastic Constant Matrix: (Units=GPa)
#
#
# Indices 1 2 3 4 5 6 
#
# 1 86.3364 36.9833 17.1094 6.4863 14.6072 24.5207
# 2 36.9833 83.3687 40.4533 14.9396 6.5995 22.0269
# 3 17.1094 40.4533 88.3786 27.8910 -9.6002 25.3498
# 4 6.4863 14.9396 27.8910 40.2927 16.6504 1.7159
# 5 14.6072 6.5995 -9.6002 16.6504 38.1003 3.1977
# 6 24.5207 22.0269 25.3498 1.7159 3.1977 58.7109
#
#
#
# Elastic Compliance Matrix: (Units=1/GPa)
#
#
# Indices 1 2 3 4 5 6 
#
# 1 0.016212 -0.005653 -0.001153 0.003171 -0.006587 -0.003887
# 2 -0.005653 0.018669 -0.007670 0.000667 -0.003192 -0.001177
# 3 -0.001153 -0.007670 0.027055 -0.023404 0.019546 -0.008703
# 4 0.003171 0.000667 -0.023404 0.052696 -0.030986 0.008678
# 5 -0.006587 -0.003192 0.019546 -0.030986 0.048313 -0.006217
# 6 -0.003887 -0.001177 -0.008703 0.008678 -0.006217 0.022940
#
#
# Mechanical properties :
#
#
# Convention : Reuss Voigt Hill
#
# Bulk Modulus (GPa) = 30.31749 49.68619 40.00184
# Shear Modulus (GPa) = 22.14050 38.32329 30.23189
#
# Velocity S-wave (km/s) = 2.88533 3.79606 3.37159
# Velocity P-wave (km/s) = 4.74341 6.15598 5.49528
#
# Compressibility (1/GPa) = 0.03298427
#
# Stress axis : x y z
#
# Youngs Moduli (GPa) = 61.68101 53.56605 36.96241
#
# Poissons Ratio (x) = 0.30279 0.04260
# Poissons Ratio (y) = 0.34866 0.28351
# Poissons Ratio (z) = 0.07110 0.41087
#
# Static dielectric constant tensor:
#      x y z
#    x 2.178700 0.023980 -0.028700 
#    y 0.023980 2.091630 0.016570 
#    z -0.028700 0.016570 2.078600 
# 
# From -- ./inp_files/590430.got.cif
#   From: 2010.05.17/outbox.cif.g08.bks.cpg/sg2_296_cif.got.tgz:590430.got - 2010.06.03 11:33:40.
