data_PCOD9096557
_publ_section_title
;
Structure prediction by ZEFSAII (Michael W. Deem and Ramdas Pophale) SiO2 
 PCOD9096557
Probable space group: P -1
;
_chemical_formula_sum "Si O2"
_cell_formula_units_Z 16
_cell_length_a 8.439405
_cell_length_b 23.846014
_cell_length_c 23.703084
_cell_angle_alpha 17.745751
_cell_angle_beta 151.386809
_cell_angle_gamma 141.046257
_cell_volume 638.011265
_symmetry_space_group_name_H-M "P -1"
_symmetry_group_IT_number 2
_symmetry_cell_setting 'triclinic'
loop_
_space_group_symop_operation_xyz
x,y,z
-x,-y,-z
loop_
_atom_site_type_symbol
_atom_site_label
_atom_site_fract_x
_atom_site_fract_y
_atom_site_fract_z
Si Si1 0.946109 0.404484 0.000661
Si Si2 0.357860 0.546934 0.846283
Si Si3 0.413982 0.837614 0.167955
Si Si4 0.935043 0.395603 0.779586
Si Si5 0.326935 0.152729 0.513348
Si Si6 0.688649 0.029846 0.432192
Si Si7 0.106220 0.764158 0.968130
Si Si8 0.587368 0.913479 0.270451
O O1 0.348008 0.388551 0.150944
O O2 0.872925 0.391436 0.924321
O O3 0.988115 0.190937 0.242306
O O4 0.691763 0.630810 0.719913
O O5 0.278547 0.399538 0.917833
O O6 0.969597 0.727548 0.557654
O O7 0.500000 0.500000 0.000000
O O8 0.748632 0.616722 0.482660
O O9 0.094599 0.770688 0.112398
O O10 0.363511 0.905807 0.152325
O O11 0.500000 0.000000 0.000000
O O12 0.733452 0.352431 0.812476
O O13 0.513660 0.103118 0.680332
O O14 0.916692 0.165949 0.382724
O O15 0.433763 0.005631 0.634309
O O16 0.324654 0.094404 0.294163
O O17 0.323505 0.892103 0.894411
#
# Coordination Sequence:
#
# PCOD9096557 Si02
#       8
#     2   2   2   2   2   2   2   2
#     4  12  20  34  57  83 117 161 197 232 283 352
#     4  11  18  30  53  86 119 148 189 237 287 340
#     4  10  20  36  56  84 117 145 192 252 296 325
#     4  10  21  33  52  89 118 145 188 247 290 340
#     4  11  23  38  52  81 125 160 194 233 296 350
#     4  11  24  36  53  84 123 161 190 239 290 354
#     4  12  20  34  60  86 115 150 199 242 284 342
#     4  11  20  34  58  83 113 155 194 238 288 346
#
# _framework density 25.077926999999999
#
# number of rings (size 3 to 8) (size 9 to 14) (size 15 to 20)
#    0.000    1.000    6.250    3.000    0.000    0.000 
#    0.000    0.000    0.000    0.750    0.000    1.750 
#    0.000    0.000    0.000    0.000    0.000    0.000 
#
# Total GULP energy -89251.250998 kJ/mol
# GULP energy per Si atom -5578.203187 kJ/mol
# Density = 2.502085 g / cm^3
# Si number density = 25.077927 Si / 1000 Ang^3
#
#
#
# Elastic Constant Matrix: (Units=GPa)
#
#
# Indices 1 2 3 4 5 6 
#
# 1 72.2971 30.5082 32.0599 -4.2204 -19.9208 -45.6232
# 2 30.5082 182.7199 47.8099 -4.5895 -5.1181 -46.5033
# 3 32.0599 47.8099 95.1627 -2.3500 -33.4640 -6.7454
# 4 -4.2204 -4.5895 -2.3500 54.1630 -5.8002 -5.2938
# 5 -19.9208 -5.1181 -33.4640 -5.8002 38.6274 -4.1604
# 6 -45.6232 -46.5033 -6.7454 -5.2938 -4.1604 51.5947
#
#
#
# Elastic Compliance Matrix: (Units=1/GPa)
#
#
# Indices 1 2 3 4 5 6 
#
# 1 0.092962 0.015683 -0.012568 0.023684 0.053615 0.101448
# 2 0.015683 0.010972 -0.006384 0.005011 0.007352 0.024029
# 3 -0.012568 -0.006384 0.019836 -0.001122 0.008210 -0.013727
# 4 0.023684 0.005011 -0.001122 0.025590 0.018922 0.029464
# 5 0.053615 0.007352 0.008210 0.018922 0.071230 0.062794
# 6 0.101448 0.024029 -0.013727 0.029464 0.062794 0.137039
#
#
# Mechanical properties :
#
#
# Convention : Reuss Voigt Hill
#
# Bulk Modulus (GPa) = 8.53009 63.43730 35.98370
# Shear Modulus (GPa) = 12.39945 44.86379 28.63162
#
# Velocity S-wave (km/s) = 2.22601 4.23422 3.38258
# Velocity P-wave (km/s) = 3.16475 7.01825 5.44387
#
# Compressibility (1/GPa) = 0.11723201
#
# Stress axis : x y z
#
# Youngs Moduli (GPa) = 10.75710 91.14069 50.41355
#
# Poissons Ratio (x) = -1.42934 0.63360
# Poissons Ratio (y) = -0.16870 0.32182
# Poissons Ratio (z) = 0.13520 0.58180
#
# Static dielectric constant tensor:
#      x y z
#    x 2.019640 0.025560 -0.082610 
#    y 0.025560 2.017510 -0.052120 
#    z -0.082610 -0.052120 2.190180 
# 
# From -- ./inp_files/608778.got.cif
#   From: 2010.05.17/outbox.cif.g08.bks.cpg/sg2_305_cif.got.tgz:608778.got - 2010.06.03 11:33:40.
