data_PCOD9096537
_publ_section_title
;
Structure prediction by ZEFSAII (Michael W. Deem and Ramdas Pophale) SiO2 
 PCOD9096537
Probable space group: P -1
;
_chemical_formula_sum "Si O2"
_cell_formula_units_Z 16
_cell_length_a 9.467395
_cell_length_b 8.763442
_cell_length_c 15.286898
_cell_angle_alpha 68.468785
_cell_angle_beta 67.516321
_cell_angle_gamma 125.745661
_cell_volume 586.447658
_symmetry_space_group_name_H-M "P -1"
_symmetry_group_IT_number 2
_symmetry_cell_setting 'triclinic'
loop_
_space_group_symop_operation_xyz
x,y,z
-x,-y,-z
loop_
_atom_site_type_symbol
_atom_site_label
_atom_site_fract_x
_atom_site_fract_y
_atom_site_fract_z
Si Si1 0.976614 0.376690 0.122887
Si Si2 0.237993 0.411023 0.410087
Si Si3 0.035854 0.996450 0.698684
Si Si4 0.237716 0.308994 0.769552
Si Si5 0.798972 0.164780 0.893648
Si Si6 0.258260 0.979729 0.518889
Si Si7 0.578438 0.814976 0.846404
Si Si8 0.649708 0.162301 0.618335
O O1 0.015236 0.536932 0.160042
O O2 0.256536 0.517156 0.018870
O O3 0.656695 0.028799 0.266417
O O4 0.000000 0.500000 0.000000
O O5 0.193202 0.266413 0.539037
O O6 0.538404 0.618860 0.256248
O O7 0.191372 0.558309 0.419903
O O8 0.983793 0.157115 0.456051
O O9 0.147989 0.138940 0.737311
O O10 0.117395 0.893241 0.663545
O O11 0.710390 0.756136 0.815014
O O12 0.940709 0.124122 0.910972
O O13 0.445526 0.654655 0.632850
O O14 0.776571 0.086692 0.814313
O O15 0.500000 0.000000 0.000000
O O16 0.289654 0.829465 0.498999
O O17 0.604788 0.950074 0.725297
#
# Coordination Sequence:
#
# PCOD9096537 Si02
#       8
#     2   2   2   2   2   2   2   2
#     4   9  18  33  58  81 103 140 189 228 265 326
#     4  11  22  33  53  81 120 147 178 233 275 326
#     4  10  20  36  56  83 107 148 188 226 277 324
#     4  10  20  37  56  82 112 144 191 226 269 340
#     4   9  17  34  58  83 101 140 188 232 270 312
#     4  11  20  33  55  80 110 149 185 222 269 332
#     4   9  19  33  57  79 110 141 188 232 266 336
#     4  11  21  35  52  85 113 148 184 230 280 316
#
# _framework density 27.282912
#
# number of rings (size 3 to 8) (size 9 to 14) (size 15 to 20)
#    0.000    2.000    2.500    3.375    0.000    0.000 
#    0.000    5.000    0.000   18.750    0.000    0.000 
#    0.000    0.000    0.000    0.000    0.000    0.000 
#
# Total GULP energy -89227.916135 kJ/mol
# GULP energy per Si atom -5576.744758 kJ/mol
# Density = 2.722081 g / cm^3
# Si number density = 27.282912 Si / 1000 Ang^3
#
#
#
# Elastic Constant Matrix: (Units=GPa)
#
#
# Indices 1 2 3 4 5 6 
#
# 1 111.8290 7.8002 28.6257 16.4286 -31.5054 -22.4074
# 2 7.8002 137.0931 26.8977 -0.7200 -2.0370 -14.7906
# 3 28.6257 26.8977 111.3843 25.7906 -43.7806 -12.2206
# 4 16.4286 -0.7200 25.7906 28.2169 -8.1340 -18.4364
# 5 -31.5054 -2.0370 -43.7806 -8.1340 40.0593 10.9542
# 6 -22.4074 -14.7906 -12.2206 -18.4364 10.9542 40.9161
#
#
#
# Elastic Compliance Matrix: (Units=1/GPa)
#
#
# Indices 1 2 3 4 5 6 
#
# 1 0.012706 -0.000977 0.003049 -0.005643 0.011620 0.001862
# 2 -0.000977 0.009186 -0.005933 0.008658 -0.006875 0.006755
# 3 0.003049 -0.005933 0.024633 -0.023894 0.027221 -0.011172
# 4 -0.005643 0.008658 -0.023894 0.075742 -0.023872 0.033422
# 5 0.011620 -0.006875 0.027221 -0.023872 0.062919 -0.015592
# 6 0.001862 0.006755 -0.011172 0.033422 -0.015592 0.043799
#
#
# Mechanical properties :
#
#
# Convention : Reuss Voigt Hill
#
# Bulk Modulus (GPa) = 25.77128 54.10595 39.93862
# Shear Modulus (GPa) = 20.02867 41.63730 30.83299
#
# Velocity S-wave (km/s) = 2.71239 3.91081 3.36537
# Velocity P-wave (km/s) = 4.39043 6.34564 5.45632
#
# Compressibility (1/GPa) = 0.03880288
#
# Stress axis : x y z
#
# Youngs Moduli (GPa) = 78.70459 108.86034 40.59515
#
# Poissons Ratio (x) = 0.10638 -0.12377
# Poissons Ratio (y) = 0.07691 0.24085
# Poissons Ratio (z) = -0.23996 0.64586
#
# Static dielectric constant tensor:
#      x y z
#    x 2.185980 0.040510 -0.053380 
#    y 0.040510 1.985850 0.094910 
#    z -0.053380 0.094910 2.188390 
# 
# From -- ./inp_files/593211.got.cif
#   From: 2010.05.17/outbox.cif.g08.bks.cpg/sg2_297_cif.got.tgz:593211.got - 2010.06.03 11:33:40.
