data_PCOD9096569
_publ_section_title
;
Structure prediction by ZEFSAII (Michael W. Deem and Ramdas Pophale) SiO2 
 PCOD9096569
Probable space group: P -1
;
_chemical_formula_sum "Si O2"
_cell_formula_units_Z 16
_cell_length_a 12.095690
_cell_length_b 12.379475
_cell_length_c 8.353964
_cell_angle_alpha 91.412540
_cell_angle_beta 67.337035
_cell_angle_gamma 40.632983
_cell_volume 638.561953
_symmetry_space_group_name_H-M "P -1"
_symmetry_group_IT_number 2
_symmetry_cell_setting 'triclinic'
loop_
_space_group_symop_operation_xyz
x,y,z
-x,-y,-z
loop_
_atom_site_type_symbol
_atom_site_label
_atom_site_fract_x
_atom_site_fract_y
_atom_site_fract_z
Si Si1 0.976270 0.615857 0.639447
Si Si2 0.393899 0.248862 0.033421
Si Si3 0.154121 0.480745 0.860363
Si Si4 0.273296 0.558434 0.196851
Si Si5 0.766098 0.204559 0.286998
Si Si6 0.383950 0.685273 0.298581
Si Si7 0.125715 0.063202 0.292094
Si Si8 0.028743 0.806591 0.057769
O O1 0.000000 0.500000 0.500000
O O2 0.165208 0.464876 0.663091
O O3 0.961298 0.752647 0.600801
O O4 0.743798 0.755569 0.857633
O O5 0.349732 0.317276 0.872098
O O6 0.287626 0.421249 0.211248
O O7 0.646966 0.069014 0.919573
O O8 0.040336 0.682210 0.961993
O O9 0.000000 0.500000 0.000000
O O10 0.459672 0.425599 0.947782
O O11 0.066289 0.749200 0.218395
O O12 0.302501 0.623699 0.319038
O O13 0.580778 0.331905 0.529263
O O14 0.767193 0.278436 0.131416
O O15 0.967005 0.115048 0.264056
O O16 0.831932 0.037667 0.178761
O O17 0.206734 0.912033 0.368088
#
# Coordination Sequence:
#
# PCOD9096569 Si02
#       8
#     2   2   2   2   2   2   2   2
#     4  11  23  38  63  89 111 150 201 247 291 345
#     4   9  21  38  62  81 117 155 191 239 293 348
#     4   9  19  39  60  83 114 154 194 237 291 344
#     4   9  19  36  58  81 116 152 195 229 296 344
#     4  11  22  34  59  86 121 152 197 239 290 347
#     4  10  21  35  56  86 115 156 190 240 282 350
#     4  11  21  38  59  86 119 153 195 238 294 347
#     4  10  20  36  56  85 116 155 193 242 290 347
#
# _framework density 25.0563
#
# number of rings (size 3 to 8) (size 9 to 14) (size 15 to 20)
#    0.000    2.000    2.500    0.750    1.750    2.500 
#    0.000    0.625   16.500    0.000    0.000    0.000 
#    0.000    0.000    0.000    0.000    0.000    0.000 
#
# Total GULP energy -89142.296246 kJ/mol
# GULP energy per Si atom -5571.393515 kJ/mol
# Density = 2.499927 g / cm^3
# Si number density = 25.056300 Si / 1000 Ang^3
#
#
#
# Elastic Constant Matrix: (Units=GPa)
#
#
# Indices 1 2 3 4 5 6 
#
# 1 102.4573 33.0057 14.0608 5.5843 8.6606 18.5296
# 2 33.0057 111.7609 28.4969 4.6135 9.4900 41.5002
# 3 14.0608 28.4969 99.5347 5.6905 22.7317 9.6379
# 4 5.5843 4.6135 5.6905 35.4729 4.0207 1.8202
# 5 8.6606 9.4900 22.7317 4.0207 46.8893 -7.1316
# 6 18.5296 41.5002 9.6379 1.8202 -7.1316 49.9833
#
#
#
# Elastic Compliance Matrix: (Units=1/GPa)
#
#
# Indices 1 2 3 4 5 6 
#
# 1 0.011142 -0.002066 -0.000255 -0.001106 -0.001815 -0.002585
# 2 -0.002066 0.014613 -0.002010 -0.000290 -0.003317 -0.011442
# 3 -0.000255 -0.002010 0.012105 -0.000945 -0.005535 -0.001326
# 4 -0.001106 -0.000290 -0.000945 0.028784 -0.001819 -0.000475
# 5 -0.001815 -0.003317 -0.005535 -0.001819 0.026440 0.008333
# 6 -0.002585 -0.011442 -0.001326 -0.000475 0.008333 0.031927
#
#
# Mechanical properties :
#
#
# Convention : Reuss Voigt Hill
#
# Bulk Modulus (GPa) = 34.24842 51.65330 42.95086
# Shear Modulus (GPa) = 34.86658 42.34841 38.60750
#
# Velocity S-wave (km/s) = 3.73437 4.11558 3.92960
# Velocity P-wave (km/s) = 5.68263 6.57599 6.14556
#
# Compressibility (1/GPa) = 0.02919842
#
# Stress axis : x y z
#
# Youngs Moduli (GPa) = 89.75248 68.43418 82.61263
#
# Poissons Ratio (x) = 0.14139 0.02103
# Poissons Ratio (y) = 0.18543 0.16603
# Poissons Ratio (z) = 0.02284 0.13753
#
# Static dielectric constant tensor:
#      x y z
#    x 2.042690 -0.038820 -0.074210 
#    y -0.038820 2.026100 -0.038460 
#    z -0.074210 -0.038460 2.113420 
# 
# From -- ./inp_files/305377.got.cif
#   From: 2010.05.17/outbox.cif.g08.bks.cpg/sg2_153_cif.got.tgz:305377.got - 2010.06.03 11:33:40.
