data_PCOD9096850
_publ_section_title
;
Structure prediction by ZEFSAII (Michael W. Deem and Ramdas Pophale) SiO2 
 PCOD9096850
Probable space group: P -1
;
_chemical_formula_sum "Si O2"
_cell_formula_units_Z 16
_cell_length_a 11.503696
_cell_length_b 16.340957
_cell_length_c 11.700527
_cell_angle_alpha 30.589931
_cell_angle_beta 137.791283
_cell_angle_gamma 140.081133
_cell_volume 696.096957
_symmetry_space_group_name_H-M "P -1"
_symmetry_group_IT_number 2
_symmetry_cell_setting 'triclinic'
loop_
_space_group_symop_operation_xyz
x,y,z
-x,-y,-z
loop_
_atom_site_type_symbol
_atom_site_label
_atom_site_fract_x
_atom_site_fract_y
_atom_site_fract_z
Si Si1 0.928997 0.283114 0.341258
Si Si2 0.457240 0.299340 0.952864
Si Si3 0.970272 0.767498 0.302139
Si Si4 0.113291 0.901650 0.768310
Si Si5 0.000262 0.890503 0.945791
Si Si6 0.430494 0.292375 0.197142
Si Si7 0.589818 0.013303 0.305885
Si Si8 0.817117 0.582453 0.821950
O O1 0.770894 0.098831 0.418995
O O2 0.959194 0.336017 0.430866
O O3 0.125180 0.321434 0.373293
O O4 0.849575 0.403635 0.066883
O O5 0.492564 0.252961 0.164310
O O6 0.473279 0.137933 0.086568
O O7 0.250912 0.299147 0.794806
O O8 0.598069 0.497350 0.790597
O O9 0.012954 0.944566 0.194235
O O10 0.057380 0.794936 0.207261
O O11 0.127504 0.934998 0.873255
O O12 0.311507 0.957860 0.780883
O O13 0.968572 0.705573 0.872671
O O14 0.000000 0.000000 0.500000
O O15 0.794543 0.774801 0.890006
O O16 0.489510 0.184659 0.467249
O O17 0.500000 0.500000 0.000000
#
# Coordination Sequence:
#
# PCOD9096850 Si02
#       8
#     2   2   2   2   2   2   2   2
#     4   9  17  36  61  85 112 154 193 240 283 347
#     4  10  22  35  58  91 121 152 191 246 295 345
#     4  10  20  37  60  82 118 160 190 230 298 367
#     4  11  19  35  64  85 114 155 198 247 291 338
#     4  10  20  36  58  85 111 153 203 229 283 362
#     4  11  20  35  60  89 120 149 199 252 289 337
#     4  10  20  37  60  90 114 152 204 247 290 337
#     4   9  19  34  58  90 114 139 201 249 280 333
#
# _framework density 22.985303999999999
#
# number of rings (size 3 to 8) (size 9 to 14) (size 15 to 20)
#    0.000    2.000    2.500    2.625    0.000    0.500 
#    0.000    1.250    5.500    0.000    0.000    0.000 
#    0.000    0.000    0.000    0.000    0.000    0.000 
#
# Total GULP energy -89124.575771 kJ/mol
# GULP energy per Si atom -5570.285986 kJ/mol
# Density = 2.293299 g / cm^3
# Si number density = 22.985304 Si / 1000 Ang^3
#
#
#
# Elastic Constant Matrix: (Units=GPa)
#
#
# Indices 1 2 3 4 5 6 
#
# 1 97.8697 1.8202 17.3014 12.8726 -20.4516 -19.6078
# 2 1.8202 52.9744 18.9799 -11.9868 -5.1071 4.3016
# 3 17.3014 18.9799 63.3169 -3.6274 -15.3435 -6.2933
# 4 12.8726 -11.9868 -3.6274 40.5642 -14.5056 -7.4682
# 5 -20.4516 -5.1071 -15.3435 -14.5056 26.7620 6.8357
# 6 -19.6078 4.3016 -6.2933 -7.4682 6.8357 32.3242
#
#
#
# Elastic Compliance Matrix: (Units=1/GPa)
#
#
# Indices 1 2 3 4 5 6 
#
# 1 0.013321 0.000138 -0.001228 -0.000413 0.007722 0.006095
# 2 0.000138 0.023623 -0.005312 0.008290 0.006996 -0.003658
# 3 -0.001228 -0.005312 0.021426 0.005815 0.012775 0.002776
# 4 -0.000413 0.008290 0.005815 0.036843 0.023734 0.003272
# 5 0.007722 0.006996 0.012775 0.023734 0.065326 -0.002091
# 6 0.006095 -0.003658 0.002776 0.003272 -0.002091 0.036859
#
#
# Mechanical properties :
#
#
# Convention : Reuss Voigt Hill
#
# Bulk Modulus (GPa) = 21.94611 32.26264 27.10438
# Shear Modulus (GPa) = 22.18371 31.66738 26.92555
#
# Velocity S-wave (km/s) = 3.11002 3.71580 3.42632
# Velocity P-wave (km/s) = 4.73971 5.69879 5.24124
#
# Compressibility (1/GPa) = 0.04556615
#
# Stress axis : x y z
#
# Youngs Moduli (GPa) = 75.06850 42.33179 46.67125
#
# Poissons Ratio (x) = -0.00586 0.05732
# Poissons Ratio (y) = -0.01039 0.24794
# Poissons Ratio (z) = 0.09220 0.22489
#
# Static dielectric constant tensor:
#      x y z
#    x 2.072850 0.051700 -0.056910 
#    y 0.051700 1.928180 -0.084890 
#    z -0.056910 -0.084890 2.092380 
# 
# From -- ./inp_files/436436.got.cif
#   From: 2010.05.17/outbox.cif.g08.bks.cpg/sg2_219_cif.got.tgz:436436.got - 2010.06.03 11:33:40.
