data_PCOD9096924
_publ_section_title
;
Structure prediction by ZEFSAII (Michael W. Deem and Ramdas Pophale) SiO2 
 PCOD9096924
Probable space group: P -1
;
_chemical_formula_sum "Si O2"
_cell_formula_units_Z 13
_cell_length_a 13.584349
_cell_length_b 16.266665
_cell_length_c 8.099904
_cell_angle_alpha 125.155643
_cell_angle_beta 53.854671
_cell_angle_gamma 156.178396
_cell_volume 580.152335
_symmetry_space_group_name_H-M "P -1"
_symmetry_group_IT_number 2
_symmetry_cell_setting 'triclinic'
loop_
_space_group_symop_operation_xyz
x,y,z
-x,-y,-z
loop_
_atom_site_type_symbol
_atom_site_label
_atom_site_fract_x
_atom_site_fract_y
_atom_site_fract_z
Si Si1 0.217929 0.642745 0.660444
Si Si2 0.525708 0.380903 0.000508
Si Si3 0.294939 0.036484 0.669681
Si Si4 0.000000 0.000000 0.500000
Si Si5 0.467754 0.701942 0.747288
Si Si6 0.964886 0.305934 0.279755
Si Si7 0.223019 0.324983 0.417381
O O1 0.316353 0.683858 0.791011
O O2 0.099792 0.666349 0.774540
O O3 0.034539 0.428770 0.508199
O O4 0.463815 0.816726 0.503657
O O5 0.559268 0.333288 0.071864
O O6 0.410598 0.402033 0.198378
O O7 0.786616 0.576329 0.876499
O O8 0.332364 0.179363 0.848674
O O9 0.254352 0.928324 0.732348
O O10 0.038876 0.844796 0.605178
O O11 0.240964 0.093722 0.351142
O O12 0.167063 0.206991 0.483446
O O13 0.339687 0.512065 0.574255
#
# Coordination Sequence:
#
# PCOD9096924 Si02
#       7
#     2   2   2   1   2   2   2
#     4  10  21  41  66  87 117 164 210 242 292 367
#     4  10  24  37  57  95 125 153 197 256 299 356
#     4  11  21  40  62  92 118 161 202 250 301 349
#     4  10  20  36  58  88 120 148 202 242 282 356
#     4  11  22  41  63  91 120 164 201 243 307 354
#     4  10  22  41  62  89 124 158 203 252 295 355
#     4  11  22  39  64  89 121 165 198 243 305 364
#
# _framework density 22.407910000000001
#
# number of rings (size 3 to 8) (size 9 to 14) (size 15 to 20)
#    0.000    1.538    3.077    2.769    0.000    6.154 
#    0.000    0.769    0.000    0.000    0.000    0.000 
#    0.000    0.000    0.000    0.000    0.000    0.000 
#
# Total GULP energy -72415.754456 kJ/mol
# GULP energy per Si atom -5570.442650 kJ/mol
# Density = 2.235691 g / cm^3
# Si number density = 22.407910 Si / 1000 Ang^3
#
#
#
# Elastic Constant Matrix: (Units=GPa)
#
#
# Indices 1 2 3 4 5 6 
#
# 1 74.8976 -4.8254 -29.4857 -0.7427 -6.0510 4.2061
# 2 -4.8254 27.7110 22.0029 8.7856 0.3496 -0.7857
# 3 -29.4857 22.0029 14.3916 0.4799 -3.7410 -3.0560
# 4 -0.7427 8.7856 0.4799 9.6504 -2.3636 4.9316
# 5 -6.0510 0.3496 -3.7410 -2.3636 19.5165 4.1010
# 6 4.2061 -0.7857 -3.0560 4.9316 4.1010 35.1112
#
#
#
# Elastic Compliance Matrix: (Units=1/GPa)
#
#
# Indices 1 2 3 4 5 6 
#
# 1 0.007430 0.021006 -0.017003 -0.019323 -0.003940 0.001274
# 2 0.021006 -0.001857 0.049902 0.005478 0.016978 -0.000967
# 3 -0.017003 0.049902 -0.043775 -0.055299 -0.023320 0.009834
# 4 -0.019323 0.005478 -0.055299 0.109009 0.000236 -0.017715
# 5 -0.003940 0.016978 -0.023320 0.000236 0.046671 -0.006662
# 6 0.001274 -0.000967 0.009834 -0.017715 -0.006662 0.032429
#
#
# Mechanical properties :
#
#
# Convention : Reuss Voigt Hill
#
# Bulk Modulus (GPa) = 14.36599 10.26484 12.31541
# Shear Modulus (GPa) = 76.57148 21.47619 49.02383
#
# Velocity S-wave (km/s) = 5.85199 3.09919 4.68246
# Velocity P-wave (km/s) = 7.21707 4.17103 5.89422
#
# Compressibility (1/GPa) = 0.06960887
#
# Stress axis : x y z
#
# Youngs Moduli (GPa) = 134.59575 -538.54562 -22.84397
#
# Poissons Ratio (x) = 11.31287 -0.38842
# Poissons Ratio (y) = -2.82736 1.13997
# Poissons Ratio (z) = 2.28855 26.87475
#
# Static dielectric constant tensor:
#      x y z
#    x 1.998620 0.063660 0.056370 
#    y 0.063660 1.834200 0.025480 
#    z 0.056370 0.025480 1.830020 
# 
# From -- ./inp_files/21972.got.cif
#   From: 2010.05.17/outbox.cif.g08.bks.cpg/sg2_11_cif.got.tgz:21972.got - 2010.06.03 11:33:40.
