data_PCOD9096987
_publ_section_title
;
Structure prediction by ZEFSAII (Michael W. Deem and Ramdas Pophale) SiO2 
 PCOD9096987
Probable space group: P -1
;
_chemical_formula_sum "Si O2"
_cell_formula_units_Z 16
_cell_length_a 19.039507
_cell_length_b 9.657343
_cell_length_c 6.106626
_cell_angle_alpha 107.033109
_cell_angle_beta 60.398986
_cell_angle_gamma 135.530264
_cell_volume 680.641436
_symmetry_space_group_name_H-M "P -1"
_symmetry_group_IT_number 2
_symmetry_cell_setting 'triclinic'
loop_
_space_group_symop_operation_xyz
x,y,z
-x,-y,-z
loop_
_atom_site_type_symbol
_atom_site_label
_atom_site_fract_x
_atom_site_fract_y
_atom_site_fract_z
Si Si1 0.964084 0.654594 0.883066
Si Si2 0.457048 0.654667 0.210911
Si Si3 0.587614 0.061055 0.072734
Si Si4 0.083518 0.719088 0.344296
Si Si5 0.751378 0.193436 0.526494
Si Si6 0.806352 0.000482 0.072019
Si Si7 0.410162 0.419431 0.789426
Si Si8 0.733709 0.434905 0.334006
O O1 0.938924 0.448438 0.854992
O O2 0.987557 0.693142 0.602754
O O3 0.073238 0.850481 0.926975
O O4 0.856107 0.600834 0.121743
O O5 0.516363 0.879378 0.264642
O O6 0.550185 0.655025 0.135830
O O7 0.340561 0.519061 0.456364
O O8 0.429556 0.591728 0.969762
O O9 0.662861 0.267156 0.177842
O O10 0.500000 0.000000 0.000000
O O11 0.667525 0.067573 0.795940
O O12 0.137009 0.707254 0.468655
O O13 0.163062 0.925954 0.190865
O O14 0.742091 0.061268 0.294742
O O15 0.743157 0.337833 0.485686
O O16 0.719771 0.765701 0.138842
O O17 0.500000 0.500000 0.500000
#
# Coordination Sequence:
#
# PCOD9096987 Si02
#       8
#     2   2   2   2   2   2   2   2
#     4  10  22  35  60  98 134 170 209 268 325 396
#     4  11  26  43  64  94 129 172 224 269 323 391
#     4  12  24  38  64 100 134 168 204 267 341 398
#     4  10  20  36  58  96 136 172 209 256 329 391
#     4  11  20  34  61  93 135 164 205 258 332 386
#     4  11  22  39  66  91 131 171 224 266 316 386
#     4  11  26  48  69  89 125 177 230 273 313 379
#     4  12  24  39  60  99 135 164 207 267 335 396
#
# _framework density 23.507238000000001
#
# number of rings (size 3 to 8) (size 9 to 14) (size 15 to 20)
#    0.000    1.000    3.750    3.000    7.000    3.000 
#    0.000    0.625    0.000    1.500    0.000    0.000 
#    0.000    0.000    0.000    0.000    0.000    0.000 
#
# Total GULP energy -89188.564676 kJ/mol
# GULP energy per Si atom -5574.285292 kJ/mol
# Density = 2.345373 g / cm^3
# Si number density = 23.507238 Si / 1000 Ang^3
#
#
#
# Elastic Constant Matrix: (Units=GPa)
#
#
# Indices 1 2 3 4 5 6 
#
# 1 42.7900 13.7054 -3.4919 7.8543 2.5477 23.9278
# 2 13.7054 108.5316 28.5848 -3.0674 0.3653 32.4508
# 3 -3.4919 28.5848 126.4300 -18.8417 -17.3223 15.7016
# 4 7.8543 -3.0674 -18.8417 32.0489 7.6215 -1.1356
# 5 2.5477 0.3653 -17.3223 7.6215 41.0394 -6.0545
# 6 23.9278 32.4508 15.7016 -1.1356 -6.0545 29.4322
#
#
#
# Elastic Compliance Matrix: (Units=1/GPa)
#
#
# Indices 1 2 3 4 5 6 
#
# 1 0.058377 0.010127 0.004294 -0.010862 -0.009212 -0.063230
# 2 0.010127 0.016088 -0.000915 -0.001270 -0.004836 -0.026526
# 3 0.004294 -0.000915 0.010023 0.003981 0.002166 -0.007230
# 4 -0.010862 -0.001270 0.003981 0.037165 -0.003226 0.008877
# 5 -0.009212 -0.004836 0.002166 -0.003226 0.029080 0.017523
# 6 -0.063230 -0.026526 -0.007230 0.008877 0.017523 0.122432
#
#
# Mechanical properties :
#
#
# Convention : Reuss Voigt Hill
#
# Bulk Modulus (GPa) = 8.96864 39.48313 24.22589
# Shear Modulus (GPa) = 17.64791 36.43433 27.04112
#
# Velocity S-wave (km/s) = 2.74294 3.94117 3.39533
# Velocity P-wave (km/s) = 3.72226 6.12724 5.06943
#
# Compressibility (1/GPa) = 0.11149958
#
# Stress axis : x y z
#
# Youngs Moduli (GPa) = 17.13013 62.15887 99.76988
#
# Poissons Ratio (x) = -0.62947 -0.42845
# Poissons Ratio (y) = -0.17347 0.09130
# Poissons Ratio (z) = -0.07356 0.05688
#
# Static dielectric constant tensor:
#      x y z
#    x 2.310650 0.347420 -0.185440 
#    y 0.347420 2.289530 -0.203190 
#    z -0.185440 -0.203190 2.059990 
# 
# From -- ./inp_files/118767.got.cif
#   From: 2010.05.17/outbox.cif.g08.bks.cpg/sg2_60_cif.got.tgz:118767.got - 2010.06.03 11:33:40.
