data_PCOD9096014
_publ_section_title
;
Structure prediction by ZEFSAII (Michael W. Deem and Ramdas Pophale) SiO2 
 PCOD9096014
Probable space group: P -1
;
_chemical_formula_sum "Si O2"
_cell_formula_units_Z 12
_cell_length_a 13.625251
_cell_length_b 10.847615
_cell_length_c 10.708234
_cell_angle_alpha 134.893360
_cell_angle_beta 32.089138
_cell_angle_gamma 121.795723
_cell_volume 584.914580
_symmetry_space_group_name_H-M "P -1"
_symmetry_group_IT_number 2
_symmetry_cell_setting 'triclinic'
loop_
_space_group_symop_operation_xyz
x,y,z
-x,-y,-z
loop_
_atom_site_type_symbol
_atom_site_label
_atom_site_fract_x
_atom_site_fract_y
_atom_site_fract_z
Si Si1 0.068031 0.653174 0.615594
Si Si2 0.051912 0.416789 0.692175
Si Si3 0.802283 0.847098 0.861090
Si Si4 0.693674 0.570995 0.339610
Si Si5 0.450402 0.764101 0.289686
Si Si6 0.471897 0.140958 0.461772
O O1 0.932892 0.825796 0.827780
O O2 0.000000 0.500000 0.500000
O O3 0.045884 0.590972 0.736130
O O4 0.281218 0.670033 0.371710
O O5 0.084913 0.244480 0.444096
O O6 0.221241 0.404322 0.598975
O O7 0.857727 0.442352 0.995366
O O8 0.637714 0.731863 0.981472
O O9 0.680210 0.043942 0.122234
O O10 0.500000 0.500000 0.500000
O O11 0.646272 0.753849 0.444682
O O12 0.506796 0.737484 0.354922
O O13 0.385444 0.976676 0.490970
#
# Coordination Sequence:
#
# PCOD9096014 Si02
#       6
#     2   2   2   2   2   2
#     4  10  20  35  61  93 120 148 192 246 297 352
#     4  10  23  37  58  86 117 153 204 241 285 357
#     4   9  20  38  58  93 117 149 199 243 299 344
#     4  11  23  42  58  79 117 165 201 241 292 349
#     4   9  19  37  60  92 121 153 185 246 303 346
#     4   9  20  40  61  88 121 157 195 238 300 354
#
# _framework density 20.515816000000001
#
# number of rings (size 3 to 8) (size 9 to 14) (size 15 to 20)
#    1.000    1.333    0.000    2.000    0.000    6.667 
#    6.000    0.833    0.000    0.000    0.000    0.000 
#    0.000    0.000    0.000    0.000    0.000    0.000 
#
# Total GULP energy -66878.476891 kJ/mol
# GULP energy per Si atom -5573.206408 kJ/mol
# Density = 2.046912 g / cm^3
# Si number density = 20.515816 Si / 1000 Ang^3
#
#
#
# Elastic Constant Matrix: (Units=GPa)
#
#
# Indices 1 2 3 4 5 6 
#
# 1 132.2417 30.7986 19.0762 -0.1721 -15.8464 -27.3340
# 2 30.7986 30.3204 -6.3997 -9.7469 -10.0868 2.0705
# 3 19.0762 -6.3997 50.3150 2.6810 -1.7724 -7.4981
# 4 -0.1721 -9.7469 2.6810 32.3861 5.4840 -11.6701
# 5 -15.8464 -10.0868 -1.7724 5.4840 32.5343 -5.7006
# 6 -27.3340 2.0705 -7.4981 -11.6701 -5.7006 31.2758
#
#
#
# Elastic Compliance Matrix: (Units=1/GPa)
#
#
# Indices 1 2 3 4 5 6 
#
# 1 0.015851 -0.016766 -0.005825 -0.000095 0.004743 0.014395
# 2 -0.016766 0.059486 0.012058 0.012033 0.007170 -0.009903
# 3 -0.005825 0.012058 0.023719 0.001557 0.002063 0.000755
# 4 -0.000095 0.012033 0.001557 0.039547 -0.000413 0.014174
# 5 0.004743 0.007170 0.002063 -0.000413 0.037348 0.010819
# 6 0.014395 -0.009903 0.000755 0.014174 0.010819 0.052652
#
#
# Mechanical properties :
#
#
# Convention : Reuss Voigt Hill
#
# Bulk Modulus (GPa) = 12.82188 33.31417 23.06802
# Shear Modulus (GPa) = 18.13805 30.53271 24.33538
#
# Velocity S-wave (km/s) = 2.97661 3.86197 3.44783
# Velocity P-wave (km/s) = 4.25170 6.01332 5.20754
#
# Compressibility (1/GPa) = 0.07799169
#
# Stress axis : x y z
#
# Youngs Moduli (GPa) = 63.08936 16.81070 42.16030
#
# Poissons Ratio (x) = 0.28184 0.24557
# Poissons Ratio (y) = 1.05773 -0.50838
# Poissons Ratio (z) = 0.36747 -0.20271
#
# Static dielectric constant tensor:
#      x y z
#    x 1.726470 -0.025700 -0.004340 
#    y -0.025700 1.776470 0.038840 
#    z -0.004340 0.038840 1.791880 
# 
# From -- ./inp_files/450566.got.cif
#   From: 2010.05.17/outbox.cif.g08.bks.cpg/sg2_226_cif.got.tgz:450566.got - 2010.06.03 11:33:40.
