data_PCOD9096825
_publ_section_title
;
Structure prediction by ZEFSAII (Michael W. Deem and Ramdas Pophale) SiO2 
 PCOD9096825
Probable space group: P -1
;
_chemical_formula_sum "Si O2"
_cell_formula_units_Z 16
_cell_length_a 8.592071
_cell_length_b 15.202094
_cell_length_c 14.667631
_cell_angle_alpha 142.988443
_cell_angle_beta 116.013872
_cell_angle_gamma 90.593736
_cell_volume 772.658529
_symmetry_space_group_name_H-M "P -1"
_symmetry_group_IT_number 2
_symmetry_cell_setting 'triclinic'
loop_
_space_group_symop_operation_xyz
x,y,z
-x,-y,-z
loop_
_atom_site_type_symbol
_atom_site_label
_atom_site_fract_x
_atom_site_fract_y
_atom_site_fract_z
Si Si1 0.585433 0.614828 0.393778
Si Si2 0.791925 0.272322 0.238641
Si Si3 0.517182 0.346855 0.312192
Si Si4 0.667669 0.534021 0.148296
Si Si5 0.813891 0.500163 0.692733
Si Si6 0.180126 0.839505 0.570488
Si Si7 0.329384 0.792349 0.056405
Si Si8 0.088658 0.959064 0.833902
O O1 0.595126 0.485531 0.360589
O O2 0.599652 0.563339 0.253062
O O3 0.349528 0.564211 0.316003
O O4 0.815920 0.838635 0.656948
O O5 0.589013 0.218270 0.205827
O O6 0.712975 0.249480 0.096904
O O7 0.876574 0.158896 0.187959
O O8 0.000000 0.500000 0.500000
O O9 0.656912 0.467042 0.538754
O O10 0.240035 0.175881 0.092224
O O11 0.646851 0.347832 0.001371
O O12 0.938475 0.727096 0.361779
O O13 0.500000 0.500000 0.000000
O O14 0.839563 0.340261 0.550972
O O15 0.072496 0.708787 0.947569
O O16 0.169287 0.942710 0.740963
O O17 0.417905 0.989107 0.698178
#
# Coordination Sequence:
#
# PCOD9096825 Si02
#       8
#     2   2   2   2   2   2   2   2
#     4  11  23  38  52  81 117 146 179 226 277 322
#     4  12  16  30  54  81 110 145 186 227 251 307
#     4  12  20  32  54  83 115 152 185 215 262 315
#     4  10  22  41  63  82 101 135 188 239 278 317
#     4  11  23  34  53  83 122 150 173 213 272 334
#     4  10  20  36  58  84 107 142 186 226 267 321
#     4  11  20  36  58  81 108 144 186 226 263 317
#     4  11  20  32  56  80 110 150 192 223 252 312
#
# _framework density 20.707723000000001
#
# number of rings (size 3 to 8) (size 9 to 14) (size 15 to 20)
#    0.000    1.000    6.250    2.250    0.000    2.000 
#    0.000    2.500    0.000    1.500    0.000    0.000 
#    0.000    0.000    0.000    0.000    0.000    0.000 
#
# Total GULP energy -89284.139677 kJ/mol
# GULP energy per Si atom -5580.258730 kJ/mol
# Density = 2.066059 g / cm^3
# Si number density = 20.707723 Si / 1000 Ang^3
#
#
#
# Elastic Constant Matrix: (Units=GPa)
#
#
# Indices 1 2 3 4 5 6 
#
# 1 82.4155 12.1973 37.6639 -0.3311 29.6976 8.7441
# 2 12.1973 76.8649 58.9878 -13.9921 20.5950 -7.7501
# 3 37.6639 58.9878 145.6146 5.2984 40.5375 -1.3413
# 4 -0.3311 -13.9921 5.2984 32.0263 -0.7879 10.7014
# 5 29.6976 20.5950 40.5375 -0.7879 41.3439 6.0066
# 6 8.7441 -7.7501 -1.3413 10.7014 6.0066 21.3954
#
#
#
# Elastic Compliance Matrix: (Units=1/GPa)
#
#
# Indices 1 2 3 4 5 6 
#
# 1 0.017186 0.001975 -0.002633 0.002956 -0.009941 -0.005161
# 2 0.001975 0.022904 -0.008951 0.010430 -0.004275 0.002912
# 3 -0.002633 -0.008951 0.013741 -0.008072 -0.008000 0.004978
# 4 0.002956 0.010430 -0.008072 0.044421 0.004556 -0.021433
# 5 -0.009941 -0.004275 -0.008000 0.004556 0.043189 -0.012391
# 6 -0.005161 0.002912 0.004978 -0.021433 -0.012391 0.064414
#
#
# Mechanical properties :
#
#
# Convention : Reuss Voigt Hill
#
# Bulk Modulus (GPa) = 28.89208 58.06590 43.47899
# Shear Modulus (GPa) = 21.13172 32.02286 26.57729
#
# Velocity S-wave (km/s) = 3.19795 3.93672 3.58641
# Velocity P-wave (km/s) = 5.25533 6.98321 6.17996
#
# Compressibility (1/GPa) = 0.03461156
#
# Stress axis : x y z
#
# Youngs Moduli (GPa) = 58.18625 43.66128 72.77315
#
# Poissons Ratio (x) = -0.08621 0.19160
# Poissons Ratio (y) = -0.11489 0.65143
# Poissons Ratio (z) = 0.15319 0.39083
#
# Static dielectric constant tensor:
#      x y z
#    x 1.860040 -0.011890 0.046200 
#    y -0.011890 1.707300 0.047940 
#    z 0.046200 0.047940 1.811840 
# 
# From -- ./inp_files/258416.got.cif
#   From: 2010.05.17/outbox.cif.g08.bks.cpg/sg2_130_cif.got.tgz:258416.got - 2010.06.03 11:33:40.
