data_PCOD9096917
_publ_section_title
;
Structure prediction by ZEFSAII (Michael W. Deem and Ramdas Pophale) SiO2 
 PCOD9096917
Probable space group: P -1
;
_chemical_formula_sum "Si O2"
_cell_formula_units_Z 13
_cell_length_a 9.284393
_cell_length_b 8.394639
_cell_length_c 10.271177
_cell_angle_alpha 99.182107
_cell_angle_beta 135.796374
_cell_angle_gamma 83.546736
_cell_volume 550.981318
_symmetry_space_group_name_H-M "P -1"
_symmetry_group_IT_number 2
_symmetry_cell_setting 'triclinic'
loop_
_space_group_symop_operation_xyz
x,y,z
-x,-y,-z
loop_
_atom_site_type_symbol
_atom_site_label
_atom_site_fract_x
_atom_site_fract_y
_atom_site_fract_z
Si Si1 0.286589 0.885537 0.656165
Si Si2 0.231204 0.550075 0.467056
Si Si3 0.284748 0.263958 0.040859
Si Si4 0.871257 0.313786 0.114664
Si Si5 0.500000 0.500000 0.000000
Si Si6 0.657726 0.427841 0.743570
Si Si7 0.005857 0.006168 0.722868
O O1 0.195427 0.702521 0.556312
O O2 0.529997 0.860759 0.826875
O O3 0.175914 0.972464 0.715283
O O4 0.210974 0.977246 0.489519
O O5 0.416133 0.440032 0.631407
O O6 0.324481 0.617357 0.400577
O O7 0.035776 0.445480 0.289460
O O8 0.265747 0.386496 0.165342
O O9 0.920228 0.829992 0.140803
O O10 0.354660 0.383866 0.985790
O O11 0.973004 0.142529 0.186727
O O12 0.662857 0.349581 0.064976
O O13 0.794072 0.328403 0.918405
#
# Coordination Sequence:
#
# PCOD9096917 Si02
#       7
#     2   2   2   2   1   2   2
#     4  10  21  38  56  84 119 162 183 240 295 351
#     4  10  21  42  63  87 117 156 209 240 289 351
#     4  10  20  40  59  86 117 155 193 248 291 348
#     4  11  22  37  60  91 118 156 198 249 291 348
#     4  10  20  36  58  88 112 150 202 232 292 344
#     4   9  21  41  66  86 112 159 206 249 286 338
#     4  11  23  37  56  90 124 153 192 235 311 354
#
# _framework density 23.594266000000001
#
# number of rings (size 3 to 8) (size 9 to 14) (size 15 to 20)
#    0.000    1.846    1.538    2.769    0.000    1.846 
#   13.846    3.077    0.000    5.538    0.000    0.000 
#    0.000    0.000    0.000    0.000    0.000    0.000 
#
# Total GULP energy -72458.689723 kJ/mol
# GULP energy per Si atom -5573.745363 kJ/mol
# Density = 2.354056 g / cm^3
# Si number density = 23.594266 Si / 1000 Ang^3
#
#
#
# Elastic Constant Matrix: (Units=GPa)
#
#
# Indices 1 2 3 4 5 6 
#
# 1 33.9760 11.6243 10.1605 4.0768 8.0612 -16.0351
# 2 11.6243 67.5388 33.5646 -21.9818 -7.4193 -6.5823
# 3 10.1605 33.5646 133.0248 -29.6098 5.8303 4.1637
# 4 4.0768 -21.9818 -29.6098 51.5520 -14.7123 0.3771
# 5 8.0612 -7.4193 5.8303 -14.7123 21.0718 2.2833
# 6 -16.0351 -6.5823 4.1637 0.3771 2.2833 22.6179
#
#
#
# Elastic Compliance Matrix: (Units=1/GPa)
#
#
# Indices 1 2 3 4 5 6 
#
# 1 0.132341 -0.044310 -0.012727 -0.072776 -0.124032 0.097006
# 2 -0.044310 0.038232 0.000225 0.036998 0.059098 -0.026912
# 3 -0.012727 0.000225 0.010646 0.010307 0.010516 -0.012151
# 4 -0.072776 0.036998 0.010307 0.074619 0.095929 -0.053653
# 5 -0.124032 0.059098 0.010516 0.095929 0.189907 -0.093441
# 6 0.097006 -0.026912 -0.012151 -0.053653 -0.093441 0.117718
#
#
# Mechanical properties :
#
#
# Convention : Reuss Voigt Hill
#
# Bulk Modulus (GPa) = 14.79392 38.35983 26.57687
# Shear Modulus (GPa) = 7.14675 30.99436 19.07055
#
# Velocity S-wave (km/s) = 1.74230 3.62835 2.84609
# Velocity P-wave (km/s) = 3.21422 5.81779 4.69988
#
# Compressibility (1/GPa) = 0.06759534
#
# Stress axis : x y z
#
# Youngs Moduli (GPa) = 7.55623 26.15629 93.92855
#
# Poissons Ratio (x) = 1.15899 1.19545
# Poissons Ratio (y) = 0.33482 -0.02117
# Poissons Ratio (z) = 0.09617 -0.00589
#
# Static dielectric constant tensor:
#      x y z
#    x 1.899660 0.014220 -0.021350 
#    y 0.014220 1.993050 -0.044720 
#    z -0.021350 -0.044720 1.922710 
# 
# From -- ./inp_files/413037.got.cif
#   From: 2010.05.17/outbox.cif.g08.bks.cpg/sg2_207_cif.got.tgz:413037.got - 2010.06.03 11:33:40.
