data_PCOD9096341
_publ_section_title
;
Structure prediction by ZEFSAII (Michael W. Deem and Ramdas Pophale) SiO2 
 PCOD9096341
Probable space group: P -1
;
_chemical_formula_sum "Si O2"
_cell_formula_units_Z 16
_cell_length_a 8.177415
_cell_length_b 19.961889
_cell_length_c 15.780213
_cell_angle_alpha 153.491609
_cell_angle_beta 144.230704
_cell_angle_gamma 43.172331
_cell_volume 671.976286
_symmetry_space_group_name_H-M "P -1"
_symmetry_group_IT_number 2
_symmetry_cell_setting 'triclinic'
loop_
_space_group_symop_operation_xyz
x,y,z
-x,-y,-z
loop_
_atom_site_type_symbol
_atom_site_label
_atom_site_fract_x
_atom_site_fract_y
_atom_site_fract_z
Si Si1 0.201573 0.476806 0.949090
Si Si2 0.658561 0.663228 0.981367
Si Si3 0.798454 0.060630 0.718724
Si Si4 0.436957 0.158288 0.260289
Si Si5 0.198197 0.403187 0.666420
Si Si6 0.183138 0.847725 0.740529
Si Si7 0.813844 0.959824 0.297307
Si Si8 0.915837 0.333246 0.201330
O O1 0.249252 0.344884 0.889249
O O2 0.468614 0.586086 0.202386
O O3 0.206734 0.420988 0.792088
O O4 0.903611 0.559019 0.928312
O O5 0.340934 0.607591 0.782955
O O6 0.640737 0.820881 0.103512
O O7 0.988597 0.102448 0.765611
O O8 0.500000 0.000000 0.500000
O O9 0.805939 0.189987 0.938778
O O10 0.955889 0.919860 0.665101
O O11 0.581665 0.212146 0.294163
O O12 0.182785 0.272921 0.296447
O O13 0.656041 0.112136 0.372517
O O14 0.317598 0.990324 0.004098
O O15 0.047452 0.542393 0.714258
O O16 0.996805 0.264184 0.406306
O O17 0.000000 0.000000 0.500000
#
# Coordination Sequence:
#
# PCOD9096341 Si02
#       8
#     2   2   2   2   2   2   2   2
#     4   9  21  36  59  93 136 157 206 274 303 368
#     4  10  21  38  57  89 132 169 201 254 324 363
#     4  10  21  35  60  93 127 159 213 265 305 369
#     4   9  21  42  58  90 131 161 210 264 310 386
#     4  10  20  35  67  96 118 169 218 258 320 362
#     4   9  20  36  63  91 124 165 209 266 313 362
#     4  11  23  37  64  91 120 162 207 260 325 374
#     4  10  21  39  63  90 126 173 212 260 311 370
#
# _framework density 23.810364
#
# number of rings (size 3 to 8) (size 9 to 14) (size 15 to 20)
#    0.000    2.250    0.000    2.250   10.500    1.000 
#    0.000    0.000    0.000    2.250    0.000    0.000 
#    0.000    0.000    0.000    0.000    0.000    0.000 
#
# Total GULP energy -89338.055448 kJ/mol
# GULP energy per Si atom -5583.628466 kJ/mol
# Density = 2.375617 g / cm^3
# Si number density = 23.810364 Si / 1000 Ang^3
#
#
#
# Elastic Constant Matrix: (Units=GPa)
#
#
# Indices 1 2 3 4 5 6 
#
# 1 94.5051 51.4490 23.1151 1.0329 14.9495 -0.9435
# 2 51.4490 99.4705 15.7893 -18.4178 7.1091 -4.3601
# 3 23.1151 15.7893 79.0566 0.4490 15.9065 0.1527
# 4 1.0329 -18.4178 0.4490 35.4367 9.7408 9.8378
# 5 14.9495 7.1091 15.9065 9.7408 23.7419 1.4541
# 6 -0.9435 -4.3601 0.1527 9.8378 1.4541 38.3725
#
#
#
# Elastic Compliance Matrix: (Units=1/GPa)
#
#
# Indices 1 2 3 4 5 6 
#
# 1 0.016586 -0.008543 -0.002120 -0.003686 -0.004988 0.000580
# 2 -0.008543 0.016580 -0.000152 0.010062 -0.003565 -0.000770
# 3 -0.002120 -0.000152 0.015279 0.002633 -0.009910 -0.000430
# 4 -0.003686 0.010062 0.002633 0.041128 -0.018791 -0.008790
# 5 -0.004988 -0.003565 -0.009910 -0.018791 0.060553 0.002035
# 6 0.000580 -0.000770 -0.000430 -0.008790 0.002035 0.028165
#
#
# Mechanical properties :
#
#
# Convention : Reuss Voigt Hill
#
# Bulk Modulus (GPa) = 37.29158 50.41545 43.85352
# Shear Modulus (GPa) = 23.93959 31.68880 27.81420
#
# Velocity S-wave (km/s) = 3.17429 3.65208 3.42154
# Velocity P-wave (km/s) = 5.39729 6.24527 5.83670
#
# Compressibility (1/GPa) = 0.02681570
#
# Stress axis : x y z
#
# Youngs Moduli (GPa) = 60.29235 60.31374 65.44865
#
# Poissons Ratio (x) = 0.51525 0.13874
# Poissons Ratio (y) = 0.51507 0.00995
# Poissons Ratio (z) = 0.12781 0.00917
#
# Static dielectric constant tensor:
#      x y z
#    x 2.004220 0.031750 -0.020480 
#    y 0.031750 1.905420 0.042750 
#    z -0.020480 0.042750 1.989000 
# 
# From -- ./inp_files/562689.got.cif
#   From: 2010.05.17/outbox.cif.g08.bks.cpg/sg2_282_cif.got.tgz:562689.got - 2010.06.03 11:33:40.
