data_PCOD9096742
_publ_section_title
;
Structure prediction by ZEFSAII (Michael W. Deem and Ramdas Pophale) SiO2 
 PCOD9096742
Probable space group: P -1
;
_chemical_formula_sum "Si O2"
_cell_formula_units_Z 14
_cell_length_a 23.660184
_cell_length_b 4.919034
_cell_length_c 9.928137
_cell_angle_alpha 77.038232
_cell_angle_beta 140.548092
_cell_angle_gamma 84.197275
_cell_volume 641.496548
_symmetry_space_group_name_H-M "P -1"
_symmetry_group_IT_number 2
_symmetry_cell_setting 'triclinic'
loop_
_space_group_symop_operation_xyz
x,y,z
-x,-y,-z
loop_
_atom_site_type_symbol
_atom_site_label
_atom_site_fract_x
_atom_site_fract_y
_atom_site_fract_z
Si Si1 0.284826 0.058449 0.656536
Si Si2 0.928953 0.337402 0.384047
Si Si3 0.410674 0.301956 0.235734
Si Si4 0.264272 0.477608 0.167560
Si Si5 0.227816 0.542352 0.701856
Si Si6 0.492848 0.614404 0.127581
Si Si7 0.296195 0.835721 0.400696
O O1 0.251371 0.837506 0.706536
O O2 0.268410 0.971951 0.484674
O O3 0.229663 0.403141 0.573197
O O4 0.402212 0.954395 0.910094
O O5 0.875412 0.363729 0.425444
O O6 0.000000 0.500000 0.500000
O O7 0.834502 0.477414 0.096402
O O8 0.000000 0.000000 0.500000
O O9 0.344783 0.517461 0.213820
O O10 0.458257 0.447203 0.198706
O O11 0.500000 0.000000 0.500000
O O12 0.321039 0.281029 0.987036
O O13 0.230038 0.735622 0.193941
O O14 0.314852 0.112459 0.339329
O O15 0.607207 0.501668 0.382371
O O16 0.500000 0.500000 0.000000
#
# Coordination Sequence:
#
# PCOD9096742 Si02
#       7
#     2   2   2   2   2   2   2
#     4  10  21  38  60  86 129 171 210 245 294 374
#     4  11  23  43  69  90 117 153 203 269 324 379
#     4  10  20  36  57  90 130 163 202 262 306 363
#     4  11  24  38  62  94 123 160 207 256 328 362
#     4  10  22  39  62  92 118 163 213 247 317 374
#     4   9  20  35  56  86 126 181 217 239 291 364
#     4  11  22  38  59  89 130 168 206 255 298 366
#
# _framework density 21.823969999999999
#
# number of rings (size 3 to 8) (size 9 to 14) (size 15 to 20)
#    0.000    1.714    1.429    2.571    2.000    6.286 
#    0.000    5.714    0.000   17.143    0.000    0.000 
#    0.000    0.000    0.000    0.000    0.000    0.000 
#
# Total GULP energy -78023.489527 kJ/mol
# GULP energy per Si atom -5573.106395 kJ/mol
# Density = 2.177430 g / cm^3
# Si number density = 21.823970 Si / 1000 Ang^3
#
#
#
# Elastic Constant Matrix: (Units=GPa)
#
#
# Indices 1 2 3 4 5 6 
#
# 1 89.2791 19.1127 33.2936 -6.5369 2.2198 -13.6285
# 2 19.1127 103.2276 15.3752 8.5621 2.9887 -12.5461
# 3 33.2936 15.3752 48.2030 4.2658 0.1775 -7.5943
# 4 -6.5369 8.5621 4.2658 27.0106 -3.2979 -2.9334
# 5 2.2198 2.9887 0.1775 -3.2979 33.7551 -3.7592
# 6 -13.6285 -12.5461 -7.5943 -2.9334 -3.7592 38.8149
#
#
#
# Elastic Compliance Matrix: (Units=1/GPa)
#
#
# Indices 1 2 3 4 5 6 
#
# 1 0.016712 -0.001556 -0.011054 0.006709 0.000167 0.003725
# 2 -0.001556 0.010815 -0.001713 -0.003401 -0.000926 0.002267
# 3 -0.011054 -0.001713 0.029657 -0.006700 0.000166 0.000877
# 4 0.006709 -0.003401 -0.006700 0.041697 0.004361 0.003519
# 5 0.000167 -0.000926 0.000166 0.004361 0.030463 0.003072
# 6 0.003725 0.002267 0.000877 0.003519 0.003072 0.028539
#
#
# Mechanical properties :
#
#
# Convention : Reuss Voigt Hill
#
# Bulk Modulus (GPa) = 35.04099 41.80806 38.42453
# Shear Modulus (GPa) = 25.50458 31.44466 28.47462
#
# Velocity S-wave (km/s) = 3.42226 3.79995 3.61604
# Velocity P-wave (km/s) = 5.63089 6.20091 5.92276
#
# Compressibility (1/GPa) = 0.02853800
#
# Stress axis : x y z
#
# Youngs Moduli (GPa) = 59.83788 92.46292 33.71838
#
# Poissons Ratio (x) = 0.14390 0.37272
# Poissons Ratio (y) = 0.09313 0.05776
# Poissons Ratio (z) = 0.66143 0.15840
#
# Static dielectric constant tensor:
#      x y z
#    x 1.874710 0.042320 -0.071010 
#    y 0.042320 1.878080 -0.023240 
#    z -0.071010 -0.023240 1.917530 
# 
# From -- ./inp_files/77333.got.cif
#   From: 2010.05.17/outbox.cif.g08.bks.cpg/sg2_39_cif.got.tgz:77333.got - 2010.06.03 11:33:40.
