data_PCOD9096961
_publ_section_title
;
Structure prediction by ZEFSAII (Michael W. Deem and Ramdas Pophale) SiO2 
 PCOD9096961
Probable space group: P -1
;
_chemical_formula_sum "Si O2"
_cell_formula_units_Z 16
_cell_length_a 13.932719
_cell_length_b 12.446197
_cell_length_c 10.961935
_cell_angle_alpha 93.747858
_cell_angle_beta 48.935843
_cell_angle_gamma 54.751147
_cell_volume 809.981543
_symmetry_space_group_name_H-M "P -1"
_symmetry_group_IT_number 2
_symmetry_cell_setting 'triclinic'
loop_
_space_group_symop_operation_xyz
x,y,z
-x,-y,-z
loop_
_atom_site_type_symbol
_atom_site_label
_atom_site_fract_x
_atom_site_fract_y
_atom_site_fract_z
Si Si1 0.343074 0.619191 0.521919
Si Si2 0.739325 0.517374 0.586213
Si Si3 0.767543 0.815869 0.918150
Si Si4 0.639267 0.601064 0.199098
Si Si5 0.790030 0.554299 0.807807
Si Si6 0.297822 0.218103 0.392536
Si Si7 0.385849 0.989503 0.512112
Si Si8 0.024679 0.234153 0.021348
O O1 0.500000 0.500000 0.500000
O O2 0.379162 0.495745 0.388039
O O3 0.425126 0.671234 0.395199
O O4 0.094985 0.773808 0.796968
O O5 0.675662 0.586904 0.784303
O O6 0.707697 0.653077 0.550588
O O7 0.005393 0.303772 0.346189
O O8 0.729287 0.719581 0.904069
O O9 0.840044 0.784900 0.997211
O O10 0.532322 0.040381 0.112860
O O11 0.551739 0.780864 0.315837
O O12 0.830180 0.433991 0.125329
O O13 0.737496 0.528210 0.974705
O O14 0.056666 0.373201 0.543265
O O15 0.298062 0.122383 0.483471
O O16 0.500000 0.000000 0.500000
O O17 0.191502 0.075976 0.766480
#
# Coordination Sequence:
#
# PCOD9096961 Si02
#       8
#     2   2   2   2   2   2   2   2
#     4   9  22  42  63  82 111 158 197 240 290 336
#     4  10  24  40  59  87 115 157 198 234 290 345
#     4  10  20  36  58  91 118 154 186 235 301 342
#     4  11  23  39  59  85 122 154 198 243 280 345
#     4  11  22  37  59  87 119 156 192 241 288 344
#     4  11  21  36  59  88 126 147 190 236 293 355
#     4  12  23  33  59  96 118 154 186 237 307 342
#     4  10  21  38  59  88 122 152 194 239 289 347
#
# _framework density 19.753536
#
# number of rings (size 3 to 8) (size 9 to 14) (size 15 to 20)
#    0.000    1.500    3.750    1.500    7.000    4.000 
#    0.000    3.750    0.000    0.750    0.000    0.000 
#    0.000    0.000    0.000    0.000    0.000    0.000 
#
# Total GULP energy -89161.121041 kJ/mol
# GULP energy per Si atom -5572.570065 kJ/mol
# Density = 1.970858 g / cm^3
# Si number density = 19.753536 Si / 1000 Ang^3
#
#
#
# Elastic Constant Matrix: (Units=GPa)
#
#
# Indices 1 2 3 4 5 6 
#
# 1 114.2788 25.3954 32.1857 -5.2234 10.7638 6.5936
# 2 25.3954 53.4435 33.5993 -1.3034 -2.2099 -0.5178
# 3 32.1857 33.5993 105.3382 4.0334 3.9044 1.7226
# 4 -5.2234 -1.3034 4.0334 33.4098 1.6057 -0.8164
# 5 10.7638 -2.2099 3.9044 1.6057 26.5746 -8.7145
# 6 6.5936 -0.5178 1.7226 -0.8164 -8.7145 24.2384
#
#
#
# Elastic Compliance Matrix: (Units=1/GPa)
#
#
# Indices 1 2 3 4 5 6 
#
# 1 0.011262 -0.004531 -0.001742 0.001979 -0.006548 -0.005324
# 2 -0.004531 0.025709 -0.007170 0.000962 0.006496 0.004659
# 3 -0.001742 -0.007170 0.012487 -0.001994 -0.002055 -0.001373
# 4 0.001979 0.000962 -0.001994 0.030627 -0.002340 -0.000186
# 5 -0.006548 0.006496 -0.002055 -0.002340 0.047520 0.019072
# 6 -0.005324 0.004659 -0.001373 -0.000186 0.019072 0.049753
#
#
# Mechanical properties :
#
#
# Convention : Reuss Voigt Hill
#
# Bulk Modulus (GPa) = 44.29889 50.60236 47.45062
# Shear Modulus (GPa) = 23.61071 28.96990 26.29031
#
# Velocity S-wave (km/s) = 3.46101 3.83373 3.65213
# Velocity P-wave (km/s) = 6.20048 6.72824 6.46974
#
# Compressibility (1/GPa) = 0.02257393
#
# Stress axis : x y z
#
# Youngs Moduli (GPa) = 88.79139 38.89693 80.08056
#
# Poissons Ratio (x) = 0.17622 0.13951
# Poissons Ratio (y) = 0.40227 0.57416
# Poissons Ratio (z) = 0.15468 0.27888
#
# Static dielectric constant tensor:
#      x y z
#    x 1.716180 -0.045320 0.010020 
#    y -0.045320 1.728690 -0.034010 
#    z 0.010020 -0.034010 1.773250 
# 
# From -- ./inp_files/452327.got.cif
#   From: 2010.05.17/outbox.cif.g08.bks.cpg/sg2_227_cif.got.tgz:452327.got - 2010.06.03 11:33:40.
