data_PCOD9096033
_publ_section_title
;
Structure prediction by ZEFSAII (Michael W. Deem and Ramdas Pophale) SiO2 
 PCOD9096033
Probable space group: P -1
;
_chemical_formula_sum "Si O2"
_cell_formula_units_Z 14
_cell_length_a 7.188628
_cell_length_b 11.596926
_cell_length_c 8.821714
_cell_angle_alpha 127.904763
_cell_angle_beta 103.941006
_cell_angle_gamma 64.946369
_cell_volume 525.491476
_symmetry_space_group_name_H-M "P -1"
_symmetry_group_IT_number 2
_symmetry_cell_setting 'triclinic'
loop_
_space_group_symop_operation_xyz
x,y,z
-x,-y,-z
loop_
_atom_site_type_symbol
_atom_site_label
_atom_site_fract_x
_atom_site_fract_y
_atom_site_fract_z
Si Si1 0.192910 0.346709 0.462291
Si Si2 0.799572 0.017506 0.078827
Si Si3 0.913687 0.235526 0.503589
Si Si4 0.682069 0.562171 0.129246
Si Si5 0.389934 0.423843 0.304438
Si Si6 0.425097 0.812118 0.087973
Si Si7 0.953903 0.222046 0.844999
O O1 0.314916 0.391425 0.658202
O O2 0.315656 0.310242 0.301539
O O3 0.000000 0.500000 0.500000
O O4 0.100985 0.228718 0.425662
O O5 0.787146 0.151892 0.312436
O O6 0.626920 0.052821 0.940815
O O7 0.861461 0.866710 0.077424
O O8 0.000000 0.000000 0.000000
O O9 0.792838 0.421489 0.662828
O O10 0.981729 0.174916 0.636613
O O11 0.500000 0.500000 0.000000
O O12 0.631485 0.725408 0.156994
O O13 0.881596 0.409446 0.008961
O O14 0.500000 0.500000 0.500000
O O15 0.550639 0.329807 0.137096
O O16 0.234555 0.831032 0.176307
#
# Coordination Sequence:
#
# PCOD9096033 Si02
#       7
#     2   2   2   2   2   2   2
#     4  10  25  38  60  99 136 162 202 272 328 368
#     4  10  22  38  63  93 126 172 215 257 308 388
#     4  11  22  39  60  97 129 168 208 265 323 370
#     4  10  20  37  64  94 122 159 214 261 305 368
#     4  11  19  36  64  94 124 160 211 264 311 372
#     4  10  20  35  61  95 117 158 214 263 301 355
#     4  10  21  36  64  94 128 167 214 257 307 391
#
# _framework density 26.641726999999999
#
# number of rings (size 3 to 8) (size 9 to 14) (size 15 to 20)
#    0.000    1.714    2.857    2.143   10.000    0.571 
#    0.000    0.000    0.000   18.000    0.000    0.000 
#    0.000    0.000    0.000    0.000    0.000    0.000 
#
# Total GULP energy -78173.938068 kJ/mol
# GULP energy per Si atom -5583.852719 kJ/mol
# Density = 2.658109 g / cm^3
# Si number density = 26.641727 Si / 1000 Ang^3
#
#
#
# Elastic Constant Matrix: (Units=GPa)
#
#
# Indices 1 2 3 4 5 6 
#
# 1 63.9698 39.4427 22.5282 -5.0413 -0.8912 10.3089
# 2 39.4427 228.1374 58.7877 -49.1253 -2.3496 -2.7680
# 3 22.5282 58.7877 118.5857 -24.1808 6.3419 7.6753
# 4 -5.0413 -49.1253 -24.1808 53.6688 -1.5304 -5.6800
# 5 -0.8912 -2.3496 6.3419 -1.5304 32.7115 -12.1939
# 6 10.3089 -2.7680 7.6753 -5.6800 -12.1939 33.9132
#
#
#
# Elastic Compliance Matrix: (Units=1/GPa)
#
#
# Indices 1 2 3 4 5 6 
#
# 1 0.019432 -0.003653 -0.001964 -0.003212 -0.002137 -0.007067
# 2 -0.003653 0.006760 -0.001929 0.005459 0.002470 0.003901
# 3 -0.001964 -0.001929 0.010603 0.002455 -0.003130 -0.002674
# 4 -0.003212 0.005459 0.002455 0.025196 0.003353 0.006292
# 5 -0.002137 0.002470 -0.003130 0.003353 0.037235 0.015509
# 6 -0.007067 0.003901 -0.002674 0.006292 0.015509 0.039189
#
#
# Mechanical properties :
#
#
# Convention : Reuss Voigt Hill
#
# Bulk Modulus (GPa) = 46.07415 72.46777 59.27096
# Shear Modulus (GPa) = 31.10591 43.38765 37.24678
#
# Velocity S-wave (km/s) = 3.42067 4.03992 3.74312
# Velocity P-wave (km/s) = 5.73871 7.00151 6.40133
#
# Compressibility (1/GPa) = 0.02170414
#
# Stress axis : x y z
#
# Youngs Moduli (GPa) = 51.46043 147.92555 94.31247
#
# Poissons Ratio (x) = 0.54037 0.18523
# Poissons Ratio (y) = 0.18799 0.18190
# Poissons Ratio (z) = 0.10107 0.28531
#
# Static dielectric constant tensor:
#      x y z
#    x 2.276650 0.034680 -0.024480 
#    y 0.034680 2.320750 0.020290 
#    z -0.024480 0.020290 1.995240 
# 
# From -- ./inp_files/182631.got.cif
#   From: 2010.05.17/outbox.cif.g08.bks.cpg/sg2_92_cif.got.tgz:182631.got - 2010.06.03 11:33:40.
