data_PCOD9096353
_publ_section_title
;
Structure prediction by ZEFSAII (Michael W. Deem and Ramdas Pophale) SiO2 
 PCOD9096353
Probable space group: P -1
;
_chemical_formula_sum "Si O2"
_cell_formula_units_Z 16
_cell_length_a 11.806163
_cell_length_b 9.387506
_cell_length_c 14.105433
_cell_angle_alpha 47.446768
_cell_angle_beta 50.458840
_cell_angle_gamma 36.562189
_cell_volume 670.276386
_symmetry_space_group_name_H-M "P -1"
_symmetry_group_IT_number 2
_symmetry_cell_setting 'triclinic'
loop_
_space_group_symop_operation_xyz
x,y,z
-x,-y,-z
loop_
_atom_site_type_symbol
_atom_site_label
_atom_site_fract_x
_atom_site_fract_y
_atom_site_fract_z
Si Si1 0.495391 0.230177 0.655140
Si Si2 0.632298 0.712256 0.752293
Si Si3 0.295204 0.263553 0.021937
Si Si4 0.933284 0.790108 0.196862
Si Si5 0.662869 0.342118 0.131622
Si Si6 0.548496 0.521659 0.620162
Si Si7 0.898044 0.529569 0.173638
Si Si8 0.210325 0.349703 0.500759
O O1 0.586957 0.276530 0.669265
O O2 0.548242 0.280122 0.504676
O O3 0.260751 0.454085 0.690477
O O4 0.556074 0.954607 0.747574
O O5 0.489804 0.652088 0.850333
O O6 0.647707 0.791115 0.601851
O O7 0.847044 0.451654 0.782099
O O8 0.332968 0.431503 0.981667
O O9 0.189828 0.398774 0.916716
O O10 0.126788 0.285698 0.154562
O O11 0.500000 0.000000 0.000000
O O12 0.895232 0.738300 0.135917
O O13 0.793385 0.789956 0.344562
O O14 0.868749 0.064973 0.124379
O O15 0.594522 0.367004 0.264915
O O16 0.738044 0.479843 0.567716
O O17 0.000000 0.500000 0.500000
#
# Coordination Sequence:
#
# PCOD9096353 Si02
#       8
#     2   2   2   2   2   2   2   2
#     4  11  20  39  65 100 134 174 217 262 329 386
#     4  10  22  37  64  99 140 175 209 263 320 393
#     4  11  28  49  71  90 125 173 221 286 334 387
#     4  11  22  39  67  96 134 170 218 270 317 391
#     4  11  22  42  66  97 128 172 219 263 335 388
#     4  10  20  35  68  95 135 180 211 264 323 394
#     4  11  24  45  69  94 128 170 221 273 333 383
#     4   9  18  36  57  97 142 178 212 252 318 384
#
# _framework density 23.870749
#
# number of rings (size 3 to 8) (size 9 to 14) (size 15 to 20)
#    0.000    1.500    3.750    0.750    1.750    4.500 
#    0.000    6.250    2.750    0.000    0.000    0.000 
#    0.000    0.000    0.000    0.000    0.000    0.000 
#
# Total GULP energy -89407.443849 kJ/mol
# GULP energy per Si atom -5587.965241 kJ/mol
# Density = 2.381642 g / cm^3
# Si number density = 23.870749 Si / 1000 Ang^3
#
#
#
# Elastic Constant Matrix: (Units=GPa)
#
#
# Indices 1 2 3 4 5 6 
#
# 1 154.8472 86.0672 25.0700 -5.4689 -28.7818 24.3137
# 2 86.0672 158.1319 48.4834 -8.6148 -32.5939 1.4707
# 3 25.0700 48.4834 87.9380 13.2486 -18.0695 2.1493
# 4 -5.4689 -8.6148 13.2486 28.8100 3.1620 -10.6915
# 5 -28.7818 -32.5939 -18.0695 3.1620 32.4388 5.0361
# 6 24.3137 1.4707 2.1493 -10.6915 5.0361 46.9236
#
#
#
# Elastic Compliance Matrix: (Units=1/GPa)
#
#
# Indices 1 2 3 4 5 6 
#
# 1 0.011708 -0.005626 0.002120 -0.004131 0.007521 -0.007736
# 2 -0.005626 0.011912 -0.005414 0.006124 0.002761 0.003888
# 3 0.002120 -0.005414 0.017373 -0.012083 0.008127 -0.005350
# 4 -0.004131 0.006124 -0.012083 0.047973 -0.011191 0.014634
# 5 0.007521 0.002761 0.008127 -0.011191 0.047760 -0.012031
# 6 -0.007736 0.003888 -0.005350 0.014634 -0.012031 0.030068
#
#
# Mechanical properties :
#
#
# Convention : Reuss Voigt Hill
#
# Bulk Modulus (GPa) = 43.18654 80.01758 61.60206
# Shear Modulus (GPa) = 25.99404 37.72092 31.85748
#
# Velocity S-wave (km/s) = 3.30350 3.97950 3.65716
# Velocity P-wave (km/s) = 5.71681 7.39657 6.61026
#
# Compressibility (1/GPa) = 0.02315536
#
# Stress axis : x y z
#
# Youngs Moduli (GPa) = 85.41123 83.94689 57.55940
#
# Poissons Ratio (x) = 0.47225 -0.12205
# Poissons Ratio (y) = 0.48048 0.31163
# Poissons Ratio (z) = -0.18111 0.45450
#
# Static dielectric constant tensor:
#      x y z
#    x 1.919930 -0.003950 0.013930 
#    y -0.003950 1.897170 0.020920 
#    z 0.013930 0.020920 1.985490 
# 
# From -- ./inp_files/515032.got.cif
#   From: 2010.05.17/outbox.cif.g08.bks.cpg/sg2_258_cif.got.tgz:515032.got - 2010.06.03 11:33:40.
