data_PCOD9096273
_publ_section_title
;
Structure prediction by ZEFSAII (Michael W. Deem and Ramdas Pophale) SiO2 
 PCOD9096273
Probable space group: P -1
;
_chemical_formula_sum "Si O2"
_cell_formula_units_Z 14
_cell_length_a 9.615476
_cell_length_b 16.356674
_cell_length_c 7.532534
_cell_angle_alpha 44.271491
_cell_angle_beta 44.633866
_cell_angle_gamma 45.412928
_cell_volume 534.417748
_symmetry_space_group_name_H-M "P -1"
_symmetry_group_IT_number 2
_symmetry_cell_setting 'triclinic'
loop_
_space_group_symop_operation_xyz
x,y,z
-x,-y,-z
loop_
_atom_site_type_symbol
_atom_site_label
_atom_site_fract_x
_atom_site_fract_y
_atom_site_fract_z
Si Si1 0.384956 0.924101 0.614928
Si Si2 0.295514 0.622600 0.655111
Si Si3 0.665037 0.151715 0.593064
Si Si4 0.960363 0.937998 0.877739
Si Si5 0.400388 0.352583 0.068979
Si Si6 0.022594 0.707836 0.432114
Si Si7 0.795786 0.466067 0.765603
O O1 0.456113 0.882648 0.408754
O O2 0.126703 0.993894 0.725732
O O3 0.426118 0.789426 0.882285
O O4 0.500000 0.000000 0.500000
O O5 0.429580 0.708341 0.451735
O O6 0.133973 0.701059 0.528519
O O7 0.388476 0.469038 0.774035
O O8 0.170665 0.618105 0.958190
O O9 0.893381 0.129544 0.321906
O O10 0.740069 0.045437 0.843517
O O11 0.940681 0.832429 0.189261
O O12 0.399924 0.407964 0.183522
O O13 0.175795 0.333987 0.288918
O O14 0.206498 0.605315 0.300899
O O15 0.000000 0.500000 0.500000
#
# Coordination Sequence:
#
# PCOD9096273 Si02
#       7
#     2   2   2   2   2   2   2
#     4  10  21  41  65  90 126 172 208 259 322 367
#     4  10  20  35  64  94 127 159 213 252 318 373
#     4   9  20  39  63  88 121 171 207 254 312 371
#     4   9  20  39  64  86 124 171 210 250 317 368
#     4   9  21  36  61  97 125 163 203 269 310 365
#     4  11  19  37  65  96 126 163 218 251 310 383
#     4   8  17  33  54  90 126 157 202 250 305 364
#
# _framework density 26.196733999999999
#
# number of rings (size 3 to 8) (size 9 to 14) (size 15 to 20)
#    1.714    0.857    1.429    0.429    2.000    1.143 
#    0.000    1.429    0.000    0.000    0.000    0.000 
#    0.000    0.000    0.000    0.000    0.000    0.000 
#
# Total GULP energy -78114.356972 kJ/mol
# GULP energy per Si atom -5579.596927 kJ/mol
# Density = 2.613711 g / cm^3
# Si number density = 26.196734 Si / 1000 Ang^3
#
#
#
# Elastic Constant Matrix: (Units=GPa)
#
#
# Indices 1 2 3 4 5 6 
#
# 1 156.6051 30.2366 87.0219 -18.8089 12.9940 27.1993
# 2 30.2366 76.4996 35.9663 -17.2863 3.5691 21.6433
# 3 87.0219 35.9663 195.5613 -31.3313 13.4186 5.9044
# 4 -18.8089 -17.2863 -31.3313 52.4423 2.0759 -10.3246
# 5 12.9940 3.5691 13.4186 2.0759 38.1596 -3.9111
# 6 27.1993 21.6433 5.9044 -10.3246 -3.9111 37.8281
#
#
#
# Elastic Compliance Matrix: (Units=1/GPa)
#
#
# Indices 1 2 3 4 5 6 
#
# 1 0.010080 0.000009 -0.004108 -0.000091 -0.002692 -0.006915
# 2 0.000009 0.017442 -0.002391 0.002607 -0.001867 -0.009094
# 3 -0.004108 -0.002391 0.007843 0.003225 -0.000913 0.003884
# 4 -0.000091 0.002607 0.003225 0.022704 -0.002168 0.004043
# 5 -0.002692 -0.001867 -0.000913 -0.002168 0.028298 0.005481
# 6 -0.006915 -0.009094 0.003884 0.004043 0.005481 0.037674
#
#
# Mechanical properties :
#
#
# Convention : Reuss Voigt Hill
#
# Bulk Modulus (GPa) = 44.67493 81.67952 63.17722
# Shear Modulus (GPa) = 34.60593 44.04875 39.32734
#
# Velocity S-wave (km/s) = 3.63850 4.10501 3.87878
# Velocity P-wave (km/s) = 5.89425 7.32906 6.65046
#
# Compressibility (1/GPa) = 0.02238392
#
# Stress axis : x y z
#
# Youngs Moduli (GPa) = 99.20612 57.33329 127.49570
#
# Poissons Ratio (x) = -0.00050 0.52377
# Poissons Ratio (y) = -0.00086 0.30487
# Poissons Ratio (z) = 0.40755 0.13710
#
# Static dielectric constant tensor:
#      x y z
#    x 2.070030 0.028980 -0.037170 
#    y 0.028980 2.228780 -0.005330 
#    z -0.037170 -0.005330 2.037710 
# 
# From -- ./inp_files/211601.got.cif
#   From: 2010.05.17/outbox.cif.g08.bks.cpg/sg2_106_cif.got.tgz:211601.got - 2010.06.03 11:33:40.
