data_PCOD9096408
_publ_section_title
;
Structure prediction by ZEFSAII (Michael W. Deem and Ramdas Pophale) SiO2 
 PCOD9096408
Probable space group: P -1
;
_chemical_formula_sum "Si O2"
_cell_formula_units_Z 14
_cell_length_a 14.734031
_cell_length_b 7.969765
_cell_length_c 8.425566
_cell_angle_alpha 129.710361
_cell_angle_beta 61.122048
_cell_angle_gamma 127.306913
_cell_volume 597.942404
_symmetry_space_group_name_H-M "P -1"
_symmetry_group_IT_number 2
_symmetry_cell_setting 'triclinic'
loop_
_space_group_symop_operation_xyz
x,y,z
-x,-y,-z
loop_
_atom_site_type_symbol
_atom_site_label
_atom_site_fract_x
_atom_site_fract_y
_atom_site_fract_z
Si Si1 0.094099 0.915613 0.614296
Si Si2 0.152595 0.867453 0.192871
Si Si3 0.882668 0.444467 0.421551
Si Si4 0.943648 0.667312 0.011994
Si Si5 0.551673 0.116237 0.780089
Si Si6 0.604353 0.799068 0.793692
Si Si7 0.361667 0.659799 0.491554
O O1 0.140358 0.984360 0.439336
O O2 0.157858 0.762243 0.535629
O O3 0.960705 0.711451 0.585277
O O4 0.105058 0.136286 0.849519
O O5 0.030430 0.784132 0.157428
O O6 0.272525 0.054882 0.131209
O O7 0.154242 0.605615 0.050682
O O8 0.773081 0.428660 0.412647
O O9 0.969929 0.370505 0.205728
O O10 0.621270 0.296690 0.687738
O O11 0.607451 0.968169 0.743885
O O12 0.440284 0.909988 0.661986
O O13 0.502521 0.234728 0.025500
O O14 0.598898 0.539983 0.603816
#
# Coordination Sequence:
#
# PCOD9096408 Si02
#       7
#     2   2   2   2   2   2   2
#     4  10  20  36  55  83 120 154 188 236 283 339
#     4  10  21  34  56  86 113 149 196 231 283 354
#     4  10  21  35  57  85 115 153 196 230 284 353
#     4  10  20  36  54  83 119 150 189 238 279 340
#     4  10  24  41  61  90 115 147 204 244 288 356
#     4  11  22  41  64  86 117 156 191 244 298 340
#     4  11  22  41  62  86 119 154 192 246 295 339
#
# _framework density 23.413627999999999
#
# number of rings (size 3 to 8) (size 9 to 14) (size 15 to 20)
#    0.000    1.714    0.000    4.286    0.000    3.429 
#    0.000    8.571    0.000    0.000    0.000    0.000 
#    0.000    0.000    0.000    0.000    0.000    0.000 
#
# Total GULP energy -78190.938287 kJ/mol
# GULP energy per Si atom -5585.067020 kJ/mol
# Density = 2.336034 g / cm^3
# Si number density = 23.413628 Si / 1000 Ang^3
#
#
#
# Elastic Constant Matrix: (Units=GPa)
#
#
# Indices 1 2 3 4 5 6 
#
# 1 59.1699 0.8585 3.8065 0.2779 -11.8517 -2.7211
# 2 0.8585 53.6068 16.1379 8.3739 -16.9222 -5.7740
# 3 3.8065 16.1379 77.3313 5.0330 -12.2165 -5.2390
# 4 0.2779 8.3739 5.0330 35.2548 -13.6771 -1.4402
# 5 -11.8517 -16.9222 -12.2165 -13.6771 25.6925 -1.5707
# 6 -2.7211 -5.7740 -5.2390 -1.4402 -1.5707 29.4309
#
#
#
# Elastic Compliance Matrix: (Units=1/GPa)
#
#
# Indices 1 2 3 4 5 6 
#
# 1 0.019897 0.003825 0.000481 0.004702 0.014655 0.003688
# 2 0.003825 0.025607 -0.002254 0.001781 0.018877 0.006071
# 3 0.000481 -0.002254 0.014485 0.001023 0.006326 0.002568
# 4 0.004702 0.001781 0.001023 0.037186 0.023872 0.004060
# 5 0.014655 0.018877 0.006326 0.023872 0.074524 0.011330
# 6 0.003688 0.006071 0.002568 0.004060 0.011330 0.036770
#
#
# Mechanical properties :
#
#
# Convention : Reuss Voigt Hill
#
# Bulk Modulus (GPa) = 15.60230 25.74597 20.67413
# Shear Modulus (GPa) = 22.15048 29.36265 25.75657
#
# Velocity S-wave (km/s) = 3.07913 3.54515 3.32032
# Velocity P-wave (km/s) = 4.39541 5.27043 4.85268
#
# Compressibility (1/GPa) = 0.06409313
#
# Stress axis : x y z
#
# Youngs Moduli (GPa) = 50.25887 39.05253 69.03720
#
# Poissons Ratio (x) = -0.14939 -0.03323
# Poissons Ratio (y) = -0.19226 0.15564
# Poissons Ratio (z) = -0.02419 0.08804
#
# Static dielectric constant tensor:
#      x y z
#    x 1.935880 -0.087940 0.031940 
#    y -0.087940 1.922390 -0.046380 
#    z 0.031940 -0.046380 1.912880 
# 
# From -- ./inp_files/136618.got.cif
#   From: 2010.05.17/outbox.cif.g08.bks.cpg/sg2_69_cif.got.tgz:136618.got - 2010.06.03 11:33:40.
