data_PCOD9096979
_publ_section_title
;
Structure prediction by ZEFSAII (Michael W. Deem and Ramdas Pophale) SiO2 
 PCOD9096979
Probable space group: P -1
;
_chemical_formula_sum "Si O2"
_cell_formula_units_Z 14
_cell_length_a 5.861023
_cell_length_b 11.793866
_cell_length_c 16.583131
_cell_angle_alpha 52.901901
_cell_angle_beta 99.493857
_cell_angle_gamma 125.852292
_cell_volume 708.912812
_symmetry_space_group_name_H-M "P -1"
_symmetry_group_IT_number 2
_symmetry_cell_setting 'triclinic'
loop_
_space_group_symop_operation_xyz
x,y,z
-x,-y,-z
loop_
_atom_site_type_symbol
_atom_site_label
_atom_site_fract_x
_atom_site_fract_y
_atom_site_fract_z
Si Si1 0.614388 0.064063 0.257499
Si Si2 0.775692 0.315449 0.014078
Si Si3 0.641524 0.584277 0.060353
Si Si4 0.340943 0.650388 0.436333
Si Si5 0.286759 0.992060 0.426940
Si Si6 0.710230 0.605490 0.584084
Si Si7 0.236612 0.290002 0.284801
O O1 0.618286 0.147058 0.138178
O O2 0.426659 0.066392 0.315487
O O3 0.947650 0.194664 0.254193
O O4 0.477450 0.854743 0.336717
O O5 0.517717 0.325085 0.963712
O O6 0.000000 0.500000 0.000000
O O7 0.007055 0.312950 0.972902
O O8 0.514022 0.425851 0.186191
O O9 0.500000 0.500000 0.000000
O O10 0.491931 0.647952 0.526931
O O11 0.397081 0.570665 0.396649
O O12 0.000000 0.500000 0.500000
O O13 0.214303 0.124097 0.391790
O O14 0.500000 0.000000 0.500000
O O15 0.018313 0.782162 0.493415
O O16 0.746671 0.601508 0.683177
#
# Coordination Sequence:
#
# PCOD9096979 Si02
#       7
#     2   2   2   2   2   2   2
#     4  12  22  36  65  88 120 166 206 253 320 369
#     4  10  20  36  58  94 124 155 201 269 317 376
#     4  10  20  37  58  92 129 152 202 263 328 374
#     4  11  24  43  56  83 125 172 206 248 300 384
#     4  12  22  34  59  94 125 153 205 265 313 375
#     4  11  24  39  57  86 127 161 209 252 306 377
#     4  12  23  36  63  93 120 162 203 264 322 367
#
# _framework density 19.748548
#
# number of rings (size 3 to 8) (size 9 to 14) (size 15 to 20)
#    0.000    0.857    7.143    3.000    0.000    0.000 
#    0.000    0.000    0.000    1.714    0.000    0.000 
#    0.000    0.000    0.000    0.000    0.000    0.000 
#
# Total GULP energy -78046.526059 kJ/mol
# GULP energy per Si atom -5574.751861 kJ/mol
# Density = 1.970360 g / cm^3
# Si number density = 19.748548 Si / 1000 Ang^3
#
#
#
# Elastic Constant Matrix: (Units=GPa)
#
#
# Indices 1 2 3 4 5 6 
#
# 1 90.4806 12.6530 30.2024 -2.3896 -2.9025 8.6448
# 2 12.6530 58.6652 22.0991 -9.9171 5.8371 -3.8502
# 3 30.2024 22.0991 125.5443 -5.6183 -12.5237 -7.7148
# 4 -2.3896 -9.9171 -5.6183 13.8747 -2.3692 -3.3645
# 5 -2.9025 5.8371 -12.5237 -2.3692 41.7878 -2.1790
# 6 8.6448 -3.8502 -7.7148 -3.3645 -2.1790 29.6130
#
#
#
# Elastic Compliance Matrix: (Units=1/GPa)
#
#
# Indices 1 2 3 4 5 6 
#
# 1 0.012831 -0.002244 -0.003097 -0.001893 -0.000095 -0.005066
# 2 -0.002244 0.021532 -0.002637 0.014456 -0.002915 0.004196
# 3 -0.003097 -0.002637 0.009891 0.003091 0.003488 0.003746
# 4 -0.001893 0.014456 0.003091 0.087360 0.004432 0.013489
# 5 -0.000095 -0.002915 0.003488 0.004432 0.025782 0.002958
# 6 -0.005066 0.004196 0.003746 0.013489 0.002958 0.038520
#
#
# Mechanical properties :
#
#
# Convention : Reuss Voigt Hill
#
# Bulk Modulus (GPa) = 35.33705 44.95547 40.14626
# Shear Modulus (GPa) = 22.59347 31.03748 26.81548
#
# Velocity S-wave (km/s) = 3.38606 3.96868 3.68889
# Velocity P-wave (km/s) = 5.76364 6.61921 6.20619
#
# Compressibility (1/GPa) = 0.02829891
#
# Stress axis : x y z
#
# Youngs Moduli (GPa) = 77.93784 46.44237 101.10160
#
# Poissons Ratio (x) = 0.10420 0.31314
# Poissons Ratio (y) = 0.17486 0.26656
# Poissons Ratio (z) = 0.24140 0.12245
#
# Static dielectric constant tensor:
#      x y z
#    x 1.781710 -0.087380 0.006670 
#    y -0.087380 1.581470 0.053780 
#    z 0.006670 0.053780 1.637560 
# 
# From -- ./inp_files/27842.got.cif
#   From: 2010.05.17/outbox.cif.g08.bks.cpg/sg2_14_cif.got.tgz:27842.got - 2010.06.03 11:33:40.
