data_PCOD9096149
_publ_section_title
;
Structure prediction by ZEFSAII (Michael W. Deem and Ramdas Pophale) SiO2 
 PCOD9096149
Probable space group: P -1
;
_chemical_formula_sum "Si O2"
_cell_formula_units_Z 14
_cell_length_a 7.157071
_cell_length_b 8.758140
_cell_length_c 9.151219
_cell_angle_alpha 79.346298
_cell_angle_beta 107.945310
_cell_angle_gamma 79.993174
_cell_volume 519.722480
_symmetry_space_group_name_H-M "P -1"
_symmetry_group_IT_number 2
_symmetry_cell_setting 'triclinic'
loop_
_space_group_symop_operation_xyz
x,y,z
-x,-y,-z
loop_
_atom_site_type_symbol
_atom_site_label
_atom_site_fract_x
_atom_site_fract_y
_atom_site_fract_z
Si Si1 0.804079 0.456537 0.038402
Si Si2 0.908794 0.172188 0.611854
Si Si3 0.054566 0.503997 0.341873
Si Si4 0.514507 0.677508 0.517558
Si Si5 0.591878 0.784670 0.936195
Si Si6 0.643627 0.879316 0.267915
Si Si7 0.979266 0.881859 0.887082
O O1 0.863641 0.475251 0.216559
O O2 0.826559 0.269956 0.047927
O O3 0.607648 0.599460 0.933612
O O4 0.000000 0.500000 0.000000
O O5 0.906362 0.318309 0.702943
O O6 0.695008 0.237877 0.467502
O O7 0.929283 0.997647 0.715426
O O8 0.130827 0.158696 0.603539
O O9 0.253874 0.370596 0.363166
O O10 0.000000 0.500000 0.500000
O O11 0.500000 0.500000 0.500000
O O12 0.514856 0.798654 0.360886
O O13 0.622565 0.808758 0.113184
O O14 0.787354 0.819340 0.897821
O O15 0.419944 0.931391 0.809420
O O16 0.000000 0.000000 0.000000
#
# Coordination Sequence:
#
# PCOD9096149 Si02
#       7
#     2   2   2   2   2   2   2
#     4  10  21  39  64  99 135 174 222 281 342 401
#     4  11  20  36  61  94 127 176 223 271 330 400
#     4  11  20  40  67  94 135 181 223 274 343 399
#     4  10  22  34  61  98 126 175 230 267 326 408
#     4  10  20  35  62  94 130 178 214 279 338 401
#     4  11  19  36  64  96 134 171 226 270 342 390
#     4  11  20  37  63  96 131 174 225 274 334 409
#
# _framework density 26.937453000000001
#
# number of rings (size 3 to 8) (size 9 to 14) (size 15 to 20)
#    0.000    1.429    5.714    0.857    0.000    0.000 
#    0.000    2.143    0.000    6.857    0.000    0.000 
#    0.000    0.000    0.000    0.000    0.000    0.000 
#
# Total GULP energy -78236.625225 kJ/mol
# GULP energy per Si atom -5588.330373 kJ/mol
# Density = 2.687614 g / cm^3
# Si number density = 26.937453 Si / 1000 Ang^3
#
#
#
# Elastic Constant Matrix: (Units=GPa)
#
#
# Indices 1 2 3 4 5 6 
#
# 1 107.9880 41.7986 23.7013 -23.3807 15.4885 -15.1649
# 2 41.7986 218.2047 48.8641 -39.8514 10.9592 -31.1271
# 3 23.7013 48.8641 85.8394 -0.2459 -2.3944 -5.3032
# 4 -23.3807 -39.8514 -0.2459 48.9512 -7.1138 5.8701
# 5 15.4885 10.9592 -2.3944 -7.1138 40.1805 -31.7563
# 6 -15.1649 -31.1271 -5.3032 5.8701 -31.7563 55.7152
#
#
#
# Elastic Compliance Matrix: (Units=1/GPa)
#
#
# Indices 1 2 3 4 5 6 
#
# 1 0.011650 -0.000541 -0.003001 0.004569 -0.003734 -0.000027
# 2 -0.000541 0.006870 -0.003426 0.005157 0.002318 0.004142
# 3 -0.003001 -0.003426 0.014535 -0.003821 0.002792 0.000647
# 4 0.004569 0.005157 -0.003821 0.026975 0.003834 0.003104
# 5 -0.003734 0.002318 0.002792 0.003834 0.048498 0.027783
# 6 -0.000027 0.004142 0.000647 0.003104 0.027783 0.035826
#
#
# Mechanical properties :
#
#
# Convention : Reuss Voigt Hill
#
# Bulk Modulus (GPa) = 52.30639 71.19554 61.75097
# Shear Modulus (GPa) = 30.36487 48.81391 39.58939
#
# Velocity S-wave (km/s) = 3.36108 4.26152 3.83780
# Velocity P-wave (km/s) = 5.87557 7.12049 6.52778
#
# Compressibility (1/GPa) = 0.01911812
#
# Stress axis : x y z
#
# Youngs Moduli (GPa) = 85.84003 145.55635 68.79719
#
# Poissons Ratio (x) = 0.07880 0.20647
# Poissons Ratio (y) = 0.04647 0.23570
# Poissons Ratio (z) = 0.25762 0.49868
#
# Static dielectric constant tensor:
#      x y z
#    x 2.139730 -0.003350 0.077880 
#    y -0.003350 2.157090 -0.036310 
#    z 0.077880 -0.036310 2.052110 
# 
# From -- ./inp_files/374076.got.cif
#   From: 2010.05.17/outbox.cif.g08.bks.cpg/sg2_188_cif.got.tgz:374076.got - 2010.06.03 11:33:40.
