data_PCOD9096609
_publ_section_title
;
Structure prediction by ZEFSAII (Michael W. Deem and Ramdas Pophale) SiO2 
 PCOD9096609
Probable space group: P -1
;
_chemical_formula_sum "Si O2"
_cell_formula_units_Z 16
_cell_length_a 23.370388
_cell_length_b 16.899010
_cell_length_c 11.173047
_cell_angle_alpha 33.004485
_cell_angle_beta 26.423598
_cell_angle_gamma 19.913252
_cell_volume 668.647322
_symmetry_space_group_name_H-M "P -1"
_symmetry_group_IT_number 2
_symmetry_cell_setting 'triclinic'
loop_
_space_group_symop_operation_xyz
x,y,z
-x,-y,-z
loop_
_atom_site_type_symbol
_atom_site_label
_atom_site_fract_x
_atom_site_fract_y
_atom_site_fract_z
Si Si1 0.218501 0.496045 0.056892
Si Si2 0.255326 0.709704 0.201479
Si Si3 0.092155 0.309471 0.246615
Si Si4 0.253712 0.535006 0.193355
Si Si5 0.070849 0.616662 0.798504
Si Si6 0.447265 0.874676 0.260811
Si Si7 0.736980 0.875531 0.473027
Si Si8 0.322011 0.947891 0.876917
O O1 0.258575 0.567326 0.003394
O O2 0.276949 0.279694 0.263861
O O3 0.976853 0.700665 0.223344
O O4 0.370645 0.385625 0.800239
O O5 0.188712 0.711286 0.192276
O O6 0.190322 0.659456 0.494493
O O7 0.500000 0.500000 0.000000
O O8 0.203193 0.916439 0.078697
O O9 0.921120 0.437273 0.506356
O O10 0.966562 0.398569 0.248061
O O11 0.263249 0.039705 0.297502
O O12 0.176996 0.397335 0.956303
O O13 0.474815 0.281540 0.143250
O O14 0.845645 0.833326 0.001489
O O15 0.351028 0.943189 0.486439
O O16 0.500000 0.000000 0.000000
O O17 0.616980 0.006965 0.407576
#
# Coordination Sequence:
#
# PCOD9096609 Si02
#       8
#     2   2   2   2   2   2   2   2
#     4  10  20  37  60  84 120 163 193 241 311 356
#     4   9  21  39  56  85 117 160 200 255 298 342
#     4  10  20  36  56  95 120 152 196 253 304 356
#     4  10  20  38  63  83 125 155 200 253 300 352
#     4  10  21  34  62  85 121 150 198 256 300 357
#     4  10  21  34  57  83 125 161 191 233 303 366
#     4  10  22  37  56  89 126 153 197 246 295 368
#     4  11  22  37  60  90 117 164 204 245 297 356
#
# _framework density 23.928909000000001
#
# number of rings (size 3 to 8) (size 9 to 14) (size 15 to 20)
#    0.000    2.000    1.250    1.875    3.500   10.000 
#    0.000    0.625    0.000    0.750    0.000    0.000 
#    0.000    0.000    0.000    0.000    0.000    0.000 
#
# Total GULP energy -89309.607605 kJ/mol
# GULP energy per Si atom -5581.850475 kJ/mol
# Density = 2.387445 g / cm^3
# Si number density = 23.928909 Si / 1000 Ang^3
#
#
#
# Elastic Constant Matrix: (Units=GPa)
#
#
# Indices 1 2 3 4 5 6 
#
# 1 70.4831 7.2163 -3.4979 12.3396 8.8974 8.3980
# 2 7.2163 30.8522 10.3242 13.3153 6.1847 6.4682
# 3 -3.4979 10.3242 70.7160 14.3866 11.8210 8.5688
# 4 12.3396 13.3153 14.3866 33.9003 11.6133 3.4495
# 5 8.8974 6.1847 11.8210 11.6133 33.3125 12.0192
# 6 8.3980 6.4682 8.5688 3.4495 12.0192 30.1618
#
#
#
# Elastic Compliance Matrix: (Units=1/GPa)
#
#
# Indices 1 2 3 4 5 6 
#
# 1 0.016100 -0.001161 0.002858 -0.005623 -0.001811 -0.003681
# 2 -0.001161 0.040823 -0.002496 -0.014203 0.000897 -0.006455
# 3 0.002858 -0.002496 0.016717 -0.005778 -0.003094 -0.003116
# 4 -0.005623 -0.014203 -0.005778 0.042675 -0.010726 0.005646
# 5 -0.001811 0.000897 -0.003094 -0.010726 0.040060 -0.013546
# 6 -0.003681 -0.006455 -0.003116 0.005646 -0.013546 0.041202
#
#
# Mechanical properties :
#
#
# Convention : Reuss Voigt Hill
#
# Bulk Modulus (GPa) = 13.88052 22.23740 18.05896
# Shear Modulus (GPa) = 22.40271 30.00883 26.20577
#
# Velocity S-wave (km/s) = 3.06309 3.54514 3.31290
# Velocity P-wave (km/s) = 4.28058 5.10595 4.71137
#
# Compressibility (1/GPa) = 0.07204340
#
# Stress axis : x y z
#
# Youngs Moduli (GPa) = 62.11157 24.49622 59.81940
#
# Poissons Ratio (x) = 0.02844 -0.17099
# Poissons Ratio (y) = 0.07211 0.14929
# Poissons Ratio (z) = -0.17754 0.06113
#
# Static dielectric constant tensor:
#      x y z
#    x 2.043650 0.047220 0.021620 
#    y 0.047220 1.932390 -0.008700 
#    z 0.021620 -0.008700 2.046550 
# 
# From -- ./inp_files/426912.got.cif
#   From: 2010.05.17/outbox.cif.g08.bks.cpg/sg2_214_cif.got.tgz:426912.got - 2010.06.03 11:33:40.
