data_PCOD9096951
_publ_section_title
;
Structure prediction by ZEFSAII (Michael W. Deem and Ramdas Pophale) SiO2 
 PCOD9096951
Probable space group: P -1
;
_chemical_formula_sum "Si O2"
_cell_formula_units_Z 14
_cell_length_a 25.604527
_cell_length_b 12.973627
_cell_length_c 16.395685
_cell_angle_alpha 154.852086
_cell_angle_beta 16.007069
_cell_angle_gamma 155.378235
_cell_volume 601.921287
_symmetry_space_group_name_H-M "P -1"
_symmetry_group_IT_number 2
_symmetry_cell_setting 'triclinic'
loop_
_space_group_symop_operation_xyz
x,y,z
-x,-y,-z
loop_
_atom_site_type_symbol
_atom_site_label
_atom_site_fract_x
_atom_site_fract_y
_atom_site_fract_z
Si Si1 0.300941 0.464468 0.038785
Si Si2 0.871415 0.631053 0.411384
Si Si3 0.732032 0.297128 0.060231
Si Si4 0.236949 0.306923 0.557911
Si Si5 0.725633 0.200478 0.820804
Si Si6 0.325471 0.922918 0.639207
Si Si7 0.520182 0.222349 0.864810
O O1 0.537114 0.583170 0.741555
O O2 0.250943 0.160087 0.898732
O O3 0.201758 0.601388 0.220112
O O4 0.303752 0.569496 0.201163
O O5 0.891052 0.675124 0.316604
O O6 0.837875 0.331155 0.263414
O O7 0.071315 0.777974 0.265997
O O8 0.673821 0.684614 0.779026
O O9 0.730660 0.353419 0.007101
O O10 0.738250 0.514523 0.272081
O O11 0.544632 0.042801 0.176837
O O12 0.166250 0.009079 0.476354
O O13 0.500000 0.000000 0.000000
O O14 0.416358 0.840942 0.363399
O O15 0.500000 0.000000 0.500000
#
# Coordination Sequence:
#
# PCOD9096951 Si02
#       7
#     2   2   2   2   2   2   2
#     4  10  21  38  59  86 116 152 204 241 277 346
#     4  11  23  38  57  94 126 150 190 244 303 349
#     4  12  21  37  62  91 122 152 190 253 299 334
#     4  10  20  36  58  90 119 150 194 241 296 341
#     4  10  21  38  57  89 119 151 204 244 284 344
#     4  12  22  40  60  88 119 155 196 236 289 361
#     4  11  21  37  62  87 117 153 195 240 294 346
#
# _framework density 23.258856000000002
#
# number of rings (size 3 to 8) (size 9 to 14) (size 15 to 20)
#    0.000    1.143    8.571    1.286    0.000    3.429 
#    0.000    0.714    0.000    1.714    0.000    0.000 
#    0.000    0.000    0.000    0.000    0.000    0.000 
#
# Total GULP energy -78255.559122 kJ/mol
# GULP energy per Si atom -5589.682794 kJ/mol
# Density = 2.320592 g / cm^3
# Si number density = 23.258856 Si / 1000 Ang^3
#
#
#
# Elastic Constant Matrix: (Units=GPa)
#
#
# Indices 1 2 3 4 5 6 
#
# 1 158.9011 45.7218 48.5128 22.2556 32.9389 -5.1956
# 2 45.7218 110.0395 29.6989 36.4643 3.9698 -22.6295
# 3 48.5128 29.6989 50.1107 21.1844 25.7439 -2.7155
# 4 22.2556 36.4643 21.1844 36.3916 11.3753 -6.6082
# 5 32.9389 3.9698 25.7439 11.3753 37.0296 16.0910
# 6 -5.1956 -22.6295 -2.7155 -6.6082 16.0910 42.5538
#
#
#
# Elastic Compliance Matrix: (Units=1/GPa)
#
#
# Indices 1 2 3 4 5 6 
#
# 1 0.009787 -0.002639 -0.005578 0.002204 -0.006133 0.002097
# 2 -0.002639 0.016387 -0.004470 -0.013500 0.006263 0.003643
# 3 -0.005578 -0.004470 0.046873 -0.008786 -0.028510 0.009349
# 4 0.002204 -0.013500 -0.008786 0.049175 -0.011467 0.004502
# 5 -0.006133 0.006263 -0.028510 -0.011467 0.066503 -0.026165
# 6 0.002097 0.003643 0.009349 0.004502 -0.026165 0.036882
#
#
# Mechanical properties :
#
#
# Convention : Reuss Voigt Hill
#
# Bulk Modulus (GPa) = 20.97639 62.99092 41.98366
# Shear Modulus (GPa) = 18.73558 36.20284 27.46921
#
# Velocity S-wave (km/s) = 2.84126 3.94955 3.44033
# Velocity P-wave (km/s) = 4.44993 6.92387 5.81987
#
# Compressibility (1/GPa) = 0.04767265
#
# Stress axis : x y z
#
# Youngs Moduli (GPa) = 102.17999 61.02272 21.33425
#
# Poissons Ratio (x) = 0.16102 0.11900
# Poissons Ratio (y) = 0.26962 0.09537
# Poissons Ratio (z) = 0.56996 0.27280
#
# Static dielectric constant tensor:
#      x y z
#    x 1.884400 -0.014930 -0.015430 
#    y -0.014930 1.907470 0.030780 
#    z -0.015430 0.030780 1.969050 
# 
# From -- ./inp_files/278861.got.cif
#   From: 2010.05.17/outbox.cif.g08.bks.cpg/sg2_140_cif.got.tgz:278861.got - 2010.06.03 11:33:40.
