data_PCOD9096769
_publ_section_title
;
Structure prediction by ZEFSAII (Michael W. Deem and Ramdas Pophale) SiO2 
 PCOD9096769
Probable space group: P -1
;
_chemical_formula_sum "Si O2"
_cell_formula_units_Z 15
_cell_length_a 8.174800
_cell_length_b 13.095657
_cell_length_c 9.051221
_cell_angle_alpha 130.496330
_cell_angle_beta 67.736543
_cell_angle_gamma 80.146614
_cell_volume 549.202945
_symmetry_space_group_name_H-M "P -1"
_symmetry_group_IT_number 2
_symmetry_cell_setting 'triclinic'
loop_
_space_group_symop_operation_xyz
x,y,z
-x,-y,-z
loop_
_atom_site_type_symbol
_atom_site_label
_atom_site_fract_x
_atom_site_fract_y
_atom_site_fract_z
Si Si1 0.000000 0.000000 0.500000
Si Si2 0.711727 0.862661 0.474552
Si Si3 0.755061 0.002117 0.112485
Si Si4 0.060313 0.361000 0.544817
Si Si5 0.507238 0.264056 0.224866
Si Si6 0.622416 0.469431 0.215314
Si Si7 0.911604 0.713271 0.983259
Si Si8 0.746564 0.257420 0.569573
O O1 0.185364 0.036813 0.460666
O O2 0.830501 0.167007 0.611350
O O3 0.859518 0.697108 0.368757
O O4 0.710356 0.815874 0.261242
O O5 0.522565 0.044029 0.280835
O O6 0.707837 0.078319 0.034717
O O7 0.791810 0.116778 0.307364
O O8 0.921562 0.820007 0.952907
O O9 0.289216 0.272398 0.294335
O O10 0.938833 0.556065 0.758479
O O11 0.897121 0.314679 0.524415
O O12 0.553511 0.346758 0.156264
O O13 0.459818 0.390768 0.495363
O O14 0.881746 0.353430 0.041337
O O15 0.505445 0.582639 0.218110
#
# Coordination Sequence:
#
# PCOD9096769 Si02
#       8
#     1   2   2   2   2   2   2   2
#     4  10  20  36  58  80 110 142 194 218 270 332
#     4  10  20  38  56  81 111 153 180 227 275 347
#     4  10  20  36  62  79 109 150 192 219 282 325
#     4   9  20  35  56  82 114 139 190 227 282 317
#     4   8  17  37  58  79 107 154 185 228 266 349
#     4   9  19  35  57  81 114 144 191 224 282 319
#     4  11  20  35  55  85 114 145 184 238 266 330
#     4  10  20  37  55  84 108 153 181 227 275 339
#
# _framework density 27.312308000000002
#
# number of rings (size 3 to 8) (size 9 to 14) (size 15 to 20)
#    0.000    2.400    1.333    1.600    0.000    1.067 
#    2.400    2.000    0.000    1.600    0.000    0.000 
#    0.000    0.000    0.000    0.000    0.000    0.000 
#
# Total GULP energy -83831.529372 kJ/mol
# GULP energy per Si atom -5588.768625 kJ/mol
# Density = 2.725014 g / cm^3
# Si number density = 27.312308 Si / 1000 Ang^3
#
#
#
# Elastic Constant Matrix: (Units=GPa)
#
#
# Indices 1 2 3 4 5 6 
#
# 1 140.8538 54.4566 36.9428 32.2709 -1.6506 25.4085
# 2 54.4566 141.3885 75.5199 55.4878 -0.6216 -2.1956
# 3 36.9428 75.5199 96.5921 33.3010 -2.5329 -6.7255
# 4 32.2709 55.4878 33.3010 60.3331 -2.8632 5.1695
# 5 -1.6506 -0.6216 -2.5329 -2.8632 38.1350 14.9498
# 6 25.4085 -2.1956 -6.7255 5.1695 14.9498 61.1205
#
#
#
# Elastic Compliance Matrix: (Units=1/GPa)
#
#
# Indices 1 2 3 4 5 6 
#
# 1 0.009632 -0.002238 -0.001610 -0.001719 0.001945 -0.004592
# 2 -0.002238 0.016071 -0.008481 -0.009140 -0.001784 0.001784
# 3 -0.001610 -0.008481 0.018360 -0.001697 -0.000119 0.002558
# 4 -0.001719 -0.009140 -0.001697 0.027209 0.002799 -0.002786
# 5 0.001945 -0.001784 -0.000119 0.002799 0.029775 -0.008405
# 6 -0.004592 0.001784 0.002558 -0.002786 -0.008405 0.020907
#
#
# Mechanical properties :
#
#
# Convention : Reuss Voigt Hill
#
# Bulk Modulus (GPa) = 51.53241 79.18589 65.35915
# Shear Modulus (GPa) = 32.66261 46.04538 39.35400
#
# Velocity S-wave (km/s) = 3.46192 4.11041 3.80002
# Velocity P-wave (km/s) = 5.90666 7.18213 6.57539
#
# Compressibility (1/GPa) = 0.01940527
#
# Stress axis : x y z
#
# Youngs Moduli (GPa) = 103.81932 62.22218 54.46768
#
# Poissons Ratio (x) = 0.13923 0.08771
# Poissons Ratio (y) = 0.23232 0.46193
# Poissons Ratio (z) = 0.16718 0.52770
#
# Static dielectric constant tensor:
#      x y z
#    x 2.097010 -0.033240 -0.027830 
#    y -0.033240 2.070990 -0.051900 
#    z -0.027830 -0.051900 2.239390 
# 
# From -- ./inp_files/164784.got.cif
#   From: 2010.05.17/outbox.cif.g08.bks.cpg/sg2_83_cif.got.tgz:164784.got - 2010.06.03 11:33:40.
