data_PCOD9096945
_publ_section_title
;
Structure prediction by ZEFSAII (Michael W. Deem and Ramdas Pophale) SiO2 
 PCOD9096945
Probable space group: P -1
;
_chemical_formula_sum "Si O2"
_cell_formula_units_Z 16
_cell_length_a 22.733297
_cell_length_b 12.833683
_cell_length_c 5.584500
_cell_angle_alpha 125.320805
_cell_angle_beta 131.292612
_cell_angle_gamma 38.874623
_cell_volume 761.108805
_symmetry_space_group_name_H-M "P -1"
_symmetry_group_IT_number 2
_symmetry_cell_setting 'triclinic'
loop_
_space_group_symop_operation_xyz
x,y,z
-x,-y,-z
loop_
_atom_site_type_symbol
_atom_site_label
_atom_site_fract_x
_atom_site_fract_y
_atom_site_fract_z
Si Si1 0.160255 0.167195 0.444257
Si Si2 0.574433 0.522081 0.599184
Si Si3 0.031918 0.037230 0.387147
Si Si4 0.544856 0.824594 0.175607
Si Si5 0.041792 0.312413 0.818423
Si Si6 0.562027 0.215413 0.784393
Si Si7 0.745964 0.161848 0.481724
Si Si8 0.647745 0.915977 0.298958
O O1 0.096264 0.262451 0.638832
O O2 0.245018 0.188464 0.681305
O O3 0.209819 0.976565 0.378328
O O4 0.106146 0.221764 0.114982
O O5 0.500000 0.500000 0.500000
O O6 0.568062 0.665332 0.899882
O O7 0.520975 0.602264 0.307075
O O8 0.690032 0.348585 0.667968
O O9 0.986734 0.230566 0.534361
O O10 0.156944 0.917273 0.536866
O O11 0.000000 0.000000 0.500000
O O12 0.000000 0.000000 0.000000
O O13 0.443883 0.997094 0.020266
O O14 0.506560 0.821561 0.325838
O O15 0.636515 0.822279 0.350354
O O16 0.000000 0.500000 0.000000
O O17 0.627769 0.074764 0.573374
O O18 0.648031 0.189548 0.144628
#
# Coordination Sequence:
#
# PCOD9096945 Si02
#       8
#     2   2   2   2   2   2   2   2
#     4  11  22  42  71 101 127 175 229 271 331 419
#     4  11  22  37  57  92 133 168 225 267 319 397
#     4  11  25  47  71 102 136 175 227 291 359 411
#     4  10  21  36  55  86 132 170 206 270 319 378
#     4  11  25  48  75 101 132 174 227 292 351 417
#     4  11  20  38  61  91 128 180 219 269 320 397
#     4  11  22  41  68  92 126 177 222 265 331 412
#     4  10  20  36  58  89 128 166 220 262 323 384
#
# _framework density 21.021961000000001
#
# number of rings (size 3 to 8) (size 9 to 14) (size 15 to 20)
#    0.000    1.250    2.500    4.875    0.000    1.000 
#    4.500    0.000    0.000    0.000    0.000    0.000 
#    0.000    0.000    0.000    0.000    0.000    0.000 
#
# Total GULP energy -89154.922703 kJ/mol
# GULP energy per Si atom -5572.182669 kJ/mol
# Density = 2.097411 g / cm^3
# Si number density = 21.021961 Si / 1000 Ang^3
#
#
#
# Elastic Constant Matrix: (Units=GPa)
#
#
# Indices 1 2 3 4 5 6 
#
# 1 163.3969 22.3604 15.0759 -0.7419 5.0883 13.1762
# 2 22.3604 96.4252 39.7378 10.3200 4.6228 10.9132
# 3 15.0759 39.7378 80.8896 14.3411 -4.5061 4.4032
# 4 -0.7419 10.3200 14.3411 35.9232 8.6359 -7.2104
# 5 5.0883 4.6228 -4.5061 8.6359 23.7549 1.1943
# 6 13.1762 10.9132 4.4032 -7.2104 1.1943 25.9300
#
#
#
# Elastic Compliance Matrix: (Units=1/GPa)
#
#
# Indices 1 2 3 4 5 6 
#
# 1 0.006575 -0.000875 -0.000832 0.000547 -0.001463 -0.002612
# 2 -0.000875 0.014045 -0.006317 -0.001803 -0.002849 -0.004764
# 3 -0.000832 -0.006317 0.017491 -0.007466 0.007556 -0.002313
# 4 0.000547 -0.001803 -0.007466 0.037678 -0.015531 0.012941
# 5 -0.001463 -0.002849 0.007556 -0.015531 0.050345 -0.005978
# 6 -0.002612 -0.004764 -0.002313 0.012941 -0.005978 0.046165
#
#
# Mechanical properties :
#
#
# Convention : Reuss Voigt Hill
#
# Bulk Modulus (GPa) = 45.32028 55.00666 50.16347
# Shear Modulus (GPa) = 25.54916 34.69079 30.11998
#
# Velocity S-wave (km/s) = 3.48998 4.06669 3.78932
# Velocity P-wave (km/s) = 6.15185 6.94793 6.56197
#
# Compressibility (1/GPa) = 0.02206518
#
# Stress axis : x y z
#
# Youngs Moduli (GPa) = 152.08578 71.19721 57.17133
#
# Poissons Ratio (x) = 0.06226 0.04757
# Poissons Ratio (y) = 0.13300 0.36114
# Poissons Ratio (z) = 0.12655 0.44974
#
# Static dielectric constant tensor:
#      x y z
#    x 1.822350 0.000250 -0.010890 
#    y 0.000250 1.779890 0.037480 
#    z -0.010890 0.037480 1.865530 
# 
# From -- ./inp_files/118887.got.cif
#   From: 2010.05.17/outbox.cif.g08.bks.cpg/sg2_60_cif.got.tgz:118887.got - 2010.06.03 11:33:40.
