data_PCOD9096265
_publ_section_title
;
Structure prediction by ZEFSAII (Michael W. Deem and Ramdas Pophale) SiO2 
 PCOD9096265
Probable space group: P -1
;
_chemical_formula_sum "Si O2"
_cell_formula_units_Z 16
_cell_length_a 9.223487
_cell_length_b 15.665423
_cell_length_c 11.702461
_cell_angle_alpha 40.102817
_cell_angle_beta 56.683260
_cell_angle_gamma 53.918929
_cell_volume 864.279423
_symmetry_space_group_name_H-M "P -1"
_symmetry_group_IT_number 2
_symmetry_cell_setting 'triclinic'
loop_
_space_group_symop_operation_xyz
x,y,z
-x,-y,-z
loop_
_atom_site_type_symbol
_atom_site_label
_atom_site_fract_x
_atom_site_fract_y
_atom_site_fract_z
Si Si1 0.767746 0.772979 0.396894
Si Si2 0.251440 0.481588 0.201812
Si Si3 0.456048 0.398018 0.716075
Si Si4 0.858250 0.193793 0.788494
Si Si5 0.028807 0.911791 0.893339
Si Si6 0.397073 0.940343 0.701190
Si Si7 0.445739 0.384044 0.987817
Si Si8 0.854371 0.690406 0.183347
O O1 0.688536 0.667133 0.607455
O O2 0.777785 0.736492 0.296437
O O3 0.978680 0.743765 0.374977
O O4 0.667175 0.936109 0.302173
O O5 0.373165 0.576209 0.095029
O O6 0.039498 0.559244 0.241249
O O7 0.295931 0.450599 0.081177
O O8 0.500000 0.500000 0.500000
O O9 0.654600 0.289558 0.765524
O O10 0.390377 0.448773 0.820438
O O11 0.304758 0.337670 0.791009
O O12 0.899937 0.148393 0.949051
O O13 0.889203 0.061287 0.829653
O O14 0.209848 0.926011 0.743395
O O15 0.929276 0.813220 0.979804
O O16 0.500000 0.000000 0.500000
O O17 0.508837 0.784929 0.855655
#
# Coordination Sequence:
#
# PCOD9096265 Si02
#       8
#     2   2   2   2   2   2   2   2
#     4  10  20  35  64  92 116 154 204 257 298 351
#     4  11  21  39  62  87 119 157 208 255 298 351
#     4  12  24  39  58  88 128 164 198 242 305 373
#     4   9  18  35  59  83 119 146 202 245 296 342
#     4   9  18  36  59  87 110 154 194 256 290 344
#     4  11  19  37  64  94 117 148 206 259 305 343
#     4  11  23  39  62  88 121 162 203 253 299 359
#     4  11  22  35  59  89 124 159 200 244 305 360
#
# _framework density 18.512530999999999
#
# number of rings (size 3 to 8) (size 9 to 14) (size 15 to 20)
#    0.000    1.500    3.750    3.375    0.000    1.000 
#    0.000    0.000    0.000    0.750    0.000    0.000 
#    0.000    0.000    0.000    0.000    0.000    0.000 
#
# Total GULP energy -89225.729420 kJ/mol
# GULP energy per Si atom -5576.608089 kJ/mol
# Density = 1.847040 g / cm^3
# Si number density = 18.512531 Si / 1000 Ang^3
#
#
#
# Elastic Constant Matrix: (Units=GPa)
#
#
# Indices 1 2 3 4 5 6 
#
# 1 71.5159 33.2650 21.7930 8.0337 -10.6862 15.7379
# 2 33.2650 97.2951 34.3980 9.0916 -2.5567 20.0338
# 3 21.7930 34.3980 111.2597 10.1496 -17.6809 14.1730
# 4 8.0337 9.0916 10.1496 27.6166 2.6997 -0.2013
# 5 -10.6862 -2.5567 -17.6809 2.6997 24.5600 1.8679
# 6 15.7379 20.0338 14.1730 -0.2013 1.8679 20.2241
#
#
#
# Elastic Compliance Matrix: (Units=1/GPa)
#
#
# Indices 1 2 3 4 5 6 
#
# 1 0.021020 -0.003698 0.001356 -0.006637 0.011591 -0.014781
# 2 -0.003698 0.014691 -0.002405 -0.002877 -0.000738 -0.009950
# 3 0.001356 -0.002405 0.012782 -0.005419 0.010798 -0.008682
# 4 -0.006637 -0.002877 -0.005419 0.042426 -0.012772 0.013414
# 5 0.011591 -0.000738 0.010798 -0.012772 0.056473 -0.021199
# 6 -0.014781 -0.009950 -0.008682 0.013414 -0.021199 0.078981
#
#
# Mechanical properties :
#
#
# Convention : Reuss Voigt Hill
#
# Bulk Modulus (GPa) = 25.64098 50.99807 38.31953
# Shear Modulus (GPa) = 20.09118 27.18779 23.63949
#
# Velocity S-wave (km/s) = 3.29792 3.83641 3.57731
# Velocity P-wave (km/s) = 5.32752 6.87253 6.14875
#
# Compressibility (1/GPa) = 0.03900007
#
# Stress axis : x y z
#
# Youngs Moduli (GPa) = 47.57393 68.06975 78.23424
#
# Poissons Ratio (x) = 0.25171 -0.10611
# Poissons Ratio (y) = 0.17592 0.18815
# Poissons Ratio (z) = -0.06453 0.16370
#
# Static dielectric constant tensor:
#      x y z
#    x 1.608080 -0.010470 -0.019910 
#    y -0.010470 1.684920 0.000010 
#    z -0.019910 0.000010 1.691490 
# 
# From -- ./inp_files/398365.got.cif
#   From: 2010.05.17/outbox.cif.g08.bks.cpg/sg2_200_cif.got.tgz:398365.got - 2010.06.03 11:33:40.
