data_PCOD9096454
_publ_section_title
;
Structure prediction by ZEFSAII (Michael W. Deem and Ramdas Pophale) SiO2 
 PCOD9096454
Probable space group: P -1
;
_chemical_formula_sum "Si O2"
_cell_formula_units_Z 16
_cell_length_a 8.891848
_cell_length_b 13.926334
_cell_length_c 11.805275
_cell_angle_alpha 32.619658
_cell_angle_beta 74.224050
_cell_angle_gamma 89.439340
_cell_volume 687.313035
_symmetry_space_group_name_H-M "P -1"
_symmetry_group_IT_number 2
_symmetry_cell_setting 'triclinic'
loop_
_space_group_symop_operation_xyz
x,y,z
-x,-y,-z
loop_
_atom_site_type_symbol
_atom_site_label
_atom_site_fract_x
_atom_site_fract_y
_atom_site_fract_z
Si Si1 0.709149 0.827789 0.604536
Si Si2 0.240012 0.634840 0.559398
Si Si3 0.086126 0.361863 0.664681
Si Si4 0.255962 0.915622 0.071818
Si Si5 0.223989 0.834262 0.582988
Si Si6 0.586069 0.652480 0.428036
Si Si7 0.699752 0.414264 0.006490
Si Si8 0.624224 0.080323 0.195803
O O1 0.505672 0.702048 0.804159
O O2 0.811608 0.996420 0.510473
O O3 0.712616 0.952018 0.366938
O O4 0.763218 0.647951 0.758101
O O5 0.136911 0.427901 0.719708
O O6 0.268499 0.787629 0.299485
O O7 0.160162 0.714943 0.596727
O O8 0.427927 0.642544 0.548579
O O9 0.250819 0.386037 0.531107
O O10 0.000000 0.500000 0.500000
O O11 0.931477 0.154470 0.876923
O O12 0.369979 0.908648 0.950099
O O13 0.327218 0.141879 0.859298
O O14 0.205456 0.662722 0.844536
O O15 0.426938 0.967163 0.386016
O O16 0.500000 0.500000 0.500000
O O17 0.710000 0.302606 0.002137
#
# Coordination Sequence:
#
# PCOD9096454 Si02
#       8
#     2   2   2   2   2   2   2   2
#     4   8  15  30  47  76 107 144 188 230 284 337
#     4  10  20  36  55  86 117 146 191 236 281 337
#     4   9  21  39  54  73 116 160 192 225 278 347
#     4  11  20  36  56  82 121 154 181 230 292 344
#     4   9  16  30  51  77 113 144 181 241 283 324
#     4  10  20  36  55  81 112 150 194 235 274 337
#     4   8  15  30  48  73 109 142 186 233 284 330
#     4   9  17  29  51  79 110 147 183 233 284 337
#
# _framework density 23.279057000000002
#
# number of rings (size 3 to 8) (size 9 to 14) (size 15 to 20)
#    0.000    2.750    1.250    2.250    0.000    0.000 
#   11.250    0.000    0.000    3.000    0.000    1.750 
#    0.000    2.000    0.000    0.000    0.000    0.000 
#
# Total GULP energy -89099.462255 kJ/mol
# GULP energy per Si atom -5568.716391 kJ/mol
# Density = 2.322607 g / cm^3
# Si number density = 23.279057 Si / 1000 Ang^3
#
#
#
# Elastic Constant Matrix: (Units=GPa)
#
#
# Indices 1 2 3 4 5 6 
#
# 1 81.4242 12.4491 9.4785 -14.4632 -8.2978 0.1168
# 2 12.4491 138.5910 56.4996 -35.0804 14.8084 18.3918
# 3 9.4785 56.4996 75.5363 -22.8873 17.4331 -2.9778
# 4 -14.4632 -35.0804 -22.8873 41.8212 1.1990 5.2820
# 5 -8.2978 14.8084 17.4331 1.1990 24.5382 -10.6145
# 6 0.1168 18.3918 -2.9778 5.2820 -10.6145 21.5513
#
#
#
# Elastic Compliance Matrix: (Units=1/GPa)
#
#
# Indices 1 2 3 4 5 6 
#
# 1 0.014012 -0.002110 -0.001970 0.000932 0.010033 0.006165
# 2 -0.002110 0.024480 -0.005577 0.023024 -0.031077 -0.042599
# 3 -0.001970 -0.005577 0.023524 0.008115 -0.014995 -0.001354
# 4 0.000932 0.023024 0.008115 0.056234 -0.045837 -0.054890
# 5 0.010033 -0.031077 -0.014995 -0.045837 0.115897 0.092710
# 6 0.006165 -0.042599 -0.001354 -0.054890 0.092710 0.141649
#
#
# Mechanical properties :
#
#
# Convention : Reuss Voigt Hill
#
# Bulk Modulus (GPa) = 23.41813 50.26735 36.84274
# Shear Modulus (GPa) = 12.21467 32.05709 22.13588
#
# Velocity S-wave (km/s) = 2.29313 3.71493 3.08700
# Velocity P-wave (km/s) = 4.13435 6.32781 5.34481
#
# Compressibility (1/GPa) = 0.04270196
#
# Stress axis : x y z
#
# Youngs Moduli (GPa) = 71.36550 40.84960 42.51064
#
# Poissons Ratio (x) = 0.08619 0.08376
# Poissons Ratio (y) = 0.15057 0.23707
# Poissons Ratio (z) = 0.14062 0.22781
#
# Static dielectric constant tensor:
#      x y z
#    x 2.027350 -0.104150 -0.062570 
#    y -0.104150 2.176090 -0.016330 
#    z -0.062570 -0.016330 1.892740 
# 
# From -- ./inp_files/398132.got.cif
#   From: 2010.05.17/outbox.cif.g08.bks.cpg/sg2_200_cif.got.tgz:398132.got - 2010.06.03 11:33:40.
