data_PCOD9096806
_publ_section_title
;
Structure prediction by ZEFSAII (Michael W. Deem and Ramdas Pophale) SiO2 
 PCOD9096806
Probable space group: P -1
;
_chemical_formula_sum "Si O2"
_cell_formula_units_Z 12
_cell_length_a 14.774898
_cell_length_b 12.366290
_cell_length_c 10.120555
_cell_angle_alpha 142.694661
_cell_angle_beta 26.461415
_cell_angle_gamma 145.202207
_cell_volume 456.821062
_symmetry_space_group_name_H-M "P -1"
_symmetry_group_IT_number 2
_symmetry_cell_setting 'triclinic'
loop_
_space_group_symop_operation_xyz
x,y,z
-x,-y,-z
loop_
_atom_site_type_symbol
_atom_site_label
_atom_site_fract_x
_atom_site_fract_y
_atom_site_fract_z
Si Si1 0.424202 0.299054 0.506456
Si Si2 0.232211 0.507051 0.386620
Si Si3 0.231808 0.723613 0.170888
Si Si4 0.396190 0.291069 0.189463
Si Si5 0.672605 0.803556 0.172739
Si Si6 0.016375 0.989610 0.258605
O O1 0.526222 0.527835 0.631759
O O2 0.368956 0.184143 0.607260
O O3 0.183696 0.219846 0.672354
O O4 0.609450 0.257138 0.142474
O O5 0.319949 0.397605 0.276560
O O6 0.428550 0.719496 0.340861
O O7 0.986695 0.476205 0.715948
O O8 0.232651 0.369379 0.129553
O O9 0.123092 0.876670 0.441823
O O10 0.387235 0.755577 0.126520
O O11 0.192823 0.078340 0.232928
O O12 0.841371 0.976657 0.030969
#
# Coordination Sequence:
#
# PCOD9096806 Si02
#       6
#     2   2   2   2   2   2
#     4  11  20  35  60  84 109 144 183 226 274 321
#     4   8  17  35  58  79 107 146 181 220 272 323
#     4  10  20  36  58  83 110 144 183 225 273 322
#     4   9  20  37  56  81 112 144 181 223 272 324
#     4   8  16  34  56  78 108 145 180 220 271 322
#     4  10  22  39  57  80 112 147 182 223 272 325
#
# _framework density 26.26849
#
# number of rings (size 3 to 8) (size 9 to 14) (size 15 to 20)
#    0.000    3.000    0.000    2.500    0.000    6.667 
#    0.000   35.000    0.000    9.000    0.000    0.000 
#    0.000    0.000    0.000    0.000    0.000    0.000 
#
# Total GULP energy -66880.752325 kJ/mol
# GULP energy per Si atom -5573.396027 kJ/mol
# Density = 2.620870 g / cm^3
# Si number density = 26.268490 Si / 1000 Ang^3
#
#
#
# Elastic Constant Matrix: (Units=GPa)
#
#
# Indices 1 2 3 4 5 6 
#
# 1 97.4170 39.5138 47.9432 -14.2699 -6.0322 26.3362
# 2 39.5138 167.1186 72.7392 -64.4025 8.4984 22.4830
# 3 47.9432 72.7392 152.1281 -48.5145 0.3813 10.7637
# 4 -14.2699 -64.4025 -48.5145 63.5598 -2.4523 -7.8424
# 5 -6.0322 8.4984 0.3813 -2.4523 47.8671 -4.1693
# 6 26.3362 22.4830 10.7637 -7.8424 -4.1693 44.1583
#
#
#
# Elastic Compliance Matrix: (Units=1/GPa)
#
#
# Indices 1 2 3 4 5 6 
#
# 1 0.014627 -0.001728 -0.004039 -0.002376 0.001438 -0.007145
# 2 -0.001728 0.011133 -0.001634 0.009226 -0.001951 -0.002785
# 3 -0.004039 -0.001634 0.010253 0.005482 0.000131 0.001728
# 4 -0.002376 0.009226 0.005482 0.028770 -0.000468 0.000449
# 5 0.001438 -0.001951 0.000131 -0.000468 0.021573 0.002058
# 6 -0.007145 -0.002785 0.001728 0.000449 0.002058 0.028178
#
#
# Mechanical properties :
#
#
# Convention : Reuss Voigt Hill
#
# Bulk Modulus (GPa) = 47.14706 81.89512 64.52109
# Shear Modulus (GPa) = 36.65499 48.21489 42.43494
#
# Velocity S-wave (km/s) = 3.73955 4.28888 4.02360
# Velocity P-wave (km/s) = 6.05250 7.46792 6.79716
#
# Compressibility (1/GPa) = 0.02121023
#
# Stress axis : x y z
#
# Youngs Moduli (GPa) = 68.36893 89.82137 97.52852
#
# Poissons Ratio (x) = 0.15519 0.39394
# Poissons Ratio (y) = 0.11812 0.15941
# Poissons Ratio (z) = 0.27616 0.14681
#
# Static dielectric constant tensor:
#      x y z
#    x 2.247620 0.009020 0.142120 
#    y 0.009020 2.225170 -0.009200 
#    z 0.142120 -0.009200 2.102320 
# 
# From -- ./inp_files/466260.got.cif
#   From: 2010.05.17/outbox.cif.g08.bks.cpg/sg2_234_cif.got.tgz:466260.got - 2010.06.03 11:33:40.
