data_PCOD9096383
_publ_section_title
;
Structure prediction by ZEFSAII (Michael W. Deem and Ramdas Pophale) SiO2 
 PCOD9096383
Probable space group: P -1
;
_chemical_formula_sum "Si O2"
_cell_formula_units_Z 16
_cell_length_a 10.100997
_cell_length_b 10.041642
_cell_length_c 10.398567
_cell_angle_alpha 91.163095
_cell_angle_beta 111.305296
_cell_angle_gamma 138.097968
_cell_volume 580.228668
_symmetry_space_group_name_H-M "P -1"
_symmetry_group_IT_number 2
_symmetry_cell_setting 'triclinic'
loop_
_space_group_symop_operation_xyz
x,y,z
-x,-y,-z
loop_
_atom_site_type_symbol
_atom_site_label
_atom_site_fract_x
_atom_site_fract_y
_atom_site_fract_z
Si Si1 0.028282 0.863046 0.026984
Si Si2 0.779400 0.738279 0.162985
Si Si3 0.797604 0.305556 0.238993
Si Si4 0.469912 0.172681 0.896610
Si Si5 0.862201 0.482994 0.840937
Si Si6 0.487167 0.804043 0.633045
Si Si7 0.738576 0.634299 0.410488
Si Si8 0.762066 0.944862 0.510358
O O1 0.812094 0.675134 0.048576
O O2 0.961708 0.709004 0.890348
O O3 0.285003 0.019097 0.183215
O O4 0.000000 0.000000 0.000000
O O5 0.670691 0.800777 0.116465
O O6 0.660975 0.566352 0.232393
O O7 0.052456 0.964626 0.310265
O O8 0.695486 0.081027 0.180871
O O9 0.934623 0.485975 0.724989
O O10 0.726970 0.295428 0.358129
O O11 0.648564 0.276460 0.079365
O O12 0.595164 0.276859 0.801103
O O13 0.000000 0.500000 0.000000
O O14 0.395534 0.583912 0.570993
O O15 0.596518 0.920651 0.532674
O O16 0.672430 0.734024 0.426161
O O17 0.031576 0.844313 0.511083
#
# Coordination Sequence:
#
# PCOD9096383 Si02
#       8
#     2   2   2   2   2   2   2   2
#     4  11  22  33  49  84 117 136 175 224 260 315
#     4   9  19  33  55  80 104 135 172 220 268 314
#     4  10  21  35  50  77 107 147 182 212 245 319
#     4  10  20  36  53  74 110 147 177 211 260 311
#     4  10  22  35  51  70 111 150 182 211 249 306
#     4  11  20  32  57  77 104 141 175 210 273 320
#     4   9  19  35  55  80 105 128 174 223 275 317
#     4   8  19  36  53  84 103 127 169 229 275 314
#
# _framework density 27.575333000000001
#
# number of rings (size 3 to 8) (size 9 to 14) (size 15 to 20)
#    0.750    1.500    0.000    4.125    5.250    1.500 
#    0.000    0.000    0.000    1.500    0.000    0.000 
#    0.000    0.000    0.000    0.000    0.000    0.000 
#
# Total GULP energy -89399.021265 kJ/mol
# GULP energy per Si atom -5587.438829 kJ/mol
# Density = 2.751257 g / cm^3
# Si number density = 27.575333 Si / 1000 Ang^3
#
#
#
# Elastic Constant Matrix: (Units=GPa)
#
#
# Indices 1 2 3 4 5 6 
#
# 1 147.7074 49.2145 36.2379 -17.2925 -15.1550 38.9803
# 2 49.2145 103.6080 8.3586 3.7717 -19.9229 18.2012
# 3 36.2379 8.3586 56.2869 -12.6149 -18.6583 12.9244
# 4 -17.2925 3.7717 -12.6149 35.7791 11.7205 -14.0430
# 5 -15.1550 -19.9229 -18.6583 11.7205 48.9984 -22.2991
# 6 38.9803 18.2012 12.9244 -14.0430 -22.2991 54.7677
#
#
#
# Elastic Compliance Matrix: (Units=1/GPa)
#
#
# Indices 1 2 3 4 5 6 
#
# 1 0.011293 -0.004724 -0.005907 0.002856 -0.004095 -0.006009
# 2 -0.004724 0.013072 0.001935 -0.004981 0.005580 -0.000444
# 3 -0.005907 0.001935 0.024372 0.003641 0.008344 0.002140
# 4 0.002856 -0.004981 0.003641 0.035142 -0.005675 0.005463
# 5 -0.004095 0.005580 0.008344 -0.005675 0.030527 0.010065
# 6 -0.006009 -0.000444 0.002140 0.005463 0.010065 0.027677
#
#
# Mechanical properties :
#
#
# Convention : Reuss Voigt Hill
#
# Bulk Modulus (GPa) = 31.90084 55.02494 43.46289
# Shear Modulus (GPa) = 29.42550 42.16181 35.79365
#
# Velocity S-wave (km/s) = 3.27019 3.91444 3.60673
# Velocity P-wave (km/s) = 5.08454 6.35832 5.75677
#
# Compressibility (1/GPa) = 0.03134713
#
# Stress axis : x y z
#
# Youngs Moduli (GPa) = 88.54954 76.50094 41.03094
#
# Poissons Ratio (x) = 0.36136 0.24235
# Poissons Ratio (y) = 0.41827 -0.07941
# Poissons Ratio (z) = 0.52302 -0.14806
#
# Static dielectric constant tensor:
#      x y z
#    x 2.175970 0.079740 0.067030 
#    y 0.079740 2.143910 -0.060690 
#    z 0.067030 -0.060690 2.249850 
# 
# From -- ./inp_files/423800.got.cif
#   From: 2010.05.17/outbox.cif.g08.bks.cpg/sg2_212_cif.got.tgz:423800.got - 2010.06.03 11:33:40.
