data_PCOD9096931
_publ_section_title
;
Structure prediction by ZEFSAII (Michael W. Deem and Ramdas Pophale) SiO2 
 PCOD9096931
Probable space group: P -1
;
_chemical_formula_sum "Si O2"
_cell_formula_units_Z 16
_cell_length_a 17.357511
_cell_length_b 9.033719
_cell_length_c 8.954579
_cell_angle_alpha 92.685947
_cell_angle_beta 55.278259
_cell_angle_gamma 52.545618
_cell_volume 731.056506
_symmetry_space_group_name_H-M "P -1"
_symmetry_group_IT_number 2
_symmetry_cell_setting 'triclinic'
loop_
_space_group_symop_operation_xyz
x,y,z
-x,-y,-z
loop_
_atom_site_type_symbol
_atom_site_label
_atom_site_fract_x
_atom_site_fract_y
_atom_site_fract_z
Si Si1 0.467316 0.801154 0.574498
Si Si2 0.829194 0.074369 0.366297
Si Si3 0.072577 0.306452 0.260210
Si Si4 0.695633 0.292257 0.199765
Si Si5 0.212487 0.149268 0.388970
Si Si6 0.009453 0.073237 0.340018
Si Si7 0.020220 0.643508 0.941222
Si Si8 0.345617 0.178817 0.488040
O O1 0.594295 0.563465 0.324967
O O2 0.394031 0.750054 0.736146
O O3 0.531999 0.846491 0.617129
O O4 0.368716 0.018147 0.576943
O O5 0.771567 0.029498 0.554429
O O6 0.882261 0.162680 0.380901
O O7 0.735211 0.220651 0.328920
O O8 0.971541 0.816973 0.127183
O O9 0.210532 0.157357 0.210933
O O10 0.956724 0.581999 0.386467
O O11 0.090594 0.218451 0.070733
O O12 0.986280 0.271475 0.420698
O O13 0.834203 0.142422 0.928170
O O14 0.322430 0.126058 0.352247
O O15 0.000000 0.000000 0.500000
O O16 0.189693 0.450567 0.702304
O O17 0.000000 0.500000 0.000000
#
# Coordination Sequence:
#
# PCOD9096931 Si02
#       8
#     2   2   2   2   2   2   2   2
#     4  10  22  39  62  92 125 172 221 251 295 362
#     4  12  21  36  60  98 126 155 202 268 326 373
#     4  10  21  36  56  90 129 160 188 250 336 381
#     4  11  23  40  62  93 126 168 210 261 303 379
#     4  10  20  36  58  88 125 162 197 252 318 382
#     4  12  25  38  60  95 129 162 203 263 334 377
#     4  11  19  34  63  99 122 152 202 266 323 366
#     4  10  20  37  61  93 122 164 210 262 301 370
#
# _framework density 21.886134999999999
#
# number of rings (size 3 to 8) (size 9 to 14) (size 15 to 20)
#    0.000    1.250    6.250    1.125    3.500    0.000 
#    0.000    0.000    0.000    7.500    3.250    0.000 
#    0.000    0.000    0.000    0.000    0.000    0.000 
#
# Total GULP energy -89156.102821 kJ/mol
# GULP energy per Si atom -5572.256426 kJ/mol
# Density = 2.183632 g / cm^3
# Si number density = 21.886135 Si / 1000 Ang^3
#
#
#
# Elastic Constant Matrix: (Units=GPa)
#
#
# Indices 1 2 3 4 5 6 
#
# 1 162.7853 27.8343 12.9741 -12.3489 11.8180 -5.2172
# 2 27.8343 104.8198 23.4588 -6.4421 2.0333 -1.5528
# 3 12.9741 23.4588 46.2642 -5.4209 -2.0392 -7.1155
# 4 -12.3489 -6.4421 -5.4209 30.1166 1.4223 6.6756
# 5 11.8180 2.0333 -2.0392 1.4223 20.6382 -5.1334
# 6 -5.2172 -1.5528 -7.1155 6.6756 -5.1334 38.2093
#
#
#
# Elastic Compliance Matrix: (Units=1/GPa)
#
#
# Indices 1 2 3 4 5 6 
#
# 1 0.006965 -0.001340 -0.001207 0.002632 -0.004246 -0.000359
# 2 -0.001340 0.011179 -0.005378 0.001175 -0.001220 -0.001099
# 3 -0.001207 -0.005378 0.025830 0.001716 0.004844 0.004778
# 4 0.002632 0.001175 0.001716 0.036525 -0.005563 -0.006402
# 5 -0.004246 -0.001220 0.004844 -0.005563 0.053981 0.008497
# 6 -0.000359 -0.001099 0.004778 -0.006402 0.008497 0.029228
#
#
# Mechanical properties :
#
#
# Convention : Reuss Voigt Hill
#
# Bulk Modulus (GPa) = 35.55863 49.15598 42.35730
# Shear Modulus (GPa) = 26.46433 34.43298 30.44866
#
# Velocity S-wave (km/s) = 3.48110 3.97076 3.73397
# Velocity P-wave (km/s) = 5.69560 6.59782 6.16324
#
# Compressibility (1/GPa) = 0.02812257
#
# Stress axis : x y z
#
# Youngs Moduli (GPa) = 143.57665 89.45122 38.71490
#
# Poissons Ratio (x) = 0.11991 0.04675
# Poissons Ratio (y) = 0.19246 0.20820
# Poissons Ratio (z) = 0.17336 0.48105
#
# Static dielectric constant tensor:
#      x y z
#    x 1.878930 0.035980 0.011970 
#    y 0.035980 2.079230 -0.018870 
#    z 0.011970 -0.018870 1.891570 
# 
# From -- ./inp_files/329011.got.cif
#   From: 2010.05.17/outbox.cif.g08.bks.cpg/sg2_165_cif.got.tgz:329011.got - 2010.06.03 11:33:40.
