data_PCOD9096600
_publ_section_title
;
Structure prediction by ZEFSAII (Michael W. Deem and Ramdas Pophale) SiO2 
 PCOD9096600
Probable space group: P -1
;
_chemical_formula_sum "Si O2"
_cell_formula_units_Z 16
_cell_length_a 8.188183
_cell_length_b 15.457831
_cell_length_c 9.618328
_cell_angle_alpha 120.100096
_cell_angle_beta 99.422223
_cell_angle_gamma 48.426849
_cell_volume 760.576110
_symmetry_space_group_name_H-M "P -1"
_symmetry_group_IT_number 2
_symmetry_cell_setting 'triclinic'
loop_
_space_group_symop_operation_xyz
x,y,z
-x,-y,-z
loop_
_atom_site_type_symbol
_atom_site_label
_atom_site_fract_x
_atom_site_fract_y
_atom_site_fract_z
Si Si1 0.202550 0.651092 0.723027
Si Si2 0.722763 0.778008 0.826592
Si Si3 0.124273 0.744501 0.480732
Si Si4 0.593366 0.488767 0.852559
Si Si5 0.234053 0.905681 0.537316
Si Si6 0.418697 0.756791 0.941530
Si Si7 0.643617 0.053808 0.680476
Si Si8 0.616252 0.980088 0.211384
O O1 0.194058 0.658225 0.561024
O O2 0.417848 0.523805 0.736462
O O3 0.222914 0.762326 0.859601
O O4 0.990238 0.671076 0.755585
O O5 0.575187 0.745760 0.837399
O O6 0.606475 0.867828 0.743936
O O7 0.686707 0.878964 0.017414
O O8 0.173335 0.657456 0.280957
O O9 0.272613 0.784251 0.514283
O O10 0.870048 0.892790 0.575527
O O11 0.580594 0.613333 0.932324
O O12 0.500000 0.500000 0.000000
O O13 0.400426 0.870828 0.409154
O O14 0.209147 0.005154 0.722332
O O15 0.000000 0.000000 0.500000
O O16 0.331754 0.877143 0.132974
O O17 0.439187 0.065826 0.702946
#
# Coordination Sequence:
#
# PCOD9096600 Si02
#       8
#     2   2   2   2   2   2   2   2
#     4  10  22  38  67  87 126 168 212 256 315 369
#     4  10  20  38  61  93 123 165 208 264 311 372
#     4  11  21  38  61  92 123 163 216 253 313 375
#     4  10  23  43  63  86 127 169 210 261 317 378
#     4  10  22  33  58  89 125 164 205 250 316 369
#     4   9  22  38  63  92 126 160 211 256 312 374
#     4  10  20  37  59  93 125 163 204 261 315 368
#     4  10  20  36  56  89 135 157 205 262 314 369
#
# _framework density 21.036683
#
# number of rings (size 3 to 8) (size 9 to 14) (size 15 to 20)
#    0.750    1.250    1.250    2.250    3.500    1.500 
#    0.000    2.500    0.000    0.000    0.000    0.000 
#    0.000    0.000    0.000    0.000    0.000    0.000 
#
# Total GULP energy -89081.031031 kJ/mol
# GULP energy per Si atom -5567.564439 kJ/mol
# Density = 2.098880 g / cm^3
# Si number density = 21.036683 Si / 1000 Ang^3
#
#
#
# Elastic Constant Matrix: (Units=GPa)
#
#
# Indices 1 2 3 4 5 6 
#
# 1 63.8388 16.0404 17.5030 -3.4693 -7.7538 10.3819
# 2 16.0404 43.3928 19.2453 -2.3975 -15.8474 14.2643
# 3 17.5030 19.2453 84.2460 6.2556 -12.0015 11.8354
# 4 -3.4693 -2.3975 6.2556 28.6309 6.3287 -6.9966
# 5 -7.7538 -15.8474 -12.0015 6.3287 34.2408 -13.3703
# 6 10.3819 14.2643 11.8354 -6.9966 -13.3703 31.7640
#
#
#
# Elastic Compliance Matrix: (Units=1/GPa)
#
#
# Indices 1 2 3 4 5 6 
#
# 1 0.018009 -0.004727 -0.002474 0.001764 -0.000312 -0.002584
# 2 -0.004727 0.032594 -0.003900 -0.001053 0.009822 -0.007737
# 3 -0.002474 -0.003900 0.014406 -0.005025 0.002494 -0.002865
# 4 0.001764 -0.001053 -0.005025 0.039420 -0.006048 0.007906
# 5 -0.000312 0.009822 0.002494 -0.006048 0.039618 0.010106
# 6 -0.002584 -0.007737 -0.002865 0.007906 0.010106 0.042864
#
#
# Mechanical properties :
#
#
# Convention : Reuss Voigt Hill
#
# Bulk Modulus (GPa) = 23.36009 33.00610 28.18310
# Shear Modulus (GPa) = 22.38332 28.17307 25.27820
#
# Velocity S-wave (km/s) = 3.26546 3.66353 3.47021
# Velocity P-wave (km/s) = 5.03450 5.79820 5.42979
#
# Compressibility (1/GPa) = 0.04280806
#
# Stress axis : x y z
#
# Youngs Moduli (GPa) = 55.52877 30.68033 69.41647
#
# Poissons Ratio (x) = 0.14501 0.17174
# Poissons Ratio (y) = 0.26246 0.27069
# Poissons Ratio (z) = 0.13738 0.11964
#
# Static dielectric constant tensor:
#      x y z
#    x 1.813320 0.008130 -0.017750 
#    y 0.008130 1.731530 -0.001860 
#    z -0.017750 -0.001860 1.800570 
# 
# From -- ./inp_files/218280.got.cif
#   From: 2010.05.17/outbox.cif.g08.bks.cpg/sg2_110_cif.got.tgz:218280.got - 2010.06.03 11:33:40.
