data_PCOD9096674
_publ_section_title
;
Structure prediction by ZEFSAII (Michael W. Deem and Ramdas Pophale) SiO2 
 PCOD9096674
Probable space group: P -1
;
_chemical_formula_sum "Si O2"
_cell_formula_units_Z 16
_cell_length_a 12.953258
_cell_length_b 8.062353
_cell_length_c 16.910976
_cell_angle_alpha 53.833573
_cell_angle_beta 138.046648
_cell_angle_gamma 93.349062
_cell_volume 676.049738
_symmetry_space_group_name_H-M "P -1"
_symmetry_group_IT_number 2
_symmetry_cell_setting 'triclinic'
loop_
_space_group_symop_operation_xyz
x,y,z
-x,-y,-z
loop_
_atom_site_type_symbol
_atom_site_label
_atom_site_fract_x
_atom_site_fract_y
_atom_site_fract_z
Si Si1 0.048797 0.423920 0.748359
Si Si2 0.975152 0.746668 0.376611
Si Si3 0.804678 0.418096 0.927889
Si Si4 0.378543 0.312859 0.520775
Si Si5 0.811255 0.024729 0.360008
Si Si6 0.280224 0.034902 0.316356
Si Si7 0.386394 0.593340 0.598428
Si Si8 0.372582 0.310034 0.086202
O O1 0.106163 0.209402 0.771759
O O2 0.876482 0.491799 0.693080
O O3 0.902839 0.726810 0.532962
O O4 0.245227 0.348166 0.926306
O O5 0.211205 0.636791 0.539390
O O6 0.000000 0.500000 0.500000
O O7 0.816196 0.012127 0.271285
O O8 0.737855 0.701981 0.771630
O O9 0.635038 0.397642 0.818580
O O10 0.787289 0.461017 0.000997
O O11 0.054181 0.157032 0.119158
O O12 0.382465 0.476078 0.546543
O O13 0.513686 0.229299 0.543009
O O14 0.508062 0.997099 0.719587
O O15 0.569295 0.277529 0.184374
O O16 0.000000 0.000000 0.500000
O O17 0.301434 0.906235 0.449317
#
# Coordination Sequence:
#
# PCOD9096674 Si02
#       8
#     2   2   2   2   2   2   2   2
#     4   9  20  38  58  80 114 155 191 233 292 351
#     4   9  20  39  59  83 115 151 192 242 293 338
#     4  10  23  38  57  89 124 152 191 241 288 349
#     4   9  21  38  59  86 115 149 193 242 284 340
#     4  10  20  36  57  84 115 147 193 246 290 341
#     4  10  22  39  58  87 120 158 195 232 292 353
#     4  11  21  38  63  86 116 155 195 243 295 346
#     4  10  21  38  58  83 116 155 193 236 292 347
#
# _framework density 23.666896999999999
#
# number of rings (size 3 to 8) (size 9 to 14) (size 15 to 20)
#    0.000    2.250    0.000    2.250    0.000   10.500 
#    0.000    2.500    0.000    0.000    0.000    0.000 
#    0.000    0.000    0.000    0.000    0.000    0.000 
#
# Total GULP energy -89352.332314 kJ/mol
# GULP energy per Si atom -5584.520770 kJ/mol
# Density = 2.361303 g / cm^3
# Si number density = 23.666897 Si / 1000 Ang^3
#
#
#
# Elastic Constant Matrix: (Units=GPa)
#
#
# Indices 1 2 3 4 5 6 
#
# 1 135.9366 32.9915 36.9346 5.2702 33.3493 14.9745
# 2 32.9915 44.0163 19.5196 20.8393 17.7997 -5.3514
# 3 36.9346 19.5196 68.3951 22.9491 19.8535 9.4149
# 4 5.2702 20.8393 22.9491 40.2224 10.6830 4.4723
# 5 33.3493 17.7997 19.8535 10.6830 34.4162 5.6369
# 6 14.9745 -5.3514 9.4149 4.4723 5.6369 30.7283
#
#
#
# Elastic Compliance Matrix: (Units=1/GPa)
#
#
# Indices 1 2 3 4 5 6 
#
# 1 0.012902 -0.010013 -0.004091 0.008295 -0.006423 -0.006807
# 2 -0.010013 0.047505 0.000021 -0.022459 -0.010923 0.018419
# 3 -0.004091 0.000021 0.022172 -0.010486 -0.005202 -0.002315
# 4 0.008295 -0.022459 -0.010486 0.043112 -0.002011 -0.010646
# 5 -0.006423 -0.010923 -0.005202 -0.002011 0.045409 -0.005216
# 6 -0.006807 0.018419 -0.002315 -0.010646 -0.005216 0.042284
#
#
# Mechanical properties :
#
#
# Convention : Reuss Voigt Hill
#
# Bulk Modulus (GPa) = 18.37862 47.47103 32.92482
# Shear Modulus (GPa) = 19.25390 31.66686 25.46038
#
# Velocity S-wave (km/s) = 2.85535 3.66187 3.28347
# Velocity P-wave (km/s) = 4.31892 6.16284 5.32136
#
# Compressibility (1/GPa) = 0.05441106
#
# Stress axis : x y z
#
# Youngs Moduli (GPa) = 77.50557 21.05058 45.10288
#
# Poissons Ratio (x) = 0.21079 0.18453
# Poissons Ratio (y) = 0.77610 -0.00095
# Poissons Ratio (z) = 0.31711 -0.00044
#
# Static dielectric constant tensor:
#      x y z
#    x 2.100710 0.083740 -0.044250 
#    y 0.083740 1.967820 -0.024050 
#    z -0.044250 -0.024050 1.897960 
# 
# From -- ./inp_files/46318.got.cif
#   From: 2010.05.17/outbox.cif.g08.bks.cpg/sg2_24_cif.got.tgz:46318.got - 2010.06.03 11:33:40.
