data_PCOD9096937
_publ_section_title
;
Structure prediction by ZEFSAII (Michael W. Deem and Ramdas Pophale) SiO2 
 PCOD9096937
Probable space group: P -1
;
_chemical_formula_sum "Si O2"
_cell_formula_units_Z 15
_cell_length_a 16.535150
_cell_length_b 28.326734
_cell_length_c 9.165991
_cell_angle_alpha 35.113761
_cell_angle_beta 38.582005
_cell_angle_gamma 13.345724
_cell_volume 566.747620
_symmetry_space_group_name_H-M "P -1"
_symmetry_group_IT_number 2
_symmetry_cell_setting 'triclinic'
loop_
_space_group_symop_operation_xyz
x,y,z
-x,-y,-z
loop_
_atom_site_type_symbol
_atom_site_label
_atom_site_fract_x
_atom_site_fract_y
_atom_site_fract_z
Si Si1 0.731432 0.463977 0.537243
Si Si2 0.754170 0.722472 0.864499
Si Si3 0.359663 0.813721 0.325115
Si Si4 0.168473 0.833469 0.070298
Si Si5 0.424540 0.244969 0.545467
Si Si6 0.500000 0.500000 0.500000
Si Si7 0.418444 0.013617 0.859708
Si Si8 0.687980 0.026061 0.441117
O O1 0.406531 0.694921 0.497991
O O2 0.662959 0.431433 0.607112
O O3 0.885754 0.448852 0.261564
O O4 0.016294 0.273543 0.739473
O O5 0.560824 0.903554 0.778172
O O6 0.557111 0.820713 0.741857
O O7 0.699752 0.672302 0.163031
O O8 0.376710 0.810449 0.483610
O O9 0.052721 0.032495 0.104469
O O10 0.556231 0.571109 0.172608
O O11 0.072492 0.806421 0.377883
O O12 0.000000 0.000000 0.000000
O O13 0.580523 0.155449 0.387774
O O14 0.000000 0.500000 0.500000
O O15 0.527274 0.095778 0.839686
O O16 0.621580 0.974673 0.722487
#
# Coordination Sequence:
#
# PCOD9096937 Si02
#       8
#     2   2   2   2   2   1   2   2
#     4  11  19  33  58  89 118 161 202 258 315 362
#     4   9  18  34  57  89 118 152 198 260 323 364
#     4  10  21  38  60  85 128 155 202 260 316 367
#     4  11  23  44  63  94 122 164 216 263 306 365
#     4  11  22  37  58  93 128 167 199 249 326 383
#     4  12  22  36  64  88 122 158 214 254 312 362
#     4  10  20  36  58  88 127 154 202 263 318 373
#     4  10  20  37  61  91 123 160 207 257 312 375
#
# _framework density 26.466808
#
# number of rings (size 3 to 8) (size 9 to 14) (size 15 to 20)
#    0.000    1.600    1.333    7.200    0.000    3.200 
#    2.400    0.667    0.000    1.600    0.000    0.000 
#    0.000    0.000    0.000    0.000    0.000    0.000 
#
# Total GULP energy -83655.187164 kJ/mol
# GULP energy per Si atom -5577.012478 kJ/mol
# Density = 2.640657 g / cm^3
# Si number density = 26.466808 Si / 1000 Ang^3
#
#
#
# Elastic Constant Matrix: (Units=GPa)
#
#
# Indices 1 2 3 4 5 6 
#
# 1 184.6306 40.7286 29.6407 -9.6550 27.0010 30.8390
# 2 40.7286 77.3014 28.7720 -16.7413 18.2899 10.4740
# 3 29.6407 28.7720 88.0046 -17.0513 0.2260 16.0660
# 4 -9.6550 -16.7413 -17.0513 50.6601 8.4065 -2.8197
# 5 27.0010 18.2899 0.2260 8.4065 44.4001 -1.5543
# 6 30.8390 10.4740 16.0660 -2.8197 -1.5543 44.4479
#
#
#
# Elastic Compliance Matrix: (Units=1/GPa)
#
#
# Indices 1 2 3 4 5 6 
#
# 1 0.007332 -0.001767 -0.000890 0.000941 -0.004060 -0.004431
# 2 -0.001767 0.018657 -0.004100 0.005640 -0.007714 -0.001600
# 3 -0.000890 -0.004100 0.014144 0.002802 0.001512 -0.003298
# 4 0.000941 0.005640 0.002802 0.023871 -0.007490 -0.001742
# 5 -0.004060 -0.007714 0.001512 -0.007490 0.029742 0.004653
# 6 -0.004431 -0.001600 -0.003298 -0.001742 0.004653 0.027194
#
#
# Mechanical properties :
#
#
# Convention : Reuss Voigt Hill
#
# Bulk Modulus (GPa) = 37.56695 60.91327 49.24011
# Shear Modulus (GPa) = 34.88513 44.62128 39.75320
#
# Velocity S-wave (km/s) = 3.63446 4.11047 3.87977
# Velocity P-wave (km/s) = 5.64245 6.75225 6.22214
#
# Compressibility (1/GPa) = 0.02661914
#
# Stress axis : x y z
#
# Youngs Moduli (GPa) = 136.38904 53.60013 70.69989
#
# Poissons Ratio (x) = 0.09472 0.06293
# Poissons Ratio (y) = 0.24101 0.28985
# Poissons Ratio (z) = 0.12140 0.21975
#
# Static dielectric constant tensor:
#      x y z
#    x 2.196450 0.014740 -0.146280 
#    y 0.014740 2.256710 0.050050 
#    z -0.146280 0.050050 2.201460 
# 
# From -- ./inp_files/320650.got.cif
#   From: 2010.05.17/outbox.cif.g08.bks.cpg/sg2_161_cif.got.tgz:320650.got - 2010.06.03 11:33:40.
