data_PCOD9096343
_publ_section_title
;
Structure prediction by ZEFSAII (Michael W. Deem and Ramdas Pophale) SiO2 
 PCOD9096343
Probable space group: P -1
;
_chemical_formula_sum "Si O2"
_cell_formula_units_Z 16
_cell_length_a 8.404566
_cell_length_b 15.105302
_cell_length_c 6.617896
_cell_angle_alpha 45.578263
_cell_angle_beta 77.386777
_cell_angle_gamma 78.410718
_cell_volume 584.177246
_symmetry_space_group_name_H-M "P -1"
_symmetry_group_IT_number 2
_symmetry_cell_setting 'triclinic'
loop_
_space_group_symop_operation_xyz
x,y,z
-x,-y,-z
loop_
_atom_site_type_symbol
_atom_site_label
_atom_site_fract_x
_atom_site_fract_y
_atom_site_fract_z
Si Si1 0.425793 0.300667 0.220110
Si Si2 0.460467 0.738912 0.193901
Si Si3 0.818991 0.770501 0.154210
Si Si4 0.473181 0.013159 0.745682
Si Si5 0.224614 0.681963 0.804914
Si Si6 0.832525 0.025211 0.627333
Si Si7 0.887156 0.623074 0.984129
Si Si8 0.144377 0.626704 0.388355
O O1 0.580829 0.345556 0.225410
O O2 0.407972 0.153179 0.493273
O O3 0.476469 0.318128 0.943918
O O4 0.250001 0.372339 0.157304
O O5 0.629521 0.737205 0.279980
O O6 0.295764 0.675136 0.395932
O O7 0.398911 0.882172 0.936797
O O8 0.856652 0.745411 0.942862
O O9 0.966716 0.697153 0.343799
O O10 0.838254 0.915347 0.966380
O O11 0.655998 0.000988 0.615455
O O12 0.500000 0.000000 0.000000
O O13 0.192594 0.830561 0.539824
O O14 0.191667 0.651841 0.101144
O O15 0.070111 0.619169 0.853735
O O16 0.000000 0.000000 0.500000
O O17 0.865659 0.515760 0.324893
#
# Coordination Sequence:
#
# PCOD9096343 Si02
#       8
#     2   2   2   2   2   2   2   2
#     4   9  19  32  52  80 105 142 180 223 269 326
#     4   9  19  32  52  80 105 142 180 223 269 326
#     4   9  17  28  46  76 108 140 170 223 273 318
#     4  10  21  36  56  84 113 143 178 225 282 337
#     4   9  17  28  46  76 108 140 170 223 273 318
#     4  10  16  30  54  79 103 137 179 217 270 326
#     4  10  18  27  45  76 110 140 178 226 271 310
#     4  10  18  27  45  76 110 140 178 226 271 310
#
# _framework density 27.388949
#
# number of rings (size 3 to 8) (size 9 to 14) (size 15 to 20)
#    0.000    2.500    2.500    1.875    0.000    9.500 
#    0.000    0.000    0.000   12.750    0.000    7.000 
#    0.000    0.000    0.000    0.000    0.000    0.000 
#
# Total GULP energy -89435.445891 kJ/mol
# GULP energy per Si atom -5589.715368 kJ/mol
# Density = 2.732661 g / cm^3
# Si number density = 27.388949 Si / 1000 Ang^3
#
#
#
# Elastic Constant Matrix: (Units=GPa)
#
#
# Indices 1 2 3 4 5 6 
#
# 1 264.4964 26.2866 109.0624 -11.0517 -10.0081 -5.6430
# 2 26.2866 49.7199 12.1217 5.2014 -0.4491 -4.3200
# 3 109.0624 12.1217 136.9755 -28.9093 -2.3850 -13.0219
# 4 -11.0517 5.2014 -28.9093 45.6646 -2.2174 -0.7841
# 5 -10.0081 -0.4491 -2.3850 -2.2174 69.1557 3.7245
# 6 -5.6430 -4.3200 -13.0219 -0.7841 3.7245 49.1797
#
#
#
# Elastic Compliance Matrix: (Units=1/GPa)
#
#
# Indices 1 2 3 4 5 6 
#
# 1 0.005955 -0.001855 -0.004958 -0.001468 0.000678 -0.000867
# 2 -0.001855 0.021858 -0.001097 -0.003627 -0.000355 0.001386
# 3 -0.004958 -0.001097 0.013163 0.007299 -0.000196 0.002951
# 4 -0.001468 -0.003627 0.007299 0.026646 0.000773 0.001812
# 5 0.000678 -0.000355 -0.000196 0.000773 0.014633 -0.001101
# 6 -0.000867 0.001386 0.002951 0.001812 -0.001101 0.021250
#
#
# Mechanical properties :
#
#
# Convention : Reuss Voigt Hill
#
# Bulk Modulus (GPa) = 39.75287 82.90370 61.32829
# Shear Modulus (GPa) = 39.15083 53.04807 46.09945
#
# Velocity S-wave (km/s) = 3.78489 4.40573 4.10706
# Velocity P-wave (km/s) = 5.80054 7.49769 6.70305
#
# Compressibility (1/GPa) = 0.02515542
#
# Stress axis : x y z
#
# Youngs Moduli (GPa) = 167.91425 45.75064 75.96981
#
# Poissons Ratio (x) = 0.08489 0.37667
# Poissons Ratio (y) = 0.31155 0.08333
# Poissons Ratio (z) = 0.83254 0.05018
#
# Static dielectric constant tensor:
#      x y z
#    x 2.171290 0.022160 0.001940 
#    y 0.022160 2.214810 0.088740 
#    z 0.001940 0.088740 2.102120 
# 
# From -- ./inp_files/222842.got.cif
#   From: 2010.05.17/outbox.cif.g08.bks.cpg/sg2_112_cif.got.tgz:222842.got - 2010.06.03 11:33:40.
