data_PCOD9096622
_publ_section_title
;
Structure prediction by ZEFSAII (Michael W. Deem and Ramdas Pophale) SiO2 
 PCOD9096622
Probable space group: P -1
;
_chemical_formula_sum "Si O2"
_cell_formula_units_Z 16
_cell_length_a 23.039594
_cell_length_b 8.845993
_cell_length_c 5.084883
_cell_angle_alpha 93.404738
_cell_angle_beta 117.464725
_cell_angle_gamma 69.149991
_cell_volume 852.437561
_symmetry_space_group_name_H-M "P -1"
_symmetry_group_IT_number 2
_symmetry_cell_setting 'triclinic'
loop_
_space_group_symop_operation_xyz
x,y,z
-x,-y,-z
loop_
_atom_site_type_symbol
_atom_site_label
_atom_site_fract_x
_atom_site_fract_y
_atom_site_fract_z
Si Si1 0.663011 0.818973 0.396261
Si Si2 0.581289 0.937014 0.731360
Si Si3 0.120394 0.603962 0.793971
Si Si4 0.789072 0.720743 0.334522
Si Si5 0.818818 0.122516 0.167429
Si Si6 0.120702 0.093342 0.228911
Si Si7 0.972255 0.352664 0.894563
Si Si8 0.693453 0.039521 0.837997
O O1 0.615005 0.077362 0.786279
O O2 0.733757 0.686769 0.412190
O O3 0.687451 0.972919 0.526490
O O4 0.602747 0.865082 0.056476
O O5 0.627408 0.805532 0.596016
O O6 0.500000 0.000000 0.500000
O O7 0.170888 0.424915 0.791200
O O8 0.160330 0.726411 0.843885
O O9 0.055229 0.650884 0.457585
O O10 0.090542 0.617212 0.026144
O O11 0.844462 0.774703 0.615327
O O12 0.742123 0.877125 0.081156
O O13 0.848503 0.049434 0.506425
O O14 0.855799 0.980909 0.016516
O O15 0.735580 0.157327 0.968748
O O16 0.037071 0.185875 0.076326
O O17 0.000000 0.500000 0.000000
#
# Coordination Sequence:
#
# PCOD9096622 Si02
#       8
#     2   2   2   2   2   2   2   2
#     4   9  17  30  50  80 106 143 183 209 268 315
#     4   9  16  28  50  85 118 138 175 225 261 308
#     4  12  27  38  59  83 111 136 195 237 286 333
#     4  10  20  36  57  80 102 151 184 233 266 330
#     4  11  23  40  56  85 107 148 180 237 283 336
#     4  11  22  39  62  70 112 144 182 229 297 334
#     4  12  26  41  58  84 103 144 191 240 285 348
#     4   8  19  32  56  77 110 143 185 210 274 326
#
# _framework density 18.769704999999998
#
# number of rings (size 3 to 8) (size 9 to 14) (size 15 to 20)
#    0.750    1.000    2.500    2.250    5.250    3.000 
#    0.000    0.000    0.000    0.000    0.000    4.375 
#    0.000    0.125    0.000    0.000    0.000    0.000 
#
# Total GULP energy -89178.062471 kJ/mol
# GULP energy per Si atom -5573.628904 kJ/mol
# Density = 1.872698 g / cm^3
# Si number density = 18.769705 Si / 1000 Ang^3
#
#
#
# Elastic Constant Matrix: (Units=GPa)
#
#
# Indices 1 2 3 4 5 6 
#
# 1 60.8279 9.5902 3.1692 -1.9132 9.3733 2.2779
# 2 9.5902 20.9704 -1.1699 5.2587 12.5390 4.8477
# 3 3.1692 -1.1699 74.0878 -2.5023 -0.8071 0.3694
# 4 -1.9132 5.2587 -2.5023 14.6682 -1.6449 1.3189
# 5 9.3733 12.5390 -0.8071 -1.6449 41.6884 7.2264
# 6 2.2779 4.8477 0.3694 1.3189 7.2264 25.1957
#
#
#
# Elastic Compliance Matrix: (Units=1/GPa)
#
#
# Indices 1 2 3 4 5 6 
#
# 1 0.018254 -0.009040 -0.000757 0.005341 -0.001219 0.000170
# 2 -0.009040 0.072243 0.000372 -0.028705 -0.019798 -0.005907
# 3 -0.000757 0.000372 0.013617 0.002187 0.000488 -0.000457
# 4 0.005341 -0.028705 0.002187 0.080996 0.011089 -0.002412
# 5 -0.001219 -0.019798 0.000488 0.011089 0.031660 -0.005749
# 6 0.000170 -0.005907 -0.000457 -0.002412 -0.005749 0.042592
#
#
# Mechanical properties :
#
#
# Convention : Reuss Voigt Hill
#
# Bulk Modulus (GPa) = 11.72844 19.89612 15.81228
# Shear Modulus (GPa) = 16.30608 25.93024 21.11816
#
# Velocity S-wave (km/s) = 2.95065 3.72088 3.35792
# Velocity P-wave (km/s) = 4.22736 5.39287 4.84529
#
# Compressibility (1/GPa) = 0.08526282
#
# Stress axis : x y z
#
# Youngs Moduli (GPa) = 54.78267 13.84216 73.43648
#
# Poissons Ratio (x) = 0.12514 0.05562
# Poissons Ratio (y) = 0.49524 -0.02730
# Poissons Ratio (z) = 0.04149 -0.00515
#
# Static dielectric constant tensor:
#      x y z
#    x 1.707020 0.003670 0.003820 
#    y 0.003670 1.641010 0.001780 
#    z 0.003820 0.001780 1.677380 
# 
# From -- ./inp_files/122977.got.cif
#   From: 2010.05.17/outbox.cif.g08.bks.cpg/sg2_62_cif.got.tgz:122977.got - 2010.06.03 11:33:40.
