data_PCOD9096794
_publ_section_title
;
Structure prediction by ZEFSAII (Michael W. Deem and Ramdas Pophale) SiO2 
 PCOD9096794
Probable space group: P -1
;
_chemical_formula_sum "Si O2"
_cell_formula_units_Z 15
_cell_length_a 14.342671
_cell_length_b 9.164060
_cell_length_c 13.919118
_cell_angle_alpha 95.412076
_cell_angle_beta 30.165062
_cell_angle_gamma 77.143381
_cell_volume 726.750877
_symmetry_space_group_name_H-M "P -1"
_symmetry_group_IT_number 2
_symmetry_cell_setting 'triclinic'
loop_
_space_group_symop_operation_xyz
x,y,z
-x,-y,-z
loop_
_atom_site_type_symbol
_atom_site_label
_atom_site_fract_x
_atom_site_fract_y
_atom_site_fract_z
Si Si1 0.397430 0.584767 0.230347
Si Si2 0.397068 0.061606 0.486586
Si Si3 0.911039 0.518933 0.188428
Si Si4 0.184030 0.155272 0.034060
Si Si5 0.157470 0.170716 0.282740
Si Si6 0.499971 0.252518 0.021373
Si Si7 0.500000 0.500000 0.500000
Si Si8 0.298991 0.776659 0.529836
O O1 0.512136 0.644037 0.057820
O O2 0.402531 0.645640 0.336344
O O3 0.122043 0.700039 0.454795
O O4 0.509566 0.370444 0.103391
O O5 0.189847 0.277527 0.677369
O O6 0.500000 0.000000 0.500000
O O7 0.311032 0.944775 0.521742
O O8 0.604506 0.006570 0.227037
O O9 0.701746 0.502195 0.373731
O O10 0.107659 0.347496 0.067491
O O11 0.000000 0.500000 0.000000
O O12 0.231043 0.151027 0.104131
O O13 0.967667 0.147790 0.218433
O O14 0.277555 0.961904 0.196250
O O15 0.279260 0.250228 0.230648
O O16 0.443410 0.662803 0.487547
#
# Coordination Sequence:
#
# PCOD9096794 Si02
#       8
#     2   2   2   2   2   2   1   2
#     4  10  21  40  60  88 123 153 198 244 297 353
#     4  12  22  39  61  84 117 159 203 242 291 344
#     4  11  22  38  58  83 115 155 197 242 291 346
#     4  10  23  39  58  87 121 153 198 245 293 354
#     4  10  21  39  61  91 120 152 197 246 296 357
#     4  10  21  38  65  88 118 158 194 245 304 353
#     4  10  20  36  58  82 114 154 190 236 288 340
#     4  10  22  39  59  88 120 158 199 244 288 353
#
# _framework density 20.639810000000001
#
# number of rings (size 3 to 8) (size 9 to 14) (size 15 to 20)
#    0.000    1.600    2.667    1.600    0.000    4.800 
#    0.000   10.667    0.000    0.000    0.000    0.000 
#    0.000    0.000    0.000    0.000    0.000    0.000 
#
# Total GULP energy -83560.849763 kJ/mol
# GULP energy per Si atom -5570.723318 kJ/mol
# Density = 2.059283 g / cm^3
# Si number density = 20.639810 Si / 1000 Ang^3
#
#
#
# Elastic Constant Matrix: (Units=GPa)
#
#
# Indices 1 2 3 4 5 6 
#
# 1 32.7470 17.6504 5.0264 3.3189 4.4461 9.4367
# 2 17.6504 81.8295 18.4178 5.6704 9.8386 20.1557
# 3 5.0264 18.4178 57.7754 5.3640 20.2414 14.8766
# 4 3.3189 5.6704 5.3640 26.8877 -1.4506 -0.3904
# 5 4.4461 9.8386 20.2414 -1.4506 25.5588 1.2110
# 6 9.4367 20.1557 14.8766 -0.3904 1.2110 31.0488
#
#
#
# Elastic Compliance Matrix: (Units=1/GPa)
#
#
# Indices 1 2 3 4 5 6 
#
# 1 0.037002 -0.005330 0.003909 -0.004754 -0.007304 -0.009434
# 2 -0.005330 0.016396 -0.000649 -0.003045 -0.004637 -0.008570
# 3 0.003909 -0.000649 0.029963 -0.007822 -0.023926 -0.014288
# 4 -0.004754 -0.003045 -0.007822 0.040635 0.010155 0.007284
# 5 -0.007304 -0.004637 -0.023926 0.010155 0.061022 0.014442
# 6 -0.009434 -0.008570 -0.014288 0.007284 0.014442 0.047012
#
#
# Mechanical properties :
#
#
# Convention : Reuss Voigt Hill
#
# Bulk Modulus (GPa) = 12.62277 28.28234 20.45255
# Shear Modulus (GPa) = 19.04216 25.44956 22.24586
#
# Velocity S-wave (km/s) = 3.04072 3.51527 3.28657
# Velocity P-wave (km/s) = 4.29616 5.49624 4.93283
#
# Compressibility (1/GPa) = 0.07922195
#
# Stress axis : x y z
#
# Youngs Moduli (GPa) = 27.02559 60.99188 33.37444
#
# Poissons Ratio (x) = 0.32507 -0.13048
# Poissons Ratio (y) = 0.14404 0.02166
# Poissons Ratio (z) = -0.10566 0.03959
#
# Static dielectric constant tensor:
#      x y z
#    x 1.800980 -0.000680 -0.022310 
#    y -0.000680 1.740290 -0.001160 
#    z -0.022310 -0.001160 1.737200 
# 
# From -- ./inp_files/313089.got.cif
#   From: 2010.05.17/outbox.cif.g08.bks.cpg/sg2_157_cif.got.tgz:313089.got - 2010.06.03 11:33:40.
