data_PCOD9096482
_publ_section_title
;
Structure prediction by ZEFSAII (Michael W. Deem and Ramdas Pophale) SiO2 
 PCOD9096482
Probable space group: P -1
;
_chemical_formula_sum "Si O2"
_cell_formula_units_Z 16
_cell_length_a 9.249380
_cell_length_b 11.530532
_cell_length_c 17.927796
_cell_angle_alpha 30.312806
_cell_angle_beta 51.011175
_cell_angle_gamma 52.304652
_cell_volume 738.626558
_symmetry_space_group_name_H-M "P -1"
_symmetry_group_IT_number 2
_symmetry_cell_setting 'triclinic'
loop_
_space_group_symop_operation_xyz
x,y,z
-x,-y,-z
loop_
_atom_site_type_symbol
_atom_site_label
_atom_site_fract_x
_atom_site_fract_y
_atom_site_fract_z
Si Si1 0.652836 0.982256 0.395116
Si Si2 0.346024 0.356274 0.099089
Si Si3 0.665212 0.624218 0.291382
Si Si4 0.340914 0.517445 0.354761
Si Si5 0.602639 0.495563 0.149246
Si Si6 0.077757 0.357311 0.934299
Si Si7 0.638815 0.138944 0.636441
Si Si8 0.923263 0.087385 0.710905
O O1 0.633098 0.754591 0.479760
O O2 0.869239 0.917418 0.386218
O O3 0.500000 0.000000 0.500000
O O4 0.633843 0.251741 0.229437
O O5 0.131104 0.494381 0.090445
O O6 0.355230 0.103613 0.273795
O O7 0.500000 0.500000 0.000000
O O8 0.403896 0.309962 0.019097
O O9 0.491378 0.638265 0.282956
O O10 0.830887 0.695477 0.148219
O O11 0.705660 0.352883 0.452890
O O12 0.571147 0.767572 0.313565
O O13 0.411769 0.521478 0.244599
O O14 0.145664 0.676604 0.350692
O O15 0.780309 0.503462 0.142509
O O16 0.074158 0.128066 0.113046
O O17 0.785471 0.083127 0.688377
#
# Coordination Sequence:
#
# PCOD9096482 Si02
#       8
#     2   2   2   2   2   2   2   2
#     4  10  20  36  55  86 124 154 192 250 300 351
#     4  12  25  39  60  90 127 161 198 253 311 364
#     4   9  22  41  62  89 121 159 200 255 301 359
#     4   9  21  35  64  91 116 157 204 254 299 355
#     4  10  20  39  62  87 121 160 201 249 300 355
#     4  11  22  41  65  92 119 156 213 251 296 360
#     4  10  22  41  63  87 123 162 202 246 309 365
#     4  11  20  37  66  91 117 159 211 253 294 356
#
# _framework density 21.661823999999999
#
# number of rings (size 3 to 8) (size 9 to 14) (size 15 to 20)
#    0.000    1.750    2.500    1.500    3.500    2.000 
#    4.500    0.625    0.000    0.000    0.000    0.000 
#    0.000    0.000    0.000    0.000    0.000    0.000 
#
# Total GULP energy -89187.560399 kJ/mol
# GULP energy per Si atom -5574.222525 kJ/mol
# Density = 2.161252 g / cm^3
# Si number density = 21.661824 Si / 1000 Ang^3
#
#
#
# Elastic Constant Matrix: (Units=GPa)
#
#
# Indices 1 2 3 4 5 6 
#
# 1 56.2806 32.1030 16.1480 10.8591 -7.9464 -15.1871
# 2 32.1030 98.0673 35.5950 0.1130 -9.7745 -16.8625
# 3 16.1480 35.5950 72.9251 12.6950 -0.0770 -27.2133
# 4 10.8591 0.1130 12.6950 34.6176 2.0259 0.8179
# 5 -7.9464 -9.7745 -0.0770 2.0259 29.4998 -1.7317
# 6 -15.1871 -16.8625 -27.2133 0.8179 -1.7317 21.6408
#
#
#
# Elastic Compliance Matrix: (Units=1/GPa)
#
#
# Indices 1 2 3 4 5 6 
#
# 1 0.032018 -0.008303 0.011545 -0.015519 0.008837 0.031811
# 2 -0.008303 0.015384 -0.008182 0.005524 0.002216 -0.004160
# 3 0.011545 -0.008182 0.036561 -0.018425 0.004622 0.048768
# 4 -0.015519 0.005524 -0.018425 0.041665 -0.007132 -0.031902
# 5 0.008837 0.002216 0.004622 -0.007132 0.038518 0.017092
# 6 0.031811 -0.004160 0.048768 -0.031902 0.017092 0.129191
#
#
# Mechanical properties :
#
#
# Convention : Reuss Voigt Hill
#
# Bulk Modulus (GPa) = 13.49854 43.88501 28.69177
# Shear Modulus (GPa) = 15.24794 26.71344 20.98069
#
# Velocity S-wave (km/s) = 2.65601 3.51551 3.11554
# Velocity P-wave (km/s) = 3.95611 6.06478 5.12017
#
# Compressibility (1/GPa) = 0.07408211
#
# Stress axis : x y z
#
# Youngs Moduli (GPa) = 31.23249 65.00190 27.35142
#
# Poissons Ratio (x) = 0.53972 -0.31576
# Poissons Ratio (y) = 0.25933 0.22379
# Poissons Ratio (z) = -0.36057 0.53185
#
# Static dielectric constant tensor:
#      x y z
#    x 1.801380 0.032120 -0.007890 
#    y 0.032120 1.834690 -0.023530 
#    z -0.007890 -0.023530 1.835540 
# 
# From -- ./inp_files/314514.got.cif
#   From: 2010.05.17/outbox.cif.g08.bks.cpg/sg2_158_cif.got.tgz:314514.got - 2010.06.03 11:33:40.
