data_PCOD9096111
_publ_section_title
;
Structure prediction by ZEFSAII (Michael W. Deem and Ramdas Pophale) SiO2 
 PCOD9096111
Probable space group: P -1
;
_chemical_formula_sum "Si O2"
_cell_formula_units_Z 16
_cell_length_a 9.239122
_cell_length_b 18.485930
_cell_length_c 11.257104
_cell_angle_alpha 121.831425
_cell_angle_beta 123.501532
_cell_angle_gamma 105.490691
_cell_volume 838.790823
_symmetry_space_group_name_H-M "P -1"
_symmetry_group_IT_number 2
_symmetry_cell_setting 'triclinic'
loop_
_space_group_symop_operation_xyz
x,y,z
-x,-y,-z
loop_
_atom_site_type_symbol
_atom_site_label
_atom_site_fract_x
_atom_site_fract_y
_atom_site_fract_z
Si Si1 0.589093 0.409763 0.199699
Si Si2 0.360017 0.479726 0.040655
Si Si3 0.291496 0.737572 0.453048
Si Si4 0.308652 0.149184 0.738627
Si Si5 0.406587 0.855866 0.961146
Si Si6 0.595355 0.761470 0.411702
Si Si7 0.781691 0.033143 0.064724
Si Si8 0.147825 0.591864 0.484066
O O1 0.482668 0.463408 0.181265
O O2 0.730258 0.440074 0.414959
O O3 0.817431 0.471375 0.255209
O O4 0.349075 0.249019 0.923748
O O5 0.462539 0.615592 0.224287
O O6 0.500000 0.500000 0.000000
O O7 0.020081 0.341530 0.758966
O O8 0.389762 0.743687 0.375429
O O9 0.245066 0.638543 0.434057
O O10 0.541844 0.891749 0.756782
O O11 0.357377 0.189479 0.658803
O O12 0.510149 0.152468 0.883174
O O13 0.000000 0.000000 0.500000
O O14 0.257877 0.721016 0.708266
O O15 0.674218 0.984257 0.110747
O O16 0.223283 0.870082 0.891982
O O17 0.900882 0.878361 0.716470
#
# Coordination Sequence:
#
# PCOD9096111 Si02
#       8
#     2   2   2   2   2   2   2   2
#     4  10  20  35  62  90 114 150 203 254 288 342
#     4  12  23  39  65  94 117 156 210 252 291 356
#     4  11  24  40  59  90 130 160 193 245 313 365
#     4  11  21  35  58  89 119 152 200 247 300 347
#     4   9  19  33  60  88 113 148 201 259 281 337
#     4  12  24  41  61  89 126 164 195 247 311 359
#     4  10  21  37  61  86 121 158 205 241 294 358
#     4   9  18  37  58  90 119 149 195 251 301 348
#
# _framework density 19.075078000000001
#
# number of rings (size 3 to 8) (size 9 to 14) (size 15 to 20)
#    0.000    1.500    3.750    1.500    5.250    0.000 
#    0.000    2.500    0.000    0.000    0.000    0.000 
#    0.000    0.000    0.000    0.000    0.000    0.000 
#
# Total GULP energy -89269.254468 kJ/mol
# GULP energy per Si atom -5579.328404 kJ/mol
# Density = 1.903166 g / cm^3
# Si number density = 19.075078 Si / 1000 Ang^3
#
#
#
# Elastic Constant Matrix: (Units=GPa)
#
#
# Indices 1 2 3 4 5 6 
#
# 1 61.6836 18.3703 22.3034 -10.8357 11.4086 -1.6404
# 2 18.3703 115.6795 28.7373 -18.9819 1.7184 -17.9316
# 3 22.3034 28.7373 95.5631 0.5238 14.8527 -5.3815
# 4 -10.8357 -18.9819 0.5238 26.4049 0.3391 4.4003
# 5 11.4086 1.7184 14.8527 0.3391 20.7742 -1.3438
# 6 -1.6404 -17.9316 -5.3815 4.4003 -1.3438 20.5849
#
#
#
# Elastic Compliance Matrix: (Units=1/GPa)
#
#
# Indices 1 2 3 4 5 6 
#
# 1 0.020899 -0.001489 -0.003172 0.008159 -0.009402 -0.002819
# 2 -0.001489 0.012023 -0.003239 0.006689 0.002563 0.008246
# 3 -0.003172 -0.003239 0.013403 -0.003931 -0.007458 0.000783
# 4 0.008159 0.006689 -0.003931 0.046949 -0.003301 -0.004802
# 5 -0.009402 0.002563 -0.007458 -0.003301 0.058738 0.004074
# 6 -0.002819 0.008246 0.000783 -0.004802 0.004074 0.057035
#
#
# Mechanical properties :
#
#
# Convention : Reuss Voigt Hill
#
# Bulk Modulus (GPa) = 32.75897 45.74981 39.25439
# Shear Modulus (GPa) = 21.27447 27.12048 24.19747
#
# Velocity S-wave (km/s) = 3.34324 3.77473 3.56552
# Velocity P-wave (km/s) = 5.66692 6.56005 6.12977
#
# Compressibility (1/GPa) = 0.03052599
#
# Stress axis : x y z
#
# Youngs Moduli (GPa) = 47.84812 83.17104 74.60815
#
# Poissons Ratio (x) = 0.12387 0.23666
# Poissons Ratio (y) = 0.07126 0.24163
# Poissons Ratio (z) = 0.15178 0.26937
#
# Static dielectric constant tensor:
#      x y z
#    x 1.627000 0.004870 0.012580 
#    y 0.004870 1.700460 -0.008710 
#    z 0.012580 -0.008710 1.746080 
# 
# From -- ./inp_files/284861.got.cif
#   From: 2010.05.17/outbox.cif.g08.bks.cpg/sg2_143_cif.got.tgz:284861.got - 2010.06.03 11:33:40.
