data_PCOD9096258
_publ_section_title
;
Structure prediction by ZEFSAII (Michael W. Deem and Ramdas Pophale) SiO2 
 PCOD9096258
Probable space group: P -1
;
_chemical_formula_sum "Si O2"
_cell_formula_units_Z 14
_cell_length_a 16.839716
_cell_length_b 14.011893
_cell_length_c 9.968361
_cell_angle_alpha 42.371760
_cell_angle_beta 52.315217
_cell_angle_gamma 25.170157
_cell_volume 660.565659
_symmetry_space_group_name_H-M "P -1"
_symmetry_group_IT_number 2
_symmetry_cell_setting 'triclinic'
loop_
_space_group_symop_operation_xyz
x,y,z
-x,-y,-z
loop_
_atom_site_type_symbol
_atom_site_label
_atom_site_fract_x
_atom_site_fract_y
_atom_site_fract_z
Si Si1 0.362172 0.513490 0.713164
Si Si2 0.052685 0.664599 0.883730
Si Si3 0.101131 0.072524 0.519540
Si Si4 0.172640 0.731718 0.188322
Si Si5 0.719998 0.698936 0.562631
Si Si6 0.957267 0.576091 0.670529
Si Si7 0.296492 0.755449 0.255119
O O1 0.347264 0.581435 0.501991
O O2 0.570964 0.272147 0.809847
O O3 0.260333 0.486120 0.862811
O O4 0.251811 0.770848 0.640893
O O5 0.977343 0.774101 0.698053
O O6 0.916862 0.930743 0.834404
O O7 0.033522 0.530512 0.096644
O O8 0.929975 0.207909 0.636815
O O9 0.159045 0.139425 0.477518
O O10 0.264198 0.489796 0.269069
O O11 0.314884 0.673925 0.170178
O O12 0.000000 0.000000 0.000000
O O13 0.834964 0.627994 0.389758
O O14 0.846388 0.610322 0.644635
O O15 0.500000 0.000000 0.500000
#
# Coordination Sequence:
#
# PCOD9096258 Si02
#       7
#     2   2   2   2   2   2   2
#     4  10  20  35  64  89 120 159 198 254 317 358
#     4  11  19  39  62  93 124 157 199 256 319 367
#     4  10  20  39  62  88 125 162 196 258 316 364
#     4  11  21  39  65  93 122 165 215 260 303 372
#     4  10  24  43  62  86 127 171 206 256 311 364
#     4  10  23  40  62  88 124 161 213 247 305 383
#     4  10  20  36  60  91 122 155 204 256 304 366
#
# _framework density 21.193957000000001
#
# number of rings (size 3 to 8) (size 9 to 14) (size 15 to 20)
#    0.000    1.714    2.857    2.143    2.000    1.143 
#    0.000    0.714    0.000    6.000    0.000    0.000 
#    0.000    0.000    0.000    0.000    0.000    0.000 
#
# Total GULP energy -78111.733499 kJ/mol
# GULP energy per Si atom -5579.409536 kJ/mol
# Density = 2.114572 g / cm^3
# Si number density = 21.193957 Si / 1000 Ang^3
#
#
#
# Elastic Constant Matrix: (Units=GPa)
#
#
# Indices 1 2 3 4 5 6 
#
# 1 100.1725 20.3709 -4.0146 -8.4719 2.8472 5.5792
# 2 20.3709 69.2216 11.7867 -6.9476 0.0010 0.1271
# 3 -4.0146 11.7867 45.5030 -1.0967 -3.7837 -1.7652
# 4 -8.4719 -6.9476 -1.0967 19.4825 0.1073 -4.3099
# 5 2.8472 0.0010 -3.7837 0.1073 21.5476 0.8794
# 6 5.5792 0.1271 -1.7652 -4.3099 0.8794 39.7323
#
#
#
# Elastic Compliance Matrix: (Units=1/GPa)
#
#
# Indices 1 2 3 4 5 6 
#
# 1 0.011097 -0.003207 0.001760 0.003553 -0.001132 -0.001059
# 2 -0.003207 0.016596 -0.004483 0.004426 -0.000414 0.000687
# 3 0.001760 -0.004483 0.023663 0.000655 0.003887 0.000804
# 4 0.003553 0.004426 0.000655 0.055727 -0.000860 0.005580
# 5 -0.001132 -0.000414 0.003887 -0.000860 0.047278 -0.000807
# 6 -0.001059 0.000687 0.000804 0.005580 -0.000807 0.025974
#
#
# Mechanical properties :
#
#
# Convention : Reuss Voigt Hill
#
# Bulk Modulus (GPa) = 25.31819 30.13147 27.72483
# Shear Modulus (GPa) = 24.34732 28.60275 26.47504
#
# Velocity S-wave (km/s) = 3.39305 3.67764 3.53821
# Velocity P-wave (km/s) = 5.22707 5.68166 5.45910
#
# Compressibility (1/GPa) = 0.03949730
#
# Stress axis : x y z
#
# Youngs Moduli (GPa) = 90.11351 60.25399 42.25955
#
# Poissons Ratio (x) = 0.19323 -0.07438
# Poissons Ratio (y) = 0.28898 0.18945
# Poissons Ratio (z) = -0.15862 0.27012
#
# Static dielectric constant tensor:
#      x y z
#    x 1.893950 0.015850 -0.000120 
#    y 0.015850 1.785870 0.041840 
#    z -0.000120 0.041840 1.769040 
# 
# From -- ./inp_files/227669.got.cif
#   From: 2010.05.17/outbox.cif.g08.bks.cpg/sg2_114_cif.got.tgz:227669.got - 2010.06.03 11:33:40.
