data_PCOD9096754
_publ_section_title
;
Structure prediction by ZEFSAII (Michael W. Deem and Ramdas Pophale) SiO2 
 PCOD9096754
Probable space group: P -1
;
_chemical_formula_sum "Si O2"
_cell_formula_units_Z 14
_cell_length_a 12.585314
_cell_length_b 5.426268
_cell_length_c 11.944419
_cell_angle_alpha 83.404721
_cell_angle_beta 128.024353
_cell_angle_gamma 106.660854
_cell_volume 613.526355
_symmetry_space_group_name_H-M "P -1"
_symmetry_group_IT_number 2
_symmetry_cell_setting 'triclinic'
loop_
_space_group_symop_operation_xyz
x,y,z
-x,-y,-z
loop_
_atom_site_type_symbol
_atom_site_label
_atom_site_fract_x
_atom_site_fract_y
_atom_site_fract_z
Si Si1 0.618755 0.384962 0.531883
Si Si2 0.126843 0.257686 0.076392
Si Si3 0.081848 0.304381 0.291016
Si Si4 0.082494 0.303836 0.793141
Si Si5 0.383153 0.021854 0.264292
Si Si6 0.635011 0.551670 0.168919
Si Si7 0.535138 0.987075 0.155325
O O1 0.500000 0.500000 0.500000
O O2 0.755818 0.602681 0.571890
O O3 0.536020 0.187607 0.395505
O O4 0.659904 0.213262 0.665536
O O5 0.089517 0.382209 0.159159
O O6 0.271692 0.184448 0.192791
O O7 0.135064 0.368887 0.951844
O O8 0.000000 0.000000 0.000000
O O9 0.999689 0.480434 0.293543
O O10 0.012640 0.994475 0.265767
O O11 0.220504 0.333727 0.807405
O O12 0.401712 0.942327 0.152829
O O13 0.632769 0.272293 0.227225
O O14 0.605659 0.755853 0.226612
O O15 0.500000 0.500000 0.000000
O O16 0.500000 0.000000 0.000000
#
# Coordination Sequence:
#
# PCOD9096754 Si02
#       7
#     2   2   2   2   2   2   2
#     4  11  24  42  67  93 132 176 230 263 317 393
#     4  10  20  36  57  94 132 165 204 259 337 403
#     4  11  23  40  61  92 130 175 218 264 328 390
#     4  11  23  39  64  93 136 171 207 273 336 391
#     4  11  24  41  65  98 133 173 218 276 322 386
#     4  10  21  38  61  92 126 166 211 256 321 392
#     4  10  22  39  63  96 130 163 216 269 326 378
#
# _framework density 22.818904
#
# number of rings (size 3 to 8) (size 9 to 14) (size 15 to 20)
#    0.000    1.429    1.429    4.714    4.000    6.857 
#    0.000    0.000    0.000    5.143    0.000    0.000 
#    0.000    0.000    0.000    0.000    0.000    0.000 
#
# Total GULP energy -78189.264442 kJ/mol
# GULP energy per Si atom -5584.947460 kJ/mol
# Density = 2.276697 g / cm^3
# Si number density = 22.818904 Si / 1000 Ang^3
#
#
#
# Elastic Constant Matrix: (Units=GPa)
#
#
# Indices 1 2 3 4 5 6 
#
# 1 120.3106 40.9019 18.5788 7.7320 17.7282 -5.4866
# 2 40.9019 145.1640 27.1841 22.5855 18.4554 -12.7060
# 3 18.5788 27.1841 49.8254 9.5140 13.8792 15.8025
# 4 7.7320 22.5855 9.5140 26.7494 4.4841 15.0290
# 5 17.7282 18.4554 13.8792 4.4841 37.5043 0.4569
# 6 -5.4866 -12.7060 15.8025 15.0290 0.4569 38.8639
#
#
#
# Elastic Compliance Matrix: (Units=1/GPa)
#
#
# Indices 1 2 3 4 5 6 
#
# 1 0.009852 -0.001407 -0.002651 -0.001781 -0.002804 0.002730
# 2 -0.001407 0.011811 -0.006692 -0.013516 -0.001196 0.011625
# 3 -0.002651 -0.006692 0.031173 0.006524 -0.007555 -0.017671
# 4 -0.001781 -0.013516 0.006524 0.065782 -0.002388 -0.032734
# 5 -0.002804 -0.001196 -0.007555 -0.002388 0.031624 0.002837
# 6 0.002730 0.011625 -0.017671 -0.032734 0.002837 0.049727
#
#
# Mechanical properties :
#
#
# Convention : Reuss Voigt Hill
#
# Bulk Modulus (GPa) = 31.91214 54.29217 43.10215
# Shear Modulus (GPa) = 21.55977 35.86588 28.71283
#
# Velocity S-wave (km/s) = 3.07713 3.96885 3.55109
# Velocity P-wave (km/s) = 5.16142 6.69676 5.97858
#
# Compressibility (1/GPa) = 0.03133604
#
# Stress axis : x y z
#
# Youngs Moduli (GPa) = 101.50663 84.66785 32.07918
#
# Poissons Ratio (x) = 0.11912 0.08503
# Poissons Ratio (y) = 0.14281 0.21468
# Poissons Ratio (z) = 0.26906 0.56660
#
# Static dielectric constant tensor:
#      x y z
#    x 1.824140 -0.019000 -0.067210 
#    y -0.019000 1.901700 0.016950 
#    z -0.067210 0.016950 1.893030 
# 
# From -- ./inp_files/111075.got.cif
#   From: 2010.05.17/outbox.cif.g08.bks.cpg/sg2_56_cif.got.tgz:111075.got - 2010.06.03 11:33:40.
