data_PCOD9096753
_publ_section_title
;
Structure prediction by ZEFSAII (Michael W. Deem and Ramdas Pophale) SiO2 
 PCOD9096753
Probable space group: P -1
;
_chemical_formula_sum "Si O2"
_cell_formula_units_Z 12
_cell_length_a 5.236412
_cell_length_b 22.725014
_cell_length_c 13.185671
_cell_angle_alpha 19.466691
_cell_angle_beta 78.615761
_cell_angle_gamma 72.949333
_cell_volume 484.281461
_symmetry_space_group_name_H-M "P -1"
_symmetry_group_IT_number 2
_symmetry_cell_setting 'triclinic'
loop_
_space_group_symop_operation_xyz
x,y,z
-x,-y,-z
loop_
_atom_site_type_symbol
_atom_site_label
_atom_site_fract_x
_atom_site_fract_y
_atom_site_fract_z
Si Si1 0.603767 0.005486 0.150085
Si Si2 0.280103 0.506044 0.918338
Si Si3 0.846347 0.601559 0.099524
Si Si4 0.398794 0.290572 0.524893
Si Si5 0.747842 0.797939 0.983253
Si Si6 0.761409 0.297005 0.751795
O O1 0.681694 0.819297 0.382663
O O2 0.426494 0.166304 0.824716
O O3 0.415800 0.011280 0.254583
O O4 0.838531 0.088467 0.034381
O O5 0.310956 0.366488 0.046642
O O6 0.309757 0.685971 0.564055
O O7 0.500000 0.500000 0.000000
O O8 0.000000 0.500000 0.000000
O O9 0.788053 0.777698 0.892832
O O10 0.770562 0.444748 0.426625
O O11 0.170212 0.492910 0.229469
O O12 0.544562 0.681613 0.219837
O O13 0.037358 0.713286 0.153990
#
# Coordination Sequence:
#
# PCOD9096753 Si02
#       6
#     2   2   2   2   2   2
#     4   9  22  37  62  98 136 157 194 244 330 388
#     4  12  26  44  62  90 122 166 220 265 298 347
#     4  12  22  37  66  89 127 164 212 257 300 367
#     4  11  22  40  64  96 126 168 202 255 312 374
#     4  10  22  35  59  91 136 161 196 240 318 385
#     4  10  20  36  57  94 129 164 187 241 317 384
#
# _framework density 24.778981000000002
#
# number of rings (size 3 to 8) (size 9 to 14) (size 15 to 20)
#    1.000    0.333    5.000    1.000    2.333    2.000 
#    0.000    0.000    0.000    2.000    0.000    0.000 
#    0.000    0.000    0.000    0.000    0.000    0.000 
#
# Total GULP energy -66916.470522 kJ/mol
# GULP energy per Si atom -5576.372544 kJ/mol
# Density = 2.472258 g / cm^3
# Si number density = 24.778981 Si / 1000 Ang^3
#
#
#
# Elastic Constant Matrix: (Units=GPa)
#
#
# Indices 1 2 3 4 5 6 
#
# 1 160.6695 62.8877 26.2897 10.9971 -12.5132 21.0447
# 2 62.8877 218.9551 26.6809 23.0745 -0.0785 32.3186
# 3 26.2897 26.6809 47.9081 6.4597 6.3526 -3.8714
# 4 10.9971 23.0745 6.4597 16.9988 6.5876 4.7023
# 5 -12.5132 -0.0785 6.3526 6.5876 30.0920 10.8061
# 6 21.0447 32.3186 -3.8714 4.7023 10.8061 45.3133
#
#
#
# Elastic Compliance Matrix: (Units=1/GPa)
#
#
# Indices 1 2 3 4 5 6 
#
# 1 0.009028 -0.000619 -0.005521 -0.004405 0.007912 -0.005653
# 2 -0.000619 0.006657 -0.003255 -0.007543 0.003849 -0.004874
# 3 -0.005521 -0.003255 0.028229 -0.001022 -0.011701 0.010194
# 4 -0.004405 -0.007543 -0.001022 0.079100 -0.020385 0.003991
# 5 0.007912 0.003849 -0.011701 -0.020385 0.049618 -0.017137
# 6 -0.005653 -0.004874 0.010194 0.003991 -0.017137 0.032714
#
#
# Mechanical properties :
#
#
# Convention : Reuss Voigt Hill
#
# Bulk Modulus (GPa) = 39.80345 73.24991 56.52668
# Shear Modulus (GPa) = 21.50435 39.25912 30.38174
#
# Velocity S-wave (km/s) = 2.94912 3.98474 3.50538
# Velocity P-wave (km/s) = 5.26257 7.12715 6.26462
#
# Compressibility (1/GPa) = 0.02512345
#
# Stress axis : x y z
#
# Youngs Moduli (GPa) = 110.77015 150.21395 35.42433
#
# Poissons Ratio (x) = 0.09293 0.19559
# Poissons Ratio (y) = 0.06853 0.11531
# Poissons Ratio (z) = 0.61161 0.48898
#
# Static dielectric constant tensor:
#      x y z
#    x 1.990640 -0.025090 0.014790 
#    y -0.025090 2.132290 -0.060100 
#    z 0.014790 -0.060100 1.974140 
# 
# From -- ./inp_files/369929.got.cif
#   From: 2010.05.17/outbox.cif.g08.bks.cpg/sg2_185_cif.got.tgz:369929.got - 2010.06.03 11:33:40.
