data_PCOD9096889
_publ_section_title
;
Structure prediction by ZEFSAII (Michael W. Deem and Ramdas Pophale) SiO2 
 PCOD9096889
Probable space group: P -1
;
_chemical_formula_sum "Si O2"
_cell_formula_units_Z 16
_cell_length_a 8.166927
_cell_length_b 7.973996
_cell_length_c 21.990187
_cell_angle_alpha 117.030670
_cell_angle_beta 39.913796
_cell_angle_gamma 126.213514
_cell_volume 741.356295
_symmetry_space_group_name_H-M "P -1"
_symmetry_group_IT_number 2
_symmetry_cell_setting 'triclinic'
loop_
_space_group_symop_operation_xyz
x,y,z
-x,-y,-z
loop_
_atom_site_type_symbol
_atom_site_label
_atom_site_fract_x
_atom_site_fract_y
_atom_site_fract_z
Si Si1 0.081430 0.740240 0.711011
Si Si2 0.656063 0.507883 0.640501
Si Si3 0.722337 0.237540 0.471508
Si Si4 0.235735 0.953886 0.889895
Si Si5 0.399862 0.188120 0.762441
Si Si6 0.544676 0.809883 0.881129
Si Si7 0.135473 0.745606 0.083739
Si Si8 0.080283 0.549209 0.799603
O O1 0.238830 0.713503 0.602828
O O2 0.038259 0.563264 0.743068
O O3 0.772560 0.728972 0.782498
O O4 0.263977 0.969854 0.726678
O O5 0.631712 0.378864 0.564307
O O6 0.631392 0.351266 0.678150
O O7 0.392634 0.565739 0.725406
O O8 0.956862 0.704910 0.588618
O O9 0.500000 0.000000 0.500000
O O10 0.413591 0.888039 0.876491
O O11 0.060911 0.749728 0.866416
O O12 0.428291 0.121587 0.812509
O O13 0.000000 0.000000 0.000000
O O14 0.178414 0.291109 0.849958
O O15 0.720809 0.008673 0.905777
O O16 0.292536 0.674987 0.976154
O O17 0.128851 0.643515 0.133907
#
# Coordination Sequence:
#
# PCOD9096889 Si02
#       8
#     2   2   2   2   2   2   2   2
#     4  10  21  38  62  88 125 168 206 264 317 369
#     4  10  22  42  68  95 126 165 210 261 322 383
#     4  11  22  41  71  95 122 163 210 264 330 380
#     4  11  21  37  59  89 127 169 209 254 309 370
#     4   9  18  38  60  86 128 166 204 253 315 373
#     4  10  20  36  58  86 121 167 210 248 311 366
#     4   9  19  36  57  82 121 166 203 250 299 370
#     4  10  23  40  59  92 127 162 210 257 311 378
#
# _framework density 21.582066999999999
#
# number of rings (size 3 to 8) (size 9 to 14) (size 15 to 20)
#    0.000    2.000    2.500    0.750    1.750    2.500 
#    2.250    0.625    5.500    0.000    0.000    0.000 
#    0.000    0.000    0.000    0.000    0.000    0.000 
#
# Total GULP energy -89256.796318 kJ/mol
# GULP energy per Si atom -5578.549770 kJ/mol
# Density = 2.153295 g / cm^3
# Si number density = 21.582067 Si / 1000 Ang^3
#
#
#
# Elastic Constant Matrix: (Units=GPa)
#
#
# Indices 1 2 3 4 5 6 
#
# 1 85.1332 14.9493 32.3752 -17.3519 17.8169 -18.7297
# 2 14.9493 71.1380 45.3535 -9.3468 1.1119 8.1956
# 3 32.3752 45.3535 138.5938 -4.2735 29.0303 -7.3189
# 4 -17.3519 -9.3468 -4.2735 32.2787 1.5322 7.6318
# 5 17.8169 1.1119 29.0303 1.5322 24.4304 -5.1631
# 6 -18.7297 8.1956 -7.3189 7.6318 -5.1631 33.4984
#
#
#
# Elastic Compliance Matrix: (Units=1/GPa)
#
#
# Indices 1 2 3 4 5 6 
#
# 1 0.017986 -0.003503 0.000068 0.007485 -0.011948 0.007381
# 2 -0.003503 0.021831 -0.008670 0.004916 0.009691 -0.008821
# 3 0.000068 -0.008670 0.013258 -0.000716 -0.014742 0.002947
# 4 0.007485 0.004916 -0.000716 0.038474 -0.008787 -0.007294
# 5 -0.011948 0.009691 -0.014742 -0.008787 0.067295 0.000102
# 6 0.007381 -0.008821 0.002947 -0.007294 0.000102 0.038458
#
#
# Mechanical properties :
#
#
# Convention : Reuss Voigt Hill
#
# Bulk Modulus (GPa) = 34.64400 53.35787 44.00094
# Shear Modulus (GPa) = 21.63244 31.52063 26.57654
#
# Velocity S-wave (km/s) = 3.16940 3.82580 3.51296
# Velocity P-wave (km/s) = 5.42960 6.65526 6.07343
#
# Compressibility (1/GPa) = 0.02886503
#
# Stress axis : x y z
#
# Youngs Moduli (GPa) = 55.60031 45.80546 75.42634
#
# Poissons Ratio (x) = 0.16047 -0.00515
# Poissons Ratio (y) = 0.19478 0.65394
# Poissons Ratio (z) = -0.00380 0.39713
#
# Static dielectric constant tensor:
#      x y z
#    x 1.808060 0.033040 0.022680 
#    y 0.033040 1.822830 -0.034550 
#    z 0.022680 -0.034550 1.809600 
# 
# From -- ./inp_files/588024.got.cif
#   From: 2010.05.17/outbox.cif.g08.bks.cpg/sg2_295_cif.got.tgz:588024.got - 2010.06.03 11:33:40.
