data_PCOD9096872
_publ_section_title
;
Structure prediction by ZEFSAII (Michael W. Deem and Ramdas Pophale) SiO2 
 PCOD9096872
Probable space group: P -1
;
_chemical_formula_sum "Si O2"
_cell_formula_units_Z 14
_cell_length_a 5.160142
_cell_length_b 17.140092
_cell_length_c 16.285743
_cell_angle_alpha 27.189348
_cell_angle_beta 123.766715
_cell_angle_gamma 118.166935
_cell_volume 546.188865
_symmetry_space_group_name_H-M "P -1"
_symmetry_group_IT_number 2
_symmetry_cell_setting 'triclinic'
loop_
_space_group_symop_operation_xyz
x,y,z
-x,-y,-z
loop_
_atom_site_type_symbol
_atom_site_label
_atom_site_fract_x
_atom_site_fract_y
_atom_site_fract_z
Si Si1 0.548435 0.588778 0.328965
Si Si2 0.198723 0.420784 0.784568
Si Si3 0.840629 0.405503 0.159250
Si Si4 0.136042 0.967785 0.462281
Si Si5 0.202212 0.702272 0.930219
Si Si6 0.674234 0.247821 0.593171
Si Si7 0.690820 0.870451 0.215536
O O1 0.676031 0.671751 0.190726
O O2 0.710497 0.398442 0.526524
O O3 0.658068 0.690132 0.331113
O O4 0.170946 0.586238 0.263217
O O5 0.310288 0.617760 0.607418
O O6 0.426183 0.325529 0.979536
O O7 0.876216 0.229808 0.380536
O O8 0.922997 0.337360 0.145987
O O9 0.500000 0.500000 0.000000
O O10 0.065626 0.544463 0.102296
O O11 0.056150 0.885413 0.759632
O O12 0.500000 0.000000 0.500000
O O13 0.000000 0.000000 0.500000
O O14 0.417544 0.147962 0.692389
O O15 0.943538 0.106547 0.750907
O O16 0.500000 0.000000 0.000000
#
# Coordination Sequence:
#
# PCOD9096872 Si02
#       7
#     2   2   2   2   2   2   2
#     4  10  21  38  61  82 111 154 205 224 287 353
#     4  10  22  36  63  81 114 159 199 234 291 358
#     4  10  20  36  63  89 114 153 208 252 293 354
#     4  10  20  36  58  86 115 147 192 248 294 347
#     4  10  22  38  59  88 120 157 202 247 305 355
#     4  10  20  38  60  83 112 153 199 231 280 358
#     4  12  22  36  60  93 118 148 192 253 288 330
#
# _framework density 25.632161
#
# number of rings (size 3 to 8) (size 9 to 14) (size 15 to 20)
#    0.857    0.857    2.857    2.143    2.000    0.000 
#    0.000    2.857    0.000    0.000    0.000    0.000 
#    0.000    0.000    0.000    0.000    0.000    0.000 
#
# Total GULP energy -77989.108527 kJ/mol
# GULP energy per Si atom -5570.650609 kJ/mol
# Density = 2.557382 g / cm^3
# Si number density = 25.632161 Si / 1000 Ang^3
#
#
#
# Elastic Constant Matrix: (Units=GPa)
#
#
# Indices 1 2 3 4 5 6 
#
# 1 201.4324 26.0472 44.9639 -0.0790 18.7129 15.9677
# 2 26.0472 50.0336 21.1070 1.4281 -4.7340 1.9094
# 3 44.9639 21.1070 141.8366 -25.5426 36.4015 18.8775
# 4 -0.0790 1.4281 -25.5426 29.2287 2.8695 4.2174
# 5 18.7129 -4.7340 36.4015 2.8695 39.2955 11.5606
# 6 15.9677 1.9094 18.8775 4.2174 11.5606 27.5526
#
#
#
# Elastic Compliance Matrix: (Units=1/GPa)
#
#
# Indices 1 2 3 4 5 6 
#
# 1 0.005813 -0.002865 -0.000651 0.000054 -0.001951 -0.001914
# 2 -0.002865 0.026318 -0.008199 -0.009929 0.012325 0.001803
# 3 -0.000651 -0.008199 0.016286 0.017050 -0.015101 -0.006486
# 4 0.000054 -0.009929 0.017050 0.053015 -0.017405 -0.011837
# 5 -0.001951 0.012325 -0.015101 -0.017405 0.044735 -0.005483
# 6 -0.001914 0.001803 -0.006486 -0.011837 -0.005483 0.045835
#
#
# Mechanical properties :
#
#
# Convention : Reuss Voigt Hill
#
# Bulk Modulus (GPa) = 40.02178 64.17098 52.09638
# Shear Modulus (GPa) = 22.34523 39.29431 30.81977
#
# Velocity S-wave (km/s) = 2.95577 3.91961 3.47131
# Velocity P-wave (km/s) = 5.22461 6.75086 6.03617
#
# Compressibility (1/GPa) = 0.02498639
#
# Stress axis : x y z
#
# Youngs Moduli (GPa) = 172.02079 37.99740 61.40100
#
# Poissons Ratio (x) = 0.10885 0.04000
# Poissons Ratio (y) = 0.49277 0.50345
# Poissons Ratio (z) = 0.11206 0.31155
#
# Static dielectric constant tensor:
#      x y z
#    x 2.173690 0.059850 -0.114270 
#    y 0.059850 2.081040 0.040250 
#    z -0.114270 0.040250 2.219770 
# 
# From -- ./inp_files/550426.got.cif
#   From: 2010.05.17/outbox.cif.g08.bks.cpg/sg2_276_cif.got.tgz:550426.got - 2010.06.03 11:33:40.
