data_PCOD9096863
_publ_section_title
;
Structure prediction by ZEFSAII (Michael W. Deem and Ramdas Pophale) SiO2 
 PCOD9096863
Probable space group: P -1
;
_chemical_formula_sum "Si O2"
_cell_formula_units_Z 16
_cell_length_a 8.592615
_cell_length_b 23.747172
_cell_length_c 7.276405
_cell_angle_alpha 136.060775
_cell_angle_beta 119.131096
_cell_angle_gamma 41.142327
_cell_volume 672.821477
_symmetry_space_group_name_H-M "P -1"
_symmetry_group_IT_number 2
_symmetry_cell_setting 'triclinic'
loop_
_space_group_symop_operation_xyz
x,y,z
-x,-y,-z
loop_
_atom_site_type_symbol
_atom_site_label
_atom_site_fract_x
_atom_site_fract_y
_atom_site_fract_z
Si Si1 0.331322 0.119761 0.368120
Si Si2 0.137005 0.678892 0.514063
Si Si3 0.239373 0.974775 0.130555
Si Si4 0.603345 0.342465 0.719997
Si Si5 0.637002 0.757642 0.017006
Si Si6 0.143225 0.038179 0.643730
Si Si7 0.677243 0.270320 0.985541
Si Si8 0.841933 0.435952 0.077849
O O1 0.301726 0.180893 0.682750
O O2 0.138749 0.221216 0.367656
O O3 0.277893 0.042458 0.191877
O O4 0.607722 0.041891 0.297572
O O5 0.220779 0.719774 0.499412
O O6 0.146658 0.592140 0.200619
O O7 0.310908 0.646963 0.706561
O O8 0.463735 0.844533 0.962868
O O9 0.207081 0.020952 0.425569
O O10 0.000000 0.000000 0.000000
O O11 0.602891 0.288412 0.772375
O O12 0.699745 0.400489 0.988880
O O13 0.338176 0.435097 0.707634
O O14 0.479219 0.745035 0.022333
O O15 0.897497 0.639479 0.861782
O O16 0.954343 0.161566 0.884297
O O17 0.000000 0.000000 0.500000
#
# Coordination Sequence:
#
# PCOD9096863 Si02
#       8
#     2   2   2   2   2   2   2   2
#     4  10  20  37  60  77 121 162 191 241 298 354
#     4   9  20  39  60  86 117 153 201 245 297 352
#     4  11  22  38  59  86 115 160 201 244 294 355
#     4   9  20  39  66  83 114 156 200 247 305 355
#     4  10  20  36  58  85 120 158 191 244 302 352
#     4  11  22  37  53  84 122 156 196 240 293 350
#     4  12  22  35  62  88 118 157 199 249 293 352
#     4   8  19  42  61  82 118 153 199 250 301 358
#
# _framework density 23.780456000000001
#
# number of rings (size 3 to 8) (size 9 to 14) (size 15 to 20)
#    0.750    1.250    2.500    3.000    1.750    1.500 
#    0.000    0.625    5.500    0.000    0.000    0.000 
#    0.000    0.000    0.000    0.000    0.000    0.000 
#
# Total GULP energy -89221.138514 kJ/mol
# GULP energy per Si atom -5576.321157 kJ/mol
# Density = 2.372633 g / cm^3
# Si number density = 23.780456 Si / 1000 Ang^3
#
#
#
# Elastic Constant Matrix: (Units=GPa)
#
#
# Indices 1 2 3 4 5 6 
#
# 1 55.9614 26.0013 11.0747 5.3804 -0.5676 -30.3290
# 2 26.0013 91.5681 12.2914 8.8247 -5.3773 -51.9339
# 3 11.0747 12.2914 44.3963 -22.2707 7.9853 -11.7372
# 4 5.3804 8.8247 -22.2707 26.5449 -5.7496 -9.1639
# 5 -0.5676 -5.3773 7.9853 -5.7496 23.3258 -3.0856
# 6 -30.3290 -51.9339 -11.7372 -9.1639 -3.0856 43.2739
#
#
#
# Elastic Compliance Matrix: (Units=1/GPa)
#
#
# Indices 1 2 3 4 5 6 
#
# 1 0.035006 0.016726 -0.000318 0.005876 0.012436 0.046653
# 2 0.016726 0.049859 0.009270 0.020807 0.024469 0.080225
# 3 -0.000318 0.009270 0.063547 0.065274 0.002034 0.042105
# 4 0.005876 0.020807 0.065274 0.113657 0.020173 0.072301
# 5 0.012436 0.024469 0.002034 0.020173 0.059326 0.047136
# 6 0.046653 0.080225 0.042105 0.072301 0.047136 0.182178
#
#
# Mechanical properties :
#
#
# Convention : Reuss Voigt Hill
#
# Bulk Modulus (GPa) = 5.00583 32.29559 18.65071
# Shear Modulus (GPa) = 9.63750 28.13282 18.88516
#
# Velocity S-wave (km/s) = 2.01532 3.44324 2.82112
# Velocity P-wave (km/s) = 2.74316 5.42384 4.29785
#
# Compressibility (1/GPa) = 0.19976723
#
# Stress axis : x y z
#
# Youngs Moduli (GPa) = 28.56639 20.05636 15.73645
#
# Poissons Ratio (x) = -0.33547 0.00501
# Poissons Ratio (y) = -0.47781 -0.14587
# Poissons Ratio (z) = 0.00910 -0.18592
#
# Static dielectric constant tensor:
#      x y z
#    x 1.742830 0.035100 -0.080560 
#    y 0.035100 1.940930 0.009820 
#    z -0.080560 0.009820 2.007940 
# 
# From -- ./inp_files/225033.got.cif
#   From: 2010.05.17/outbox.cif.g08.bks.cpg/sg2_113_cif.got.tgz:225033.got - 2010.06.03 11:33:40.
