data_PCOD9096356
_publ_section_title
;
Structure prediction by ZEFSAII (Michael W. Deem and Ramdas Pophale) SiO2 
 PCOD9096356
Probable space group: P -1
;
_chemical_formula_sum "Si O2"
_cell_formula_units_Z 16
_cell_length_a 14.327365
_cell_length_b 5.459489
_cell_length_c 13.709473
_cell_angle_alpha 94.628205
_cell_angle_beta 137.686075
_cell_angle_gamma 81.147309
_cell_volume 712.417840
_symmetry_space_group_name_H-M "P -1"
_symmetry_group_IT_number 2
_symmetry_cell_setting 'triclinic'
loop_
_space_group_symop_operation_xyz
x,y,z
-x,-y,-z
loop_
_atom_site_type_symbol
_atom_site_label
_atom_site_fract_x
_atom_site_fract_y
_atom_site_fract_z
Si Si1 0.228234 0.198921 0.000779
Si Si2 0.944612 0.993280 0.814238
Si Si3 0.932503 0.430681 0.226798
Si Si4 0.622691 0.439906 0.286622
Si Si5 0.152881 0.350507 0.142030
Si Si6 0.919241 0.262157 0.413627
Si Si7 0.787781 0.393093 0.599742
Si Si8 0.512548 0.036528 0.893233
O O1 0.257765 0.328517 0.130087
O O2 0.333756 0.968738 0.036882
O O3 0.202731 0.376973 0.893319
O O4 0.069571 0.152664 0.901853
O O5 0.825727 0.103148 0.648790
O O6 0.868928 0.931375 0.852431
O O7 0.027871 0.728935 0.842888
O O8 0.907692 0.251139 0.288156
O O9 0.075638 0.549031 0.353805
O O10 0.768085 0.321560 0.345413
O O11 0.658704 0.465231 0.430248
O O12 0.528165 0.221652 0.190627
O O13 0.573201 0.704753 0.204133
O O14 0.211633 0.473747 0.288857
O O15 0.000000 0.500000 0.000000
O O16 0.000000 0.500000 0.500000
O O17 0.000000 0.000000 0.500000
O O18 0.500000 0.000000 0.000000
#
# Coordination Sequence:
#
# PCOD9096356 Si02
#       8
#     2   2   2   2   2   2   2   2
#     4  11  24  41  66  98 134 188 234 280 340 410
#     4  10  20  35  68  98 142 164 225 289 363 403
#     4  10  21  36  63 100 137 165 224 283 352 414
#     4  12  27  48  71  99 144 182 231 291 343 407
#     4  11  20  38  64 109 140 172 221 294 358 412
#     4  12  24  39  68 103 137 171 223 283 361 416
#     4  10  22  39  65 103 138 173 217 288 363 414
#     4  12  30  51  72  95 138 195 243 280 328 418
#
# _framework density 22.458727
#
# number of rings (size 3 to 8) (size 9 to 14) (size 15 to 20)
#    0.000    1.000    5.000    3.000    8.750    0.000 
#    0.000    1.250    0.000    0.000    0.000    0.000 
#    0.000    0.000    0.000    0.000    0.000    0.000 
#
# Total GULP energy -89125.564794 kJ/mol
# GULP energy per Si atom -5570.347800 kJ/mol
# Density = 2.240761 g / cm^3
# Si number density = 22.458727 Si / 1000 Ang^3
#
#
#
# Elastic Constant Matrix: (Units=GPa)
#
#
# Indices 1 2 3 4 5 6 
#
# 1 93.8427 15.0046 44.8033 -19.0816 -20.1327 -9.6418
# 2 15.0046 104.5676 51.8995 -27.4199 -5.2372 2.3706
# 3 44.8033 51.8995 121.0654 -24.1252 -32.6273 -4.8303
# 4 -19.0816 -27.4199 -24.1252 51.8228 2.8763 -1.4262
# 5 -20.1327 -5.2372 -32.6273 2.8763 37.9948 -8.3754
# 6 -9.6418 2.3706 -4.8303 -1.4262 -8.3754 32.4046
#
#
#
# Elastic Compliance Matrix: (Units=1/GPa)
#
#
# Indices 1 2 3 4 5 6 
#
# 1 0.014768 0.000648 -0.002981 0.004200 0.006296 0.005715
# 2 0.000648 0.013745 -0.006451 0.004670 -0.004243 -0.002666
# 3 -0.002981 -0.006451 0.016178 0.002478 0.012408 0.005313
# 4 0.004200 0.004670 0.002478 0.024344 0.003894 0.003356
# 5 0.006296 -0.004243 0.012408 0.003894 0.042796 0.015266
# 6 0.005715 -0.002666 0.005313 0.003356 0.015266 0.037640
#
#
# Mechanical properties :
#
#
# Convention : Reuss Voigt Hill
#
# Bulk Modulus (GPa) = 36.87066 60.32117 48.59591
# Shear Modulus (GPa) = 28.39612 38.29566 33.34589
#
# Velocity S-wave (km/s) = 3.55965 4.13383 3.85744
# Velocity P-wave (km/s) = 5.77474 7.04995 6.44396
#
# Compressibility (1/GPa) = 0.02712184
#
# Stress axis : x y z
#
# Youngs Moduli (GPa) = 67.71494 72.75599 61.81088
#
# Poissons Ratio (x) = -0.04712 0.18426
# Poissons Ratio (y) = -0.04386 0.39875
# Poissons Ratio (z) = 0.20186 0.46936
#
# Static dielectric constant tensor:
#      x y z
#    x 1.909960 0.046590 -0.046990 
#    y 0.046590 1.923000 0.091590 
#    z -0.046990 0.091590 1.943540 
# 
# From -- ./inp_files/97287.got.cif
#   From: 2010.05.17/outbox.cif.g08.bks.cpg/sg2_49_cif.got.tgz:97287.got - 2010.06.03 11:33:40.
