data_PCOD9096801
_publ_section_title
;
Structure prediction by ZEFSAII (Michael W. Deem and Ramdas Pophale) SiO2 
 PCOD9096801
Probable space group: P -1
;
_chemical_formula_sum "Si O2"
_cell_formula_units_Z 16
_cell_length_a 9.397223
_cell_length_b 12.033119
_cell_length_c 19.145078
_cell_angle_alpha 141.858163
_cell_angle_beta 33.207525
_cell_angle_gamma 121.885891
_cell_volume 676.192713
_symmetry_space_group_name_H-M "P -1"
_symmetry_group_IT_number 2
_symmetry_cell_setting 'triclinic'
loop_
_space_group_symop_operation_xyz
x,y,z
-x,-y,-z
loop_
_atom_site_type_symbol
_atom_site_label
_atom_site_fract_x
_atom_site_fract_y
_atom_site_fract_z
Si Si1 0.477653 0.813785 0.555397
Si Si2 0.805969 0.517698 0.180750
Si Si3 0.716825 0.095153 0.822588
Si Si4 0.587182 0.761589 0.255786
Si Si5 0.569514 0.282843 0.841589
Si Si6 0.417052 0.350543 0.198584
Si Si7 0.041159 0.760993 0.610184
Si Si8 0.301453 0.007319 0.865418
O O1 0.757827 0.634612 0.329708
O O2 0.448689 0.851139 0.667749
O O3 0.234284 0.752058 0.592789
O O4 0.434023 0.019566 0.638393
O O5 0.624438 0.688131 0.283925
O O6 0.660963 0.361539 0.154377
O O7 0.124221 0.407109 0.974404
O O8 0.788929 0.154942 0.746522
O O9 0.986664 0.950532 0.679888
O O10 0.500850 0.989087 0.840954
O O11 0.555489 0.276150 0.029716
O O12 0.365956 0.747300 0.281758
O O13 0.314346 0.207239 0.926088
O O14 0.500000 0.500000 0.000000
O O15 0.259223 0.218450 0.225968
O O16 0.173918 0.567542 0.412649
O O17 0.000000 0.000000 0.000000
#
# Coordination Sequence:
#
# PCOD9096801 Si02
#       8
#     2   2   2   2   2   2   2   2
#     4  10  20  38  58  86 121 149 199 247 301 348
#     4  10  21  35  62  87 113 154 200 252 297 357
#     4  10  20  36  58  82 118 160 198 239 306 356
#     4  10  20  38  58  85 114 155 203 244 304 350
#     4   9  20  36  57  83 120 157 202 243 296 362
#     4  10  20  36  58  88 118 148 202 249 298 348
#     4  10  21  35  60  87 117 154 198 249 295 360
#     4   9  20  36  59  87 123 161 199 244 306 360
#
# _framework density 23.661892999999999
#
# number of rings (size 3 to 8) (size 9 to 14) (size 15 to 20)
#    0.750    1.500    0.000    3.000    0.000    3.000 
#    2.250    0.000    0.000   11.250    0.000    0.000 
#    0.000    0.000    0.000    0.000    0.000    0.000 
#
# Total GULP energy -89222.085938 kJ/mol
# GULP energy per Si atom -5576.380371 kJ/mol
# Density = 2.360804 g / cm^3
# Si number density = 23.661893 Si / 1000 Ang^3
#
#
#
# Elastic Constant Matrix: (Units=GPa)
#
#
# Indices 1 2 3 4 5 6 
#
# 1 70.7276 7.5344 35.5254 10.2452 21.2257 12.7993
# 2 7.5344 46.8133 3.6683 -1.2358 10.3658 11.7950
# 3 35.5254 3.6683 116.4374 5.6338 30.3945 10.1200
# 4 10.2452 -1.2358 5.6338 21.1194 2.1451 1.0657
# 5 21.2257 10.3658 30.3945 2.1451 40.7512 11.9261
# 6 12.7993 11.7950 10.1200 1.0657 11.9261 31.5269
#
#
#
# Elastic Compliance Matrix: (Units=1/GPa)
#
#
# Indices 1 2 3 4 5 6 
#
# 1 0.019680 -0.000803 -0.003779 -0.007809 -0.005621 -0.004086
# 2 -0.000803 0.024373 0.001222 0.002338 -0.004616 -0.007518
# 3 -0.003779 0.001222 0.011531 -0.000469 -0.006921 0.000009
# 4 -0.007809 0.002338 -0.000469 0.051279 0.001028 0.000324
# 5 -0.005621 -0.004616 -0.006921 0.001028 0.035912 -0.007389
# 6 -0.004086 -0.007518 0.000009 0.000324 -0.007389 0.038971
#
#
# Mechanical properties :
#
#
# Convention : Reuss Voigt Hill
#
# Bulk Modulus (GPa) = 20.46475 36.38163 28.42319
# Shear Modulus (GPa) = 24.41958 31.16285 27.79122
#
# Velocity S-wave (km/s) = 3.21599 3.63299 3.43084
# Velocity P-wave (km/s) = 4.73896 5.74519 5.26616
#
# Compressibility (1/GPa) = 0.04886452
#
# Stress axis : x y z
#
# Youngs Moduli (GPa) = 50.81363 41.02919 86.71991
#
# Poissons Ratio (x) = 0.03296 0.32770
# Poissons Ratio (y) = 0.04082 -0.10601
# Poissons Ratio (z) = 0.19202 -0.05016
#
# Static dielectric constant tensor:
#      x y z
#    x 1.991360 -0.022080 -0.019410 
#    y -0.022080 1.987810 -0.030170 
#    z -0.019410 -0.030170 1.888470 
# 
# From -- ./inp_files/610453.got.cif
#   From: 2010.05.17/outbox.cif.g08.bks.cpg/sg2_306_cif.got.tgz:610453.got - 2010.06.03 11:33:40.
