data_PCOD9096339
_publ_section_title
;
Structure prediction by ZEFSAII (Michael W. Deem and Ramdas Pophale) SiO2 
 PCOD9096339
Probable space group: P -1
;
_chemical_formula_sum "Si O2"
_cell_formula_units_Z 16
_cell_length_a 8.568643
_cell_length_b 14.348990
_cell_length_c 14.841475
_cell_angle_alpha 42.988052
_cell_angle_beta 132.616719
_cell_angle_gamma 139.216605
_cell_volume 781.005777
_symmetry_space_group_name_H-M "P -1"
_symmetry_group_IT_number 2
_symmetry_cell_setting 'triclinic'
loop_
_space_group_symop_operation_xyz
x,y,z
-x,-y,-z
loop_
_atom_site_type_symbol
_atom_site_label
_atom_site_fract_x
_atom_site_fract_y
_atom_site_fract_z
Si Si1 0.430276 0.952988 0.365120
Si Si2 0.168925 0.292141 0.086259
Si Si3 0.855697 0.002503 0.612756
Si Si4 0.292389 0.054834 0.073939
Si Si5 0.651519 0.671242 0.386563
Si Si6 0.062997 0.368320 0.642091
Si Si7 0.337560 0.834683 0.106423
Si Si8 0.397723 0.372797 0.919457
O O1 0.678399 0.957110 0.488184
O O2 0.207113 0.789381 0.354085
O O3 0.304799 0.979437 0.384269
O O4 0.452446 0.074142 0.211764
O O5 0.113160 0.139737 0.233826
O O6 0.353270 0.457008 0.091918
O O7 0.297475 0.304020 0.030101
O O8 0.910800 0.273065 0.970881
O O9 0.110214 0.174829 0.580558
O O10 0.286227 0.913392 0.116351
O O11 0.416692 0.239805 0.962645
O O12 0.000000 0.000000 0.000000
O O13 0.500000 0.500000 0.500000
O O14 0.768241 0.644725 0.360248
O O15 0.472613 0.739133 0.248147
O O16 0.200355 0.398026 0.769859
O O17 0.000000 0.500000 0.500000
O O18 0.500000 0.000000 0.000000
#
# Coordination Sequence:
#
# PCOD9096339 Si02
#       8
#     2   2   2   2   2   2   2   2
#     4  10  20  35  67  94 127 168 220 272 330 384
#     4  11  22  40  67 100 135 169 223 280 343 382
#     4  10  20  42  62  97 132 175 217 278 335 397
#     4  12  21  40  68  99 129 174 231 267 323 396
#     4  11  27  44  65  98 139 180 224 273 339 411
#     4  11  23  42  67  97 131 171 223 277 330 395
#     4  12  24  44  71  92 136 187 219 271 347 401
#     4  11  23  38  69 104 131 163 232 288 318 396
#
# _framework density 20.486402999999999
#
# number of rings (size 3 to 8) (size 9 to 14) (size 15 to 20)
#    0.000    1.000    5.000    1.500    3.500    1.000 
#    0.000    4.375    0.000    0.000    0.000    0.000 
#    0.000    0.000    0.000    0.000    0.000    0.000 
#
# Total GULP energy -89171.524121 kJ/mol
# GULP energy per Si atom -5573.220258 kJ/mol
# Density = 2.043978 g / cm^3
# Si number density = 20.486403 Si / 1000 Ang^3
#
#
#
# Elastic Constant Matrix: (Units=GPa)
#
#
# Indices 1 2 3 4 5 6 
#
# 1 56.0855 39.5906 53.7864 -3.5080 17.2242 2.6274
# 2 39.5906 140.7996 79.9986 11.5253 10.5811 5.2308
# 3 53.7864 79.9986 187.2635 6.2717 21.2209 5.5799
# 4 -3.5080 11.5253 6.2717 48.7255 0.3864 2.4999
# 5 17.2242 10.5811 21.2209 0.3864 36.8653 -5.5273
# 6 2.6274 5.2308 5.5799 2.4999 -5.5273 24.9297
#
#
#
# Elastic Compliance Matrix: (Units=1/GPa)
#
#
# Indices 1 2 3 4 5 6 
#
# 1 0.029968 -0.004783 -0.005458 0.004256 -0.010070 -0.003592
# 2 -0.004783 0.010321 -0.003051 -0.002374 0.000975 -0.000525
# 3 -0.005458 -0.003051 0.008440 -0.000697 -0.001568 -0.000952
# 4 0.004256 -0.002374 -0.000697 0.021610 -0.001476 -0.002289
# 5 -0.010070 0.000975 -0.001568 -0.001476 0.033796 0.008849
# 6 -0.003592 -0.000525 -0.000952 -0.002289 0.008849 0.043006
#
#
# Mechanical properties :
#
#
# Convention : Reuss Voigt Hill
#
# Bulk Modulus (GPa) = 45.15709 81.21108 63.18409
# Shear Modulus (GPa) = 27.60789 36.15562 31.88175
#
# Velocity S-wave (km/s) = 3.67498 4.20558 3.94920
# Velocity P-wave (km/s) = 6.33227 7.95676 7.19054
#
# Compressibility (1/GPa) = 0.02214491
#
# Stress axis : x y z
#
# Youngs Moduli (GPa) = 33.36873 96.88887 118.47694
#
# Poissons Ratio (x) = 0.46345 0.64670
# Poissons Ratio (y) = 0.15961 0.36143
# Poissons Ratio (z) = 0.18214 0.29557
#
# Static dielectric constant tensor:
#      x y z
#    x 1.746760 -0.166810 0.118950 
#    y -0.166810 1.754430 0.092620 
#    z 0.118950 0.092620 1.570600 
# 
# From -- ./inp_files/505324.got.cif
#   From: 2010.05.17/outbox.cif.g08.bks.cpg/sg2_253_cif.got.tgz:505324.got - 2010.06.03 11:33:40.
