data_PCOD9096629
_publ_section_title
;
Structure prediction by ZEFSAII (Michael W. Deem and Ramdas Pophale) SiO2 
 PCOD9096629
Probable space group: P -1
;
_chemical_formula_sum "Si O2"
_cell_formula_units_Z 16
_cell_length_a 8.370823
_cell_length_b 7.570460
_cell_length_c 15.261005
_cell_angle_alpha 96.475223
_cell_angle_beta 69.921601
_cell_angle_gamma 126.174652
_cell_volume 728.053237
_symmetry_space_group_name_H-M "P -1"
_symmetry_group_IT_number 2
_symmetry_cell_setting 'triclinic'
loop_
_space_group_symop_operation_xyz
x,y,z
-x,-y,-z
loop_
_atom_site_type_symbol
_atom_site_label
_atom_site_fract_x
_atom_site_fract_y
_atom_site_fract_z
Si Si1 0.255346 0.282960 0.634427
Si Si2 0.461378 0.580497 0.921979
Si Si3 0.110090 0.810607 0.419604
Si Si4 0.041810 0.669154 0.609740
Si Si5 0.096330 0.176267 0.855193
Si Si6 0.165916 0.650988 0.053442
Si Si7 0.104812 0.288394 0.177183
Si Si8 0.491145 0.776842 0.552690
O O1 0.394004 0.544573 0.605561
O O2 0.384775 0.209755 0.556712
O O3 0.034201 0.172238 0.619410
O O4 0.202641 0.234842 0.742917
O O5 0.678864 0.680136 0.837354
O O6 0.271656 0.363680 0.896768
O O7 0.500000 0.500000 0.000000
O O8 0.387416 0.732761 0.971071
O O9 0.996162 0.744889 0.532931
O O10 0.097716 0.596720 0.381534
O O11 0.343642 0.026516 0.403118
O O12 0.286017 0.761050 0.563757
O O13 0.008096 0.743404 0.711839
O O14 0.899597 0.192626 0.895735
O O15 0.019845 0.928407 0.872703
O O16 0.136786 0.492653 0.130201
O O17 0.000000 0.500000 0.000000
#
# Coordination Sequence:
#
# PCOD9096629 Si02
#       8
#     2   2   2   2   2   2   2   2
#     4  10  22  36  55  90 120 157 215 254 293 364
#     4   9  22  41  63  92 120 152 200 249 305 382
#     4  10  20  36  57  81 122 170 207 252 304 352
#     4  10  22  36  55  88 121 161 214 254 293 361
#     4  11  23  41  66  90 124 162 200 258 311 360
#     4   9  20  41  63  90 122 150 196 251 304 377
#     4  11  23  41  64  91 124 161 205 254 307 363
#     4  10  20  36  57  80 123 170 205 251 306 351
#
# _framework density 21.976417999999999
#
# number of rings (size 3 to 8) (size 9 to 14) (size 15 to 20)
#    0.000    2.000    0.000    3.000    0.000   11.000 
#    0.000    3.750    0.000    0.000    0.000    0.000 
#    0.000    0.000    0.000    0.000    0.000    0.000 
#
# Total GULP energy -89393.488792 kJ/mol
# GULP energy per Si atom -5587.093049 kJ/mol
# Density = 2.192640 g / cm^3
# Si number density = 21.976418 Si / 1000 Ang^3
#
#
#
# Elastic Constant Matrix: (Units=GPa)
#
#
# Indices 1 2 3 4 5 6 
#
# 1 71.2531 28.3929 31.4324 7.3638 -1.6563 19.3842
# 2 28.3929 113.9980 8.3063 30.1884 -0.2874 8.8362
# 3 31.4324 8.3063 79.0969 16.6402 -2.2002 8.1663
# 4 7.3638 30.1884 16.6402 24.3062 -0.2803 -0.4431
# 5 -1.6563 -0.2874 -2.2002 -0.2803 27.1394 -0.7187
# 6 19.3842 8.8362 8.1663 -0.4431 -0.7187 35.2470
#
#
#
# Elastic Compliance Matrix: (Units=1/GPa)
#
#
# Indices 1 2 3 4 5 6 
#
# 1 0.021742 -0.005801 -0.008464 0.006262 0.000420 -0.008455
# 2 -0.005801 0.015682 0.005406 -0.021463 -0.000031 -0.002264
# 3 -0.008464 0.005406 0.019253 -0.017346 0.000886 -0.001361
# 4 0.006262 -0.021463 -0.017346 0.077900 -0.000263 0.006929
# 5 0.000420 -0.000031 0.000886 -0.000263 0.036950 0.000321
# 6 -0.008455 -0.002264 -0.001361 0.006929 0.000321 0.033998
#
#
# Mechanical properties :
#
#
# Convention : Reuss Voigt Hill
#
# Bulk Modulus (GPa) = 25.66674 44.51235 35.08955
# Shear Modulus (GPa) = 21.16608 30.41960 25.79284
#
# Velocity S-wave (km/s) = 3.10680 3.72451 3.42959
# Velocity P-wave (km/s) = 4.95723 6.22853 5.62888
#
# Compressibility (1/GPa) = 0.03896093
#
# Stress axis : x y z
#
# Youngs Moduli (GPa) = 45.99328 63.76773 51.94046
#
# Poissons Ratio (x) = 0.36989 0.43962
# Poissons Ratio (y) = 0.26679 -0.28081
# Poissons Ratio (z) = 0.38928 -0.34475
#
# Static dielectric constant tensor:
#      x y z
#    x 1.821130 -0.003840 -0.043500 
#    y -0.003840 1.995740 -0.098490 
#    z -0.043500 -0.098490 1.845470 
# 
# From -- ./inp_files/495190.got.cif
#   From: 2010.05.17/outbox.cif.g08.bks.cpg/sg2_248_cif.got.tgz:495190.got - 2010.06.03 11:33:40.
