data_PCOD9096638
_publ_section_title
;
Structure prediction by ZEFSAII (Michael W. Deem and Ramdas Pophale) SiO2 
 PCOD9096638
Probable space group: P -1
;
_chemical_formula_sum "Si O2"
_cell_formula_units_Z 14
_cell_length_a 12.764009
_cell_length_b 7.250343
_cell_length_c 11.234751
_cell_angle_alpha 143.185798
_cell_angle_beta 61.898774
_cell_angle_gamma 122.259087
_cell_volume 524.881769
_symmetry_space_group_name_H-M "P -1"
_symmetry_group_IT_number 2
_symmetry_cell_setting 'triclinic'
loop_
_space_group_symop_operation_xyz
x,y,z
-x,-y,-z
loop_
_atom_site_type_symbol
_atom_site_label
_atom_site_fract_x
_atom_site_fract_y
_atom_site_fract_z
Si Si1 0.886456 0.838880 0.769257
Si Si2 0.941687 0.468016 0.322285
Si Si3 0.620850 0.276303 0.029599
Si Si4 0.882650 0.369601 0.900745
Si Si5 0.750685 0.884940 0.180077
Si Si6 0.556829 0.677677 0.443714
Si Si7 0.649941 0.320777 0.638369
O O1 0.902539 0.698335 0.556315
O O2 0.747419 0.653671 0.792240
O O3 0.971680 0.703927 0.740090
O O4 0.920624 0.219187 0.922762
O O5 0.029685 0.656115 0.268266
O O6 0.821996 0.164838 0.194553
O O7 0.629632 0.564616 0.074677
O O8 0.653191 0.503737 0.248979
O O9 0.734583 0.145106 0.861844
O O10 0.500000 0.000000 0.000000
O O11 0.849608 0.704197 0.075926
O O12 0.719594 0.111465 0.414900
O O13 0.500000 0.500000 0.500000
O O14 0.453805 0.629975 0.369476
O O15 0.599606 0.061912 0.635416
#
# Coordination Sequence:
#
# PCOD9096638 Si02
#       7
#     2   2   2   2   2   2   2
#     4  10  21  35  58  87 115 147 190 241 282 347
#     4  10  20  38  57  84 115 151 196 229 286 349
#     4   9  19  35  56  85 114 144 190 240 284 333
#     4  10  20  36  57  81 115 153 185 237 292 331
#     4   8  19  36  57  81 115 151 185 236 284 340
#     4  10  20  37  62  82 113 158 197 232 286 351
#     4   9  19  38  56  83 116 147 189 239 284 336
#
# _framework density 26.672674000000001
#
# number of rings (size 3 to 8) (size 9 to 14) (size 15 to 20)
#    0.857    1.714    0.000    1.714    0.000    2.857 
#    2.571    7.143    0.000    5.143    0.000    0.000 
#    0.000    0.000    0.000    0.000    0.000    0.000 
#
# Total GULP energy -77979.110475 kJ/mol
# GULP energy per Si atom -5569.936463 kJ/mol
# Density = 2.661197 g / cm^3
# Si number density = 26.672674 Si / 1000 Ang^3
#
#
#
# Elastic Constant Matrix: (Units=GPa)
#
#
# Indices 1 2 3 4 5 6 
#
# 1 34.2350 21.2879 21.2310 -5.2526 -3.4825 2.1322
# 2 21.2879 260.4391 39.8415 -2.3148 -3.2565 19.7531
# 3 21.2310 39.8415 79.4722 -1.1848 7.4195 -0.1390
# 4 -5.2526 -2.3148 -1.1848 47.9928 3.2321 -13.7178
# 5 -3.4825 -3.2565 7.4195 3.2321 26.2200 3.0439
# 6 2.1322 19.7531 -0.1390 -13.7178 3.0439 33.1306
#
#
#
# Elastic Compliance Matrix: (Units=1/GPa)
#
#
# Indices 1 2 3 4 5 6 
#
# 1 0.037524 -0.001333 -0.010006 0.002979 0.007411 -0.001109
# 2 -0.001333 0.004513 -0.002062 -0.000978 0.001453 -0.003152
# 3 -0.010006 -0.002062 0.016932 0.000467 -0.006754 0.002758
# 4 0.002979 -0.000978 0.000467 0.024531 -0.004151 0.010932
# 5 0.007411 0.001453 -0.006754 -0.004151 0.042539 -0.006999
# 6 -0.001109 -0.003152 0.002758 0.010932 -0.006999 0.037315
#
#
# Mechanical properties :
#
#
# Convention : Reuss Voigt Hill
#
# Bulk Modulus (GPa) = 31.08757 59.87413 45.48085
# Shear Modulus (GPa) = 24.89083 40.92109 32.90596
#
# Velocity S-wave (km/s) = 3.05814 3.92113 3.51621
# Velocity P-wave (km/s) = 4.91428 6.55720 5.79426
#
# Compressibility (1/GPa) = 0.03216720
#
# Stress axis : x y z
#
# Youngs Moduli (GPa) = 26.64968 221.60197 59.05980
#
# Poissons Ratio (x) = 0.29545 0.59092
# Poissons Ratio (y) = 0.03553 0.12177
# Poissons Ratio (z) = 0.26664 0.45692
#
# Static dielectric constant tensor:
#      x y z
#    x 2.268510 0.169240 0.038820 
#    y 0.169240 2.198450 -0.006750 
#    z 0.038820 -0.006750 2.145810 
# 
# From -- ./inp_files/441508.got.cif
#   From: 2010.05.17/outbox.cif.g08.bks.cpg/sg2_221_cif.got.tgz:441508.got - 2010.06.03 11:33:40.
