data_PCOD9096312
_publ_section_title
;
Structure prediction by ZEFSAII (Michael W. Deem and Ramdas Pophale) SiO2 
 PCOD9096312
Probable space group: P -1
;
_chemical_formula_sum "Si O2"
_cell_formula_units_Z 14
_cell_length_a 17.246081
_cell_length_b 5.252677
_cell_length_c 7.738393
_cell_angle_alpha 61.986601
_cell_angle_beta 118.635249
_cell_angle_gamma 86.771790
_cell_volume 506.094349
_symmetry_space_group_name_H-M "P -1"
_symmetry_group_IT_number 2
_symmetry_cell_setting 'triclinic'
loop_
_space_group_symop_operation_xyz
x,y,z
-x,-y,-z
loop_
_atom_site_type_symbol
_atom_site_label
_atom_site_fract_x
_atom_site_fract_y
_atom_site_fract_z
Si Si1 0.472943 0.710681 0.231757
Si Si2 0.164832 0.380366 0.866209
Si Si3 0.658094 0.759690 0.489256
Si Si4 0.996608 0.234290 0.212080
Si Si5 0.181884 0.197065 0.561328
Si Si6 0.633614 0.695184 0.867102
Si Si7 0.837668 0.187132 0.825703
O O1 0.500000 0.500000 0.500000
O O2 0.571648 0.751418 0.282326
O O3 0.427423 0.523403 0.121289
O O4 0.399201 0.037651 0.111921
O O5 0.062227 0.625474 0.721708
O O6 0.179276 0.189158 0.766269
O O7 0.253904 0.488138 0.933761
O O8 0.176593 0.134550 0.114840
O O9 0.719460 0.921435 0.399639
O O10 0.619909 0.860690 0.609276
O O11 0.735367 0.414059 0.712959
O O12 0.105234 0.078378 0.432062
O O13 0.929819 0.096498 0.077736
O O14 0.000000 0.500000 0.000000
O O15 0.146728 0.575032 0.370759
#
# Coordination Sequence:
#
# PCOD9096312 Si02
#       7
#     2   2   2   2   2   2   2
#     4  10  20  35  65  95 127 167 224 263 324 389
#     4  12  21  38  66  88 127 170 209 265 325 383
#     4   9  18  41  59  91 130 158 215 267 313 387
#     4  10  20  40  61  89 128 163 213 266 317 388
#     4   9  22  39  61  94 128 160 217 265 319 386
#     4  11  21  36  67  94 126 176 214 267 328 385
#     4   9  21  39  63  83 129 163 213 258 324 376
#
# _framework density 27.662828000000001
#
# number of rings (size 3 to 8) (size 9 to 14) (size 15 to 20)
#    0.857    1.143    1.429    3.857    0.000    2.857 
#    0.000    5.714    0.000    0.000    0.000    1.000 
#    0.000    0.000    0.000    0.000    0.000    0.000 
#
# Total GULP energy -78289.352941 kJ/mol
# GULP energy per Si atom -5592.096639 kJ/mol
# Density = 2.759987 g / cm^3
# Si number density = 27.662828 Si / 1000 Ang^3
#
#
#
# Elastic Constant Matrix: (Units=GPa)
#
#
# Indices 1 2 3 4 5 6 
#
# 1 199.4074 51.1109 49.8011 4.3916 18.3559 22.8964
# 2 51.1109 84.8063 10.2031 5.5691 6.2030 7.6601
# 3 49.8011 10.2031 89.7008 7.6366 3.6304 4.9962
# 4 4.3916 5.5691 7.6366 29.4998 6.7893 4.1769
# 5 18.3559 6.2030 3.6304 6.7893 61.9191 5.3345
# 6 22.8964 7.6601 4.9962 4.1769 5.3345 52.2089
#
#
#
# Elastic Compliance Matrix: (Units=1/GPa)
#
#
# Indices 1 2 3 4 5 6 
#
# 1 0.007200 -0.003686 -0.003495 0.001189 -0.001499 -0.002224
# 2 -0.003686 0.014117 0.000652 -0.002218 -0.000088 -0.000331
# 3 -0.003495 0.000652 0.013245 -0.003203 0.000513 0.000373
# 4 0.001189 -0.002218 -0.003203 0.036161 -0.003700 -0.002404
# 5 -0.001499 -0.000088 0.000513 -0.003700 0.017050 -0.000825
# 6 -0.002224 -0.000331 0.000373 -0.002404 -0.000825 0.020419
#
#
# Mechanical properties :
#
#
# Convention : Reuss Voigt Hill
#
# Bulk Modulus (GPa) = 46.50420 66.23829 56.37124
# Shear Modulus (GPa) = 38.93554 46.24552 42.59053
#
# Velocity S-wave (km/s) = 3.75574 4.09315 3.92807
# Velocity P-wave (km/s) = 5.97118 6.80701 6.40275
#
# Compressibility (1/GPa) = 0.02150343
#
# Stress axis : x y z
#
# Youngs Moduli (GPa) = 138.89700 70.83818 75.49860
#
# Poissons Ratio (x) = 0.26112 0.26383
# Poissons Ratio (y) = 0.51199 -0.04919
# Poissons Ratio (z) = 0.48538 -0.04616
#
# Static dielectric constant tensor:
#      x y z
#    x 2.136640 0.009820 0.013010 
#    y 0.009820 2.102260 -0.002820 
#    z 0.013010 -0.002820 2.190100 
# 
# From -- ./inp_files/287768.got.cif
#   From: 2010.05.17/outbox.cif.g08.bks.cpg/sg2_144_cif.got.tgz:287768.got - 2010.06.03 11:33:40.
