data_PCOD9096211
_publ_section_title
;
Structure prediction by ZEFSAII (Michael W. Deem and Ramdas Pophale) SiO2 
 PCOD9096211
Probable space group: P -1
;
_chemical_formula_sum "Si O2"
_cell_formula_units_Z 16
_cell_length_a 10.020406
_cell_length_b 7.924827
_cell_length_c 9.295963
_cell_angle_alpha 89.404806
_cell_angle_beta 114.272479
_cell_angle_gamma 76.485762
_cell_volume 649.568419
_symmetry_space_group_name_H-M "P -1"
_symmetry_group_IT_number 2
_symmetry_cell_setting 'triclinic'
loop_
_space_group_symop_operation_xyz
x,y,z
-x,-y,-z
loop_
_atom_site_type_symbol
_atom_site_label
_atom_site_fract_x
_atom_site_fract_y
_atom_site_fract_z
Si Si1 0.973755 0.264372 0.551822
Si Si2 0.221209 0.295955 0.212829
Si Si3 0.525166 0.170759 0.209392
Si Si4 0.186857 0.783111 0.982274
Si Si5 0.994930 0.342320 0.849397
Si Si6 0.520385 0.812738 0.142974
Si Si7 0.275586 0.565287 0.752273
Si Si8 0.904937 0.962252 0.666750
O O1 0.072999 0.288739 0.730418
O O2 0.864134 0.420644 0.416342
O O3 0.061912 0.144363 0.466232
O O4 0.869746 0.160497 0.597165
O O5 0.396773 0.270984 0.260914
O O6 0.121410 0.470144 0.243589
O O7 0.202400 0.122920 0.285805
O O8 0.130734 0.323495 0.021846
O O9 0.654519 0.271265 0.254912
O O10 0.572193 0.961586 0.253047
O O11 0.453912 0.179218 0.017222
O O12 0.227839 0.611256 0.897583
O O13 0.061382 0.918424 0.830216
O O14 0.111766 0.747089 0.098022
O O15 0.338708 0.841687 0.077204
O O16 0.601520 0.614147 0.218319
#
# Coordination Sequence:
#
# PCOD9096211 Si02
#       8
#     2   2   2   2   2   2   2   2
#     4  10  22  40  60  85 117 164 196 231 306 372
#     4  10  21  38  59  91 122 144 199 264 291 341
#     4  10  21  37  60  94 118 153 204 253 290 349
#     4   9  18  35  66  87 114 152 203 254 290 345
#     4  10  21  36  63  91 115 155 196 247 309 351
#     4  10  20  35  63  93 114 161 203 242 302 343
#     4  10  20  41  61  85 127 160 193 247 292 359
#     4   9  21  39  60  86 118 155 197 247 299 355
#
# _framework density 24.631737999999999
#
# number of rings (size 3 to 8) (size 9 to 14) (size 15 to 20)
#    0.000    2.250    0.000    3.000    3.500    2.500 
#    4.500    3.125    0.000    0.000    0.000    0.000 
#    0.000    0.000    0.000    0.000    0.000    0.000 
#
# Total GULP energy -89379.035192 kJ/mol
# GULP energy per Si atom -5586.189700 kJ/mol
# Density = 2.457567 g / cm^3
# Si number density = 24.631738 Si / 1000 Ang^3
#
#
#
# Elastic Constant Matrix: (Units=GPa)
#
#
# Indices 1 2 3 4 5 6 
#
# 1 94.6521 12.5713 23.3359 -6.4136 -18.0479 3.7747
# 2 12.5713 65.2192 28.0474 -7.8624 -2.3013 6.0278
# 3 23.3359 28.0474 93.3997 12.1967 -15.5368 0.8077
# 4 -6.4136 -7.8624 12.1967 28.7581 3.7858 -12.4192
# 5 -18.0479 -2.3013 -15.5368 3.7858 23.6460 -6.9362
# 6 3.7747 6.0278 0.8077 -12.4192 -6.9362 27.0357
#
#
#
# Elastic Compliance Matrix: (Units=1/GPa)
#
#
# Indices 1 2 3 4 5 6 
#
# 1 0.012969 -0.001217 -0.001858 0.003151 0.008699 0.002195
# 2 -0.001217 0.019868 -0.007747 0.008520 -0.005929 -0.001636
# 3 -0.001858 -0.007747 0.016722 -0.011474 0.010319 -0.001136
# 4 0.003151 0.008520 -0.011474 0.052330 -0.006723 0.020317
# 5 0.008699 -0.005929 0.010319 -0.006723 0.059740 0.012037
# 6 0.002195 -0.001636 -0.001136 0.020317 0.012037 0.049501
#
#
# Mechanical properties :
#
#
# Convention : Reuss Voigt Hill
#
# Bulk Modulus (GPa) = 35.82307 42.35336 39.08822
# Shear Modulus (GPa) = 20.65427 28.50906 24.58166
#
# Velocity S-wave (km/s) = 2.89887 3.40577 3.16249
# Velocity P-wave (km/s) = 5.07736 5.71818 5.40727
#
# Compressibility (1/GPa) = 0.02791497
#
# Stress axis : x y z
#
# Youngs Moduli (GPa) = 77.10436 50.33174 59.80156
#
# Poissons Ratio (x) = 0.06125 0.11113
# Poissons Ratio (y) = 0.09382 0.46329
# Poissons Ratio (z) = 0.14329 0.38993
#
# Static dielectric constant tensor:
#      x y z
#    x 1.970730 0.086280 0.035110 
#    y 0.086280 2.133850 0.072440 
#    z 0.035110 0.072440 1.943370 
# 
# From -- ./inp_files/243568.got.cif
#   From: 2010.05.17/outbox.cif.g08.bks.cpg/sg2_122_cif.got.tgz:243568.got - 2010.06.03 11:33:40.
