data_PCOD9096469
_publ_section_title
;
Structure prediction by ZEFSAII (Michael W. Deem and Ramdas Pophale) SiO2 
 PCOD9096469
Probable space group: P -1
;
_chemical_formula_sum "Si O2"
_cell_formula_units_Z 16
_cell_length_a 12.173980
_cell_length_b 5.339507
_cell_length_c 21.789117
_cell_angle_alpha 67.863053
_cell_angle_beta 149.076103
_cell_angle_gamma 103.381995
_cell_volume 661.551459
_symmetry_space_group_name_H-M "P -1"
_symmetry_group_IT_number 2
_symmetry_cell_setting 'triclinic'
loop_
_space_group_symop_operation_xyz
x,y,z
-x,-y,-z
loop_
_atom_site_type_symbol
_atom_site_label
_atom_site_fract_x
_atom_site_fract_y
_atom_site_fract_z
Si Si1 0.355202 0.782465 0.430130
Si Si2 0.090166 0.226993 0.104215
Si Si3 0.394827 0.873478 0.670726
Si Si4 0.389025 0.681576 0.826731
Si Si5 0.130594 0.651700 0.882267
Si Si6 0.715775 0.896748 0.154844
Si Si7 0.339538 0.508547 0.568163
Si Si8 0.185407 0.700115 0.234740
O O1 0.500000 0.500000 0.500000
O O2 0.241819 0.681537 0.445412
O O3 0.251588 0.879677 0.305935
O O4 0.500000 0.000000 0.500000
O O5 0.350332 0.170162 0.222134
O O6 0.959354 0.307684 0.096738
O O7 0.045001 0.917344 0.100800
O O8 0.000000 0.500000 0.000000
O O9 0.384352 0.769855 0.745129
O O10 0.292389 0.688870 0.590073
O O11 0.296748 0.199688 0.584757
O O12 0.255966 0.432565 0.795755
O O13 0.317104 0.951828 0.809005
O O14 0.630126 0.537672 0.980273
O O15 0.960103 0.489209 0.785271
O O16 0.124755 0.938057 0.819079
O O17 0.500000 0.000000 0.000000
O O18 0.601129 0.457920 0.682773
#
# Coordination Sequence:
#
# PCOD9096469 Si02
#       8
#     2   2   2   2   2   2   2   2
#     4  10  20  37  56  80 117 157 193 236 284 344
#     4  11  22  35  51  85 125 159 182 226 292 353
#     4  11  21  37  57  86 117 154 195 227 292 357
#     4  11  23  39  59  82 115 158 199 241 280 335
#     4  11  22  36  56  81 118 154 194 237 281 342
#     4  10  23  40  58  79 110 159 207 244 275 318
#     4  10  20  36  55  84 117 150 190 239 287 350
#     4  10  23  33  57  84 119 157 194 232 289 350
#
# _framework density 24.185569999999998
#
# number of rings (size 3 to 8) (size 9 to 14) (size 15 to 20)
#    0.000    1.500    2.500    4.500    7.000    1.500 
#    0.000    0.000    0.000    0.000    0.000    5.250 
#    0.000    0.000    0.000    0.000    0.000    0.000 
#
# Total GULP energy -89287.855901 kJ/mol
# GULP energy per Si atom -5580.490994 kJ/mol
# Density = 2.413052 g / cm^3
# Si number density = 24.185570 Si / 1000 Ang^3
#
#
#
# Elastic Constant Matrix: (Units=GPa)
#
#
# Indices 1 2 3 4 5 6 
#
# 1 107.2741 31.0233 20.5270 6.3259 -41.3675 -0.3503
# 2 31.0233 168.8642 32.4854 -4.9559 -13.3277 4.1490
# 3 20.5270 32.4854 52.2755 -26.4314 -18.1064 7.6747
# 4 6.3259 -4.9559 -26.4314 29.7052 6.7696 -4.3482
# 5 -41.3675 -13.3277 -18.1064 6.7696 19.4742 -6.8401
# 6 -0.3503 4.1490 7.6747 -4.3482 -6.8401 39.8804
#
#
#
# Elastic Compliance Matrix: (Units=1/GPa)
#
#
# Indices 1 2 3 4 5 6 
#
# 1 -0.607392 0.023309 -0.103161 0.368440 -1.574785 -0.217837
# 2 0.023309 0.006217 -0.002891 -0.019092 0.060682 0.008440
# 3 -0.103161 -0.002891 0.037585 0.103073 -0.234959 -0.036899
# 4 0.368440 -0.019092 0.103073 -0.157032 0.967116 0.134141
# 5 -1.574785 0.060682 -0.234959 0.967116 -4.002213 -0.555926
# 6 -0.217837 0.008440 -0.036899 0.134141 -0.555926 -0.051340
#
#
# Mechanical properties :
#
#
# Convention : Reuss Voigt Hill
#
# Bulk Modulus (GPa) = -1.37160 55.16502 26.89671
# Shear Modulus (GPa) = -1.03056 34.10385 16.53664
#
# Velocity S-wave (km/s) = -0.65348 3.75919 2.61768
# Velocity P-wave (km/s) = 1.06664 6.45760 4.50349
#
# Compressibility (1/GPa) = -0.72907464
#
# Stress axis : x y z
#
# Youngs Moduli (GPa) = -1.64638 160.83873 26.60651
#
# Poissons Ratio (x) = -3.74898 2.74474
# Poissons Ratio (y) = 0.03838 0.07691
# Poissons Ratio (z) = -0.16984 0.46493
#
# Static dielectric constant tensor:
#      x y z
#    x 1.913030 0.096550 0.011340 
#    y 0.096550 2.040820 -0.016490 
#    z 0.011340 -0.016490 2.179610 
# 
# From -- ./inp_files/592694.got.cif
#   From: 2010.05.17/outbox.cif.g08.bks.cpg/sg2_297_cif.got.tgz:592694.got - 2010.06.03 11:33:40.
