data_PCOD9096087
_publ_section_title
;
Structure prediction by ZEFSAII (Michael W. Deem and Ramdas Pophale) SiO2 
 PCOD9096087
Probable space group: P -1
;
_chemical_formula_sum "Si O2"
_cell_formula_units_Z 16
_cell_length_a 8.475131
_cell_length_b 15.390265
_cell_length_c 14.897956
_cell_angle_alpha 154.162475
_cell_angle_beta 120.957256
_cell_angle_gamma 58.908301
_cell_volume 718.790865
_symmetry_space_group_name_H-M "P -1"
_symmetry_group_IT_number 2
_symmetry_cell_setting 'triclinic'
loop_
_space_group_symop_operation_xyz
x,y,z
-x,-y,-z
loop_
_atom_site_type_symbol
_atom_site_label
_atom_site_fract_x
_atom_site_fract_y
_atom_site_fract_z
Si Si1 0.535070 0.214827 0.676964
Si Si2 0.478128 0.687514 0.891908
Si Si3 0.018922 0.829301 0.767688
Si Si4 0.683797 0.965367 0.965757
Si Si5 0.264415 0.400239 0.481584
Si Si6 0.085776 0.406419 0.076353
Si Si7 0.736123 0.406721 0.078681
Si Si8 0.110728 0.779466 0.321781
O O1 0.344671 0.358119 0.734254
O O2 0.674458 0.212335 0.631458
O O3 0.500000 0.000000 0.500000
O O4 0.640366 0.306755 0.875217
O O5 0.451883 0.479844 0.639038
O O6 0.698893 0.692455 0.961134
O O7 0.358911 0.670723 0.932353
O O8 0.378713 0.886634 0.998845
O O9 0.135521 0.616034 0.633259
O O10 0.825980 0.748574 0.614790
O O11 0.150609 0.941388 0.847783
O O12 0.000000 0.000000 0.000000
O O13 0.727240 0.735806 0.731644
O O14 0.500000 0.000000 0.000000
O O15 0.086732 0.641946 0.272923
O O16 0.958288 0.376827 0.098634
O O17 0.977063 0.323112 0.884077
O O18 0.000000 0.000000 0.500000
#
# Coordination Sequence:
#
# PCOD9096087 Si02
#       8
#     2   2   2   2   2   2   2   2
#     4  10  20  35  62  87 116 166 209 249 303 370
#     4  11  23  40  60  89 127 161 198 267 311 367
#     4   8  16  36  63  87 114 148 195 243 297 378
#     4  10  22  41  62  91 121 158 204 256 317 372
#     4   9  19  38  62  89 115 156 198 243 318 373
#     4  10  22  40  56  88 123 159 205 257 306 360
#     4  10  22  40  57  86 123 160 207 254 308 362
#     4  10  20  35  62  87 119 163 209 252 303 366
#
# _framework density 22.259604
#
# number of rings (size 3 to 8) (size 9 to 14) (size 15 to 20)
#    0.000    2.250    1.250    0.750    3.500    4.000 
#   15.750    0.000    0.000    0.000    0.000    0.000 
#    0.000    0.000    0.000    0.000    0.000    0.000 
#
# Total GULP energy -89086.892751 kJ/mol
# GULP energy per Si atom -5567.930797 kJ/mol
# Density = 2.220894 g / cm^3
# Si number density = 22.259604 Si / 1000 Ang^3
#
#
#
# Elastic Constant Matrix: (Units=GPa)
#
#
# Indices 1 2 3 4 5 6 
#
# 1 160.1800 28.0840 42.2483 10.8026 12.6617 -4.9450
# 2 28.0840 54.3130 16.6604 20.9130 -2.3664 0.2929
# 3 42.2483 16.6604 103.1558 26.2772 -5.8669 -0.1841
# 4 10.8026 20.9130 26.2772 28.2031 -8.7234 4.3352
# 5 12.6617 -2.3664 -5.8669 -8.7234 26.7980 -3.5532
# 6 -4.9450 0.2929 -0.1841 4.3352 -3.5532 26.9908
#
#
#
# Elastic Compliance Matrix: (Units=1/GPa)
#
#
# Indices 1 2 3 4 5 6 
#
# 1 0.008057 -0.003897 -0.003274 0.001412 -0.004316 0.000701
# 2 -0.003897 0.028415 0.002811 -0.023279 -0.002289 0.002434
# 3 -0.003274 0.002811 0.014234 -0.014208 0.000528 0.001818
# 4 0.001412 -0.023279 -0.014208 0.071858 0.016368 -0.008972
# 5 -0.004316 -0.002289 0.000528 0.016368 0.044932 0.002524
# 6 0.000701 0.002434 0.001818 -0.008972 0.002524 0.038938
#
#
# Mechanical properties :
#
#
# Convention : Reuss Voigt Hill
#
# Bulk Modulus (GPa) = 23.81813 54.62601 39.22207
# Shear Modulus (GPa) = 21.81977 31.77544 26.79761
#
# Velocity S-wave (km/s) = 3.13428 3.78232 3.47344
# Velocity P-wave (km/s) = 4.88074 6.60820 5.80904
#
# Compressibility (1/GPa) = 0.04198483
#
# Stress axis : x y z
#
# Youngs Moduli (GPa) = 124.10800 35.19231 70.25575
#
# Poissons Ratio (x) = 0.13716 0.23005
# Poissons Ratio (y) = 0.48370 -0.19749
# Poissons Ratio (z) = 0.40638 -0.09892
#
# Static dielectric constant tensor:
#      x y z
#    x 2.007500 -0.050540 0.035410 
#    y -0.050540 1.832570 -0.040000 
#    z 0.035410 -0.040000 1.814050 
# 
# From -- ./inp_files/562143.got.cif
#   From: 2010.05.17/outbox.cif.g08.bks.cpg/sg2_282_cif.got.tgz:562143.got - 2010.06.03 11:33:40.
