data_PCOD9096751
_publ_section_title
;
Structure prediction by ZEFSAII (Michael W. Deem and Ramdas Pophale) SiO2 
 PCOD9096751
Probable space group: P -1
;
_chemical_formula_sum "Si O2"
_cell_formula_units_Z 16
_cell_length_a 11.611072
_cell_length_b 12.136029
_cell_length_c 17.497332
_cell_angle_alpha 49.893398
_cell_angle_beta 31.231385
_cell_angle_gamma 37.995942
_cell_volume 783.588384
_symmetry_space_group_name_H-M "P -1"
_symmetry_group_IT_number 2
_symmetry_cell_setting 'triclinic'
loop_
_space_group_symop_operation_xyz
x,y,z
-x,-y,-z
loop_
_atom_site_type_symbol
_atom_site_label
_atom_site_fract_x
_atom_site_fract_y
_atom_site_fract_z
Si Si1 0.843094 0.768681 0.477327
Si Si2 0.123593 0.597890 0.247762
Si Si3 0.084765 0.134039 0.981825
Si Si4 0.933797 0.253366 0.473694
Si Si5 0.405145 0.338454 0.543971
Si Si6 0.715025 0.131866 0.317481
Si Si7 0.402316 0.875269 0.313897
Si Si8 0.656270 0.253422 0.046533
O O1 0.545836 0.808113 0.615822
O O2 0.067020 0.610605 0.363884
O O3 0.945329 0.736227 0.519839
O O4 0.808029 0.944943 0.385954
O O5 0.337796 0.400455 0.180519
O O6 0.824793 0.690771 0.337401
O O7 0.253734 0.698292 0.102721
O O8 0.300065 0.177987 0.854707
O O9 0.257540 0.944117 0.923417
O O10 0.948438 0.118433 0.141236
O O11 0.831439 0.262810 0.010293
O O12 0.759288 0.449021 0.446525
O O13 0.731357 0.196198 0.630394
O O14 0.180318 0.089572 0.356318
O O15 0.604946 0.271584 0.387321
O O16 0.557400 0.218413 0.585005
#
# Coordination Sequence:
#
# PCOD9096751 Si02
#       8
#     2   2   2   2   2   2   2   2
#     4  10  21  39  61  89 127 161 200 250 309 368
#     4  10  20  36  57  94 120 156 195 257 304 366
#     4  11  22  37  60  92 125 163 193 253 319 358
#     4  11  25  41  68  86 118 172 213 248 295 369
#     4  11  22  41  66  91 121 160 210 255 301 363
#     4  10  22  36  65  93 124 158 196 255 319 363
#     4  11  24  45  63  89 123 163 215 253 295 361
#     4  10  21  32  59  89 127 153 196 248 315 366
#
# _framework density 20.418885
#
# number of rings (size 3 to 8) (size 9 to 14) (size 15 to 20)
#    0.000    1.500    3.750    1.125    7.000    1.000 
#    0.000    1.250    0.000    0.000    0.000    0.000 
#    0.000    0.000    0.000    0.000    0.000    0.000 
#
# Total GULP energy -89442.742982 kJ/mol
# GULP energy per Si atom -5590.171436 kJ/mol
# Density = 2.037241 g / cm^3
# Si number density = 20.418885 Si / 1000 Ang^3
#
#
#
# Elastic Constant Matrix: (Units=GPa)
#
#
# Indices 1 2 3 4 5 6 
#
# 1 45.4370 7.9688 23.7041 -4.3564 -7.7462 0.6136
# 2 7.9688 77.6747 4.3520 5.7783 7.6745 -4.4455
# 3 23.7041 4.3520 107.8301 -3.5423 -13.3126 3.9114
# 4 -4.3564 5.7783 -3.5423 25.9927 0.7991 -1.3198
# 5 -7.7462 7.6745 -13.3126 0.7991 21.5541 -1.9009
# 6 0.6136 -4.4455 3.9114 -1.3198 -1.9009 22.5995
#
#
#
# Elastic Compliance Matrix: (Units=1/GPa)
#
#
# Indices 1 2 3 4 5 6 
#
# 1 0.026829 -0.003587 -0.004641 0.004433 0.007914 0.000294
# 2 -0.003587 0.014332 -0.000799 -0.003578 -0.006551 0.002295
# 3 -0.004641 -0.000799 0.011054 0.000670 0.005291 -0.001460
# 4 0.004433 -0.003578 0.000670 0.040122 0.001931 0.001565
# 5 0.007914 -0.006551 0.005291 0.001931 0.054972 0.002317
# 6 0.000294 0.002295 -0.001460 0.001565 0.002317 0.045231
#
#
# Mechanical properties :
#
#
# Convention : Reuss Voigt Hill
#
# Bulk Modulus (GPa) = 29.27397 33.66575 31.46986
# Shear Modulus (GPa) = 22.52420 27.02370 24.77395
#
# Velocity S-wave (km/s) = 3.32491 3.64189 3.48700
# Velocity P-wave (km/s) = 5.39517 5.84875 5.62653
#
# Compressibility (1/GPa) = 0.03416004
#
# Stress axis : x y z
#
# Youngs Moduli (GPa) = 37.27291 69.77488 90.46095
#
# Poissons Ratio (x) = 0.25031 0.41982
# Poissons Ratio (y) = 0.13371 0.07231
# Poissons Ratio (z) = 0.17298 0.05578
#
# Static dielectric constant tensor:
#      x y z
#    x 1.723080 -0.002900 -0.006810 
#    y -0.002900 1.775460 -0.009690 
#    z -0.006810 -0.009690 1.727750 
# 
# From -- ./inp_files/179332.got.cif
#   From: 2010.05.17/outbox.cif.g08.bks.cpg/sg2_90_cif.got.tgz:179332.got - 2010.06.03 11:33:40.
