data_PCOD9096894
_publ_section_title
;
Structure prediction by ZEFSAII (Michael W. Deem and Ramdas Pophale) SiO2 
 PCOD9096894
Probable space group: P -1
;
_chemical_formula_sum "Si O2"
_cell_formula_units_Z 14
_cell_length_a 10.680176
_cell_length_b 13.483003
_cell_length_c 10.303190
_cell_angle_alpha 144.414781
_cell_angle_beta 53.889001
_cell_angle_gamma 111.544711
_cell_volume 677.386840
_symmetry_space_group_name_H-M "P -1"
_symmetry_group_IT_number 2
_symmetry_cell_setting 'triclinic'
loop_
_space_group_symop_operation_xyz
x,y,z
-x,-y,-z
loop_
_atom_site_type_symbol
_atom_site_label
_atom_site_fract_x
_atom_site_fract_y
_atom_site_fract_z
Si Si1 0.014454 0.083663 0.721759
Si Si2 0.374482 0.035945 0.416820
Si Si3 0.611478 0.344052 0.939227
Si Si4 0.610389 0.785500 0.682837
Si Si5 0.604636 0.277784 0.582098
Si Si6 0.853926 0.439596 0.091493
Si Si7 0.726476 0.069250 0.043383
O O1 0.199788 0.058596 0.609323
O O2 0.932450 0.288837 0.981686
O O3 0.900253 0.017771 0.820667
O O4 0.000000 0.000000 0.500000
O O5 0.354130 0.114892 0.366243
O O6 0.474831 0.159654 0.554039
O O7 0.445682 0.827283 0.161621
O O8 0.665338 0.312584 0.723162
O O9 0.482887 0.531533 0.219567
O O10 0.757947 0.360851 0.957147
O O11 0.724379 0.595498 0.401985
O O12 0.420242 0.798964 0.806237
O O13 0.660623 0.893919 0.885341
O O14 0.722949 0.162269 0.282891
O O15 0.000000 0.500000 0.000000
#
# Coordination Sequence:
#
# PCOD9096894 Si02
#       7
#     2   2   2   2   2   2   2
#     4  12  21  34  60  87 118 153 199 245 301 358
#     4  11  20  39  62  90 115 158 199 244 293 355
#     4  11  21  38  67  87 115 162 204 234 299 355
#     4  10  20  36  58  86 125 150 193 253 297 345
#     4  10  23  42  60  88 122 157 199 249 283 364
#     4  12  20  36  63  92 119 154 195 253 297 350
#     4  10  20  38  54  87 124 151 194 248 300 346
#
# _framework density 20.667660000000001
#
# number of rings (size 3 to 8) (size 9 to 14) (size 15 to 20)
#    0.000    1.143    7.143    0.429    0.000    0.571 
#    7.714    0.714    0.000    4.286    0.000    0.000 
#    0.000    0.000    0.000    0.000    0.000    0.000 
#
# Total GULP energy -78123.305526 kJ/mol
# GULP energy per Si atom -5580.236109 kJ/mol
# Density = 2.062062 g / cm^3
# Si number density = 20.667660 Si / 1000 Ang^3
#
#
#
# Elastic Constant Matrix: (Units=GPa)
#
#
# Indices 1 2 3 4 5 6 
#
# 1 26.9573 12.8863 25.1152 -1.4160 1.0577 8.0400
# 2 12.8863 62.7809 21.2118 0.8171 -10.7088 11.7016
# 3 25.1152 21.2118 130.9953 1.5252 8.2367 7.6908
# 4 -1.4160 0.8171 1.5252 53.0924 -2.3247 -8.0911
# 5 1.0577 -10.7088 8.2367 -2.3247 34.1747 -8.0141
# 6 8.0400 11.7016 7.6908 -8.0911 -8.0141 26.4144
#
#
#
# Elastic Compliance Matrix: (Units=1/GPa)
#
#
# Indices 1 2 3 4 5 6 
#
# 1 0.051124 -0.006412 -0.007773 -0.000332 -0.004540 -0.011936
# 2 -0.006412 0.019813 -0.002048 -0.000893 0.005722 -0.004766
# 3 -0.007773 -0.002048 0.009686 -0.000681 -0.002933 -0.000645
# 4 -0.000332 -0.000893 -0.000681 0.020187 0.003101 0.007820
# 5 -0.004540 0.005722 -0.002933 0.003101 0.034737 0.011190
# 6 -0.011936 -0.004766 -0.000645 0.007820 0.011190 0.049581
#
#
# Mechanical properties :
#
#
# Convention : Reuss Voigt Hill
#
# Bulk Modulus (GPa) = 20.76653 37.68447 29.22550
# Shear Modulus (GPa) = 21.39974 33.50429 27.45202
#
# Velocity S-wave (km/s) = 3.22129 4.03065 3.64848
# Velocity P-wave (km/s) = 4.88930 6.31939 5.64978
#
# Compressibility (1/GPa) = 0.04815442
#
# Stress axis : x y z
#
# Youngs Moduli (GPa) = 19.56037 50.47254 103.24010
#
# Poissons Ratio (x) = 0.32365 0.80252
# Poissons Ratio (y) = 0.12543 0.21147
# Poissons Ratio (z) = 0.15205 0.10339
#
# Static dielectric constant tensor:
#      x y z
#    x 1.765830 0.031790 -0.020060 
#    y 0.031790 1.867760 -0.042470 
#    z -0.020060 -0.042470 1.802120 
# 
# From -- ./inp_files/272419.got.cif
#   From: 2010.05.17/outbox.cif.g08.bks.cpg/sg2_137_cif.got.tgz:272419.got - 2010.06.03 11:33:40.
