data_PCOD9096568
_publ_section_title
;
Structure prediction by ZEFSAII (Michael W. Deem and Ramdas Pophale) SiO2 
 PCOD9096568
Probable space group: P -1
;
_chemical_formula_sum "Si O2"
_cell_formula_units_Z 14
_cell_length_a 7.273115
_cell_length_b 15.031254
_cell_length_c 6.965668
_cell_angle_alpha 68.318113
_cell_angle_beta 70.010854
_cell_angle_gamma 107.279238
_cell_volume 581.647893
_symmetry_space_group_name_H-M "P -1"
_symmetry_group_IT_number 2
_symmetry_cell_setting 'triclinic'
loop_
_space_group_symop_operation_xyz
x,y,z
-x,-y,-z
loop_
_atom_site_type_symbol
_atom_site_label
_atom_site_fract_x
_atom_site_fract_y
_atom_site_fract_z
Si Si1 0.878652 0.609319 0.386609
Si Si2 0.530459 0.233697 0.304519
Si Si3 0.985355 0.308533 0.321602
Si Si4 0.236974 0.547360 0.133694
Si Si5 0.146345 0.228653 0.005459
Si Si6 0.258780 0.088443 0.846651
Si Si7 0.372305 0.927057 0.788265
O O1 0.711774 0.500381 0.652097
O O2 0.781227 0.663339 0.234205
O O3 0.010848 0.694169 0.446787
O O4 0.053561 0.582613 0.235403
O O5 0.743641 0.262050 0.347148
O O6 0.323022 0.160031 0.571864
O O7 0.543779 0.162119 0.180226
O O8 0.569715 0.349804 0.122810
O O9 0.121030 0.439293 0.130787
O O10 0.112508 0.252286 0.217217
O O11 0.287804 0.170628 0.941587
O O12 0.891600 0.146663 0.096188
O O13 0.390896 0.019176 0.857969
O O14 0.000000 0.000000 0.000000
O O15 0.500000 0.000000 0.500000
#
# Coordination Sequence:
#
# PCOD9096568 Si02
#       7
#     2   2   2   2   2   2   2
#     4   9  18  29  51  80 103 133 168 198 257 301
#     4  10  16  30  55  79  98 135 170 209 256 285
#     4   9  18  29  54  77 109 122 172 212 237 307
#     4   9  17  29  51  83 103 127 169 207 249 301
#     4  10  17  32  52  72 104 141 159 201 269 291
#     4   9  19  32  52  76 100 137 175 207 253 307
#     4   8  15  28  51  75  89 123 180 211 238 290
#
# _framework density 24.069542999999999
#
# number of rings (size 3 to 8) (size 9 to 14) (size 15 to 20)
#    0.857    2.000    2.857    0.429    0.000    0.000 
#    0.000    1.429    3.143   27.429    0.000    0.000 
#    0.000    0.000    0.000    0.000    0.000    0.000 
#
# Total GULP energy -78050.948144 kJ/mol
# GULP energy per Si atom -5575.067725 kJ/mol
# Density = 2.401476 g / cm^3
# Si number density = 24.069543 Si / 1000 Ang^3
#
#
#
# Elastic Constant Matrix: (Units=GPa)
#
#
# Indices 1 2 3 4 5 6 
#
# 1 58.1612 18.5342 37.7559 0.8276 3.5193 15.4352
# 2 18.5342 156.5579 42.2349 20.0452 -6.1034 -31.5202
# 3 37.7559 42.2349 128.5559 -18.9467 -13.8344 12.5112
# 4 0.8276 20.0452 -18.9467 52.2178 -1.3914 -10.0555
# 5 3.5193 -6.1034 -13.8344 -1.3914 9.1143 14.1254
# 6 15.4352 -31.5202 12.5112 -10.0555 14.1254 -2.9266
#
#
#
# Elastic Compliance Matrix: (Units=1/GPa)
#
#
# Indices 1 2 3 4 5 6 
#
# 1 0.026556 -0.000922 -0.010802 -0.004989 -0.025410 -0.001690
# 2 -0.000922 0.006396 -0.000474 -0.003374 0.012131 -0.005631
# 3 -0.010802 -0.000474 0.011894 0.006820 0.007174 0.010178
# 4 -0.004989 -0.003374 0.006820 0.023779 0.009381 0.002754
# 5 -0.025410 0.012131 0.007174 0.009381 0.065161 0.048273
# 6 -0.001690 -0.005631 0.010178 0.002754 0.048273 -0.022921
#
#
# Mechanical properties :
#
#
# Convention : Reuss Voigt Hill
#
# Bulk Modulus (GPa) = 48.90031 60.03613 54.46822
# Shear Modulus (GPa) = 35.19189 27.99778 31.59483
#
# Velocity S-wave (km/s) = 3.82788 3.41428 3.62698
# Velocity P-wave (km/s) = 6.31643 6.36710 6.34181
#
# Compressibility (1/GPa) = 0.02044977
#
# Stress axis : x y z
#
# Youngs Moduli (GPa) = 37.65562 156.35577 84.07876
#
# Poissons Ratio (x) = 0.14415 0.90821
# Poissons Ratio (y) = 0.03472 0.03987
# Poissons Ratio (z) = 0.40675 0.07414
#
# Static dielectric constant tensor:
#      x y z
#    x 1.920790 0.002700 0.003040 
#    y 0.002700 1.951930 0.154210 
#    z 0.003040 0.154210 1.248390 
# 
# From -- ./inp_files/267554.got.cif
#   From: 2010.05.17/outbox.cif.g08.bks.cpg/sg2_134_cif.got.tgz:267554.got - 2010.06.03 11:33:40.
