data_PCOD9096830
_publ_section_title
;
Structure prediction by ZEFSAII (Michael W. Deem and Ramdas Pophale) SiO2 
 PCOD9096830
Probable space group: P -1
;
_chemical_formula_sum "Si O2"
_cell_formula_units_Z 16
_cell_length_a 18.522594
_cell_length_b 13.217612
_cell_length_c 6.150110
_cell_angle_alpha 53.254911
_cell_angle_beta 54.124822
_cell_angle_gamma 34.618135
_cell_volume 670.759355
_symmetry_space_group_name_H-M "P -1"
_symmetry_group_IT_number 2
_symmetry_cell_setting 'triclinic'
loop_
_space_group_symop_operation_xyz
x,y,z
-x,-y,-z
loop_
_atom_site_type_symbol
_atom_site_label
_atom_site_fract_x
_atom_site_fract_y
_atom_site_fract_z
Si Si1 0.941400 0.644653 0.226625
Si Si2 0.641347 0.539602 0.754469
Si Si3 0.866916 0.488224 0.326247
Si Si4 0.056796 0.136411 0.766286
Si Si5 0.417138 0.956345 0.710246
Si Si6 0.178278 0.785870 0.803144
Si Si7 0.572758 0.060276 0.795394
Si Si8 0.578917 0.518493 0.479380
O O1 0.846024 0.645214 0.276547
O O2 0.890771 0.823903 0.194558
O O3 0.000000 0.500000 0.500000
O O4 0.057128 0.562931 0.963889
O O5 0.734409 0.548504 0.464451
O O6 0.524395 0.734938 0.816015
O O7 0.579310 0.502868 0.753523
O O8 0.738138 0.369408 0.961243
O O9 0.966539 0.307441 0.537436
O O10 0.159920 0.950175 0.687477
O O11 0.962440 0.133658 0.057546
O O12 0.366865 0.997365 0.487531
O O13 0.500000 0.000000 0.500000
O O14 0.356188 0.010251 0.998592
O O15 0.268379 0.661994 0.602895
O O16 0.478829 0.279987 0.694425
O O17 0.500000 0.000000 0.000000
O O18 0.500000 0.500000 0.500000
#
# Coordination Sequence:
#
# PCOD9096830 Si02
#       8
#     2   2   2   2   2   2   2   2
#     4   9  17  33  54  81 117 151 188 245 306 355
#     4  10  20  36  58  84 111 160 204 246 306 373
#     4   9  18  33  59  85 117 153 199 242 305 372
#     4   9  19  34  59  87 116 155 195 253 297 369
#     4   9  17  33  58  84 113 148 202 255 304 364
#     4  10  20  37  58  84 118 155 205 242 309 374
#     4   9  18  36  60  84 113 155 204 260 311 371
#     4  11  23  38  59  83 119 162 206 256 315 373
#
# _framework density 23.853560999999999
#
# number of rings (size 3 to 8) (size 9 to 14) (size 15 to 20)
#    0.000    2.500    1.250    0.750    0.000    1.500 
#    0.000    7.500   27.500    0.000    0.000    0.000 
#    0.000    0.000    0.000    0.000    0.000    0.000 
#
# Total GULP energy -89120.457342 kJ/mol
# GULP energy per Si atom -5570.028584 kJ/mol
# Density = 2.379927 g / cm^3
# Si number density = 23.853561 Si / 1000 Ang^3
#
#
#
# Elastic Constant Matrix: (Units=GPa)
#
#
# Indices 1 2 3 4 5 6 
#
# 1 93.3266 59.1235 50.1282 16.5324 6.7379 33.8839
# 2 59.1235 104.9386 22.3480 -10.9957 0.8552 43.4343
# 3 50.1282 22.3480 105.3527 25.2150 5.7279 15.6024
# 4 16.5324 -10.9957 25.2150 25.4718 10.3364 5.2498
# 5 6.7379 0.8552 5.7279 10.3364 27.5041 -0.8284
# 6 33.8839 43.4343 15.6024 5.2498 -0.8284 42.0773
#
#
#
# Elastic Compliance Matrix: (Units=1/GPa)
#
#
# Indices 1 2 3 4 5 6 
#
# 1 0.027395 -0.016494 -0.004447 -0.021496 0.002787 -0.000649
# 2 -0.016494 0.035471 -0.004948 0.041515 -0.012444 -0.026922
# 3 -0.004447 -0.004948 0.015962 -0.018083 0.004869 0.005122
# 4 -0.021496 0.041515 -0.018083 0.109908 -0.034565 -0.033231
# 5 0.002787 -0.012444 0.004869 -0.034565 0.048462 0.014063
# 6 -0.000649 -0.026922 0.005122 -0.033231 0.014063 0.054602
#
#
# Mechanical properties :
#
#
# Convention : Reuss Voigt Hill
#
# Bulk Modulus (GPa) = 36.97015 62.97969 49.97492
# Shear Modulus (GPa) = 14.18061 30.47853 22.32957
#
# Velocity S-wave (km/s) = 2.44085 3.57842 3.06291
# Velocity P-wave (km/s) = 4.84522 6.59798 5.78833
#
# Compressibility (1/GPa) = 0.02704885
#
# Stress axis : x y z
#
# Youngs Moduli (GPa) = 36.50273 28.19234 62.64898
#
# Poissons Ratio (x) = 0.46502 0.27858
# Poissons Ratio (y) = 0.60209 0.31001
# Poissons Ratio (z) = 0.16231 0.13951
#
# Static dielectric constant tensor:
#      x y z
#    x 1.928370 0.005580 0.040990 
#    y 0.005580 1.870700 0.049570 
#    z 0.040990 0.049570 1.982400 
# 
# From -- ./inp_files/108824.got.cif
#   From: 2010.05.17/outbox.cif.g08.bks.cpg/sg2_55_cif.got.tgz:108824.got - 2010.06.03 11:33:40.
