data_PCOD9096137
_publ_section_title
;
Structure prediction by ZEFSAII (Michael W. Deem and Ramdas Pophale) SiO2 
 PCOD9096137
Probable space group: P -1
;
_chemical_formula_sum "Si O2"
_cell_formula_units_Z 12
_cell_length_a 11.843240
_cell_length_b 12.157853
_cell_length_c 7.067411
_cell_angle_alpha 104.379377
_cell_angle_beta 149.313491
_cell_angle_gamma 61.960305
_cell_volume 430.040143
_symmetry_space_group_name_H-M "P -1"
_symmetry_group_IT_number 2
_symmetry_cell_setting 'triclinic'
loop_
_space_group_symop_operation_xyz
x,y,z
-x,-y,-z
loop_
_atom_site_type_symbol
_atom_site_label
_atom_site_fract_x
_atom_site_fract_y
_atom_site_fract_z
Si Si1 0.775361 0.515359 0.823917
Si Si2 0.426611 0.190121 0.350259
Si Si3 0.118532 0.111876 0.137638
Si Si4 0.570948 0.551025 0.931488
Si Si5 0.308757 0.834462 0.753498
Si Si6 0.854591 0.877770 0.382798
O O1 0.572691 0.675147 0.585168
O O2 0.800823 0.485262 0.075117
O O3 0.660923 0.433581 0.529296
O O4 0.000000 0.500000 0.000000
O O5 0.249260 0.184707 0.257167
O O6 0.686228 0.046934 0.674304
O O7 0.273916 0.191804 0.941598
O O8 0.091505 0.146561 0.331312
O O9 0.136983 0.856901 0.328773
O O10 0.546237 0.686930 0.021773
O O11 0.500000 0.500000 0.000000
O O12 0.123145 0.839718 0.654442
O O13 0.331185 0.963326 0.857321
#
# Coordination Sequence:
#
# PCOD9096137 Si02
#       6
#     2   2   2   2   2   2
#     4  11  25  47  69  96 135 175 224 277 324 388
#     4  10  22  37  60  97 128 163 215 262 323 394
#     4  10  20  36  61  92 129 168 204 263 333 388
#     4  11  27  46  69  97 130 179 229 273 325 388
#     4  10  22  39  59  93 129 163 215 266 322 391
#     4  10  20  35  62  92 127 167 206 261 330 391
#
# _framework density 27.904371999999999
#
# number of rings (size 3 to 8) (size 9 to 14) (size 15 to 20)
#    0.000    1.667    0.000    4.000    0.000   11.333 
#    0.000    0.000    0.000    0.000    0.000    0.000 
#    0.000    0.000    0.000    0.000    0.000    0.000 
#
# Total GULP energy -67270.065179 kJ/mol
# GULP energy per Si atom -5605.838765 kJ/mol
# Density = 2.784086 g / cm^3
# Si number density = 27.904372 Si / 1000 Ang^3
#
#
#
# Elastic Constant Matrix: (Units=GPa)
#
#
# Indices 1 2 3 4 5 6 
#
# 1 174.5916 54.2093 31.3548 -10.7553 -29.4713 4.2297
# 2 54.2093 145.2261 14.4687 12.6338 -5.9582 16.2450
# 3 31.3548 14.4687 101.8144 7.5421 -26.9967 -7.2510
# 4 -10.7553 12.6338 7.5421 27.0251 3.0586 0.5721
# 5 -29.4713 -5.9582 -26.9967 3.0586 47.7035 8.5173
# 6 4.2297 16.2450 -7.2510 0.5721 8.5173 50.4242
#
#
#
# Elastic Compliance Matrix: (Units=1/GPa)
#
#
# Indices 1 2 3 4 5 6 
#
# 1 0.007769 -0.002947 -0.001436 0.004494 0.003427 -0.000539
# 2 -0.002947 0.008729 -0.000138 -0.005159 -0.000027 -0.002522
# 3 -0.001436 -0.000138 0.012345 -0.004676 0.006213 0.000944
# 4 0.004494 -0.005159 -0.004676 0.042876 -0.003388 0.000698
# 5 0.003427 -0.000027 0.006213 -0.003388 0.027523 -0.003996
# 6 -0.000539 -0.002522 0.000944 0.000698 -0.003996 0.021492
#
#
# Mechanical properties :
#
#
# Convention : Reuss Voigt Hill
#
# Bulk Modulus (GPa) = 50.50263 69.07753 59.79008
# Shear Modulus (GPa) = 36.66318 46.47051 41.56685
#
# Velocity S-wave (km/s) = 3.62869 4.08530 3.86374
# Velocity P-wave (km/s) = 5.97447 6.86015 6.43257
#
# Compressibility (1/GPa) = 0.01980095
#
# Stress axis : x y z
#
# Youngs Moduli (GPa) = 128.71771 114.55678 81.00692
#
# Poissons Ratio (x) = 0.33759 0.11636
# Poissons Ratio (y) = 0.37932 0.01115
# Poissons Ratio (z) = 0.18489 0.01577
#
# Static dielectric constant tensor:
#      x y z
#    x 2.280180 -0.038980 0.004940 
#    y -0.038980 2.094710 -0.066160 
#    z 0.004940 -0.066160 2.115200 
# 
# From -- ./inp_files/67733.got.cif
#   From: 2010.05.17/outbox.cif.g08.bks.cpg/sg2_34_cif.got.tgz:67733.got - 2010.06.03 11:33:40.
