data_PCOD9096703
_publ_section_title
;
Structure prediction by ZEFSAII (Michael W. Deem and Ramdas Pophale) SiO2 
 PCOD9096703
Probable space group: P -1
;
_chemical_formula_sum "Si O2"
_cell_formula_units_Z 16
_cell_length_a 8.967136
_cell_length_b 12.418756
_cell_length_c 13.596161
_cell_angle_alpha 83.227815
_cell_angle_beta 73.421146
_cell_angle_gamma 32.893218
_cell_volume 766.241673
_symmetry_space_group_name_H-M "P -1"
_symmetry_group_IT_number 2
_symmetry_cell_setting 'triclinic'
loop_
_space_group_symop_operation_xyz
x,y,z
-x,-y,-z
loop_
_atom_site_type_symbol
_atom_site_label
_atom_site_fract_x
_atom_site_fract_y
_atom_site_fract_z
Si Si1 0.698672 0.369154 0.739562
Si Si2 0.740321 0.772055 0.573290
Si Si3 0.759804 0.834293 0.269371
Si Si4 0.331063 0.166483 0.930615
Si Si5 0.263009 0.455877 0.900303
Si Si6 0.361051 0.417906 0.406703
Si Si7 0.890008 0.518113 0.282672
Si Si8 0.692902 0.233470 0.558819
O O1 0.495082 0.412380 0.838626
O O2 0.556561 0.567460 0.709624
O O3 0.740426 0.288296 0.633487
O O4 0.004294 0.211000 0.752790
O O5 0.606795 0.731771 0.580602
O O6 0.010004 0.640114 0.465330
O O7 0.909251 0.657340 0.657239
O O8 0.488116 0.006634 0.617516
O O9 0.617849 0.911658 0.179330
O O10 0.936261 0.618150 0.265566
O O11 0.400718 0.254869 0.913031
O O12 0.979487 0.370995 0.992699
O O13 0.500000 0.000000 0.000000
O O14 0.080957 0.547270 0.823465
O O15 0.545110 0.356225 0.470378
O O16 0.551580 0.702557 0.357583
O O17 0.000000 0.000000 0.500000
#
# Coordination Sequence:
#
# PCOD9096703 Si02
#       8
#     2   2   2   2   2   2   2   2
#     4  11  22  39  56  90 121 154 195 241 299 342
#     4  10  20  36  57  86 120 159 205 238 270 343
#     4  11  22  36  64  87 115 154 197 244 294 346
#     4  10  21  43  67  89 107 153 197 237 303 367
#     4   9  21  41  63  84 123 146 187 249 297 354
#     4  10  21  37  56  83 123 166 199 233 291 334
#     4   9  19  38  56  85 116 157 192 238 290 343
#     4  10  21  36  54  82 121 158 201 241 279 341
#
# _framework density 20.881142000000001
#
# number of rings (size 3 to 8) (size 9 to 14) (size 15 to 20)
#    0.000    2.000    1.250    1.875    1.750    1.000 
#    9.000    0.625    0.000    0.000    0.000    0.000 
#    0.000    0.000    0.000    0.000    0.000    0.000 
#
# Total GULP energy -89285.111396 kJ/mol
# GULP energy per Si atom -5580.319462 kJ/mol
# Density = 2.083362 g / cm^3
# Si number density = 20.881142 Si / 1000 Ang^3
#
#
#
# Elastic Constant Matrix: (Units=GPa)
#
#
# Indices 1 2 3 4 5 6 
#
# 1 89.4992 20.8547 10.2142 3.3360 -9.3069 3.2001
# 2 20.8547 57.7724 12.0273 -3.4750 -2.7680 -5.5952
# 3 10.2142 12.0273 67.8689 3.5502 -4.8423 5.8329
# 4 3.3360 -3.4750 3.5502 39.7163 4.5157 1.3670
# 5 -9.3069 -2.7680 -4.8423 4.5157 34.7375 -9.2838
# 6 3.2001 -5.5952 5.8329 1.3670 -9.2838 17.6238
#
#
#
# Elastic Compliance Matrix: (Units=1/GPa)
#
#
# Indices 1 2 3 4 5 6 
#
# 1 0.012734 -0.004636 -0.000645 -0.001644 0.002614 -0.002066
# 2 -0.004636 0.020948 -0.003797 0.001968 0.002257 0.009785
# 3 -0.000645 -0.003797 0.016136 -0.001548 0.000336 -0.006132
# 4 -0.001644 0.001968 -0.001548 0.026273 -0.004743 -0.003101
# 5 0.002614 0.002257 0.000336 -0.004743 0.035456 0.019176
# 6 -0.002066 0.009785 -0.006132 -0.003101 0.019176 0.072595
#
#
# Mechanical properties :
#
#
# Convention : Reuss Voigt Hill
#
# Bulk Modulus (GPa) = 31.58447 33.48144 32.53295
# Shear Modulus (GPa) = 23.49044 29.88514 26.68779
#
# Velocity S-wave (km/s) = 3.35768 3.78723 3.57890
# Velocity P-wave (km/s) = 5.49461 5.93239 5.71769
#
# Compressibility (1/GPa) = 0.03166113
#
# Stress axis : x y z
#
# Youngs Moduli (GPa) = 78.52885 47.73791 61.97232
#
# Poissons Ratio (x) = 0.22133 0.03996
# Poissons Ratio (y) = 0.36408 0.23533
# Poissons Ratio (z) = 0.05064 0.18128
#
# Static dielectric constant tensor:
#      x y z
#    x 1.781330 0.032570 0.013540 
#    y 0.032570 1.774240 -0.036520 
#    z 0.013540 -0.036520 1.778540 
# 
# From -- ./inp_files/207200.got.cif
#   From: 2010.05.17/outbox.cif.g08.bks.cpg/sg2_104_cif.got.tgz:207200.got - 2010.06.03 11:33:40.
