data_PCOD9096279
_publ_section_title
;
Structure prediction by ZEFSAII (Michael W. Deem and Ramdas Pophale) SiO2 
 PCOD9096279
Probable space group: P -1
;
_chemical_formula_sum "Si O2"
_cell_formula_units_Z 14
_cell_length_a 9.463602
_cell_length_b 21.783934
_cell_length_c 21.952789
_cell_angle_alpha 12.679018
_cell_angle_beta 145.540258
_cell_angle_gamma 144.696489
_cell_volume 559.562020
_symmetry_space_group_name_H-M "P -1"
_symmetry_group_IT_number 2
_symmetry_cell_setting 'triclinic'
loop_
_space_group_symop_operation_xyz
x,y,z
-x,-y,-z
loop_
_atom_site_type_symbol
_atom_site_label
_atom_site_fract_x
_atom_site_fract_y
_atom_site_fract_z
Si Si1 0.211542 0.462412 0.374943
Si Si2 0.467008 0.993879 0.566130
Si Si3 0.702217 0.577027 0.133465
Si Si4 0.410647 0.753216 0.976843
Si Si5 0.440058 0.974822 0.081227
Si Si6 0.908290 0.741721 0.606877
Si Si7 0.765333 0.568693 0.388294
O O1 0.100079 0.316828 0.412845
O O2 0.994009 0.526662 0.282296
O O3 0.392786 0.248836 0.676542
O O4 0.351014 0.754286 0.116966
O O5 0.182385 0.875170 0.592872
O O6 0.500000 0.000000 0.500000
O O7 0.538814 0.290036 0.336281
O O8 0.659153 0.789343 0.858511
O O9 0.581921 0.698345 0.033341
O O10 0.166417 0.535194 0.112109
O O11 0.578234 0.694810 0.151282
O O12 0.304395 0.053454 0.650849
O O13 0.345258 0.726511 0.336671
O O14 0.199394 0.160950 0.815975
O O15 0.000000 0.500000 0.500000
#
# Coordination Sequence:
#
# PCOD9096279 Si02
#       7
#     2   2   2   2   2   2   2
#     4  11  20  39  64  88 119 173 211 253 300 383
#     4  12  26  41  63  94 122 171 226 264 298 363
#     4  12  27  41  62  93 132 164 213 272 315 354
#     4  12  25  42  62  96 125 167 204 264 333 371
#     4  10  20  35  64  96 114 163 215 246 300 378
#     4  12  23  40  67  83 127 171 217 254 310 380
#     4  11  21  39  67  99 127 158 206 262 310 385
#
# _framework density 25.019569000000001
#
# number of rings (size 3 to 8) (size 9 to 14) (size 15 to 20)
#    0.000    0.571    5.714    3.429    2.000    3.429 
#    0.000    0.000    0.000    5.143    0.000    0.000 
#    0.000    0.000    0.000    0.000    0.000    0.000 
#
# Total GULP energy -78145.361030 kJ/mol
# GULP energy per Si atom -5581.811502 kJ/mol
# Density = 2.496262 g / cm^3
# Si number density = 25.019569 Si / 1000 Ang^3
#
#
#
# Elastic Constant Matrix: (Units=GPa)
#
#
# Indices 1 2 3 4 5 6 
#
# 1 168.9793 0.9500 17.0753 9.5551 16.6168 -9.7257
# 2 0.9500 44.7565 23.9338 11.5217 6.5185 11.3361
# 3 17.0753 23.9338 165.8762 -6.8742 27.5591 -15.8394
# 4 9.5551 11.5217 -6.8742 38.2578 6.4723 7.2605
# 5 16.6168 6.5185 27.5591 6.4723 38.4755 12.4173
# 6 -9.7257 11.3361 -15.8394 7.2605 12.4173 33.2226
#
#
#
# Elastic Compliance Matrix: (Units=1/GPa)
#
#
# Indices 1 2 3 4 5 6 
#
# 1 0.006615 -0.000405 0.000401 -0.001544 -0.004158 0.004157
# 2 -0.000405 0.031375 -0.007321 -0.008942 0.006364 -0.014739
# 3 0.000401 -0.007321 0.009800 0.003599 -0.009844 0.010180
# 4 -0.001544 -0.008942 0.003599 0.030861 -0.005462 -0.000388
# 5 -0.004158 0.006364 -0.009844 -0.005462 0.041962 -0.022572
# 6 0.004157 -0.014739 0.010180 -0.000388 -0.022572 0.049721
#
#
# Mechanical properties :
#
#
# Convention : Reuss Voigt Hill
#
# Bulk Modulus (GPa) = 30.17382 51.50336 40.83859
# Shear Modulus (GPa) = 25.50627 44.50137 35.00382
#
# Velocity S-wave (km/s) = 3.19635 4.22199 3.74446
# Velocity P-wave (km/s) = 5.07035 6.66310 5.92053
#
# Compressibility (1/GPa) = 0.03314132
#
# Stress axis : x y z
#
# Youngs Moduli (GPa) = 151.17073 31.87288 102.03823
#
# Poissons Ratio (x) = 0.01291 -0.04095
# Poissons Ratio (y) = 0.06123 0.74697
# Poissons Ratio (z) = -0.06066 0.23333
#
# Static dielectric constant tensor:
#      x y z
#    x 2.454990 -0.274930 0.254450 
#    y -0.274930 2.173690 -0.106090 
#    z 0.254450 -0.106090 2.022200 
# 
# From -- ./inp_files/223529.got.cif
#   From: 2010.05.17/outbox.cif.g08.bks.cpg/sg2_112_cif.got.tgz:223529.got - 2010.06.03 11:33:40.
