data_PCOD9096035
_publ_section_title
;
Structure prediction by ZEFSAII (Michael W. Deem and Ramdas Pophale) SiO2 
 PCOD9096035
Probable space group: P -1
;
_chemical_formula_sum "Si O2"
_cell_formula_units_Z 14
_cell_length_a 9.403610
_cell_length_b 17.629857
_cell_length_c 7.976048
_cell_angle_alpha 52.896013
_cell_angle_beta 49.414304
_cell_angle_gamma 29.205310
_cell_volume 487.751963
_symmetry_space_group_name_H-M "P -1"
_symmetry_group_IT_number 2
_symmetry_cell_setting 'triclinic'
loop_
_space_group_symop_operation_xyz
x,y,z
-x,-y,-z
loop_
_atom_site_type_symbol
_atom_site_label
_atom_site_fract_x
_atom_site_fract_y
_atom_site_fract_z
Si Si1 0.741568 0.345789 0.663655
Si Si2 0.495719 0.819555 0.269025
Si Si3 0.150349 0.810649 0.744938
Si Si4 0.645692 0.001570 0.236704
Si Si5 0.053682 0.379824 0.526909
Si Si6 0.505049 0.728674 0.915265
Si Si7 0.044559 0.279570 0.165247
O O1 0.763127 0.430121 0.650711
O O2 0.839506 0.337772 0.410881
O O3 0.472579 0.376439 0.852531
O O4 0.012596 0.173847 0.771668
O O5 0.676276 0.776970 0.358570
O O6 0.322216 0.790450 0.481869
O O7 0.192095 0.006148 0.216225
O O8 0.782662 0.698057 0.078940
O O9 0.113371 0.714300 0.871546
O O10 0.354504 0.758328 0.814802
O O11 0.659354 0.111054 0.099765
O O12 0.372532 0.094194 0.191413
O O13 0.500000 0.000000 0.500000
O O14 0.179303 0.351687 0.282875
O O15 0.000000 0.500000 0.500000
#
# Coordination Sequence:
#
# PCOD9096035 Si02
#       7
#     2   2   2   2   2   2   2
#     4  11  23  36  64  93 127 162 213 252 316 370
#     4  10  22  37  59  89 128 160 206 248 316 365
#     4  10  22  34  61  93 129 161 197 250 325 377
#     4  10  20  35  61  95 133 160 194 252 321 380
#     4  11  24  45  65  86 123 175 221 257 298 370
#     4  11  22  41  64  97 127 164 206 253 316 386
#     4  11  21  35  59  93 131 157 197 259 319 375
#
# _framework density 28.703112999999998
#
# number of rings (size 3 to 8) (size 9 to 14) (size 15 to 20)
#    0.000    1.429    2.857    3.429   12.000    0.571 
#    0.000    0.714    0.000    4.286    0.000    0.000 
#    0.000    0.000    0.000    0.000    0.000    0.000 
#
# Total GULP energy -78134.302174 kJ/mol
# GULP energy per Si atom -5581.021584 kJ/mol
# Density = 2.863778 g / cm^3
# Si number density = 28.703113 Si / 1000 Ang^3
#
#
#
# Elastic Constant Matrix: (Units=GPa)
#
#
# Indices 1 2 3 4 5 6 
#
# 1 142.1942 8.4594 15.9815 -12.0534 -19.2735 10.6071
# 2 8.4594 75.9941 19.2173 -14.1872 4.2075 -6.9027
# 3 15.9815 19.2173 189.8709 34.4727 -17.5866 -4.1922
# 4 -12.0534 -14.1872 34.4727 51.6000 -3.9774 -4.1327
# 5 -19.2735 4.2075 -17.5866 -3.9774 39.3792 -6.4956
# 6 10.6071 -6.9027 -4.1922 -4.1327 -6.4956 44.4580
#
#
#
# Elastic Compliance Matrix: (Units=1/GPa)
#
#
# Indices 1 2 3 4 5 6 
#
# 1 0.007940 -0.000579 -0.000729 0.002360 0.003646 -0.001301
# 2 -0.000579 0.015370 -0.002729 0.005951 -0.002130 0.002509
# 3 -0.000729 -0.002729 0.006793 -0.005246 0.002482 0.000266
# 4 0.002360 0.005951 -0.005246 0.025350 0.001130 0.002388
# 5 0.003646 -0.002130 0.002482 0.001130 0.029190 0.003403
# 6 -0.001301 0.002509 0.000266 0.002388 0.003403 0.023937
#
#
# Mechanical properties :
#
#
# Convention : Reuss Voigt Hill
#
# Bulk Modulus (GPa) = 45.39588 55.04173 50.21881
# Shear Modulus (GPa) = 40.32289 51.38083 45.85186
#
# Velocity S-wave (km/s) = 3.75217 4.23552 4.00115
# Velocity P-wave (km/s) = 5.88402 6.56791 6.23535
#
# Compressibility (1/GPa) = 0.02202843
#
# Stress axis : x y z
#
# Youngs Moduli (GPa) = 125.93957 65.06044 147.21927
#
# Poissons Ratio (x) = 0.03767 0.10734
# Poissons Ratio (y) = 0.07293 0.40179
# Poissons Ratio (z) = 0.09183 0.17756
#
# Static dielectric constant tensor:
#      x y z
#    x 4.107680 -0.876370 -2.141390 
#    y -0.876370 2.743030 0.993510 
#    z -2.141390 0.993510 4.883550 
# 
# From -- ./inp_files/214640.got.cif
#   From: 2010.05.17/outbox.cif.g08.bks.cpg/sg2_108_cif.got.tgz:214640.got - 2010.06.03 11:33:40.
