data_PCOD9096019
_publ_section_title
;
Structure prediction by ZEFSAII (Michael W. Deem and Ramdas Pophale) SiO2 
 PCOD9096019
Probable space group: P -1
;
_chemical_formula_sum "Si O2"
_cell_formula_units_Z 14
_cell_length_a 10.058284
_cell_length_b 10.272728
_cell_length_c 7.742320
_cell_angle_alpha 55.400167
_cell_angle_beta 77.122633
_cell_angle_gamma 54.518279
_cell_volume 529.372172
_symmetry_space_group_name_H-M "P -1"
_symmetry_group_IT_number 2
_symmetry_cell_setting 'triclinic'
loop_
_space_group_symop_operation_xyz
x,y,z
-x,-y,-z
loop_
_atom_site_type_symbol
_atom_site_label
_atom_site_fract_x
_atom_site_fract_y
_atom_site_fract_z
Si Si1 0.452274 0.226569 0.942538
Si Si2 0.856192 0.278819 0.665835
Si Si3 0.614851 0.720940 0.474619
Si Si4 0.028351 0.736672 0.891440
Si Si5 0.672785 0.330987 0.333660
Si Si6 0.800335 0.707443 0.749829
Si Si7 0.819519 0.995714 0.075008
O O1 0.441675 0.194626 0.766029
O O2 0.417167 0.438735 0.810834
O O3 0.630944 0.076323 0.080853
O O4 0.317000 0.230118 0.095601
O O5 0.768423 0.502437 0.551851
O O6 0.766887 0.260309 0.542244
O O7 0.821741 0.183070 0.906489
O O8 0.054161 0.152014 0.708236
O O9 0.463664 0.716304 0.602122
O O10 0.686726 0.786706 0.553217
O O11 0.933190 0.752422 0.730155
O O12 0.180077 0.750976 0.785002
O O13 0.897373 0.882530 0.957780
O O14 0.102495 0.523974 0.104061
#
# Coordination Sequence:
#
# PCOD9096019 Si02
#       7
#     2   2   2   2   2   2   2
#     4  10  21  39  64  90 123 159 208 250 308 355
#     4  10  20  35  61  93 125 156 201 251 322 353
#     4  11  19  41  68  93 117 165 204 258 295 372
#     4  10  23  41  60  90 127 162 205 249 308 363
#     4  10  20  40  63  91 120 159 208 254 295 374
#     4  10  23  43  62  89 125 169 207 243 298 384
#     4  11  20  37  60  91 129 155 196 265 308 356
#
# _framework density 26.446425000000001
#
# number of rings (size 3 to 8) (size 9 to 14) (size 15 to 20)
#    0.000    1.714    4.286    0.857    0.000    5.714 
#    5.143    3.571    0.000    0.000    0.000    0.000 
#    0.000    0.000    0.000    0.000    0.000    0.000 
#
# Total GULP energy -78455.538242 kJ/mol
# GULP energy per Si atom -5603.967017 kJ/mol
# Density = 2.638623 g / cm^3
# Si number density = 26.446425 Si / 1000 Ang^3
#
#
#
# Elastic Constant Matrix: (Units=GPa)
#
#
# Indices 1 2 3 4 5 6 
#
# 1 130.6119 20.0275 58.3558 -6.4231 24.4828 -26.0579
# 2 20.0275 84.8958 42.3314 -12.4788 9.2585 -19.1208
# 3 58.3558 42.3314 133.4596 5.6155 38.0481 -10.4150
# 4 -6.4231 -12.4788 5.6155 37.5492 -6.0447 17.2433
# 5 24.4828 9.2585 38.0481 -6.0447 48.4098 -0.8885
# 6 -26.0579 -19.1208 -10.4150 17.2433 -0.8885 37.7979
#
#
#
# Elastic Compliance Matrix: (Units=1/GPa)
#
#
# Indices 1 2 3 4 5 6 
#
# 1 0.011196 0.001122 -0.003770 -0.001157 -0.002917 0.007707
# 2 0.001122 0.016060 -0.005760 0.004123 0.001503 0.005465
# 3 -0.003770 -0.005760 0.013777 -0.006482 -0.008610 0.001038
# 4 -0.001157 0.004123 -0.006482 0.038468 0.009367 -0.017826
# 5 -0.002917 0.001503 -0.008610 0.009367 0.029649 -0.007199
# 6 0.007707 0.005465 0.001038 -0.017826 -0.007199 0.042783
#
#
# Mechanical properties :
#
#
# Convention : Reuss Voigt Hill
#
# Bulk Modulus (GPa) = 41.29344 65.59964 53.44654
# Shear Modulus (GPa) = 28.27739 39.96821 34.12280
#
# Velocity S-wave (km/s) = 3.27346 3.89175 3.59592
# Velocity P-wave (km/s) = 5.47131 6.71214 6.12324
#
# Compressibility (1/GPa) = 0.02421692
#
# Stress axis : x y z
#
# Youngs Moduli (GPa) = 89.31884 62.26842 72.58629
#
# Poissons Ratio (x) = -0.06989 0.27363
# Poissons Ratio (y) = -0.10025 0.41811
# Poissons Ratio (z) = 0.33671 0.35868
#
# Static dielectric constant tensor:
#      x y z
#    x 2.109680 0.052070 -0.010690 
#    y 0.052070 2.047030 -0.001630 
#    z -0.010690 -0.001630 2.064120 
# 
# From -- ./inp_files/158157.got.cif
#   From: 2010.05.17/outbox.cif.g08.bks.cpg/sg2_80_cif.got.tgz:158157.got - 2010.06.03 11:33:40.
