data_PCOD9096808
_publ_section_title
;
Structure prediction by ZEFSAII (Michael W. Deem and Ramdas Pophale) SiO2 
 PCOD9096808
Probable space group: P -1
;
_chemical_formula_sum "Si O2"
_cell_formula_units_Z 16
_cell_length_a 6.536796
_cell_length_b 17.429094
_cell_length_c 10.987148
_cell_angle_alpha 69.394412
_cell_angle_beta 39.402025
_cell_angle_gamma 70.566426
_cell_volume 739.837970
_symmetry_space_group_name_H-M "P -1"
_symmetry_group_IT_number 2
_symmetry_cell_setting 'triclinic'
loop_
_space_group_symop_operation_xyz
x,y,z
-x,-y,-z
loop_
_atom_site_type_symbol
_atom_site_label
_atom_site_fract_x
_atom_site_fract_y
_atom_site_fract_z
Si Si1 0.313576 0.978668 0.221389
Si Si2 0.072122 0.453185 0.619901
Si Si3 0.155829 0.244115 0.197203
Si Si4 0.226613 0.887671 0.673874
Si Si5 0.240550 0.607375 0.571126
Si Si6 0.981927 0.851852 0.322411
Si Si7 0.685455 0.099561 0.105106
Si Si8 0.693932 0.323846 0.759959
O O1 0.533926 0.013183 0.204473
O O2 0.977260 0.037729 0.342852
O O3 0.210367 0.887499 0.301336
O O4 0.500000 0.000000 0.000000
O O5 0.056478 0.524931 0.688522
O O6 0.441411 0.412023 0.481877
O O7 0.000000 0.500000 0.500000
O O8 0.830739 0.382489 0.766413
O O9 0.395066 0.174192 0.194419
O O10 0.891175 0.195216 0.279388
O O11 0.987706 0.315286 0.318950
O O12 0.378295 0.285741 0.974366
O O13 0.610787 0.885040 0.491861
O O14 0.133666 0.897083 0.853308
O O15 0.360719 0.628261 0.368644
O O16 0.041280 0.753625 0.344586
O O17 0.104130 0.883861 0.118954
#
# Coordination Sequence:
#
# PCOD9096808 Si02
#       8
#     2   2   2   2   2   2   2   2
#     4   9  20  38  54  80 116 145 189 237 272 328
#     4   9  20  39  60  84 114 145 181 225 274 332
#     4  10  22  36  56  87 114 143 189 230 268 331
#     4  11  21  36  57  80 111 153 191 226 278 329
#     4  10  20  39  62  82 112 148 179 225 280 327
#     4  10  20  36  58  83 111 145 188 233 275 330
#     4   9  21  39  56  80 115 148 183 234 281 320
#     4  10  21  38  58  84 114 144 183 229 278 330
#
# _framework density 21.626356999999999
#
# number of rings (size 3 to 8) (size 9 to 14) (size 15 to 20)
#    0.000    2.250    0.000    2.625    0.000    7.000 
#    0.000   14.375    0.000    0.000    0.000    0.000 
#    0.000    0.000    0.000    0.000    0.000    0.000 
#
# Total GULP energy -89415.632938 kJ/mol
# GULP energy per Si atom -5588.477059 kJ/mol
# Density = 2.157713 g / cm^3
# Si number density = 21.626357 Si / 1000 Ang^3
#
#
#
# Elastic Constant Matrix: (Units=GPa)
#
#
# Indices 1 2 3 4 5 6 
#
# 1 56.9355 38.5421 7.3058 4.3598 -7.4965 -12.3977
# 2 38.5421 111.0217 24.1000 -3.3219 -8.3273 27.5409
# 3 7.3058 24.1000 58.4306 8.0535 -6.0323 -1.9127
# 4 4.3598 -3.3219 8.0535 28.1030 4.3956 -2.0114
# 5 -7.4965 -8.3273 -6.0323 4.3956 24.2651 -3.9771
# 6 -12.3977 27.5409 -1.9127 -2.0114 -3.9771 29.9644
#
#
#
# Elastic Compliance Matrix: (Units=1/GPa)
#
#
# Indices 1 2 3 4 5 6 
#
# 1 0.059257 -0.038131 0.015001 -0.017018 0.022249 0.062333
# 2 -0.038131 0.038184 -0.015971 0.013372 -0.013725 -0.052816
# 3 0.015001 -0.015971 0.025358 -0.011597 0.011367 0.023234
# 4 -0.017018 0.013372 -0.011597 0.044056 -0.014656 -0.019060
# 5 0.022249 -0.013725 0.011367 -0.014656 0.053555 0.028671
# 6 0.062333 -0.052816 0.023234 -0.019060 0.028671 0.111717
#
#
# Mechanical properties :
#
#
# Convention : Reuss Voigt Hill
#
# Bulk Modulus (GPa) = 22.42227 40.69819 31.56023
# Shear Modulus (GPa) = 11.75936 26.89583 19.32760
#
# Velocity S-wave (km/s) = 2.33438 3.53038 2.99273
# Velocity P-wave (km/s) = 4.20194 5.95632 5.15432
#
# Compressibility (1/GPa) = 0.04459851
#
# Stress axis : x y z
#
# Youngs Moduli (GPa) = 16.87566 26.18891 39.43495
#
# Poissons Ratio (x) = 0.99861 -0.59157
# Poissons Ratio (y) = 0.64349 0.62980
# Poissons Ratio (z) = -0.25315 0.41825
#
# Static dielectric constant tensor:
#      x y z
#    x 1.792150 0.008300 0.014340 
#    y 0.008300 1.799900 -0.003640 
#    z 0.014340 -0.003640 1.792350 
# 
# From -- ./inp_files/56391.got.cif
#   From: 2010.05.17/outbox.cif.g08.bks.cpg/sg2_29_cif.got.tgz:56391.got - 2010.06.03 11:33:40.
