data_PCOD9096828
_publ_section_title
;
Structure prediction by ZEFSAII (Michael W. Deem and Ramdas Pophale) SiO2 
 PCOD9096828
Probable space group: P -1
;
_chemical_formula_sum "Si O2"
_cell_formula_units_Z 16
_cell_length_a 12.701098
_cell_length_b 8.393179
_cell_length_c 21.738681
_cell_angle_alpha 40.703021
_cell_angle_beta 146.569600
_cell_angle_gamma 115.573149
_cell_volume 690.081571
_symmetry_space_group_name_H-M "P -1"
_symmetry_group_IT_number 2
_symmetry_cell_setting 'triclinic'
loop_
_space_group_symop_operation_xyz
x,y,z
-x,-y,-z
loop_
_atom_site_type_symbol
_atom_site_label
_atom_site_fract_x
_atom_site_fract_y
_atom_site_fract_z
Si Si1 0.706899 0.412951 0.670174
Si Si2 0.236347 0.178662 0.794544
Si Si3 0.583795 0.050951 0.418390
Si Si4 0.084374 0.981750 0.886816
Si Si5 0.376994 0.596603 0.977845
Si Si6 0.134030 0.451441 0.995518
Si Si7 0.686906 0.426996 0.787544
Si Si8 0.185377 0.755068 0.615184
O O1 0.500000 0.500000 0.500000
O O2 0.669788 0.314218 0.746651
O O3 0.926272 0.174032 0.809454
O O4 0.688836 0.714764 0.582398
O O5 0.094639 0.182617 0.782929
O O6 0.144983 0.514135 0.638018
O O7 0.243172 0.950864 0.816065
O O8 0.500000 0.000000 0.000000
O O9 0.507104 0.239040 0.388314
O O10 0.764551 0.085889 0.459703
O O11 0.353748 0.205857 0.216243
O O12 0.036388 0.764008 0.890962
O O13 0.319939 0.750302 0.105701
O O14 0.218265 0.488095 0.958797
O O15 0.500000 0.500000 0.000000
O O16 0.582256 0.443126 0.173118
O O17 0.931626 0.397551 0.912946
O O18 0.000000 0.000000 0.500000
#
# Coordination Sequence:
#
# PCOD9096828 Si02
#       8
#     2   2   2   2   2   2   2   2
#     4  12  24  37  54  84 117 144 182 235 286 342
#     4   9  18  35  59  83 111 148 189 234 280 332
#     4  10  21  38  57  82 116 151 186 234 285 336
#     4  10  20  36  58  84 111 145 189 234 276 331
#     4   9  19  35  57  86 114 147 193 238 279 330
#     4   9  19  37  59  80 112 150 189 231 278 337
#     4  11  21  37  59  82 108 152 190 224 283 346
#     4  10  20  37  58  83 115 153 191 232 283 338
#
# _framework density 23.185666000000001
#
# number of rings (size 3 to 8) (size 9 to 14) (size 15 to 20)
#    0.000    2.000    0.000    6.750    0.000    3.000 
#    0.000    8.125    0.000    0.000    0.000    0.000 
#    0.000    0.000    0.000    0.000    0.000    0.000 
#
# Total GULP energy -89378.724935 kJ/mol
# GULP energy per Si atom -5586.170308 kJ/mol
# Density = 2.313289 g / cm^3
# Si number density = 23.185666 Si / 1000 Ang^3
#
#
#
# Elastic Constant Matrix: (Units=GPa)
#
#
# Indices 1 2 3 4 5 6 
#
# 1 138.8832 24.0835 -1.6273 -13.5722 1.2297 -22.6948
# 2 24.0835 27.6608 11.7891 -12.7774 5.4910 -8.9567
# 3 -1.6273 11.7891 39.3299 -21.6281 6.1754 2.9175
# 4 -13.5722 -12.7774 -21.6281 42.5627 -10.3824 -0.5762
# 5 1.2297 5.4910 6.1754 -10.3824 32.0358 -5.6848
# 6 -22.6948 -8.9567 2.9175 -0.5762 -5.6848 38.2686
#
#
#
# Elastic Compliance Matrix: (Units=1/GPa)
#
#
# Indices 1 2 3 4 5 6 
#
# 1 0.009487 -0.007513 0.003834 0.003241 0.001929 0.003911
# 2 -0.007513 0.055011 -0.013299 0.006814 -0.002749 0.009127
# 3 0.003834 -0.013299 0.039283 0.017000 -0.000581 -0.003664
# 4 0.003241 0.006814 0.017000 0.037272 0.008220 0.004003
# 5 0.001929 -0.002749 -0.000581 0.008220 0.035441 0.005933
# 6 0.003911 0.009127 -0.003664 0.004003 0.005933 0.031808
#
#
# Mechanical properties :
#
#
# Convention : Reuss Voigt Hill
#
# Bulk Modulus (GPa) = 14.32173 30.48495 22.40334
# Shear Modulus (GPa) = 18.83016 34.01533 26.42274
#
# Velocity S-wave (km/s) = 2.85291 3.83441 3.37948
# Velocity P-wave (km/s) = 4.12826 5.72541 4.99113
#
# Compressibility (1/GPa) = 0.06982398
#
# Stress axis : x y z
#
# Youngs Moduli (GPa) = 105.40931 18.17830 25.45652
#
# Poissons Ratio (x) = 0.13658 -0.09761
# Poissons Ratio (y) = 0.79199 0.33854
# Poissons Ratio (z) = -0.40416 0.24175
#
# Static dielectric constant tensor:
#      x y z
#    x 1.835190 0.069000 -0.310380 
#    y 0.069000 1.833710 0.385820 
#    z -0.310380 0.385820 -0.590930 
# 
# From -- ./inp_files/207273.got.cif
#   From: 2010.05.17/outbox.cif.g08.bks.cpg/sg2_104_cif.got.tgz:207273.got - 2010.06.03 11:33:40.
