data_PCOD9096719
_publ_section_title
;
Structure prediction by ZEFSAII (Michael W. Deem and Ramdas Pophale) SiO2 
 PCOD9096719
Probable space group: P -1
;
_chemical_formula_sum "Si O2"
_cell_formula_units_Z 14
_cell_length_a 13.992765
_cell_length_b 11.049932
_cell_length_c 10.950532
_cell_angle_alpha 24.960852
_cell_angle_beta 63.669314
_cell_angle_gamma 67.663733
_cell_volume 639.288718
_symmetry_space_group_name_H-M "P -1"
_symmetry_group_IT_number 2
_symmetry_cell_setting 'triclinic'
loop_
_space_group_symop_operation_xyz
x,y,z
-x,-y,-z
loop_
_atom_site_type_symbol
_atom_site_label
_atom_site_fract_x
_atom_site_fract_y
_atom_site_fract_z
Si Si1 0.629071 0.329443 0.468671
Si Si2 0.756931 0.777176 0.868854
Si Si3 0.907021 0.788671 0.538192
Si Si4 0.615295 0.774044 0.293079
Si Si5 0.041704 0.372631 0.966911
Si Si6 0.123178 0.105960 0.813919
Si Si7 0.745006 0.362769 0.711162
O O1 0.633420 0.546139 0.383278
O O2 0.510229 0.184520 0.665980
O O3 0.714759 0.088276 0.634008
O O4 0.658812 0.542424 0.145083
O O5 0.819827 0.756852 0.724320
O O6 0.838784 0.699711 0.001806
O O7 0.860415 0.783327 0.434598
O O8 0.003081 0.582069 0.693973
O O9 0.968367 0.092084 0.242396
O O10 0.653357 0.597319 0.552819
O O11 0.679916 0.077676 0.951999
O O12 0.000000 0.500000 0.000000
O O13 0.164070 0.388251 0.611656
O O14 0.190779 0.827448 0.055078
O O15 0.000000 0.000000 0.000000
#
# Coordination Sequence:
#
# PCOD9096719 Si02
#       7
#     2   2   2   2   2   2   2
#     4  11  22  37  63  93 121 153 201 239 304 373
#     4  11  21  35  59  92 122 159 197 240 298 365
#     4  11  22  39  59  83 127 162 194 246 294 350
#     4  10  22  41  62  89 122 157 190 254 306 350
#     4  10  20  36  57  87 125 160 191 233 298 364
#     4  11  24  41  63  89 114 158 209 247 290 349
#     4  10  22  41  63  86 119 156 201 251 300 346
#
# _framework density 21.899338
#
# number of rings (size 3 to 8) (size 9 to 14) (size 15 to 20)
#    0.000    1.429    0.000    7.286    0.000    6.857 
#    0.000    1.429    0.000   17.143    0.000    0.000 
#    0.000    0.000    0.000    0.000    0.000    0.000 
#
# Total GULP energy -77967.347198 kJ/mol
# GULP energy per Si atom -5569.096228 kJ/mol
# Density = 2.184949 g / cm^3
# Si number density = 21.899338 Si / 1000 Ang^3
#
#
#
# Elastic Constant Matrix: (Units=GPa)
#
#
# Indices 1 2 3 4 5 6 
#
# 1 94.4003 38.4561 40.9479 0.7873 -12.1107 -15.1863
# 2 38.4561 82.9970 38.9938 0.2979 -1.2309 -24.6287
# 3 40.9479 38.9938 164.7154 -19.6435 -8.7032 -6.7461
# 4 0.7873 0.2979 -19.6435 41.4191 -0.8570 -2.8559
# 5 -12.1107 -1.2309 -8.7032 -0.8570 50.2684 -6.0080
# 6 -15.1863 -24.6287 -6.7461 -2.8559 -6.0080 22.7419
#
#
#
# Elastic Compliance Matrix: (Units=1/GPa)
#
#
# Indices 1 2 3 4 5 6 
#
# 1 0.014613 -0.003906 -0.002391 -0.000916 0.003674 0.005674
# 2 -0.003906 0.021263 -0.003202 -0.000203 0.001389 0.019810
# 3 -0.002391 -0.003202 0.007793 0.003626 0.000498 -0.002166
# 4 -0.000916 -0.000203 0.003626 0.026176 0.001312 0.003878
# 5 0.003674 0.001389 0.000498 0.001312 0.022130 0.010117
# 6 0.005674 0.019810 -0.002166 0.003878 0.010117 0.071731
#
#
# Mechanical properties :
#
#
# Convention : Reuss Voigt Hill
#
# Bulk Modulus (GPa) = 40.53262 64.32313 52.42788
# Shear Modulus (GPa) = 26.18776 37.80020 31.99398
#
# Velocity S-wave (km/s) = 3.46182 4.15913 3.82639
# Velocity P-wave (km/s) = 5.87603 7.24572 6.59652
#
# Compressibility (1/GPa) = 0.02467148
#
# Stress axis : x y z
#
# Youngs Moduli (GPa) = 68.43089 47.03082 128.31270
#
# Poissons Ratio (x) = 0.18371 0.30678
# Poissons Ratio (y) = 0.26730 0.41085
# Poissons Ratio (z) = 0.16361 0.15059
#
# Static dielectric constant tensor:
#      x y z
#    x 1.538780 -1.148200 -0.189460 
#    y -1.148200 -2.130900 -0.586260 
#    z -0.189460 -0.586260 1.711390 
# 
# From -- ./inp_files/452051.got.cif
#   From: 2010.05.17/outbox.cif.g08.bks.cpg/sg2_227_cif.got.tgz:452051.got - 2010.06.03 11:33:40.
