data_PCOD9096500
_publ_section_title
;
Structure prediction by ZEFSAII (Michael W. Deem and Ramdas Pophale) SiO2 
 PCOD9096500
Probable space group: P -1
;
_chemical_formula_sum "Si O2"
_cell_formula_units_Z 12
_cell_length_a 9.131920
_cell_length_b 12.690400
_cell_length_c 6.826319
_cell_angle_alpha 66.456292
_cell_angle_beta 132.857036
_cell_angle_gamma 121.929564
_cell_volume 491.163502
_symmetry_space_group_name_H-M "P -1"
_symmetry_group_IT_number 2
_symmetry_cell_setting 'triclinic'
loop_
_space_group_symop_operation_xyz
x,y,z
-x,-y,-z
loop_
_atom_site_type_symbol
_atom_site_label
_atom_site_fract_x
_atom_site_fract_y
_atom_site_fract_z
Si Si1 0.911411 0.266810 0.929820
Si Si2 0.773149 0.819584 0.473868
Si Si3 0.330574 0.610781 0.156314
Si Si4 0.475338 0.033377 0.725134
Si Si5 0.337887 0.393610 0.073038
Si Si6 0.462442 0.204582 0.110882
O O1 0.032726 0.212165 0.241063
O O2 0.078258 0.320408 0.863582
O O3 0.849639 0.378075 0.875318
O O4 0.686669 0.153466 0.776567
O O5 0.559855 0.693686 0.399776
O O6 0.731977 0.928010 0.477316
O O7 0.741992 0.838125 0.198565
O O8 0.330150 0.480541 0.184053
O O9 0.342994 0.695327 0.912225
O O10 0.481432 0.913985 0.707965
O O11 0.500000 0.000000 0.000000
O O12 0.416846 0.280890 0.188934
O O13 0.500000 0.500000 0.000000
#
# Coordination Sequence:
#
# PCOD9096500 Si02
#       6
#     2   2   2   2   2   2
#     4  11  19  32  61  81  97 144 182 209 263 314
#     4   8  18  32  56  84 100 134 183 216 252 314
#     4   8  18  36  54  74 108 138 175 213 258 308
#     4   9  17  35  55  79 110 135 171 222 259 310
#     4  10  20  36  56  74 111 145 168 219 271 306
#     4   8  17  36  54  74 113 140 160 222 268 297
#
# _framework density 24.431785000000001
#
# number of rings (size 3 to 8) (size 9 to 14) (size 15 to 20)
#    1.000    2.000    1.667    0.500    0.000    4.000 
#    0.000    1.667   14.667    0.000    0.000    0.000 
#    0.000    0.000    0.000    0.000    0.000    0.000 
#
# Total GULP energy -66800.638721 kJ/mol
# GULP energy per Si atom -5566.719893 kJ/mol
# Density = 2.437618 g / cm^3
# Si number density = 24.431785 Si / 1000 Ang^3
#
#
#
# Elastic Constant Matrix: (Units=GPa)
#
#
# Indices 1 2 3 4 5 6 
#
# 1 125.7471 55.5284 18.4382 -3.1415 5.6991 -16.3165
# 2 55.5284 173.8196 31.5925 -29.7684 -1.7284 -45.9419
# 3 18.4382 31.5925 91.3951 -9.6911 -7.8301 -22.0951
# 4 -3.1415 -29.7684 -9.6911 38.1490 -3.5861 8.7451
# 5 5.6991 -1.7284 -7.8301 -3.5861 10.0159 -11.3252
# 6 -16.3165 -45.9419 -22.0951 8.7451 -11.3252 62.5134
#
#
#
# Elastic Compliance Matrix: (Units=1/GPa)
#
#
# Indices 1 2 3 4 5 6 
#
# 1 0.010594 -0.004748 -0.003264 -0.004181 -0.015541 -0.004108
# 2 -0.004748 0.011356 0.002390 0.008672 0.021698 0.010669
# 3 -0.003264 0.002390 0.016850 0.006112 0.030712 0.011569
# 4 -0.004181 0.008672 0.006112 0.035201 0.030312 0.008009
# 5 -0.015541 0.021698 0.030712 0.030312 0.211550 0.056830
# 6 -0.004108 0.010669 0.011569 0.008009 0.056830 0.036029
#
#
# Mechanical properties :
#
#
# Convention : Reuss Voigt Hill
#
# Bulk Modulus (GPa) = 36.28822 66.89777 51.59300
# Shear Modulus (GPa) = 14.61942 41.16250 27.89096
#
# Velocity S-wave (km/s) = 2.44883 4.10908 3.38240
# Velocity P-wave (km/s) = 4.78339 7.06778 6.03467
#
# Compressibility (1/GPa) = 0.02755715
#
# Stress axis : x y z
#
# Youngs Moduli (GPa) = 94.38936 88.05781 59.34742
#
# Poissons Ratio (x) = 0.41806 0.19372
# Poissons Ratio (y) = 0.44812 -0.14185
# Poissons Ratio (z) = 0.30811 -0.21047
#
# Static dielectric constant tensor:
#      x y z
#    x 1.976590 0.014690 -0.090550 
#    y 0.014690 1.947430 0.027680 
#    z -0.090550 0.027680 2.061400 
# 
# From -- ./inp_files/168993.got.cif
#   From: 2010.05.17/outbox.cif.g08.bks.cpg/sg2_85_cif.got.tgz:168993.got - 2010.06.03 11:33:40.
