data_PCOD9096392
_publ_section_title
;
Structure prediction by ZEFSAII (Michael W. Deem and Ramdas Pophale) SiO2 
 PCOD9096392
Probable space group: P -1
;
_chemical_formula_sum "Si O2"
_cell_formula_units_Z 16
_cell_length_a 12.341589
_cell_length_b 5.386202
_cell_length_c 18.925713
_cell_angle_alpha 71.405516
_cell_angle_beta 129.879495
_cell_angle_gamma 126.967936
_cell_volume 766.778869
_symmetry_space_group_name_H-M "P -1"
_symmetry_group_IT_number 2
_symmetry_cell_setting 'triclinic'
loop_
_space_group_symop_operation_xyz
x,y,z
-x,-y,-z
loop_
_atom_site_type_symbol
_atom_site_label
_atom_site_fract_x
_atom_site_fract_y
_atom_site_fract_z
Si Si1 0.686330 0.810715 0.051125
Si Si2 0.640529 0.680495 0.316205
Si Si3 0.839118 0.382525 0.394801
Si Si4 0.928773 0.362986 0.805248
Si Si5 0.245086 0.371766 0.206809
Si Si6 0.574673 0.891721 0.134871
Si Si7 0.840201 0.523253 0.227272
Si Si8 0.802175 0.397435 0.979483
O O1 0.656630 0.992229 0.083982
O O2 0.820968 0.757630 0.148381
O O3 0.500000 0.500000 0.000000
O O4 0.755030 0.037886 0.992211
O O5 0.711587 0.458698 0.372710
O O6 0.447306 0.546759 0.268596
O O7 0.643203 0.733245 0.227580
O O8 0.753631 0.017799 0.370807
O O9 0.895743 0.572357 0.326650
O O10 0.000000 0.500000 0.500000
O O11 0.814986 0.494645 0.768461
O O12 0.034298 0.524880 0.763289
O O13 0.823848 0.991626 0.783644
O O14 0.054832 0.430357 0.917832
O O15 0.170137 0.440755 0.098888
O O16 0.376587 0.659696 0.067399
O O17 0.647288 0.218274 0.175366
#
# Coordination Sequence:
#
# PCOD9096392 Si02
#       8
#     2   2   2   2   2   2   2   2
#     4  12  20  32  56  86 128 164 207 255 315 375
#     4  10  22  42  68  91 127 160 204 257 317 389
#     4  11  23  43  73 103 123 148 196 272 345 389
#     4  12  24  40  59  86 127 179 221 264 293 358
#     4  11  26  42  61  85 129 182 225 247 298 362
#     4  10  20  36  53  87 120 163 209 259 323 369
#     4  11  23  38  60  90 128 161 211 263 330 380
#     4  11  22  37  56  87 124 173 226 269 296 360
#
# _framework density 20.866510999999999
#
# number of rings (size 3 to 8) (size 9 to 14) (size 15 to 20)
#    0.000    1.000    3.750    3.750    0.000    3.000 
#    0.000    0.000    0.000    4.500    0.000    0.000 
#    0.000    0.000    0.000    0.000    0.000    0.000 
#
# Total GULP energy -89236.125383 kJ/mol
# GULP energy per Si atom -5577.257836 kJ/mol
# Density = 2.081902 g / cm^3
# Si number density = 20.866511 Si / 1000 Ang^3
#
#
#
# Elastic Constant Matrix: (Units=GPa)
#
#
# Indices 1 2 3 4 5 6 
#
# 1 126.6836 27.8879 45.0605 2.2520 7.4039 -9.1149
# 2 27.8879 93.7795 23.8574 13.5230 2.1964 -10.8735
# 3 45.0605 23.8574 102.3692 13.4813 14.3536 -7.0710
# 4 2.2520 13.5230 13.4813 22.6070 -2.7045 4.2001
# 5 7.4039 2.1964 14.3536 -2.7045 18.4664 -1.6434
# 6 -9.1149 -10.8735 -7.0710 4.2001 -1.6434 31.9348
#
#
#
# Elastic Compliance Matrix: (Units=1/GPa)
#
#
# Indices 1 2 3 4 5 6 
#
# 1 0.009847 -0.002162 -0.004112 0.002608 -0.000040 0.000819
# 2 -0.002162 0.013241 -0.000541 -0.008409 -0.001090 0.004821
# 3 -0.004112 -0.000541 0.014715 -0.009838 -0.010931 0.002632
# 4 0.002608 -0.008409 -0.009838 0.058780 0.015210 -0.011245
# 5 -0.000040 -0.001090 -0.010931 0.015210 0.064892 -0.001464
# 6 0.000819 0.004821 0.002632 -0.011245 -0.001464 0.035176
#
#
# Mechanical properties :
#
#
# Convention : Reuss Voigt Hill
#
# Bulk Modulus (GPa) = 41.36862 57.38266 49.37564
# Shear Modulus (GPa) = 22.90030 29.67008 26.28519
#
# Velocity S-wave (km/s) = 3.31640 3.77490 3.55305
# Velocity P-wave (km/s) = 5.87648 6.82344 6.36759
#
# Compressibility (1/GPa) = 0.02417291
#
# Stress axis : x y z
#
# Youngs Moduli (GPa) = 101.55236 75.52286 67.95959
#
# Poissons Ratio (x) = 0.16331 0.27943
# Poissons Ratio (y) = 0.21960 0.03675
# Poissons Ratio (z) = 0.41756 0.04084
#
# Static dielectric constant tensor:
#      x y z
#    x 1.830660 -0.044920 0.008090 
#    y -0.044920 1.814960 -0.002790 
#    z 0.008090 -0.002790 1.746040 
# 
# From -- ./inp_files/483974.got.cif
#   From: 2010.05.17/outbox.cif.g08.bks.cpg/sg2_242_cif.got.tgz:483974.got - 2010.06.03 11:33:40.
