data_PCOD9096758
_publ_section_title
;
Structure prediction by ZEFSAII (Michael W. Deem and Ramdas Pophale) SiO2 
 PCOD9096758
Probable space group: P -1
;
_chemical_formula_sum "Si O2"
_cell_formula_units_Z 16
_cell_length_a 5.561115
_cell_length_b 16.788717
_cell_length_c 8.356330
_cell_angle_alpha 62.595340
_cell_angle_beta 78.960234
_cell_angle_gamma 74.223730
_cell_volume 664.522881
_symmetry_space_group_name_H-M "P -1"
_symmetry_group_IT_number 2
_symmetry_cell_setting 'triclinic'
loop_
_space_group_symop_operation_xyz
x,y,z
-x,-y,-z
loop_
_atom_site_type_symbol
_atom_site_label
_atom_site_fract_x
_atom_site_fract_y
_atom_site_fract_z
Si Si1 0.260826 0.471029 0.135074
Si Si2 0.165631 0.853916 0.140156
Si Si3 0.796254 0.346248 0.718034
Si Si4 0.938853 0.333833 0.058938
Si Si5 0.677548 0.616944 0.465040
Si Si6 0.501499 0.723109 0.673010
Si Si7 0.601531 0.834808 0.840286
Si Si8 0.738306 0.983113 0.867786
O O1 0.039527 0.559066 0.048455
O O2 0.309043 0.460403 0.329376
O O3 0.285399 0.361949 0.200722
O O4 0.500000 0.500000 0.000000
O O5 0.120720 0.754932 0.277037
O O6 0.187347 0.918142 0.230376
O O7 0.407695 0.836328 0.008999
O O8 0.950483 0.911969 0.001627
O O9 0.766197 0.332896 0.922774
O O10 0.532367 0.389470 0.631038
O O11 0.042674 0.387501 0.624600
O O12 0.763292 0.308433 0.245858
O O13 0.168914 0.250273 0.077639
O O14 0.580640 0.712870 0.487645
O O15 0.501851 0.811133 0.700864
O O16 0.684009 0.932072 0.760939
O O17 0.500000 0.000000 0.000000
#
# Coordination Sequence:
#
# PCOD9096758 Si02
#       8
#     2   2   2   2   2   2   2   2
#     4   8  20  43  58  91 123 173 224 269 309 365
#     4  10  20  36  57  98 126 159 206 271 322 379
#     4  12  23  41  64  95 135 167 211 266 339 381
#     4  11  21  36  67  87 126 170 225 265 312 377
#     4  10  26  42  61  94 132 179 208 267 332 385
#     4   9  21  39  58  89 122 174 221 258 308 382
#     4  11  18  34  63  95 120 163 220 268 309 372
#     4   9  19  33  60  94 125 155 209 268 318 374
#
# _framework density 24.077423
#
# number of rings (size 3 to 8) (size 9 to 14) (size 15 to 20)
#    0.750    1.250    2.500    0.750    3.500    1.500 
#    4.500    0.000    0.000    1.500    0.000    0.000 
#    0.000    0.000    0.000    0.000    0.000    0.000 
#
# Total GULP energy -89230.442064 kJ/mol
# GULP energy per Si atom -5576.902629 kJ/mol
# Density = 2.402262 g / cm^3
# Si number density = 24.077423 Si / 1000 Ang^3
#
#
#
# Elastic Constant Matrix: (Units=GPa)
#
#
# Indices 1 2 3 4 5 6 
#
# 1 89.8840 34.7474 19.5746 7.7546 -10.6429 -24.4639
# 2 34.7474 161.2279 -2.3247 21.9137 3.8695 22.6638
# 3 19.5746 -2.3247 28.4268 14.6228 -10.8038 -2.5709
# 4 7.7546 21.9137 14.6228 33.7585 0.0817 10.6340
# 5 -10.6429 3.8695 -10.8038 0.0817 16.0126 0.9898
# 6 -24.4639 22.6638 -2.5709 10.6340 0.9898 57.3756
#
#
#
# Elastic Compliance Matrix: (Units=1/GPa)
#
#
# Indices 1 2 3 4 5 6 
#
# 1 0.019067 -0.005936 -0.011076 0.001217 0.006032 0.009649
# 2 -0.005936 0.009107 0.007271 -0.006237 -0.000922 -0.004631
# 3 -0.011076 0.007271 0.080046 -0.037648 0.044945 0.002194
# 4 0.001217 -0.006237 -0.037648 0.052274 -0.022858 -0.007999
# 5 0.006032 -0.000922 0.044945 -0.022858 0.096660 0.007519
# 6 0.009649 -0.004631 0.002194 -0.007999 0.007519 0.024823
#
#
# Mechanical properties :
#
#
# Convention : Reuss Voigt Hill
#
# Bulk Modulus (GPa) = 11.26882 42.61479 26.94180
# Shear Modulus (GPa) = 15.10397 36.59878 25.85137
#
# Velocity S-wave (km/s) = 2.50733 3.90301 3.28026
# Velocity P-wave (km/s) = 3.61562 6.16837 5.05576
#
# Compressibility (1/GPa) = 0.08874045
#
# Stress axis : x y z
#
# Youngs Moduli (GPa) = 52.44527 109.80305 12.49275
#
# Poissons Ratio (x) = 0.65174 0.13837
# Poissons Ratio (y) = 0.31129 -0.09084
# Poissons Ratio (z) = 0.58088 -0.79839
#
# Static dielectric constant tensor:
#      x y z
#    x 2.043860 0.120880 0.055820 
#    y 0.120880 2.071410 0.031510 
#    z 0.055820 0.031510 1.906360 
# 
# From -- ./inp_files/138874.got.cif
#   From: 2010.05.17/outbox.cif.g08.bks.cpg/sg2_70_cif.got.tgz:138874.got - 2010.06.03 11:33:40.
