data_PCOD9096856
_publ_section_title
;
Structure prediction by ZEFSAII (Michael W. Deem and Ramdas Pophale) SiO2 
 PCOD9096856
Probable space group: P -1
;
_chemical_formula_sum "Si O2"
_cell_formula_units_Z 16
_cell_length_a 9.381071
_cell_length_b 13.802100
_cell_length_c 11.295037
_cell_angle_alpha 60.703005
_cell_angle_beta 113.481641
_cell_angle_gamma 63.367896
_cell_volume 695.314634
_symmetry_space_group_name_H-M "P -1"
_symmetry_group_IT_number 2
_symmetry_cell_setting 'triclinic'
loop_
_space_group_symop_operation_xyz
x,y,z
-x,-y,-z
loop_
_atom_site_type_symbol
_atom_site_label
_atom_site_fract_x
_atom_site_fract_y
_atom_site_fract_z
Si Si1 0.690432 0.136001 0.093097
Si Si2 0.310318 0.083402 0.615384
Si Si3 0.119798 0.577443 0.872780
Si Si4 0.777941 0.284195 0.750329
Si Si5 0.646268 0.001308 0.958503
Si Si6 0.380152 0.228385 0.276342
Si Si7 0.588982 0.424936 0.861848
Si Si8 0.273517 0.813218 0.431516
O O1 0.686166 0.028433 0.235499
O O2 0.992549 0.999665 0.282134
O O3 0.624301 0.130047 0.942846
O O4 0.517087 0.344130 0.932924
O O5 0.028128 0.297161 0.368261
O O6 0.494408 0.068839 0.746327
O O7 0.431617 0.968711 0.602736
O O8 0.882399 0.676443 0.821440
O O9 0.303145 0.363976 0.069788
O O10 0.264872 0.595372 0.973082
O O11 0.500000 0.500000 0.500000
O O12 0.770802 0.294520 0.884252
O O13 0.763812 0.180834 0.725907
O O14 0.042594 0.192612 0.846129
O O15 0.500000 0.000000 0.000000
O O16 0.518526 0.217999 0.433432
O O17 0.369012 0.637480 0.616872
#
# Coordination Sequence:
#
# PCOD9096856 Si02
#       8
#     2   2   2   2   2   2   2   2
#     4  10  22  38  56  82 114 150 194 240 292 345
#     4  11  22  38  59  80 113 158 190 231 296 354
#     4  10  22  37  56  85 116 146 190 240 288 350
#     4   9  18  35  60  84 112 153 192 239 296 340
#     4   9  20  38  58  85 118 150 196 248 289 346
#     4  10  21  37  57  84 113 146 190 238 289 349
#     4  10  20  36  58  85 116 150 193 244 287 342
#     4   9  20  36  56  84 115 145 190 243 286 343
#
# _framework density 23.011164000000001
#
# number of rings (size 3 to 8) (size 9 to 14) (size 15 to 20)
#    0.000    2.250    0.000    1.875    0.000    8.000 
#    0.000    6.250    0.000   16.500    0.000    0.000 
#    0.000    0.000    0.000    0.000    0.000    0.000 
#
# Total GULP energy -89281.962488 kJ/mol
# GULP energy per Si atom -5580.122656 kJ/mol
# Density = 2.295879 g / cm^3
# Si number density = 23.011164 Si / 1000 Ang^3
#
#
#
# Elastic Constant Matrix: (Units=GPa)
#
#
# Indices 1 2 3 4 5 6 
#
# 1 74.3257 14.0089 45.6145 -1.7451 -5.5928 -0.3725
# 2 14.0089 49.7205 54.7772 -9.5585 5.6645 11.6222
# 3 45.6145 54.7772 136.3625 5.7833 3.1791 16.6116
# 4 -1.7451 -9.5585 5.7833 30.7735 -1.7966 1.1685
# 5 -5.5928 5.6645 3.1791 -1.7966 36.1872 -1.5791
# 6 -0.3725 11.6222 16.6116 1.1685 -1.5791 33.9751
#
#
#
# Elastic Compliance Matrix: (Units=1/GPa)
#
#
# Indices 1 2 3 4 5 6 
#
# 1 0.018068 0.003315 -0.007970 0.003631 0.003284 0.002989
# 2 0.003315 0.046408 -0.019557 0.018289 -0.004436 -0.007112
# 3 -0.007970 -0.019557 0.018548 -0.009954 -0.000388 -0.002142
# 4 0.003631 0.018289 -0.009954 0.040383 0.000459 -0.002718
# 5 0.003284 -0.004436 -0.000388 0.000459 0.029027 0.003076
# 6 0.002989 -0.007112 -0.002142 -0.002718 0.003076 0.033183
#
#
# Mechanical properties :
#
#
# Convention : Reuss Voigt Hill
#
# Bulk Modulus (GPa) = 28.90174 54.35665 41.62919
# Shear Modulus (GPa) = 20.36035 29.92103 25.14069
#
# Velocity S-wave (km/s) = 2.97779 3.60986 3.30895
# Velocity P-wave (km/s) = 4.94066 6.40686 5.72093
#
# Compressibility (1/GPa) = 0.03459999
#
# Stress axis : x y z
#
# Youngs Moduli (GPa) = 55.34540 21.54779 53.91449
#
# Poissons Ratio (x) = -0.07144 0.42973
# Poissons Ratio (y) = -0.18349 1.05442
# Poissons Ratio (z) = 0.44113 0.42142
#
# Static dielectric constant tensor:
#      x y z
#    x 1.904360 -0.049850 -0.077880 
#    y -0.049850 1.854190 0.021020 
#    z -0.077880 0.021020 1.880600 
# 
# From -- ./inp_files/398624.got.cif
#   From: 2010.05.17/outbox.cif.g08.bks.cpg/sg2_200_cif.got.tgz:398624.got - 2010.06.03 11:33:40.
