data_PCOD9096134
_publ_section_title
;
Structure prediction by ZEFSAII (Michael W. Deem and Ramdas Pophale) SiO2 
 PCOD9096134
Probable space group: P -1
;
_chemical_formula_sum "Si O2"
_cell_formula_units_Z 14
_cell_length_a 9.115278
_cell_length_b 9.239002
_cell_length_c 10.636423
_cell_angle_alpha 120.456873
_cell_angle_beta 80.996866
_cell_angle_gamma 59.523587
_cell_volume 552.818964
_symmetry_space_group_name_H-M "P -1"
_symmetry_group_IT_number 2
_symmetry_cell_setting 'triclinic'
loop_
_space_group_symop_operation_xyz
x,y,z
-x,-y,-z
loop_
_atom_site_type_symbol
_atom_site_label
_atom_site_fract_x
_atom_site_fract_y
_atom_site_fract_z
Si Si1 0.412001 0.317578 0.075228
Si Si2 0.415675 0.908190 0.653113
Si Si3 0.658217 0.282388 0.634075
Si Si4 0.928299 0.921500 0.642792
Si Si5 0.002149 0.875313 0.060164
Si Si6 0.784720 0.601710 0.125454
Si Si7 0.253101 0.218834 0.255623
O O1 0.456961 0.468343 0.184140
O O2 0.240860 0.356027 0.201409
O O3 0.332266 0.380559 0.971931
O O4 0.608971 0.044414 0.930792
O O5 0.225619 0.005408 0.813292
O O6 0.338800 0.140182 0.699176
O O7 0.445047 0.740255 0.473666
O O8 0.609259 0.796910 0.664368
O O9 0.863500 0.205931 0.515280
O O10 0.740922 0.090482 0.645077
O O11 0.926434 0.743885 0.635123
O O12 0.914281 0.085495 0.814885
O O13 0.145295 0.605630 0.889495
O O14 0.000000 0.000000 0.000000
O O15 0.000000 0.500000 0.000000
#
# Coordination Sequence:
#
# PCOD9096134 Si02
#       7
#     2   2   2   2   2   2   2
#     4  10  21  39  63  87 125 166 199 253 303 365
#     4   9  21  40  59  86 125 165 194 253 307 363
#     4  10  21  42  63  85 126 165 203 248 306 367
#     4  10  22  38  62  91 120 161 204 254 302 362
#     4  10  20  35  62  92 119 155 212 255 292 357
#     4   9  18  35  58  88 114 163 202 244 296 356
#     4  10  23  39  61  92 125 159 208 251 301 361
#
# _framework density 25.324748
#
# number of rings (size 3 to 8) (size 9 to 14) (size 15 to 20)
#    0.000    2.286    1.429    0.000   10.000    2.286 
#    0.000    2.857    0.000    0.000    0.000    0.000 
#    0.000    0.000    0.000    0.000    0.000    0.000 
#
# Total GULP energy -78423.720733 kJ/mol
# GULP energy per Si atom -5601.694338 kJ/mol
# Density = 2.526711 g / cm^3
# Si number density = 25.324748 Si / 1000 Ang^3
#
#
#
# Elastic Constant Matrix: (Units=GPa)
#
#
# Indices 1 2 3 4 5 6 
#
# 1 115.2325 13.3517 47.2991 -1.9722 2.5776 19.6177
# 2 13.3517 102.4115 23.7822 9.1669 -2.8216 32.6766
# 3 47.2991 23.7822 100.9106 12.3891 18.9917 -0.8916
# 4 -1.9722 9.1669 12.3891 24.2368 19.1694 3.0729
# 5 2.5776 -2.8216 18.9917 19.1694 51.7321 -9.2888
# 6 19.6177 32.6766 -0.8916 3.0729 -9.2888 30.6940
#
#
#
# Elastic Compliance Matrix: (Units=1/GPa)
#
#
# Indices 1 2 3 4 5 6 
#
# 1 0.014593 0.004309 -0.008402 0.008666 -0.003508 -0.016088
# 2 0.004309 0.017612 -0.006220 0.000582 -0.001153 -0.022092
# 3 -0.008402 -0.006220 0.016532 -0.007847 -0.000742 0.013033
# 4 0.008666 0.000582 -0.007847 0.070208 -0.027434 -0.021717
# 5 -0.003508 -0.001153 -0.000742 -0.027434 0.032773 0.016112
# 6 -0.016088 -0.022092 0.013033 -0.021717 0.016112 0.073810
#
#
# Mechanical properties :
#
#
# Convention : Reuss Voigt Hill
#
# Bulk Modulus (GPa) = 35.57203 54.15785 44.86494
# Shear Modulus (GPa) = 19.56760 36.94068 28.25414
#
# Velocity S-wave (km/s) = 2.78270 3.82341 3.34379
# Velocity P-wave (km/s) = 4.93978 6.39711 5.71509
#
# Compressibility (1/GPa) = 0.02811198
#
# Stress axis : x y z
#
# Youngs Moduli (GPa) = 68.52573 56.77855 60.48868
#
# Poissons Ratio (x) = -0.24468 0.50821
# Poissons Ratio (y) = -0.29530 0.37626
# Poissons Ratio (z) = 0.57573 0.35318
#
# Static dielectric constant tensor:
#      x y z
#    x 2.015910 0.028990 -0.124750 
#    y 0.028990 1.990460 -0.000900 
#    z -0.124750 -0.000900 2.180750 
# 
# From -- ./inp_files/380269.got.cif
#   From: 2010.05.17/outbox.cif.g08.bks.cpg/sg2_191_cif.got.tgz:380269.got - 2010.06.03 11:33:40.
