data_PCOD9096724
_publ_section_title
;
Structure prediction by ZEFSAII (Michael W. Deem and Ramdas Pophale) SiO2 
 PCOD9096724
Probable space group: P -1
;
_chemical_formula_sum "Si O2"
_cell_formula_units_Z 14
_cell_length_a 7.587606
_cell_length_b 12.340155
_cell_length_c 16.862142
_cell_angle_alpha 21.148373
_cell_angle_beta 110.095608
_cell_angle_gamma 101.532613
_cell_volume 499.955718
_symmetry_space_group_name_H-M "P -1"
_symmetry_group_IT_number 2
_symmetry_cell_setting 'triclinic'
loop_
_space_group_symop_operation_xyz
x,y,z
-x,-y,-z
loop_
_atom_site_type_symbol
_atom_site_label
_atom_site_fract_x
_atom_site_fract_y
_atom_site_fract_z
Si Si1 0.691405 0.842081 0.193044
Si Si2 0.410248 0.524104 0.055580
Si Si3 0.812501 0.028811 0.509609
Si Si4 0.788242 0.920700 0.747699
Si Si5 0.487750 0.914949 0.260182
Si Si6 0.093606 0.276261 0.842190
Si Si7 0.152279 0.576159 0.155107
O O1 0.748774 0.155955 0.005122
O O2 0.630011 0.687577 0.367646
O O3 0.500000 0.000000 0.000000
O O4 0.855088 0.620253 0.307489
O O5 0.254674 0.354900 0.123727
O O6 0.607453 0.327519 0.268968
O O7 0.500000 0.500000 0.000000
O O8 0.371125 0.881742 0.833610
O O9 0.863964 0.063211 0.586377
O O10 0.736572 0.752005 0.649284
O O11 0.000000 0.000000 0.500000
O O12 0.605895 0.126805 0.638798
O O13 0.961546 0.742770 0.956191
O O14 0.292841 0.116476 0.037722
O O15 0.922582 0.500683 0.719837
O O16 0.000000 0.000000 0.000000
#
# Coordination Sequence:
#
# PCOD9096724 Si02
#       7
#     2   2   2   2   2   2   2
#     4   9  17  31  58  91 113 150 199 236 285 344
#     4  10  21  38  56  82 116 152 193 235 286 355
#     4  12  23  35  55  86 119 158 194 232 284 349
#     4  10  21  35  52  80 120 153 187 231 281 348
#     4   9  17  32  53  80 111 146 187 236 284 335
#     4   8  15  29  50  81 111 142 187 232 276 332
#     4  10  20  36  57  88 122 153 189 238 288 339
#
# _framework density 28.002479999999998
#
# number of rings (size 3 to 8) (size 9 to 14) (size 15 to 20)
#    0.000    2.286    0.000    4.286    0.000    2.286 
#    0.000    0.000    0.000    0.000    0.000  348.000 
#    0.000    0.000    0.000    0.286    0.000    0.000 
#
# Total GULP energy -78043.551638 kJ/mol
# GULP energy per Si atom -5574.539403 kJ/mol
# Density = 2.793874 g / cm^3
# Si number density = 28.002480 Si / 1000 Ang^3
#
#
#
# Elastic Constant Matrix: (Units=GPa)
#
#
# Indices 1 2 3 4 5 6 
#
# 1 148.5590 71.2366 28.5411 23.0615 -36.1051 -30.6524
# 2 71.2366 180.5049 32.1134 19.9717 -33.0219 -28.2166
# 3 28.5411 32.1134 52.4355 10.3499 -0.8519 -16.7772
# 4 23.0615 19.9717 10.3499 27.7034 -9.8787 -23.6569
# 5 -36.1051 -33.0219 -0.8519 -9.8787 35.4875 27.8242
# 6 -30.6524 -28.2166 -16.7772 -23.6569 27.8242 94.5609
#
#
#
# Elastic Compliance Matrix: (Units=1/GPa)
#
#
# Indices 1 2 3 4 5 6 
#
# 1 0.011063 -0.001534 -0.004604 -0.004293 0.009817 -0.001651
# 2 -0.001534 0.007997 -0.003959 -0.001717 0.006128 -0.001046
# 3 -0.004604 -0.003959 0.025986 -0.003401 -0.012404 0.004736
# 4 -0.004293 -0.001717 -0.003401 0.050933 0.000139 0.010194
# 5 0.009817 0.006128 -0.012404 0.000139 0.053788 -0.012982
# 6 -0.001651 -0.001046 0.004736 0.010194 -0.012982 0.016938
#
#
# Mechanical properties :
#
#
# Convention : Reuss Voigt Hill
#
# Bulk Modulus (GPa) = 40.23592 71.69797 55.96694
# Shear Modulus (GPa) = 25.61673 48.19092 36.90382
#
# Velocity S-wave (km/s) = 3.02785 4.15294 3.63420
# Velocity P-wave (km/s) = 5.15982 6.97535 6.13512
#
# Compressibility (1/GPa) = 0.02485342
#
# Stress axis : x y z
#
# Youngs Moduli (GPa) = 90.39105 125.04107 38.48160
#
# Poissons Ratio (x) = 0.19184 0.17715
# Poissons Ratio (y) = 0.13868 0.15235
# Poissons Ratio (z) = 0.41612 0.49503
#
# Static dielectric constant tensor:
#      x y z
#    x 1.695740 -0.015130 0.897780 
#    y -0.015130 2.333520 0.003690 
#    z 0.897780 0.003690 0.455010 
# 
# From -- ./inp_files/497910.got.cif
#   From: 2010.05.17/outbox.cif.g08.bks.cpg/sg2_249_cif.got.tgz:497910.got - 2010.06.03 11:33:40.
