data_PCOD9096756
_publ_section_title
;
Structure prediction by ZEFSAII (Michael W. Deem and Ramdas Pophale) SiO2 
 PCOD9096756
Probable space group: P -1
;
_chemical_formula_sum "Si O2"
_cell_formula_units_Z 16
_cell_length_a 15.083163
_cell_length_b 17.507776
_cell_length_c 25.527615
_cell_angle_alpha 161.990942
_cell_angle_beta 19.346943
_cell_angle_gamma 152.081158
_cell_volume 684.252712
_symmetry_space_group_name_H-M "P -1"
_symmetry_group_IT_number 2
_symmetry_cell_setting 'triclinic'
loop_
_space_group_symop_operation_xyz
x,y,z
-x,-y,-z
loop_
_atom_site_type_symbol
_atom_site_label
_atom_site_fract_x
_atom_site_fract_y
_atom_site_fract_z
Si Si1 0.278585 0.822488 0.995224
Si Si2 0.465192 0.143193 0.739909
Si Si3 0.640744 0.630470 0.583875
Si Si4 0.209080 0.098805 0.752512
Si Si5 0.577644 0.154877 0.259751
Si Si6 0.033717 0.921120 0.299256
Si Si7 0.553556 0.673060 0.015099
Si Si8 0.967229 0.320953 0.749153
O O1 0.169966 0.753253 0.066732
O O2 0.032289 0.969210 0.194110
O O3 0.449377 0.609743 0.726828
O O4 0.500000 0.000000 0.000000
O O5 0.254691 0.041262 0.751545
O O6 0.369970 0.254635 0.921953
O O7 0.591554 0.375002 0.792673
O O8 0.715956 0.939819 0.480213
O O9 0.742887 0.360026 0.327231
O O10 0.450246 0.783939 0.746063
O O11 0.865883 0.807375 0.585019
O O12 0.500000 0.000000 0.500000
O O13 0.118771 0.396128 0.000290
O O14 0.273641 0.245962 0.511193
O O15 0.663604 0.870231 0.043167
O O16 0.105232 0.827111 0.255932
O O17 0.229161 0.724660 0.219194
#
# Coordination Sequence:
#
# PCOD9096756 Si02
#       8
#     2   2   2   2   2   2   2   2
#     4  10  22  41  64  90 126 170 216 255 320 389
#     4  10  21  35  63  91 131 162 201 271 330 366
#     4  10  22  36  60  93 125 167 215 256 318 369
#     4  11  22  41  61  97 130 164 208 273 323 373
#     4  11  19  36  62  91 125 165 217 267 303 384
#     4  11  20  39  65  92 122 170 216 268 311 380
#     4  10  20  36  57  95 127 163 204 267 327 368
#     4  11  21  36  68  95 123 160 228 271 306 377
#
# _framework density 23.383175000000001
#
# number of rings (size 3 to 8) (size 9 to 14) (size 15 to 20)
#    0.000    1.500    5.000    1.125    0.000    0.500 
#    2.250    0.625    0.000    3.750    0.000    0.000 
#    0.000    0.000    0.000    0.000    0.000    0.000 
#
# Total GULP energy -89273.056089 kJ/mol
# GULP energy per Si atom -5579.566006 kJ/mol
# Density = 2.332995 g / cm^3
# Si number density = 23.383175 Si / 1000 Ang^3
#
#
#
# Elastic Constant Matrix: (Units=GPa)
#
#
# Indices 1 2 3 4 5 6 
#
# 1 135.3052 22.9879 22.7779 -19.5342 -5.8978 17.3834
# 2 22.9879 60.3762 16.7929 0.9374 -9.1953 5.2826
# 3 22.7779 16.7929 57.1130 -11.0653 -3.4837 4.8821
# 4 -19.5342 0.9374 -11.0653 32.3909 3.5843 -7.5363
# 5 -5.8978 -9.1953 -3.4837 3.5843 34.3189 -9.8984
# 6 17.3834 5.2826 4.8821 -7.5363 -9.8984 37.7472
#
#
#
# Elastic Compliance Matrix: (Units=1/GPa)
#
#
# Indices 1 2 3 4 5 6 
#
# 1 0.009158 -0.002925 -0.001731 0.004421 -0.000678 -0.002879
# 2 -0.002925 0.019982 -0.005309 -0.004788 0.004670 -0.000494
# 3 -0.001731 -0.005309 0.020965 0.006304 -0.000244 0.000023
# 4 0.004421 -0.004788 0.006304 0.037172 -0.002438 0.004600
# 5 -0.000678 0.004670 -0.000244 -0.002438 0.032750 0.007791
# 6 -0.002879 -0.000494 0.000023 0.004600 0.007791 0.030846
#
#
# Mechanical properties :
#
#
# Convention : Reuss Voigt Hill
#
# Bulk Modulus (GPa) = 33.14088 41.99021 37.56554
# Shear Modulus (GPa) = 27.64549 33.57379 30.60964
#
# Velocity S-wave (km/s) = 3.44216 3.79332 3.62200
# Velocity P-wave (km/s) = 5.47738 6.09771 5.79585
#
# Compressibility (1/GPa) = 0.03017422
#
# Stress axis : x y z
#
# Youngs Moduli (GPa) = 109.19727 50.04487 47.69840
#
# Poissons Ratio (x) = 0.14640 0.08256
# Poissons Ratio (y) = 0.31944 0.25324
# Poissons Ratio (z) = 0.18900 0.26570
#
# Static dielectric constant tensor:
#      x y z
#    x 1.941950 0.033860 0.020810 
#    y 0.033860 1.942790 -0.004080 
#    z 0.020810 -0.004080 1.895700 
# 
# From -- ./inp_files/312384.got.cif
#   From: 2010.05.17/outbox.cif.g08.bks.cpg/sg2_157_cif.got.tgz:312384.got - 2010.06.03 11:33:40.
