data_PCOD9096713
_publ_section_title
;
Structure prediction by ZEFSAII (Michael W. Deem and Ramdas Pophale) SiO2 
 PCOD9096713
Probable space group: P -1
;
_chemical_formula_sum "Si O2"
_cell_formula_units_Z 16
_cell_length_a 8.204332
_cell_length_b 21.245855
_cell_length_c 20.693915
_cell_angle_alpha 160.461513
_cell_angle_beta 39.996012
_cell_angle_gamma 140.294080
_cell_volume 756.319541
_symmetry_space_group_name_H-M "P -1"
_symmetry_group_IT_number 2
_symmetry_cell_setting 'triclinic'
loop_
_space_group_symop_operation_xyz
x,y,z
-x,-y,-z
loop_
_atom_site_type_symbol
_atom_site_label
_atom_site_fract_x
_atom_site_fract_y
_atom_site_fract_z
Si Si1 0.097774 0.514747 0.762933
Si Si2 0.466539 0.739083 0.613989
Si Si3 0.540790 0.401629 0.781871
Si Si4 0.724436 0.194734 0.405615
Si Si5 0.411751 0.149661 0.794517
Si Si6 0.791793 0.488393 0.414972
Si Si7 0.881343 0.081386 0.810491
Si Si8 0.866944 0.965206 0.436885
O O1 0.318001 0.392964 0.585056
O O2 0.110116 0.589897 0.756930
O O3 0.797434 0.398309 0.744210
O O4 0.151074 0.699920 0.971348
O O5 0.352116 0.773985 0.613445
O O6 0.238632 0.642776 0.639228
O O7 0.635344 0.943492 0.784900
O O8 0.586134 0.314879 0.614210
O O9 0.284816 0.255775 0.743487
O O10 0.519879 0.621532 0.996196
O O11 0.026392 0.300888 0.425190
O O12 0.641900 0.976720 0.245877
O O13 0.145501 0.089767 0.777525
O O14 0.642351 0.084899 0.622966
O O15 0.500000 0.500000 0.500000
O O16 0.923121 0.990726 0.640677
O O17 0.000000 0.000000 0.500000
#
# Coordination Sequence:
#
# PCOD9096713 Si02
#       8
#     2   2   2   2   2   2   2   2
#     4   9  21  38  59  84 108 146 193 234 276 331
#     4  11  21  35  58  84 116 149 182 234 285 330
#     4   9  20  39  59  79 112 150 186 231 278 330
#     4  10  20  36  57  87 118 146 185 229 281 333
#     4  10  21  38  59  81 112 151 188 230 275 334
#     4   9  18  37  60  81 112 151 189 230 276 329
#     4  11  22  37  60  84 110 149 192 230 277 336
#     4  11  23  37  55  86 117 145 185 233 285 334
#
# _framework density 21.155080000000002
#
# number of rings (size 3 to 8) (size 9 to 14) (size 15 to 20)
#    0.000    2.000    0.000    5.250    0.000    6.000 
#    0.000    3.750    0.000   11.250    0.000    0.000 
#    0.000    0.000    0.000    0.000    0.000    0.000 
#
# Total GULP energy -89334.287076 kJ/mol
# GULP energy per Si atom -5583.392942 kJ/mol
# Density = 2.110693 g / cm^3
# Si number density = 21.155080 Si / 1000 Ang^3
#
#
#
# Elastic Constant Matrix: (Units=GPa)
#
#
# Indices 1 2 3 4 5 6 
#
# 1 54.1527 3.9518 17.5303 0.1213 -9.8247 -6.2324
# 2 3.9518 87.9145 11.1939 9.3748 -11.7302 4.5430
# 3 17.5303 11.1939 71.6457 16.5708 -4.2676 6.8753
# 4 0.1213 9.3748 16.5708 17.5059 -4.9723 3.3709
# 5 -9.8247 -11.7302 -4.2676 -4.9723 -1.3401 6.5829
# 6 -6.2324 4.5430 6.8753 3.3709 6.5829 37.3242
#
#
#
# Elastic Compliance Matrix: (Units=1/GPa)
#
#
# Indices 1 2 3 4 5 6 
#
# 1 0.017014 -0.003671 -0.005531 -0.001727 -0.025001 0.008872
# 2 -0.003671 0.010397 0.000717 -0.011138 -0.016069 0.001830
# 3 -0.005531 0.000717 0.019803 -0.015972 0.007861 -0.004602
# 4 -0.001727 -0.011138 -0.015972 0.064031 -0.045691 0.006285
# 5 -0.025001 -0.016069 0.007861 -0.045691 -0.147612 0.026494
# 6 0.008872 0.001830 -0.004602 0.006285 0.026494 0.023658
#
#
# Mechanical properties :
#
#
# Convention : Reuss Voigt Hill
#
# Bulk Modulus (GPa) = 33.06328 31.00720 32.03524
# Shear Modulus (GPa) = 348.64995 22.76712 185.70853
#
# Velocity S-wave (km/s) = 12.85163 3.28411 9.37950
# Velocity P-wave (km/s) = 15.35846 5.39161 11.50982
#
# Compressibility (1/GPa) = 0.03024503
#
# Stress axis : x y z
#
# Youngs Moduli (GPa) = 58.77655 96.17755 50.49812
#
# Poissons Ratio (x) = 0.35305 0.27928
# Poissons Ratio (y) = 0.21576 -0.03621
# Poissons Ratio (z) = 0.32507 -0.06896
#
# Static dielectric constant tensor:
#      x y z
#    x 1.778090 -0.017770 -0.007010 
#    y -0.017770 1.844620 0.008600 
#    z -0.007010 0.008600 1.744760 
# 
# From -- ./inp_files/591648.got.cif
#   From: 2010.05.17/outbox.cif.g08.bks.cpg/sg2_296_cif.got.tgz:591648.got - 2010.06.03 11:33:40.
