data_PCOD9096768
_publ_section_title
;
Structure prediction by ZEFSAII (Michael W. Deem and Ramdas Pophale) SiO2 
 PCOD9096768
Probable space group: P -1
;
_chemical_formula_sum "Si O2"
_cell_formula_units_Z 14
_cell_length_a 6.503732
_cell_length_b 8.529189
_cell_length_c 22.152862
_cell_angle_alpha 44.708611
_cell_angle_beta 43.842645
_cell_angle_gamma 54.882018
_cell_volume 593.848365
_symmetry_space_group_name_H-M "P -1"
_symmetry_group_IT_number 2
_symmetry_cell_setting 'triclinic'
loop_
_space_group_symop_operation_xyz
x,y,z
-x,-y,-z
loop_
_atom_site_type_symbol
_atom_site_label
_atom_site_fract_x
_atom_site_fract_y
_atom_site_fract_z
Si Si1 0.890354 0.346753 0.912181
Si Si2 0.682976 0.253187 0.720252
Si Si3 0.652418 0.341395 0.364827
Si Si4 0.839496 0.448912 0.420339
Si Si5 0.859817 0.954129 0.944860
Si Si6 0.941030 0.846175 0.441423
Si Si7 0.760001 0.777271 0.892326
O O1 0.970415 0.189615 0.878261
O O2 0.902497 0.607770 0.856460
O O3 0.532065 0.328290 0.994974
O O4 0.044994 0.211305 0.974194
O O5 0.423747 0.462795 0.721438
O O6 0.974635 0.349508 0.657938
O O7 0.762715 0.210372 0.645049
O O8 0.645189 0.021100 0.822310
O O9 0.851266 0.414750 0.356231
O O10 0.327518 0.303135 0.471838
O O11 0.800390 0.094108 0.384471
O O12 0.500000 0.500000 0.500000
O O13 0.979393 0.222871 0.487816
O O14 0.958767 0.832839 0.893269
O O15 0.500000 0.000000 0.000000
#
# Coordination Sequence:
#
# PCOD9096768 Si02
#       7
#     2   2   2   2   2   2   2
#     4   9  19  39  64  81 110 162 187 226 294 348
#     4  11  22  37  53  87 117 145 186 247 284 332
#     4  10  20  37  59  78 112 152 192 235 287 339
#     4  11  18  36  61  76 110 156 190 230 287 338
#     4   9  18  37  63  87 111 149 197 229 279 358
#     4  10  20  36  58  80 109 152 195 232 282 345
#     4  10  21  37  59  85 119 147 192 238 290 340
#
# _framework density 23.575043999999998
#
# number of rings (size 3 to 8) (size 9 to 14) (size 15 to 20)
#    0.000    2.000    2.857    1.714    0.000    1.143 
#   10.286    0.000    0.000    0.000    0.000    0.000 
#    0.000    0.000    0.000    0.000    0.000    0.000 
#
# Total GULP energy -78076.344307 kJ/mol
# GULP energy per Si atom -5576.881736 kJ/mol
# Density = 2.352139 g / cm^3
# Si number density = 23.575044 Si / 1000 Ang^3
#
#
#
# Elastic Constant Matrix: (Units=GPa)
#
#
# Indices 1 2 3 4 5 6 
#
# 1 105.8141 30.5066 19.2632 -16.6659 9.1925 22.7325
# 2 30.5066 104.6641 35.2980 -28.8295 1.0635 17.2296
# 3 19.2632 35.2980 75.2784 -35.5796 8.5875 15.3561
# 4 -16.6659 -28.8295 -35.5796 36.9413 -6.3359 -6.1619
# 5 9.1925 1.0635 8.5875 -6.3359 27.8344 -6.1343
# 6 22.7325 17.2296 15.3561 -6.1619 -6.1343 42.0726
#
#
#
# Elastic Compliance Matrix: (Units=1/GPa)
#
#
# Indices 1 2 3 4 5 6 
#
# 1 0.012112 -0.001951 0.001193 0.003159 -0.004995 -0.006447
# 2 -0.001951 0.013193 -0.001864 0.007573 0.001937 -0.002277
# 3 0.001193 -0.001864 0.026529 0.022634 -0.004890 -0.006962
# 4 0.003159 0.007573 0.022634 0.056079 0.003491 -0.004347
# 5 -0.004995 0.001937 -0.004890 0.003491 0.042084 0.010338
# 6 -0.006447 -0.002277 -0.006962 -0.004347 0.010338 0.031596
#
#
# Mechanical properties :
#
#
# Convention : Reuss Voigt Hill
#
# Bulk Modulus (GPa) = 21.46351 50.65467 36.05909
# Shear Modulus (GPa) = 24.70778 34.74891 29.72835
#
# Velocity S-wave (km/s) = 3.24087 3.84340 3.55492
# Velocity P-wave (km/s) = 4.80920 6.42097 5.67262
#
# Compressibility (1/GPa) = 0.04659070
#
# Stress axis : x y z
#
# Youngs Moduli (GPa) = 82.56120 75.79991 37.69498
#
# Poissons Ratio (x) = 0.14785 -0.04499
# Poissons Ratio (y) = 0.16104 0.07028
# Poissons Ratio (z) = -0.09853 0.14131
#
# Static dielectric constant tensor:
#      x y z
#    x 1.888960 0.015330 -0.003800 
#    y 0.015330 1.985300 0.043770 
#    z -0.003800 0.043770 1.935540 
# 
# From -- ./inp_files/38393.got.cif
#   From: 2010.05.17/outbox.cif.g08.bks.cpg/sg2_20_cif.got.tgz:38393.got - 2010.06.03 11:33:40.
