data_PCOD9096464
_publ_section_title
;
Structure prediction by ZEFSAII (Michael W. Deem and Ramdas Pophale) SiO2 
 PCOD9096464
Probable space group: P -1
;
_chemical_formula_sum "Si O2"
_cell_formula_units_Z 12
_cell_length_a 13.468237
_cell_length_b 9.627510
_cell_length_c 5.432566
_cell_angle_alpha 118.489662
_cell_angle_beta 52.381822
_cell_angle_gamma 110.214293
_cell_volume 488.899915
_symmetry_space_group_name_H-M "P -1"
_symmetry_group_IT_number 2
_symmetry_cell_setting 'triclinic'
loop_
_space_group_symop_operation_xyz
x,y,z
-x,-y,-z
loop_
_atom_site_type_symbol
_atom_site_label
_atom_site_fract_x
_atom_site_fract_y
_atom_site_fract_z
Si Si1 0.926307 0.042931 0.898379
Si Si2 0.288626 0.199584 0.821920
Si Si3 0.526238 0.187331 0.680093
Si Si4 0.524661 0.311578 0.298255
Si Si5 0.132401 0.607887 0.859706
Si Si6 0.148581 0.492353 0.242724
O O1 0.902712 0.224103 0.043543
O O2 0.000000 0.000000 0.500000
O O3 0.790110 0.951366 0.076043
O O4 0.000000 0.000000 0.000000
O O5 0.388534 0.257972 0.930822
O O6 0.390014 0.204362 0.450965
O O7 0.187627 0.317327 0.990313
O O8 0.594263 0.264595 0.403475
O O9 0.500000 0.000000 0.500000
O O10 0.579092 0.243037 0.908712
O O11 0.500000 0.500000 0.500000
O O12 0.203231 0.534325 0.463517
O O13 0.189044 0.598958 0.038920
O O14 0.000000 0.500000 0.000000
O O15 0.000000 0.500000 0.500000
#
# Coordination Sequence:
#
# PCOD9096464 Si02
#       6
#     2   2   2   2   2   2
#     4  12  24  40  64  92 135 180 222 269 325 393
#     4  10  26  40  69  94 137 176 224 270 345 393
#     4  10  23  45  72  98 137 168 224 288 349 406
#     4  10  23  45  72 100 132 173 225 288 346 405
#     4  10  20  36  55  83 117 165 216 262 305 363
#     4  10  20  38  58  85 125 167 212 263 304 380
#
# _framework density 24.544900999999999
#
# number of rings (size 3 to 8) (size 9 to 14) (size 15 to 20)
#    1.000    0.667    0.000    6.000    4.667    0.000 
#    6.000    0.000    0.000    0.000    0.000    0.000 
#    0.000    0.000    0.000    0.000    0.000    0.000 
#
# Total GULP energy -66895.443853 kJ/mol
# GULP energy per Si atom -5574.620321 kJ/mol
# Density = 2.448904 g / cm^3
# Si number density = 24.544901 Si / 1000 Ang^3
#
#
#
# Elastic Constant Matrix: (Units=GPa)
#
#
# Indices 1 2 3 4 5 6 
#
# 1 79.9717 31.7011 26.9939 -19.7680 26.5803 -7.9390
# 2 31.7011 194.1226 66.0479 -33.6848 3.5718 -19.0429
# 3 26.9939 66.0479 127.9814 -32.2792 41.0404 -9.7831
# 4 -19.7680 -33.6848 -32.2792 49.6105 -15.3543 -10.8415
# 5 26.5803 3.5718 41.0404 -15.3543 58.5044 -18.1624
# 6 -7.9390 -19.0429 -9.7831 -10.8415 -18.1624 51.1490
#
#
#
# Elastic Compliance Matrix: (Units=1/GPa)
#
#
# Indices 1 2 3 4 5 6 
#
# 1 0.016241 -0.002182 0.000764 0.003401 -0.006844 0.000145
# 2 -0.002182 0.008200 -0.004111 0.005147 0.006364 0.005279
# 3 0.000764 -0.004111 0.013360 0.003072 -0.009109 -0.001440
# 4 0.003401 0.005147 0.003072 0.032472 0.008526 0.012942
# 5 -0.006844 0.006364 -0.009109 0.008526 0.032443 0.012892
# 6 0.000145 0.005279 -0.001440 0.012942 0.012892 0.028584
#
#
# Mechanical properties :
#
#
# Convention : Reuss Voigt Hill
#
# Bulk Modulus (GPa) = 37.39234 72.39571 54.89403
# Shear Modulus (GPa) = 33.05292 50.34164 41.69728
#
# Velocity S-wave (km/s) = 3.67363 4.53371 4.12614
# Velocity P-wave (km/s) = 5.76727 7.54754 6.71665
#
# Compressibility (1/GPa) = 0.02674345
#
# Stress axis : x y z
#
# Youngs Moduli (GPa) = 61.57157 121.94863 74.85266
#
# Poissons Ratio (x) = 0.26608 -0.05718
# Poissons Ratio (y) = 0.13434 0.30770
# Poissons Ratio (z) = -0.04704 0.50130
#
# Static dielectric constant tensor:
#      x y z
#    x 2.056630 0.031400 0.042500 
#    y 0.031400 2.005070 0.008310 
#    z 0.042500 0.008310 2.038440 
# 
# From -- ./inp_files/107456.got.cif
#   From: 2010.05.17/outbox.cif.g08.bks.cpg/sg2_54_cif.got.tgz:107456.got - 2010.06.03 11:33:40.
