data_PCOD9096178
_publ_section_title
;
Structure prediction by ZEFSAII (Michael W. Deem and Ramdas Pophale) SiO2 
 PCOD9096178
Probable space group: P -1
;
_chemical_formula_sum "Si O2"
_cell_formula_units_Z 16
_cell_length_a 13.985941
_cell_length_b 15.068509
_cell_length_c 9.574475
_cell_angle_alpha 112.223974
_cell_angle_beta 105.411007
_cell_angle_gamma 22.465818
_cell_volume 693.474963
_symmetry_space_group_name_H-M "P -1"
_symmetry_group_IT_number 2
_symmetry_cell_setting 'triclinic'
loop_
_space_group_symop_operation_xyz
x,y,z
-x,-y,-z
loop_
_atom_site_type_symbol
_atom_site_label
_atom_site_fract_x
_atom_site_fract_y
_atom_site_fract_z
Si Si1 0.392759 0.139756 0.829074
Si Si2 0.434339 0.782211 0.717838
Si Si3 0.703781 0.363335 0.658569
Si Si4 0.944735 0.288003 0.938213
Si Si5 0.550522 0.727862 0.248877
Si Si6 0.305401 0.241703 0.473716
Si Si7 0.788429 0.073774 0.567582
Si Si8 0.857970 0.535108 0.837034
O O1 0.499669 0.142183 0.803553
O O2 0.116808 0.355965 0.781243
O O3 0.585173 0.883003 0.711261
O O4 0.319980 0.230192 0.012130
O O5 0.474396 0.634820 0.679521
O O6 0.308716 0.901135 0.588269
O O7 0.702239 0.599943 0.719639
O O8 0.243088 0.993284 0.887695
O O9 0.818473 0.318047 0.810018
O O10 0.658596 0.294385 0.640691
O O11 0.913177 0.178181 0.503953
O O12 0.946810 0.384330 0.907453
O O13 0.767257 0.466752 0.108919
O O14 0.657975 0.687349 0.401998
O O15 0.297979 0.898916 0.307340
O O16 0.000000 0.500000 0.500000
O O17 0.500000 0.000000 0.500000
#
# Coordination Sequence:
#
# PCOD9096178 Si02
#       8
#     2   2   2   2   2   2   2   2
#     4   9  20  40  59  86 120 161 208 248 304 363
#     4  10  20  35  63  83 115 151 201 246 301 367
#     4   9  20  40  62  83 115 149 198 247 304 374
#     4   9  20  38  58  87 115 155 199 246 299 367
#     4  10  22  39  57  87 122 154 203 250 309 366
#     4  10  23  40  60  85 131 168 206 259 318 373
#     4  10  21  38  60  88 115 151 192 250 311 369
#     4   9  19  38  61  84 117 161 204 247 295 365
#
# _framework density 23.072210999999999
#
# number of rings (size 3 to 8) (size 9 to 14) (size 15 to 20)
#    0.000    2.500    0.000    0.375    7.000    2.500 
#    2.250    2.500    0.000    0.000    0.000    0.000 
#    0.000    0.000    0.000    0.000    0.000    0.000 
#
# Total GULP energy -89313.708226 kJ/mol
# GULP energy per Si atom -5582.106764 kJ/mol
# Density = 2.301970 g / cm^3
# Si number density = 23.072211 Si / 1000 Ang^3
#
#
#
# Elastic Constant Matrix: (Units=GPa)
#
#
# Indices 1 2 3 4 5 6 
#
# 1 81.7978 8.9738 43.7065 9.9340 -5.2085 -10.9755
# 2 8.9738 52.5828 24.3657 9.2359 1.5593 -4.2510
# 3 43.7065 24.3657 145.9555 24.0500 4.1219 -1.0696
# 4 9.9340 9.2359 24.0500 35.7291 -2.3361 12.5679
# 5 -5.2085 1.5593 4.1219 -2.3361 37.4460 3.3402
# 6 -10.9755 -4.2510 -1.0696 12.5679 3.3402 28.6819
#
#
#
# Elastic Compliance Matrix: (Units=1/GPa)
#
#
# Indices 1 2 3 4 5 6 
#
# 1 0.016093 0.000551 -0.004167 -0.004459 0.001696 0.007841
# 2 0.000551 0.021824 -0.002683 -0.006294 -0.001489 0.006277
# 3 -0.004167 -0.002683 0.009403 -0.004846 -0.001868 0.000699
# 4 -0.004459 -0.006294 -0.004846 0.042103 0.004748 -0.021822
# 5 0.001696 -0.001489 -0.001868 0.004748 0.027949 -0.004977
# 6 0.007841 0.006277 0.000699 -0.021822 -0.004977 0.048964
#
#
# Mechanical properties :
#
#
# Convention : Reuss Voigt Hill
#
# Bulk Modulus (GPa) = 28.79955 48.26979 38.53467
# Shear Modulus (GPa) = 26.24566 33.92407 30.08487
#
# Velocity S-wave (km/s) = 3.37641 3.83867 3.61493
# Velocity P-wave (km/s) = 5.26399 6.37289 5.84480
#
# Compressibility (1/GPa) = 0.03472276
#
# Stress axis : x y z
#
# Youngs Moduli (GPa) = 62.13950 45.82121 106.34493
#
# Poissons Ratio (x) = -0.02526 0.44311
# Poissons Ratio (y) = -0.03425 0.28534
# Poissons Ratio (z) = 0.25892 0.12295
#
# Static dielectric constant tensor:
#      x y z
#    x 1.877610 0.008640 -0.020780 
#    y 0.008640 1.933700 -0.022210 
#    z -0.020780 -0.022210 1.919730 
# 
# From -- ./inp_files/441653.got.cif
#   From: 2010.05.17/outbox.cif.g08.bks.cpg/sg2_221_cif.got.tgz:441653.got - 2010.06.03 11:33:40.
