data_PCOD9096381
_publ_section_title
;
Structure prediction by ZEFSAII (Michael W. Deem and Ramdas Pophale) SiO2 
 PCOD9096381
Probable space group: P -1
;
_chemical_formula_sum "Si O2"
_cell_formula_units_Z 16
_cell_length_a 16.586044
_cell_length_b 13.720540
_cell_length_c 5.093663
_cell_angle_alpha 111.417698
_cell_angle_beta 98.581633
_cell_angle_gamma 122.248891
_cell_volume 820.889186
_symmetry_space_group_name_H-M "P -1"
_symmetry_group_IT_number 2
_symmetry_cell_setting 'triclinic'
loop_
_space_group_symop_operation_xyz
x,y,z
-x,-y,-z
loop_
_atom_site_type_symbol
_atom_site_label
_atom_site_fract_x
_atom_site_fract_y
_atom_site_fract_z
Si Si1 0.344809 0.280413 0.128750
Si Si2 0.144436 0.986197 0.747486
Si Si3 0.440273 0.530447 0.806751
Si Si4 0.092465 0.535720 0.774452
Si Si5 0.072419 0.722473 0.215293
Si Si6 0.979063 0.114113 0.905441
Si Si7 0.766416 0.528648 0.400317
Si Si8 0.809591 0.686659 0.091927
O O1 0.376178 0.394900 0.464960
O O2 0.458302 0.331413 0.143989
O O3 0.280591 0.299594 0.908447
O O4 0.259101 0.123791 0.015461
O O5 0.136009 0.853441 0.566287
O O6 0.108597 0.996964 0.454148
O O7 0.057195 0.945420 0.882214
O O8 0.352129 0.545447 0.839955
O O9 0.500000 0.500000 0.000000
O O10 0.183808 0.544137 0.688683
O O11 0.000000 0.500000 0.500000
O O12 0.030219 0.409595 0.822698
O O13 0.132422 0.672060 0.078373
O O14 0.032507 0.768482 0.013380
O O15 0.091477 0.185345 0.895806
O O16 0.771783 0.567212 0.745549
O O17 0.833552 0.659803 0.363648
#
# Coordination Sequence:
#
# PCOD9096381 Si02
#       8
#     2   2   2   2   2   2   2   2
#     4  10  23  37  59  85 113 156 198 247 291 338
#     4  10  22  36  55  82 119 159 192 233 289 345
#     4  10  21  40  61  83 113 150 208 246 289 338
#     4  11  20  34  59  88 118 156 189 236 291 347
#     4   9  20  33  53  83 116 151 191 226 279 357
#     4  10  20  36  52  81 123 153 190 227 280 358
#     4  11  22  35  59  86 119 152 191 245 290 335
#     4  11  20  36  55  84 121 154 190 235 284 351
#
# _framework density 19.491060000000001
#
# number of rings (size 3 to 8) (size 9 to 14) (size 15 to 20)
#    0.750    1.000    2.500    3.000    3.500    1.000 
#    0.000    0.000    0.000    0.750    0.000    2.625 
#    0.000    0.000    0.000    0.000    0.000    0.000 
#
# Total GULP energy -89100.011604 kJ/mol
# GULP energy per Si atom -5568.750725 kJ/mol
# Density = 1.944670 g / cm^3
# Si number density = 19.491060 Si / 1000 Ang^3
#
#
#
# Elastic Constant Matrix: (Units=GPa)
#
#
# Indices 1 2 3 4 5 6 
#
# 1 138.2646 26.2143 22.6176 21.6387 -0.7142 16.1860
# 2 26.2143 54.7804 21.4727 5.9355 -4.9700 13.5046
# 3 22.6176 21.4727 58.4038 13.7807 1.1989 8.8787
# 4 21.6387 5.9355 13.7807 38.4613 -1.8402 3.3503
# 5 -0.7142 -4.9700 1.1989 -1.8402 27.0686 1.3870
# 6 16.1860 13.5046 8.8787 3.3503 1.3870 29.6268
#
#
#
# Elastic Compliance Matrix: (Units=1/GPa)
#
#
# Indices 1 2 3 4 5 6 
#
# 1 0.008873 -0.002738 -0.001059 -0.003961 -0.000347 -0.002818
# 2 -0.002738 0.024705 -0.007214 0.001261 0.005279 -0.007993
# 3 -0.001059 -0.007214 0.021973 -0.006125 -0.002645 -0.001902
# 4 -0.003961 0.001261 -0.006125 0.030357 0.002468 -0.000124
# 5 -0.000347 0.005279 -0.002645 0.002468 0.038368 -0.003500
# 6 -0.002818 -0.007993 -0.001902 -0.000124 -0.003500 0.039684
#
#
# Mechanical properties :
#
#
# Convention : Reuss Voigt Hill
#
# Bulk Modulus (GPa) = 29.82496 43.56199 36.69347
# Shear Modulus (GPa) = 25.36023 31.10763 28.23393
#
# Velocity S-wave (km/s) = 3.61102 3.99932 3.81012
# Velocity P-wave (km/s) = 5.72023 6.61244 6.18245
#
# Compressibility (1/GPa) = 0.03352897
#
# Stress axis : x y z
#
# Youngs Moduli (GPa) = 112.70205 40.47692 45.51024
#
# Poissons Ratio (x) = 0.11084 0.04821
# Poissons Ratio (y) = 0.30863 0.32829
# Poissons Ratio (z) = 0.11938 0.29198
#
# Static dielectric constant tensor:
#      x y z
#    x 1.757570 -0.005520 0.004500 
#    y -0.005520 1.767260 -0.022200 
#    z 0.004500 -0.022200 1.743190 
# 
# From -- ./inp_files/96625.got.cif
#   From: 2010.05.17/outbox.cif.g08.bks.cpg/sg2_49_cif.got.tgz:96625.got - 2010.06.03 11:33:40.
