data_PCOD9096983
_publ_section_title
;
Structure prediction by ZEFSAII (Michael W. Deem and Ramdas Pophale) SiO2 
 PCOD9096983
Probable space group: P -1
;
_chemical_formula_sum "Si O2"
_cell_formula_units_Z 16
_cell_length_a 10.511069
_cell_length_b 9.129599
_cell_length_c 13.874356
_cell_angle_alpha 118.432581
_cell_angle_beta 146.240569
_cell_angle_gamma 59.626007
_cell_volume 633.991269
_symmetry_space_group_name_H-M "P -1"
_symmetry_group_IT_number 2
_symmetry_cell_setting 'triclinic'
loop_
_space_group_symop_operation_xyz
x,y,z
-x,-y,-z
loop_
_atom_site_type_symbol
_atom_site_label
_atom_site_fract_x
_atom_site_fract_y
_atom_site_fract_z
Si Si1 0.859330 0.694599 0.954633
Si Si2 0.429242 0.408952 0.020166
Si Si3 0.040396 0.695725 0.868904
Si Si4 0.120113 0.982174 0.230300
Si Si5 0.141870 0.177603 0.658977
Si Si6 0.599355 0.843341 0.387425
Si Si7 0.863510 0.507725 0.518019
Si Si8 0.390899 0.867120 0.825225
O O1 0.012715 0.821429 0.134380
O O2 0.000000 0.500000 0.000000
O O3 0.851476 0.723537 0.843605
O O4 0.600258 0.761623 0.856437
O O5 0.259018 0.287959 0.842823
O O6 0.266401 0.572145 0.019518
O O7 0.500000 0.500000 0.000000
O O8 0.641019 0.285146 0.170550
O O9 0.072113 0.872283 0.899055
O O10 0.965400 0.598462 0.699637
O O11 0.227771 0.061001 0.414024
O O12 0.336065 0.934002 0.276707
O O13 0.314460 0.157179 0.668135
O O14 0.902152 0.313130 0.519226
O O15 0.176203 0.994004 0.675280
O O16 0.634685 0.651439 0.392962
O O17 0.000000 0.500000 0.500000
O O18 0.500000 0.000000 0.000000
#
# Coordination Sequence:
#
# PCOD9096983 Si02
#       8
#     2   2   2   2   2   2   2   2
#     4  12  24  39  61  93 137 169 206 265 335 386
#     4  10  21  34  57  93 124 159 206 265 324 383
#     4  10  20  36  58  95 126 165 213 265 320 375
#     4  10  22  35  62  90 124 169 215 258 311 380
#     4   9  18  33  62  86 121 164 207 257 319 375
#     4   9  18  37  60  91 123 166 222 262 303 373
#     4   8  16  34  60  90 125 167 212 266 308 366
#     4  10  22  39  59  91 127 170 207 264 330 391
#
# _framework density 25.236941000000002
#
# number of rings (size 3 to 8) (size 9 to 14) (size 15 to 20)
#    0.000    2.250    1.250    1.125    5.250    0.000 
#    0.000    0.000    2.750   21.000    0.000    0.000 
#    0.000    0.000    0.000    0.000    0.000    0.000 
#
# Total GULP energy -89385.389017 kJ/mol
# GULP energy per Si atom -5586.586814 kJ/mol
# Density = 2.517950 g / cm^3
# Si number density = 25.236941 Si / 1000 Ang^3
#
#
#
# Elastic Constant Matrix: (Units=GPa)
#
#
# Indices 1 2 3 4 5 6 
#
# 1 85.1526 27.4203 14.5755 -10.4939 1.5458 -10.1683
# 2 27.4203 245.2499 48.9932 -15.9870 -3.7143 23.2588
# 3 14.5755 48.9932 114.9425 -4.7697 -17.1992 -0.8267
# 4 -10.4939 -15.9870 -4.7697 43.6848 10.9911 -6.0152
# 5 1.5458 -3.7143 -17.1992 10.9911 15.0480 5.1685
# 6 -10.1683 23.2588 -0.8267 -6.0152 5.1685 41.8387
#
#
#
# Elastic Compliance Matrix: (Units=1/GPa)
#
#
# Indices 1 2 3 4 5 6 
#
# 1 0.014522 -0.001475 -0.002699 0.006626 -0.012097 0.006743
# 2 -0.001475 0.004979 -0.002010 0.001004 -0.000640 -0.002943
# 3 -0.002699 -0.002010 0.012430 -0.004971 0.018403 -0.002281
# 4 0.006626 0.001004 -0.004971 0.034468 -0.034796 0.010208
# 5 -0.012097 -0.000640 0.018403 -0.034796 0.121629 -0.022249
# 6 0.006743 -0.002943 -0.002281 0.010208 -0.022249 0.031347
#
#
# Mechanical properties :
#
#
# Convention : Reuss Voigt Hill
#
# Bulk Modulus (GPa) = 51.12150 69.70254 60.41202
# Shear Modulus (GPa) = 20.98501 43.73803 32.36152
#
# Velocity S-wave (km/s) = 2.88674 4.16756 3.58482
# Velocity P-wave (km/s) = 5.60460 7.13003 6.41283
#
# Compressibility (1/GPa) = 0.01956124
#
# Stress axis : x y z
#
# Youngs Moduli (GPa) = 68.86067 200.84966 80.44953
#
# Poissons Ratio (x) = 0.29629 0.21716
# Poissons Ratio (y) = 0.10158 0.16173
# Poissons Ratio (z) = 0.18588 0.40378
#
# Static dielectric constant tensor:
#      x y z
#    x 1.919650 -0.020310 -0.074740 
#    y -0.020310 2.052200 0.005690 
#    z -0.074740 0.005690 2.012370 
# 
# From -- ./inp_files/516146.got.cif
#   From: 2010.05.17/outbox.cif.g08.bks.cpg/sg2_259_cif.got.tgz:516146.got - 2010.06.03 11:33:40.
