data_PCOD9096293
_publ_section_title
;
Structure prediction by ZEFSAII (Michael W. Deem and Ramdas Pophale) SiO2 
 PCOD9096293
Probable space group: P -1
;
_chemical_formula_sum "Si O2"
_cell_formula_units_Z 16
_cell_length_a 8.138143
_cell_length_b 5.081193
_cell_length_c 17.880061
_cell_angle_alpha 88.683305
_cell_angle_beta 74.031444
_cell_angle_gamma 80.467884
_cell_volume 700.823428
_symmetry_space_group_name_H-M "P -1"
_symmetry_group_IT_number 2
_symmetry_cell_setting 'triclinic'
loop_
_space_group_symop_operation_xyz
x,y,z
-x,-y,-z
loop_
_atom_site_type_symbol
_atom_site_label
_atom_site_fract_x
_atom_site_fract_y
_atom_site_fract_z
Si Si1 0.118871 0.508857 0.056368
Si Si2 0.687615 0.965807 0.778305
Si Si3 0.006175 0.408422 0.318258
Si Si4 0.109806 0.721777 0.513074
Si Si5 0.833568 0.741286 0.205767
Si Si6 0.666431 0.377357 0.647782
Si Si7 0.671897 0.071490 0.941807
Si Si8 0.604182 0.313871 0.227694
O O1 0.267458 0.686409 0.023250
O O2 0.001973 0.672280 0.133951
O O3 0.193358 0.206010 0.070255
O O4 0.000000 0.500000 0.000000
O O5 0.646060 0.127334 0.704983
O O6 0.657722 0.141122 0.855067
O O7 0.885791 0.820988 0.745538
O O8 0.553199 0.757353 0.802265
O O9 0.164034 0.523501 0.338382
O O10 0.892651 0.298408 0.397111
O O11 0.890863 0.627192 0.280949
O O12 0.286637 0.684721 0.443613
O O13 0.000000 0.500000 0.500000
O O14 0.000000 0.000000 0.500000
O O15 0.698661 0.558368 0.191900
O O16 0.744808 0.047168 0.216161
O O17 0.496676 0.593236 0.683019
O O18 0.500000 0.000000 0.000000
#
# Coordination Sequence:
#
# PCOD9096293 Si02
#       8
#     2   2   2   2   2   2   2   2
#     4  12  28  48  70 100 140 178 218 281 343 408
#     4  11  22  43  70  95 133 173 230 275 329 395
#     4  10  22  39  68  97 129 170 225 281 325 393
#     4  10  20  35  64  99 129 167 218 281 333 383
#     4  12  25  44  66  96 134 177 229 261 345 401
#     4  10  21  42  67  99 131 173 229 271 334 393
#     4  12  28  46  72 104 135 174 228 280 338 398
#     4  11  26  40  66  94 135 181 220 274 329 404
#
# _framework density 22.830286999999998
#
# number of rings (size 3 to 8) (size 9 to 14) (size 15 to 20)
#    0.000    1.000    3.750    2.250    7.000    0.000 
#    0.000    1.250    0.000    0.000    0.000    0.000 
#    0.000    0.000    0.000    0.000    0.000    0.000 
#
# Total GULP energy -89487.187143 kJ/mol
# GULP energy per Si atom -5592.949196 kJ/mol
# Density = 2.277832 g / cm^3
# Si number density = 22.830287 Si / 1000 Ang^3
#
#
#
# Elastic Constant Matrix: (Units=GPa)
#
#
# Indices 1 2 3 4 5 6 
#
# 1 56.4055 0.3813 6.4400 -11.5566 2.3978 16.2342
# 2 0.3813 114.8849 -0.9088 -2.1657 -0.2822 -6.4828
# 3 6.4400 -0.9088 82.4618 -6.5297 0.6368 -1.5401
# 4 -11.5566 -2.1657 -6.5297 23.8012 1.5775 -9.5423
# 5 2.3978 -0.2822 0.6368 1.5775 16.3176 -1.2541
# 6 16.2342 -6.4828 -1.5401 -9.5423 -1.2541 43.1824
#
#
#
# Elastic Compliance Matrix: (Units=1/GPa)
#
#
# Indices 1 2 3 4 5 6 
#
# 1 0.021538 -0.000318 -0.001161 0.007755 -0.004382 -0.006600
# 2 -0.000318 0.008835 0.000266 0.001422 0.000188 0.001775
# 3 -0.001161 0.000266 0.012543 0.003622 -0.000533 0.001709
# 4 0.007755 0.001422 0.003622 0.050660 -0.005503 0.008462
# 5 -0.004382 0.000188 -0.000533 -0.005503 0.062657 0.002260
# 6 -0.006600 0.001775 0.001709 0.008462 0.002260 0.027902
#
#
# Mechanical properties :
#
#
# Convention : Reuss Voigt Hill
#
# Bulk Modulus (GPa) = 24.69615 29.50855 27.10235
# Shear Modulus (GPa) = 24.99283 33.18289 29.08786
#
# Velocity S-wave (km/s) = 3.31225 3.81656 3.57331
# Velocity P-wave (km/s) = 5.04666 5.68988 5.37790
#
# Compressibility (1/GPa) = 0.04049214
#
# Stress axis : x y z
#
# Youngs Moduli (GPa) = 46.42933 113.18684 79.72402
#
# Poissons Ratio (x) = 0.03595 0.09255
# Poissons Ratio (y) = 0.01475 -0.02124
# Poissons Ratio (z) = 0.05390 -0.03016
#
# Static dielectric constant tensor:
#      x y z
#    x 1.896330 0.053620 0.016880 
#    y 0.053620 1.915990 0.040490 
#    z 0.016880 0.040490 1.933660 
# 
# From -- ./inp_files/552672.got.cif
#   From: 2010.05.17/outbox.cif.g08.bks.cpg/sg2_277_cif.got.tgz:552672.got - 2010.06.03 11:33:40.
