data_PCOD9096550
_publ_section_title
;
Structure prediction by ZEFSAII (Michael W. Deem and Ramdas Pophale) SiO2 
 PCOD9096550
Probable space group: P -1
;
_chemical_formula_sum "Si O2"
_cell_formula_units_Z 16
_cell_length_a 16.651560
_cell_length_b 11.766741
_cell_length_c 9.022513
_cell_angle_alpha 62.169959
_cell_angle_beta 54.068736
_cell_angle_gamma 31.536464
_cell_volume 746.386661
_symmetry_space_group_name_H-M "P -1"
_symmetry_group_IT_number 2
_symmetry_cell_setting 'triclinic'
loop_
_space_group_symop_operation_xyz
x,y,z
-x,-y,-z
loop_
_atom_site_type_symbol
_atom_site_label
_atom_site_fract_x
_atom_site_fract_y
_atom_site_fract_z
Si Si1 0.811993 0.361048 0.785760
Si Si2 0.929224 0.263718 0.418909
Si Si3 0.365535 0.430784 0.872243
Si Si4 0.741872 0.989901 0.630313
Si Si5 0.848857 0.636529 0.196565
Si Si6 0.683431 0.805340 0.988456
Si Si7 0.909060 0.792932 0.267898
Si Si8 0.966350 0.119076 0.142445
O O1 0.797045 0.358043 0.629309
O O2 0.923192 0.369215 0.710865
O O3 0.931408 0.117499 0.851812
O O4 0.645952 0.543582 0.953166
O O5 0.960549 0.156042 0.300263
O O6 0.861553 0.475667 0.323508
O O7 0.109184 0.081110 0.418577
O O8 0.554431 0.231531 0.729753
O O9 0.231744 0.674896 0.810551
O O10 0.275861 0.388561 0.949978
O O11 0.772992 0.818233 0.781288
O O12 0.765639 0.961222 0.445251
O O13 0.872485 0.702248 0.271784
O O14 0.693333 0.829265 0.137134
O O15 0.000000 0.500000 0.000000
O O16 0.500000 0.000000 0.000000
O O17 0.938389 0.868957 0.061403
#
# Coordination Sequence:
#
# PCOD9096550 Si02
#       8
#     2   2   2   2   2   2   2   2
#     4  10  23  38  62  88 115 164 206 244 283 354
#     4  11  22  37  62  89 120 151 206 244 296 348
#     4  10  20  39  58  82 121 161 197 239 298 352
#     4  10  22  36  57  90 125 157 190 244 304 353
#     4  12  19  36  62  89 117 158 193 249 294 351
#     4  10  20  36  56  83 124 158 182 236 305 352
#     4  10  21  35  60  90 119 151 204 241 292 353
#     4  11  20  42  62  84 118 159 209 245 286 346
#
# _framework density 21.436610000000002
#
# number of rings (size 3 to 8) (size 9 to 14) (size 15 to 20)
#    0.000    1.500    3.750    2.625    1.750    1.000 
#    0.000   12.500    0.000    1.500    0.000    0.000 
#    0.000    0.000    0.000    0.000    0.000    0.000 
#
# Total GULP energy -89178.794326 kJ/mol
# GULP energy per Si atom -5573.674645 kJ/mol
# Density = 2.138782 g / cm^3
# Si number density = 21.436610 Si / 1000 Ang^3
#
#
#
# Elastic Constant Matrix: (Units=GPa)
#
#
# Indices 1 2 3 4 5 6 
#
# 1 72.5449 24.1686 29.2897 15.6224 32.0102 6.7259
# 2 24.1686 81.5945 43.8494 12.7393 11.0345 -3.5440
# 3 29.2897 43.8494 144.0145 36.1595 33.8410 -2.0884
# 4 15.6224 12.7393 36.1595 41.1850 9.4147 1.2458
# 5 32.0102 11.0345 33.8410 9.4147 37.5838 4.9432
# 6 6.7259 -3.5440 -2.0884 1.2458 4.9432 23.7491
#
#
#
# Elastic Compliance Matrix: (Units=1/GPa)
#
#
# Indices 1 2 3 4 5 6 
#
# 1 0.024873 -0.005339 0.002621 -0.005368 -0.020222 -0.003120
# 2 -0.005339 0.015916 -0.004640 0.000264 0.003630 0.002710
# 3 0.002621 -0.004640 0.012277 -0.008075 -0.010190 0.002189
# 4 -0.005368 0.000264 -0.008075 0.032496 0.003842 -0.001655
# 5 -0.020222 0.003630 -0.010190 0.003842 0.051713 -0.005593
# 6 -0.003120 0.002710 0.002189 -0.001655 -0.005593 0.044838
#
#
# Mechanical properties :
#
#
# Convention : Reuss Voigt Hill
#
# Bulk Modulus (GPa) = 26.07501 54.75214 40.41358
# Shear Modulus (GPa) = 23.85336 33.89333 28.87334
#
# Velocity S-wave (km/s) = 3.33939 3.98061 3.67402
# Velocity P-wave (km/s) = 5.20182 6.83549 6.07383
#
# Compressibility (1/GPa) = 0.03835089
#
# Stress axis : x y z
#
# Youngs Moduli (GPa) = 40.20406 62.82810 81.45154
#
# Poissons Ratio (x) = 0.33543 -0.21351
# Poissons Ratio (y) = 0.21464 0.37797
# Poissons Ratio (z) = -0.10539 0.29155
#
# Static dielectric constant tensor:
#      x y z
#    x 1.854010 -0.000460 0.004310 
#    y -0.000460 1.847440 -0.036240 
#    z 0.004310 -0.036240 1.857910 
# 
# From -- ./inp_files/308184.got.cif
#   From: 2010.05.17/outbox.cif.g08.bks.cpg/sg2_155_cif.got.tgz:308184.got - 2010.06.03 11:33:40.
