data_PCOD9096047
_publ_section_title
;
Structure prediction by ZEFSAII (Michael W. Deem and Ramdas Pophale) SiO2 
 PCOD9096047
Probable space group: P -1
;
_chemical_formula_sum "Si O2"
_cell_formula_units_Z 14
_cell_length_a 7.540528
_cell_length_b 9.527830
_cell_length_c 8.877795
_cell_angle_alpha 97.214576
_cell_angle_beta 105.528948
_cell_angle_gamma 63.861343
_cell_volume 551.670211
_symmetry_space_group_name_H-M "P -1"
_symmetry_group_IT_number 2
_symmetry_cell_setting 'triclinic'
loop_
_space_group_symop_operation_xyz
x,y,z
-x,-y,-z
loop_
_atom_site_type_symbol
_atom_site_label
_atom_site_fract_x
_atom_site_fract_y
_atom_site_fract_z
Si Si1 0.028054 0.716891 0.127152
Si Si2 0.727234 0.071166 0.084734
Si Si3 0.400283 0.625327 0.772253
Si Si4 0.774306 0.245121 0.542024
Si Si5 0.247613 0.451232 0.918077
Si Si6 0.204011 0.103898 0.468045
Si Si7 0.551524 0.011114 0.760952
O O1 0.914729 0.902331 0.104450
O O2 0.208082 0.685404 0.283223
O O3 0.096941 0.617095 0.978248
O O4 0.864775 0.658682 0.147494
O O5 0.771109 0.207053 0.184262
O O6 0.559769 0.057920 0.157905
O O7 0.640259 0.103242 0.900769
O O8 0.401558 0.650788 0.598524
O O9 0.587938 0.612051 0.917980
O O10 0.342893 0.488623 0.796461
O O11 0.987438 0.213864 0.502429
O O12 0.775785 0.074720 0.539016
O O13 0.268722 0.116587 0.313936
O O14 0.380122 0.109345 0.615729
#
# Coordination Sequence:
#
# PCOD9096047 Si02
#       7
#     2   2   2   2   2   2   2
#     4  11  24  45  67  97 132 172 219 271 325 391
#     4  11  21  39  74 100 121 167 228 274 310 383
#     4  11  24  45  67  97 132 172 219 271 325 391
#     4  11  22  40  64  94 138 167 216 270 328 385
#     4  10  26  46  66  92 136 176 216 266 332 392
#     4  10  21  38  57 106 138 163 203 292 327 375
#     4  10  20  35  61  98 137 164 208 269 337 369
#
# _framework density 25.377483000000002
#
# number of rings (size 3 to 8) (size 9 to 14) (size 15 to 20)
#    0.000    1.429    2.857    2.571    4.000    1.714 
#    0.000    0.000    0.000    0.000    0.000    0.000 
#    0.000    0.000    0.000    0.000    0.000    0.000 
#
# Total GULP energy -78369.480493 kJ/mol
# GULP energy per Si atom -5597.820035 kJ/mol
# Density = 2.531972 g / cm^3
# Si number density = 25.377483 Si / 1000 Ang^3
#
#
#
# Elastic Constant Matrix: (Units=GPa)
#
#
# Indices 1 2 3 4 5 6 
#
# 1 67.3125 6.4367 16.4244 -4.5660 -4.2753 -6.3584
# 2 6.4367 83.1470 13.3273 -2.1498 5.5837 1.6295
# 3 16.4244 13.3273 132.5384 4.0615 12.4101 13.0890
# 4 -4.5660 -2.1498 4.0615 33.7112 -2.4179 -7.3490
# 5 -4.2753 5.5837 12.4101 -2.4179 34.2099 16.5865
# 6 -6.3584 1.6295 13.0890 -7.3490 16.5865 20.7318
#
#
#
# Elastic Compliance Matrix: (Units=1/GPa)
#
#
# Indices 1 2 3 4 5 6 
#
# 1 0.016812 -0.000825 -0.002990 0.004588 -0.000965 0.009507
# 2 -0.000825 0.012434 -0.001128 0.001050 -0.002579 0.001917
# 3 -0.002990 -0.001128 0.008873 -0.003201 0.000054 -0.007608
# 4 0.004588 0.001050 -0.003201 0.034752 -0.005841 0.020338
# 5 -0.000965 -0.002579 0.000054 -0.005841 0.049281 -0.041625
# 6 0.009507 0.001917 -0.007608 0.020338 -0.041625 0.096315
#
#
# Mechanical properties :
#
#
# Convention : Reuss Voigt Hill
#
# Bulk Modulus (GPa) = 35.41801 39.48606 37.45203
# Shear Modulus (GPa) = 21.02913 34.18456 27.60685
#
# Velocity S-wave (km/s) = 2.88176 3.67419 3.30183
# Velocity P-wave (km/s) = 5.00594 5.79593 5.41536
#
# Compressibility (1/GPa) = 0.02823423
#
# Stress axis : x y z
#
# Youngs Moduli (GPa) = 59.47988 80.42239 112.69821
#
# Poissons Ratio (x) = 0.06637 0.33692
# Poissons Ratio (y) = 0.04908 0.12714
# Poissons Ratio (z) = 0.17782 0.09073
#
# Static dielectric constant tensor:
#      x y z
#    x 2.042840 -0.088640 -0.016480 
#    y -0.088640 2.056370 -0.014840 
#    z -0.016480 -0.014840 1.988430 
# 
# From -- ./inp_files/171644.got.cif
#   From: 2010.05.17/outbox.cif.g08.bks.cpg/sg2_86_cif.got.tgz:171644.got - 2010.06.03 11:33:40.
