data_PCOD9096965
_publ_section_title
;
Structure prediction by ZEFSAII (Michael W. Deem and Ramdas Pophale) SiO2 
 PCOD9096965
Probable space group: P -1
;
_chemical_formula_sum "Si O2"
_cell_formula_units_Z 14
_cell_length_a 11.617560
_cell_length_b 6.112002
_cell_length_c 11.027151
_cell_angle_alpha 91.533892
_cell_angle_beta 64.939091
_cell_angle_gamma 80.054108
_cell_volume 694.231752
_symmetry_space_group_name_H-M "P -1"
_symmetry_group_IT_number 2
_symmetry_cell_setting 'triclinic'
loop_
_space_group_symop_operation_xyz
x,y,z
-x,-y,-z
loop_
_atom_site_type_symbol
_atom_site_label
_atom_site_fract_x
_atom_site_fract_y
_atom_site_fract_z
Si Si1 0.571553 0.889831 0.343816
Si Si2 0.857477 0.423911 0.710414
Si Si3 0.668961 0.226830 0.643480
Si Si4 0.951112 0.322876 0.931916
Si Si5 0.262197 0.514553 0.601169
Si Si6 0.878596 0.779073 0.511359
Si Si7 0.183894 0.908093 0.813444
O O1 0.463762 0.861636 0.293080
O O2 0.652303 0.648294 0.344184
O O3 0.500000 0.000000 0.500000
O O4 0.674578 0.032524 0.254900
O O5 0.723634 0.351963 0.731423
O O6 0.885359 0.427877 0.839703
O O7 0.972872 0.239773 0.593549
O O8 0.781907 0.015038 0.556918
O O9 0.654080 0.393819 0.537693
O O10 0.868577 0.653734 0.641541
O O11 0.853079 0.201141 0.047775
O O12 0.076480 0.131136 0.842753
O O13 0.000000 0.500000 0.000000
O O14 0.174040 0.375154 0.566397
O O15 0.179182 0.725832 0.709427
#
# Coordination Sequence:
#
# PCOD9096965 Si02
#       7
#     2   2   2   2   2   2   2
#     4  12  22  37  61  95 129 159 203 248 298 365
#     4  10  22  36  58  86 122 158 200 255 304 362
#     4  11  22  35  58  90 127 160 196 248 308 359
#     4  11  24  45  64  89 119 160 212 256 303 360
#     4  11  20  37  61  94 124 158 201 252 304 358
#     4  10  20  36  58  91 123 158 197 252 310 358
#     4  11  24  38  66  91 121 162 207 253 304 354
#
# _framework density 20.166174999999999
#
# number of rings (size 3 to 8) (size 9 to 14) (size 15 to 20)
#    0.000    1.143    2.857    4.286    0.000    4.571 
#    0.000    0.714    0.000    4.286    0.000    0.000 
#    0.000    0.000    0.000    0.000    0.000    0.000 
#
# Total GULP energy -78267.147230 kJ/mol
# GULP energy per Si atom -5590.510516 kJ/mol
# Density = 2.012028 g / cm^3
# Si number density = 20.166175 Si / 1000 Ang^3
#
#
#
# Elastic Constant Matrix: (Units=GPa)
#
#
# Indices 1 2 3 4 5 6 
#
# 1 116.8559 34.5981 44.0709 -15.4855 8.4441 23.1429
# 2 34.5981 77.6273 29.7404 1.1657 4.8765 4.2443
# 3 44.0709 29.7404 78.9592 -15.3373 7.3121 12.5010
# 4 -15.4855 1.1657 -15.3373 40.3754 3.2004 -1.9571
# 5 8.4441 4.8765 7.3121 3.2004 38.8024 -5.9586
# 6 23.1429 4.2443 12.5010 -1.9571 -5.9586 34.5473
#
#
#
# Elastic Compliance Matrix: (Units=1/GPa)
#
#
# Indices 1 2 3 4 5 6 
#
# 1 0.013333 -0.003949 -0.003775 0.003683 -0.003136 -0.007413
# 2 -0.003949 0.016533 -0.005190 -0.003885 0.000441 0.002348
# 3 -0.003775 -0.005190 0.018769 0.005895 -0.003138 -0.003832
# 4 0.003683 -0.003885 0.005895 0.028715 -0.004289 -0.003236
# 5 -0.003136 0.000441 -0.003138 -0.004289 0.028551 0.007863
# 6 -0.007413 0.002348 -0.003832 -0.003236 0.007863 0.036183
#
#
# Mechanical properties :
#
#
# Convention : Reuss Voigt Hill
#
# Bulk Modulus (GPa) = 43.84733 54.47347 49.16040
# Shear Modulus (GPa) = 28.48761 33.74723 31.11742
#
# Velocity S-wave (km/s) = 3.76259 4.09523 3.93243
# Velocity P-wave (km/s) = 6.37702 7.03080 6.71187
#
# Compressibility (1/GPa) = 0.02280641
#
# Stress axis : x y z
#
# Youngs Moduli (GPa) = 75.00009 60.48531 53.27937
#
# Poissons Ratio (x) = 0.23888 0.20113
# Poissons Ratio (y) = 0.29620 0.27653
# Poissons Ratio (z) = 0.28312 0.31393
#
# Static dielectric constant tensor:
#      x y z
#    x 1.734640 0.020010 -0.016980 
#    y 0.020010 1.744770 -0.021270 
#    z -0.016980 -0.021270 1.715460 
# 
# From -- ./inp_files/410716.got.cif
#   From: 2010.05.17/outbox.cif.g08.bks.cpg/sg2_206_cif.got.tgz:410716.got - 2010.06.03 11:33:40.
