data_PCOD9096480
_publ_section_title
;
Structure prediction by ZEFSAII (Michael W. Deem and Ramdas Pophale) SiO2 
 PCOD9096480
Probable space group: P -1
;
_chemical_formula_sum "Si O2"
_cell_formula_units_Z 12
_cell_length_a 6.185766
_cell_length_b 11.916265
_cell_length_c 8.341230
_cell_angle_alpha 84.452050
_cell_angle_beta 71.935966
_cell_angle_gamma 91.327980
_cell_volume 580.880267
_symmetry_space_group_name_H-M "P -1"
_symmetry_group_IT_number 2
_symmetry_cell_setting 'triclinic'
loop_
_space_group_symop_operation_xyz
x,y,z
-x,-y,-z
loop_
_atom_site_type_symbol
_atom_site_label
_atom_site_fract_x
_atom_site_fract_y
_atom_site_fract_z
Si Si1 0.974764 0.270038 0.473269
Si Si2 0.655980 0.437447 0.654894
Si Si3 0.860852 0.394761 0.962963
Si Si4 0.773431 0.736628 0.241531
Si Si5 0.564909 0.680886 0.712100
Si Si6 0.548659 0.124481 0.536080
O O1 0.820132 0.378344 0.499576
O O2 0.808187 0.158922 0.518064
O O3 0.098806 0.267901 0.616507
O O4 0.177308 0.282862 0.296272
O O5 0.422136 0.361839 0.727506
O O6 0.602946 0.565884 0.620677
O O7 0.780845 0.431891 0.799329
O O8 0.630552 0.354512 0.113177
O O9 0.000000 0.500000 0.000000
O O10 0.027259 0.290981 0.922713
O O11 0.622767 0.845727 0.283465
O O12 0.490563 0.784493 0.608109
O O13 0.500000 0.000000 0.500000
#
# Coordination Sequence:
#
# PCOD9096480 Si02
#       6
#     2   2   2   2   2   2
#     4   9  21  36  59  83 114 148 192 237 285 333
#     4  10  20  36  55  86 122 152 179 230 285 348
#     4  11  22  35  56  88 126 152 178 223 290 354
#     4   9  20  38  58  84 119 151 187 228 287 338
#     4  11  22  33  58  89 116 153 188 226 285 341
#     4  10  23  42  61  81 109 151 202 245 276 320
#
# _framework density 20.658301000000002
#
# number of rings (size 3 to 8) (size 9 to 14) (size 15 to 20)
#    0.000    2.000    1.667    1.000    2.333    8.667 
#    0.000    0.833    0.000   10.000    0.000    0.000 
#    0.000    0.000    0.000    0.000    0.000    0.000 
#
# Total GULP energy -66929.524889 kJ/mol
# GULP energy per Si atom -5577.460407 kJ/mol
# Density = 2.061128 g / cm^3
# Si number density = 20.658301 Si / 1000 Ang^3
#
#
#
# Elastic Constant Matrix: (Units=GPa)
#
#
# Indices 1 2 3 4 5 6 
#
# 1 116.2698 49.9167 40.4317 0.0058 -24.1478 28.7832
# 2 49.9167 142.1998 30.4289 10.2399 -8.6446 28.0842
# 3 40.4317 30.4289 101.6245 7.2000 -39.8527 11.1178
# 4 0.0058 10.2399 7.2000 17.3907 -5.3889 2.7104
# 5 -24.1478 -8.6446 -39.8527 -5.3889 49.6097 -4.8338
# 6 28.7832 28.0842 11.1178 2.7104 -4.8338 22.5138
#
#
#
# Elastic Compliance Matrix: (Units=1/GPa)
#
#
# Indices 1 2 3 4 5 6 
#
# 1 0.014902 -0.001828 -0.002528 0.005761 0.004034 -0.015351
# 2 -0.001828 0.010067 -0.001702 -0.004361 -0.001879 -0.009258
# 3 -0.002528 -0.001702 0.015775 -0.002169 0.010927 0.000172
# 4 0.005761 -0.004361 -0.002169 0.064118 0.006568 -0.007162
# 5 0.004034 -0.001879 0.010927 0.006568 0.031058 -0.002333
# 6 -0.015351 -0.009258 0.000172 -0.007162 -0.002333 0.075868
#
#
# Mechanical properties :
#
#
# Convention : Reuss Voigt Hill
#
# Bulk Modulus (GPa) = 34.93059 66.84988 50.89024
# Shear Modulus (GPa) = 21.41817 33.85728 27.63773
#
# Velocity S-wave (km/s) = 3.22340 4.05275 3.66163
# Velocity P-wave (km/s) = 5.54971 7.37087 6.52415
#
# Compressibility (1/GPa) = 0.02862820
#
# Stress axis : x y z
#
# Youngs Moduli (GPa) = 67.10305 99.33926 63.38966
#
# Poissons Ratio (x) = 0.18160 0.16027
# Poissons Ratio (y) = 0.12267 0.10787
# Poissons Ratio (z) = 0.16966 0.16905
#
# Static dielectric constant tensor:
#      x y z
#    x 1.842750 -0.005100 -0.027620 
#    y -0.005100 1.710180 0.034940 
#    z -0.027620 0.034940 1.811340 
# 
# From -- ./inp_files/33282.got.cif
#   From: 2010.05.17/outbox.cif.g08.bks.cpg/sg2_17_cif.got.tgz:33282.got - 2010.06.03 11:33:40.
