data_PCOD9096511
_publ_section_title
;
Structure prediction by ZEFSAII (Michael W. Deem and Ramdas Pophale) SiO2 
 PCOD9096511
Probable space group: P -1
;
_chemical_formula_sum "Si O2"
_cell_formula_units_Z 14
_cell_length_a 18.662781
_cell_length_b 22.719191
_cell_length_c 18.813202
_cell_angle_alpha 17.268896
_cell_angle_beta 22.967324
_cell_angle_gamma 16.352440
_cell_volume 665.754988
_symmetry_space_group_name_H-M "P -1"
_symmetry_group_IT_number 2
_symmetry_cell_setting 'triclinic'
loop_
_space_group_symop_operation_xyz
x,y,z
-x,-y,-z
loop_
_atom_site_type_symbol
_atom_site_label
_atom_site_fract_x
_atom_site_fract_y
_atom_site_fract_z
Si Si1 0.834668 0.227204 0.053965
Si Si2 0.220634 0.623606 0.409366
Si Si3 0.672604 0.185294 0.401995
Si Si4 0.059661 0.775957 0.774035
Si Si5 0.719797 0.790640 0.721515
Si Si6 0.406822 0.674914 0.454664
Si Si7 0.455987 0.189665 0.383906
O O1 0.718933 0.272947 0.185844
O O2 0.673988 0.199858 0.180119
O O3 0.791765 0.486737 0.773134
O O4 0.117991 0.925503 0.147570
O O5 0.402525 0.431647 0.400119
O O6 0.369597 0.477490 0.515750
O O7 0.967370 0.681865 0.577502
O O8 0.877536 0.093150 0.379895
O O9 0.703519 0.934692 0.640878
O O10 0.192772 0.709586 0.653194
O O11 0.215452 0.480356 0.007389
O O12 0.754030 0.003112 0.785114
O O13 0.482224 0.037886 0.605877
O O14 0.500000 0.500000 0.500000
O O15 0.500000 0.000000 0.500000
#
# Coordination Sequence:
#
# PCOD9096511 Si02
#       7
#     2   2   2   2   2   2   2
#     4   9  18  33  53  76 106 142 175 213 260 309
#     4   9  19  35  55  79 108 141 176 217 263 310
#     4   9  18  36  55  76 110 144 175 214 260 311
#     4  10  21  36  56  79 107 142 176 216 264 313
#     4  10  21  36  55  80 107 139 178 218 263 313
#     4  10  20  36  56  80 107 139 178 217 264 316
#     4   9  17  32  54  77 104 139 175 214 262 310
#
# _framework density 21.028758
#
# number of rings (size 3 to 8) (size 9 to 14) (size 15 to 20)
#    0.000    2.857    0.000    2.571    0.000    1.714 
#    0.000   25.714    0.000   18.000    0.000    0.000 
#    0.000    0.000    0.000    0.000    0.000    0.000 
#
# Total GULP energy -78001.692122 kJ/mol
# GULP energy per Si atom -5571.549437 kJ/mol
# Density = 2.098090 g / cm^3
# Si number density = 21.028758 Si / 1000 Ang^3
#
#
#
# Elastic Constant Matrix: (Units=GPa)
#
#
# Indices 1 2 3 4 5 6 
#
# 1 98.8622 17.3385 38.9867 -15.3547 -3.6531 9.3069
# 2 17.3385 84.5495 -7.9713 -11.4176 -2.1510 19.1797
# 3 38.9867 -7.9713 27.1887 -16.9042 -8.7845 26.9816
# 4 -15.3547 -11.4176 -16.9042 22.0767 2.4212 -1.3499
# 5 -3.6531 -2.1510 -8.7845 2.4212 16.7813 -7.3929
# 6 9.3069 19.1797 26.9816 -1.3499 -7.3929 13.6405
#
#
#
# Elastic Compliance Matrix: (Units=1/GPa)
#
#
# Indices 1 2 3 4 5 6 
#
# 1 0.012125 0.001688 0.000589 0.009392 -0.003921 -0.013007
# 2 0.001688 0.007931 -0.011104 -0.002662 0.000126 0.009466
# 3 0.000589 -0.011104 -0.009209 -0.011391 0.012818 0.039247
# 4 0.009392 -0.002662 -0.011391 0.043192 0.000189 0.024243
# 5 -0.003921 0.000126 0.012818 0.000189 0.072743 0.016588
# 6 -0.013007 0.009466 0.039247 0.024243 0.016588 0.002632
#
#
# Mechanical properties :
#
#
# Convention : Reuss Voigt Hill
#
# Bulk Modulus (GPa) = -146.89402 34.14535 -56.37434
# Shear Modulus (GPa) = 34.53078 21.31614 27.92346
#
# Velocity S-wave (km/s) = 4.05665 3.18727 3.64795
# Velocity P-wave (km/s) = 6.93280 5.46055 3.02044
#
# Compressibility (1/GPa) = -0.00680763
#
# Stress axis : x y z
#
# Youngs Moduli (GPa) = 82.47354 126.09306 -108.58946
#
# Poissons Ratio (x) = -0.21286 0.06394
# Poissons Ratio (y) = -0.13923 -1.20580
# Poissons Ratio (z) = -0.04856 1.40016
#
# Static dielectric constant tensor:
#      x y z
#    x 1.777890 -0.058260 0.034400 
#    y -0.058260 1.780460 -0.028260 
#    z 0.034400 -0.028260 1.839500 
# 
# From -- ./inp_files/505723.got.cif
#   From: 2010.05.17/outbox.cif.g08.bks.cpg/sg2_253_cif.got.tgz:505723.got - 2010.06.03 11:33:40.
