data_PCOD9096921
_publ_section_title
;
Structure prediction by ZEFSAII (Michael W. Deem and Ramdas Pophale) SiO2 
 PCOD9096921
Probable space group: P -1
;
_chemical_formula_sum "Si O2"
_cell_formula_units_Z 12
_cell_length_a 25.494589
_cell_length_b 25.145525
_cell_length_c 11.243587
_cell_angle_alpha 23.443683
_cell_angle_beta 157.932668
_cell_angle_gamma 169.020011
_cell_volume 512.809622
_symmetry_space_group_name_H-M "P -1"
_symmetry_group_IT_number 2
_symmetry_cell_setting 'triclinic'
loop_
_space_group_symop_operation_xyz
x,y,z
-x,-y,-z
loop_
_atom_site_type_symbol
_atom_site_label
_atom_site_fract_x
_atom_site_fract_y
_atom_site_fract_z
Si Si1 0.550184 0.701423 0.219629
Si Si2 0.231147 0.285649 0.784246
Si Si3 0.251880 0.265787 0.217577
Si Si4 0.208541 0.852358 0.788215
Si Si5 0.026427 0.755386 0.154786
Si Si6 0.175560 0.689606 0.802914
O O1 0.500000 0.500000 0.500000
O O2 0.733569 0.845639 0.430658
O O3 0.224042 0.488245 0.968861
O O4 0.741553 0.946742 0.025165
O O5 0.418091 0.447133 0.724452
O O6 0.030540 0.241609 0.485407
O O7 0.500000 0.500000 0.000000
O O8 0.993280 0.968907 0.915286
O O9 0.151289 0.314045 0.974016
O O10 0.210998 0.825539 0.707097
O O11 0.111469 0.635155 0.097756
O O12 0.537024 0.161191 0.885683
O O13 0.159893 0.744064 0.529887
#
# Coordination Sequence:
#
# PCOD9096921 Si02
#       6
#     2   2   2   2   2   2
#     4  10  20  36  58  88 119 149 190 242 291 334
#     4  12  24  38  59  85 118 153 188 229 289 359
#     4  11  22  37  58  86 120 149 182 240 295 339
#     4  10  22  39  57  84 116 152 192 233 290 335
#     4  11  20  36  63  90 114 148 199 239 287 339
#     4  10  21  38  61  83 113 151 194 243 276 335
#
# _framework density 23.400497000000001
#
# number of rings (size 3 to 8) (size 9 to 14) (size 15 to 20)
#    0.000    1.333    0.000    8.500    0.000    4.000 
#    0.000    0.000    0.000   20.000    0.000    0.000 
#    0.000    0.000    0.000    0.000    0.000    0.000 
#
# Total GULP energy -67039.210652 kJ/mol
# GULP energy per Si atom -5586.600888 kJ/mol
# Density = 2.334724 g / cm^3
# Si number density = 23.400497 Si / 1000 Ang^3
#
#
#
# Elastic Constant Matrix: (Units=GPa)
#
#
# Indices 1 2 3 4 5 6 
#
# 1 14.5971 16.9492 6.7254 -2.6709 -4.3600 6.3597
# 2 16.9492 137.8165 16.7039 9.1896 -7.2738 13.4868
# 3 6.7254 16.7039 62.4076 4.4109 -19.7863 5.3961
# 4 -2.6709 9.1896 4.4109 30.8017 9.6381 -10.6471
# 5 -4.3600 -7.2738 -19.7863 9.6381 39.7637 5.9267
# 6 6.3597 13.4868 5.3961 -10.6471 5.9267 43.3490
#
#
#
# Elastic Compliance Matrix: (Units=1/GPa)
#
#
# Indices 1 2 3 4 5 6 
#
# 1 0.088422 -0.009631 -0.005143 0.006846 0.004957 -0.008332
# 2 -0.009631 0.009236 -0.000021 -0.005416 0.002400 -0.003116
# 3 -0.005143 -0.000021 0.022288 -0.010223 0.013960 -0.006433
# 4 0.006846 -0.005416 -0.010223 0.047851 -0.019363 0.016353
# 5 0.004957 0.002400 0.013960 -0.019363 0.039769 -0.013405
# 6 -0.008332 -0.003116 -0.006433 0.016353 -0.013405 0.031911
#
#
# Mechanical properties :
#
#
# Convention : Reuss Voigt Hill
#
# Bulk Modulus (GPa) = 11.06724 32.84203 21.95463
# Shear Modulus (GPa) = 16.71213 34.41239 25.56226
#
# Velocity S-wave (km/s) = 2.67531 3.83898 3.30870
# Velocity P-wave (km/s) = 3.77926 5.80651 4.89890
#
# Compressibility (1/GPa) = 0.09035679
#
# Stress axis : x y z
#
# Youngs Moduli (GPa) = 11.30942 108.27496 44.86671
#
# Poissons Ratio (x) = 1.04275 0.23075
# Poissons Ratio (y) = 0.10892 0.00094
# Poissons Ratio (z) = 0.05816 0.00227
#
# Static dielectric constant tensor:
#      x y z
#    x 2.058140 -0.048090 -0.058620 
#    y -0.048090 1.860070 0.019840 
#    z -0.058620 0.019840 1.922970 
# 
# From -- ./inp_files/62129.got.cif
#   From: 2010.05.17/outbox.cif.g08.bks.cpg/sg2_32_cif.got.tgz:62129.got - 2010.06.03 11:33:40.
