data_PCOD9096006
_publ_section_title
;
Structure prediction by ZEFSAII (Michael W. Deem and Ramdas Pophale) SiO2 
 PCOD9096006
Probable space group: P -1
;
_chemical_formula_sum "Si O2"
_cell_formula_units_Z 14
_cell_length_a 9.020476
_cell_length_b 14.106238
_cell_length_c 8.866097
_cell_angle_alpha 130.149695
_cell_angle_beta 98.562527
_cell_angle_gamma 114.118609
_cell_volume 634.836570
_symmetry_space_group_name_H-M "P -1"
_symmetry_group_IT_number 2
_symmetry_cell_setting 'triclinic'
loop_
_space_group_symop_operation_xyz
x,y,z
-x,-y,-z
loop_
_atom_site_type_symbol
_atom_site_label
_atom_site_fract_x
_atom_site_fract_y
_atom_site_fract_z
Si Si1 0.199040 0.940037 0.551688
Si Si2 0.502614 0.947289 0.780618
Si Si3 0.923454 0.204631 0.938682
Si Si4 0.217098 0.475211 0.917320
Si Si5 0.319290 0.249564 0.716803
Si Si6 0.028006 0.029612 0.212381
Si Si7 0.866361 0.432189 0.691538
O O1 0.221500 0.084001 0.621820
O O2 0.396322 0.981490 0.682462
O O3 0.136357 0.819829 0.273303
O O4 0.090161 0.923746 0.674784
O O5 0.347050 0.745617 0.566482
O O6 0.728607 0.067739 0.872475
O O7 0.500000 0.000000 0.000000
O O8 0.046399 0.144902 0.914732
O O9 0.038046 0.393989 0.197169
O O10 0.450615 0.625129 0.067098
O O11 0.182363 0.540064 0.123314
O O12 0.225351 0.333454 0.812348
O O13 0.042446 0.424478 0.724905
O O14 0.256798 0.182898 0.465615
O O15 0.000000 0.000000 0.000000
#
# Coordination Sequence:
#
# PCOD9096006 Si02
#       7
#     2   2   2   2   2   2   2
#     4  11  21  39  63  89 122 166 215 254 301 369
#     4  12  26  42  63  94 131 164 200 258 321 372
#     4  11  23  41  67  93 121 166 215 255 301 367
#     4  10  20  35  61  92 120 156 209 267 301 350
#     4  10  20  37  61  89 121 162 213 256 302 365
#     4  11  22  38  61  92 130 167 202 254 320 371
#     4  11  21  39  62  90 125 160 206 255 309 367
#
# _framework density 22.052923
#
# number of rings (size 3 to 8) (size 9 to 14) (size 15 to 20)
#    0.000    1.143    0.000    9.857    0.000    0.571 
#    0.000    2.857    0.000    6.857    0.000    0.000 
#    0.000    0.000    0.000    0.000    0.000    0.000 
#
# Total GULP energy -77941.338893 kJ/mol
# GULP energy per Si atom -5567.238492 kJ/mol
# Density = 2.200273 g / cm^3
# Si number density = 22.052923 Si / 1000 Ang^3
#
#
#
# Elastic Constant Matrix: (Units=GPa)
#
#
# Indices 1 2 3 4 5 6 
#
# 1 69.7631 18.8320 6.5397 21.8545 -14.6675 5.3572
# 2 18.8320 69.9880 53.1358 16.0485 -10.0897 -3.0409
# 3 6.5397 53.1358 117.5682 17.3019 -21.1449 10.7224
# 4 21.8545 16.0485 17.3019 51.0689 -3.5879 -6.8886
# 5 -14.6675 -10.0897 -21.1449 -3.5879 25.1596 6.2700
# 6 5.3572 -3.0409 10.7224 -6.8886 6.2700 44.2195
#
#
#
# Elastic Compliance Matrix: (Units=1/GPa)
#
#
# Indices 1 2 3 4 5 6 
#
# 1 0.023364 -0.007638 0.007737 -0.010223 0.017937 -0.009368
# 2 -0.007638 0.025460 -0.012936 0.000089 -0.006794 0.006790
# 3 0.007737 -0.012936 0.018603 -0.005677 0.016532 -0.009566
# 4 -0.010223 0.000089 -0.005677 0.026301 -0.008935 0.007985
# 5 0.017937 -0.006794 0.016532 -0.008935 0.064377 -0.017169
# 6 -0.009368 0.006790 -0.009566 0.007985 -0.017169 0.030214
#
#
# Mechanical properties :
#
#
# Convention : Reuss Voigt Hill
#
# Bulk Modulus (GPa) = 23.95037 46.03715 34.99376
# Shear Modulus (GPa) = 21.93846 36.01037 28.97441
#
# Velocity S-wave (km/s) = 3.15748 4.04531 3.62865
# Velocity P-wave (km/s) = 4.91700 6.53762 5.78435
#
# Compressibility (1/GPa) = 0.04175301
#
# Stress axis : x y z
#
# Youngs Moduli (GPa) = 42.80151 39.27764 53.75418
#
# Poissons Ratio (x) = 0.29999 -0.41590
# Poissons Ratio (y) = 0.32691 0.69537
# Poissons Ratio (z) = -0.33116 0.50810
#
# Static dielectric constant tensor:
#      x y z
#    x 1.854890 0.038090 0.048160 
#    y 0.038090 1.877690 0.087850 
#    z 0.048160 0.087850 1.899660 
# 
# From -- ./inp_files/209046.got.cif
#   From: 2010.05.17/outbox.cif.g08.bks.cpg/sg2_105_cif.got.tgz:209046.got - 2010.06.03 11:33:40.
