data_PCOD9096153
_publ_section_title
;
Structure prediction by ZEFSAII (Michael W. Deem and Ramdas Pophale) SiO2 
 PCOD9096153
Probable space group: P -1
;
_chemical_formula_sum "Si O2"
_cell_formula_units_Z 12
_cell_length_a 8.122621
_cell_length_b 24.828993
_cell_length_c 24.157911
_cell_angle_alpha 168.861054
_cell_angle_beta 28.947615
_cell_angle_gamma 148.205613
_cell_volume 453.619713
_symmetry_space_group_name_H-M "P -1"
_symmetry_group_IT_number 2
_symmetry_cell_setting 'triclinic'
loop_
_space_group_symop_operation_xyz
x,y,z
-x,-y,-z
loop_
_atom_site_type_symbol
_atom_site_label
_atom_site_fract_x
_atom_site_fract_y
_atom_site_fract_z
Si Si1 0.094248 0.294247 0.907580
Si Si2 0.399686 0.290952 0.158314
Si Si3 0.344801 0.815559 0.626170
Si Si4 0.705257 0.263519 0.774588
Si Si5 0.634720 0.720090 0.997172
Si Si6 0.600759 0.235597 0.166647
O O1 0.351932 0.378238 0.963729
O O2 0.256309 0.056777 0.579180
O O3 0.010680 0.566600 0.168013
O O4 0.783192 0.173218 0.908304
O O5 0.392992 0.607918 0.457006
O O6 0.397574 0.268592 0.202070
O O7 0.170742 0.094763 0.992403
O O8 0.270026 0.564482 0.352312
O O9 0.501365 0.020257 0.739782
O O10 0.643581 0.309603 0.903362
O O11 0.992077 0.797527 0.996405
O O12 0.500000 0.500000 0.500000
O O13 0.500000 0.000000 0.000000
#
# Coordination Sequence:
#
# PCOD9096153 Si02
#       6
#     2   2   2   2   2   2
#     4  10  20  35  62  95 123 165 212 256 309 360
#     4  11  22  46  62  96 130 168 205 269 301 380
#     4  10  24  40  68  88 136 174 200 244 342 364
#     4  10  20  35  62  95 123 165 212 256 309 360
#     4  11  22  46  62  96 130 168 205 269 301 380
#     4  12  26  44  72  98 118 160 220 268 316 368
#
# _framework density 26.453875
#
# number of rings (size 3 to 8) (size 9 to 14) (size 15 to 20)
#    0.000    1.333    1.667    4.000    0.000    0.000 
#    0.000   33.333    0.000    0.000    0.000    0.000 
#    0.000    0.000    0.000    0.000    0.000    0.000 
#
# Total GULP energy -66906.882472 kJ/mol
# GULP energy per Si atom -5575.573539 kJ/mol
# Density = 2.639367 g / cm^3
# Si number density = 26.453875 Si / 1000 Ang^3
#
#
#
# Elastic Constant Matrix: (Units=GPa)
#
#
# Indices 1 2 3 4 5 6 
#
# 1 126.1047 59.6022 32.5980 9.7082 4.7492 -33.6802
# 2 59.6022 129.0562 60.3022 22.9810 10.3192 -44.1682
# 3 32.5980 60.3022 166.8720 29.2829 5.3682 -50.6357
# 4 9.7082 22.9810 29.2829 38.8645 -7.8640 -3.0760
# 5 4.7492 10.3192 5.3682 -7.8640 34.3901 1.1494
# 6 -33.6802 -44.1682 -50.6357 -3.0760 1.1494 61.4587
#
#
#
# Elastic Compliance Matrix: (Units=1/GPa)
#
#
# Indices 1 2 3 4 5 6 
#
# 1 0.010584 -0.003752 0.000479 -0.000647 -0.000675 0.003479
# 2 -0.003752 0.014015 -0.000675 -0.007387 -0.005511 0.007192
# 3 0.000479 -0.000675 0.009799 -0.007170 -0.003285 0.007553
# 4 -0.000647 -0.007387 -0.007170 0.037366 0.012301 -0.009931
# 5 -0.000675 -0.005511 -0.003285 0.012301 0.034387 -0.007065
# 6 0.003479 0.007192 0.007553 -0.009931 -0.007065 0.029204
#
#
# Mechanical properties :
#
#
# Convention : Reuss Voigt Hill
#
# Bulk Modulus (GPa) = 37.73490 80.78197 59.25843
# Shear Modulus (GPa) = 32.87651 44.91137 38.89394
#
# Velocity S-wave (km/s) = 3.52914 4.12481 3.83855
# Velocity P-wave (km/s) = 5.55894 7.29991 6.48809
#
# Compressibility (1/GPa) = 0.02650067
#
# Stress axis : x y z
#
# Youngs Moduli (GPa) = 94.48452 71.35451 102.05171
#
# Poissons Ratio (x) = 0.26773 -0.04891
# Poissons Ratio (y) = 0.35451 0.06893
# Poissons Ratio (z) = -0.04528 0.04820
#
# Static dielectric constant tensor:
#      x y z
#    x 2.220000 0.153350 -0.014440 
#    y 0.153350 2.143530 -0.012470 
#    z -0.014440 -0.012470 2.010990 
# 
# From -- ./inp_files/312630.got.cif
#   From: 2010.05.17/outbox.cif.g08.bks.cpg/sg2_157_cif.got.tgz:312630.got - 2010.06.03 11:33:40.
