data_PCOD9096025
_publ_section_title
;
Structure prediction by ZEFSAII (Michael W. Deem and Ramdas Pophale) SiO2 
 PCOD9096025
Probable space group: P -1
;
_chemical_formula_sum "Si O2"
_cell_formula_units_Z 14
_cell_length_a 27.502750
_cell_length_b 15.486245
_cell_length_c 9.039085
_cell_angle_alpha 34.651099
_cell_angle_beta 148.743315
_cell_angle_gamma 160.908595
_cell_volume 650.878072
_symmetry_space_group_name_H-M "P -1"
_symmetry_group_IT_number 2
_symmetry_cell_setting 'triclinic'
loop_
_space_group_symop_operation_xyz
x,y,z
-x,-y,-z
loop_
_atom_site_type_symbol
_atom_site_label
_atom_site_fract_x
_atom_site_fract_y
_atom_site_fract_z
Si Si1 0.483566 0.000619 0.204092
Si Si2 0.990441 0.317858 0.349177
Si Si3 0.319384 0.911043 0.164772
Si Si4 0.887064 0.303463 0.621185
Si Si5 0.498802 0.770947 0.325289
Si Si6 0.318827 0.235000 0.708728
Si Si7 0.943275 0.090869 0.272066
O O1 0.607493 0.098505 0.508190
O O2 0.334207 0.859976 0.113787
O O3 0.441819 0.813751 0.242849
O O4 0.554105 0.231985 0.965645
O O5 0.054012 0.304195 0.395385
O O6 0.094131 0.534946 0.438224
O O7 0.845567 0.014247 0.466426
O O8 0.862201 0.274119 0.013909
O O9 0.411587 0.196733 0.005929
O O10 0.000000 0.500000 0.500000
O O11 0.695878 0.035144 0.463741
O O12 0.938368 0.212617 0.960931
O O13 0.426349 0.512925 0.538998
O O14 0.235919 0.153963 0.768402
O O15 0.000000 0.000000 0.500000
#
# Coordination Sequence:
#
# PCOD9096025 Si02
#       7
#     2   2   2   2   2   2   2
#     4  10  20  35  61  94 122 156 210 258 306 366
#     4   8  20  43  67  87 126 170 210 250 313 386
#     4   8  18  39  62  90 118 167 207 254 303 376
#     4  12  24  41  65  93 131 170 204 254 325 385
#     4  11  23  39  62  96 126 161 203 267 315 364
#     4   8  21  41  67  87 125 163 213 257 310 366
#     4   9  21  41  69  92 121 170 215 263 305 372
#
# _framework density 21.509405999999998
#
# number of rings (size 3 to 8) (size 9 to 14) (size 15 to 20)
#    1.714    0.571    0.000    3.000    0.000    6.286 
#    0.000    5.000    0.000    0.000    0.000    0.000 
#    0.000    0.000    0.000    0.000    0.000    0.000 
#
# Total GULP energy -78017.090370 kJ/mol
# GULP energy per Si atom -5572.649312 kJ/mol
# Density = 2.146045 g / cm^3
# Si number density = 21.509406 Si / 1000 Ang^3
#
#
#
# Elastic Constant Matrix: (Units=GPa)
#
#
# Indices 1 2 3 4 5 6 
#
# 1 121.9726 36.4222 60.1183 -25.1695 12.2619 8.0832
# 2 36.4222 103.7868 72.7401 -41.9250 5.4430 -2.1538
# 3 60.1183 72.7401 125.8969 -39.3279 -7.5455 -0.4833
# 4 -25.1695 -41.9250 -39.3279 21.1306 6.8530 -1.3806
# 5 12.2619 5.4430 -7.5455 6.8530 31.3759 -2.8900
# 6 8.0832 -2.1538 -0.4833 -1.3806 -2.8900 21.5153
#
#
#
# Elastic Compliance Matrix: (Units=1/GPa)
#
#
# Indices 1 2 3 4 5 6 
#
# 1 -0.048546 -0.190330 -0.023631 -0.532680 0.161377 -0.013848
# 2 -0.190330 -0.580851 -0.063405 -1.668083 0.521933 -0.024990
# 3 -0.023631 -0.063405 0.013106 -0.147565 0.055694 0.000838
# 4 -0.532680 -1.668083 -0.147565 -4.653449 1.471905 -0.071053
# 5 0.161377 0.521933 0.055694 1.471905 -0.427074 0.029950
# 6 -0.013848 -0.024990 0.000838 -0.071053 0.029950 0.048662
#
#
# Mechanical properties :
#
#
# Convention : Reuss Voigt Hill
#
# Bulk Modulus (GPa) = -0.85395 76.69083 37.91844
# Shear Modulus (GPa) = -0.91178 26.96273 13.02547
#
# Velocity S-wave (km/s) = -0.65178 3.54437 2.46351
# Velocity P-wave (km/s) = 0.98199 7.24445 5.07532
#
# Compressibility (1/GPa) = -1.17102371
#
# Stress axis : x y z
#
# Youngs Moduli (GPa) = -20.59921 -1.72161 76.30090
#
# Poissons Ratio (x) = -0.32767 1.80310
# Poissons Ratio (y) = -3.92064 4.83789
# Poissons Ratio (z) = -0.48679 -0.10916
#
# Static dielectric constant tensor:
#      x y z
#    x 1.794500 0.017900 0.008310 
#    y 0.017900 1.915180 -0.028620 
#    z 0.008310 -0.028620 1.813600 
# 
# From -- ./inp_files/358928.got.cif
#   From: 2010.05.17/outbox.cif.g08.bks.cpg/sg2_180_cif.got.tgz:358928.got - 2010.06.03 11:33:40.
