data_PCOD9096404
_publ_section_title
;
Structure prediction by ZEFSAII (Michael W. Deem and Ramdas Pophale) SiO2 
 PCOD9096404
Probable space group: P -1
;
_chemical_formula_sum "Si O2"
_cell_formula_units_Z 14
_cell_length_a 11.781832
_cell_length_b 11.156270
_cell_length_c 8.494953
_cell_angle_alpha 39.630536
_cell_angle_beta 83.407222
_cell_angle_gamma 60.895263
_cell_volume 550.512868
_symmetry_space_group_name_H-M "P -1"
_symmetry_group_IT_number 2
_symmetry_cell_setting 'triclinic'
loop_
_space_group_symop_operation_xyz
x,y,z
-x,-y,-z
loop_
_atom_site_type_symbol
_atom_site_label
_atom_site_fract_x
_atom_site_fract_y
_atom_site_fract_z
Si Si1 0.051543 0.772897 0.427993
Si Si2 0.362406 0.944108 0.521694
Si Si3 0.426554 0.259617 0.042273
Si Si4 0.223550 0.906973 0.062882
Si Si5 0.810527 0.230826 0.302273
Si Si6 0.711922 0.746871 0.214379
Si Si7 0.660434 0.523407 0.721993
O O1 0.057107 0.824684 0.557867
O O2 0.145984 0.491183 0.654875
O O3 0.132215 0.865301 0.235854
O O4 0.893302 0.914128 0.233651
O O5 0.417164 0.881996 0.756133
O O6 0.226804 0.950374 0.509141
O O7 0.505899 0.721181 0.629802
O O8 0.346122 0.173789 0.237754
O O9 0.328748 0.541284 0.804522
O O10 0.420067 0.198351 0.927144
O O11 0.277962 0.040070 0.000374
O O12 0.342908 0.647386 0.226216
O O13 0.779045 0.349520 0.014393
O O14 0.706209 0.655618 0.477969
#
# Coordination Sequence:
#
# PCOD9096404 Si02
#       7
#     2   2   2   2   2   2   2
#     4   9  20  38  60  80 102 143 191 216 263 329
#     4  10  20  37  57  79 109 145 181 222 265 318
#     4   9  19  34  55  77 103 144 183 212 262 323
#     4  10  20  37  58  81 110 141 175 229 273 312
#     4  10  20  38  57  78 109 145 182 224 263 316
#     4  10  20  36  54  81 113 141 176 224 270 319
#     4  10  22  34  53  85 113 138 180 221 270 327
#
# _framework density 25.430833
#
# number of rings (size 3 to 8) (size 9 to 14) (size 15 to 20)
#    0.000    2.286    0.000    3.000    0.000    5.714 
#    0.000   15.714    0.000    0.000    0.000    0.000 
#    0.000    0.000    0.000    0.000    0.000    0.000 
#
# Total GULP energy -78433.254249 kJ/mol
# GULP energy per Si atom -5602.375303 kJ/mol
# Density = 2.537295 g / cm^3
# Si number density = 25.430833 Si / 1000 Ang^3
#
#
#
# Elastic Constant Matrix: (Units=GPa)
#
#
# Indices 1 2 3 4 5 6 
#
# 1 111.2983 37.2349 20.6198 -9.1004 -8.4011 15.7820
# 2 37.2349 116.5400 -6.9824 -0.6556 -6.6810 25.5580
# 3 20.6198 -6.9824 56.7964 7.8319 -2.8401 7.4725
# 4 -9.1004 -0.6556 7.8319 44.4292 13.7715 -5.9298
# 5 -8.4011 -6.6810 -2.8401 13.7715 39.1280 -3.4950
# 6 15.7820 25.5580 7.4725 -5.9298 -3.4950 38.3902
#
#
#
# Elastic Compliance Matrix: (Units=1/GPa)
#
#
# Indices 1 2 3 4 5 6 
#
# 1 0.011544 -0.003776 -0.004944 0.002964 0.000362 -0.000779
# 2 -0.003776 0.011756 0.004285 -0.002923 0.001876 -0.007388
# 3 -0.004944 0.004285 0.021734 -0.006486 0.003015 -0.005778
# 4 0.002964 -0.002923 -0.006486 0.027940 -0.009683 0.005424
# 5 0.000362 0.001876 0.003015 -0.009683 0.029511 -0.000794
# 6 -0.000779 -0.007388 -0.005778 0.005424 -0.000794 0.033178
#
#
# Mechanical properties :
#
#
# Convention : Reuss Voigt Hill
#
# Bulk Modulus (GPa) = 27.65188 42.93105 35.29146
# Shear Modulus (GPa) = 31.93116 39.97365 35.95241
#
# Velocity S-wave (km/s) = 3.54730 3.96897 3.76404
# Velocity P-wave (km/s) = 5.26068 6.15806 5.72698
#
# Compressibility (1/GPa) = 0.03616391
#
# Stress axis : x y z
#
# Youngs Moduli (GPa) = 86.62322 85.06629 46.01150
#
# Poissons Ratio (x) = 0.32125 0.22746
# Poissons Ratio (y) = 0.32713 -0.19717
# Poissons Ratio (z) = 0.42823 -0.36453
#
# Static dielectric constant tensor:
#      x y z
#    x 1.962120 -0.024420 0.055240 
#    y -0.024420 2.078750 0.009610 
#    z 0.055240 0.009610 2.024490 
# 
# From -- ./inp_files/251468.got.cif
#   From: 2010.05.17/outbox.cif.g08.bks.cpg/sg2_126_cif.got.tgz:251468.got - 2010.06.03 11:33:40.
