data_PCOD9096681
_publ_section_title
;
Structure prediction by ZEFSAII (Michael W. Deem and Ramdas Pophale) SiO2 
 PCOD9096681
Probable space group: P -1
;
_chemical_formula_sum "Si O2"
_cell_formula_units_Z 12
_cell_length_a 7.862868
_cell_length_b 8.938767
_cell_length_c 14.413292
_cell_angle_alpha 56.121522
_cell_angle_beta 41.625914
_cell_angle_gamma 50.638670
_cell_volume 513.375613
_symmetry_space_group_name_H-M "P -1"
_symmetry_group_IT_number 2
_symmetry_cell_setting 'triclinic'
loop_
_space_group_symop_operation_xyz
x,y,z
-x,-y,-z
loop_
_atom_site_type_symbol
_atom_site_label
_atom_site_fract_x
_atom_site_fract_y
_atom_site_fract_z
Si Si1 0.547083 0.463731 0.863000
Si Si2 0.793390 0.388385 0.598188
Si Si3 0.862417 0.012794 0.951224
Si Si4 0.930292 0.615946 0.083835
Si Si5 0.879614 0.534656 0.333943
Si Si6 0.216224 0.078250 0.643830
O O1 0.551190 0.464121 0.747758
O O2 0.784311 0.543939 0.763703
O O3 0.661298 0.233752 0.927732
O O4 0.251784 0.585328 0.986450
O O5 0.757710 0.417715 0.492876
O O6 0.000000 0.500000 0.500000
O O7 0.978026 0.170421 0.631474
O O8 0.112242 0.945976 0.796321
O O9 0.744084 0.843897 0.061353
O O10 0.000000 0.000000 0.000000
O O11 0.827574 0.544329 0.242638
O O12 0.000000 0.500000 0.000000
O O13 0.780714 0.752803 0.343971
O O14 0.500000 0.000000 0.500000
#
# Coordination Sequence:
#
# PCOD9096681 Si02
#       6
#     2   2   2   2   2   2
#     4   9  19  36  59  78 108 148 183 235 273 313
#     4   7  15  30  50  79 102 131 184 228 267 316
#     4  10  20  36  57  85 109 141 195 226 264 337
#     4  12  24  36  55  84 116 153 182 221 284 328
#     4   9  18  35  53  83 108 138 188 224 270 333
#     4   9  17  28  55  86 103 132 179 240 271 307
#
# _framework density 23.374697999999999
#
# number of rings (size 3 to 8) (size 9 to 14) (size 15 to 20)
#    0.000    3.333    3.333    0.500    7.000    0.667 
#    0.000    0.833    0.000    2.000    0.000    0.000 
#    0.000    0.000    0.000    0.000    0.000    0.000 
#
# Total GULP energy -66861.581873 kJ/mol
# GULP energy per Si atom -5571.798489 kJ/mol
# Density = 2.332150 g / cm^3
# Si number density = 23.374698 Si / 1000 Ang^3
#
#
#
# Elastic Constant Matrix: (Units=GPa)
#
#
# Indices 1 2 3 4 5 6 
#
# 1 78.1415 15.5233 52.8180 -3.4497 41.8576 10.9769
# 2 15.5233 53.6418 23.4075 1.9015 15.8437 -5.4330
# 3 52.8180 23.4075 186.5047 10.6588 57.2364 -18.3450
# 4 -3.4497 1.9015 10.6588 38.6140 -13.9235 1.7560
# 5 41.8576 15.8437 57.2364 -13.9235 57.6824 9.2761
# 6 10.9769 -5.4330 -18.3450 1.7560 9.2761 24.3180
#
#
#
# Elastic Compliance Matrix: (Units=1/GPa)
#
#
# Indices 1 2 3 4 5 6 
#
# 1 0.023014 -0.002900 -0.003985 0.000040 -0.010313 -0.010112
# 2 -0.002900 0.023020 0.003028 -0.006816 -0.011029 0.013436
# 3 -0.003985 0.003028 0.014934 -0.012604 -0.019343 0.022030
# 4 0.000040 -0.006816 -0.012604 0.041025 0.028238 -0.024783
# 5 -0.010313 -0.011029 -0.019343 0.028238 0.059853 -0.037271
# 6 -0.010112 0.013436 0.022030 -0.024783 -0.037271 0.081313
#
#
# Mechanical properties :
#
#
# Convention : Reuss Voigt Hill
#
# Bulk Modulus (GPa) = 18.77847 55.75394 37.26620
# Shear Modulus (GPa) = 18.61329 39.22549 28.91939
#
# Velocity S-wave (km/s) = 2.82494 4.10093 3.52121
# Velocity P-wave (km/s) = 4.32337 6.80643 5.70171
#
# Compressibility (1/GPa) = 0.05325248
#
# Stress axis : x y z
#
# Youngs Moduli (GPa) = 43.45201 43.44027 66.96175
#
# Poissons Ratio (x) = 0.12599 0.26687
# Poissons Ratio (y) = 0.12602 -0.20276
# Poissons Ratio (z) = 0.17317 -0.13153
#
# Static dielectric constant tensor:
#      x y z
#    x 2.071160 -0.049860 -0.000430 
#    y -0.049860 1.923680 -0.056550 
#    z -0.000430 -0.056550 1.941700 
# 
# From -- ./inp_files/275892.got.cif
#   From: 2010.05.17/outbox.cif.g08.bks.cpg/sg2_138_cif.got.tgz:275892.got - 2010.06.03 11:33:40.
