data_PCOD9096723
_publ_section_title
;
Structure prediction by ZEFSAII (Michael W. Deem and Ramdas Pophale) SiO2 
 PCOD9096723
Probable space group: P -1
;
_chemical_formula_sum "Si O2"
_cell_formula_units_Z 16
_cell_length_a 13.496987
_cell_length_b 15.410343
_cell_length_c 11.021759
_cell_angle_alpha 42.802325
_cell_angle_beta 147.329403
_cell_angle_gamma 136.388440
_cell_volume 804.671005
_symmetry_space_group_name_H-M "P -1"
_symmetry_group_IT_number 2
_symmetry_cell_setting 'triclinic'
loop_
_space_group_symop_operation_xyz
x,y,z
-x,-y,-z
loop_
_atom_site_type_symbol
_atom_site_label
_atom_site_fract_x
_atom_site_fract_y
_atom_site_fract_z
Si Si1 0.646695 0.367784 0.758497
Si Si2 0.085106 0.694222 0.728339
Si Si3 0.408041 0.853888 0.499657
Si Si4 0.797175 0.018809 0.316492
Si Si5 0.393961 0.356692 0.979703
Si Si6 0.433887 0.880943 0.214537
Si Si7 0.959848 0.350154 0.555425
Si Si8 0.366573 0.372473 0.653752
O O1 0.677648 0.264477 0.799725
O O2 0.474392 0.303989 0.740485
O O3 0.590973 0.478568 0.508225
O O4 0.828993 0.402183 0.001230
O O5 0.177651 0.844224 0.720518
O O6 0.109171 0.663630 0.642758
O O7 0.861397 0.676456 0.534570
O O8 0.534457 0.757452 0.767286
O O9 0.413063 0.880867 0.334978
O O10 0.196522 0.765686 0.415275
O O11 0.500000 0.000000 0.500000
O O12 0.654857 0.911420 0.367847
O O13 0.669436 0.024907 0.059694
O O14 0.000000 0.000000 0.500000
O O15 0.500000 0.500000 0.000000
O O16 0.433062 0.364113 0.867882
O O17 0.167281 0.326526 0.793638
O O18 0.000000 0.500000 0.500000
#
# Coordination Sequence:
#
# PCOD9096723 Si02
#       8
#     2   2   2   2   2   2   2   2
#     4  10  20  36  57  88 121 156 201 262 320 363
#     4  10  21  37  59  89 122 157 209 263 315 382
#     4  12  26  44  67  99 134 175 221 279 330 386
#     4  10  21  40  65  89 123 169 205 259 336 387
#     4  11  23  42  66  93 131 175 220 268 328 397
#     4  10  23  39  60  90 128 158 212 262 315 392
#     4  11  24  42  67  96 132 181 225 268 333 398
#     4  10  21  36  59  88 119 158 208 255 312 382
#
# _framework density 19.883904000000001
#
# number of rings (size 3 to 8) (size 9 to 14) (size 15 to 20)
#    0.000    1.500    1.250    3.375    1.750    5.500 
#    0.000    0.000    0.000    0.000    0.000    0.000 
#    0.000    0.000    0.000    0.000    0.000    0.000 
#
# Total GULP energy -89218.015148 kJ/mol
# GULP energy per Si atom -5576.125947 kJ/mol
# Density = 1.983865 g / cm^3
# Si number density = 19.883904 Si / 1000 Ang^3
#
#
#
# Elastic Constant Matrix: (Units=GPa)
#
#
# Indices 1 2 3 4 5 6 
#
# 1 162.1361 35.2533 39.3058 8.9827 -17.5287 6.5047
# 2 35.2533 118.3901 53.4079 8.8939 -22.2604 -7.7169
# 3 39.3058 53.4079 125.3478 19.1150 -16.7905 -4.4981
# 4 8.9827 8.8939 19.1150 31.1192 -6.3618 1.6069
# 5 -17.5287 -22.2604 -16.7905 -6.3618 45.7590 8.2282
# 6 6.5047 -7.7169 -4.4981 1.6069 8.2282 36.1636
#
#
#
# Elastic Compliance Matrix: (Units=1/GPa)
#
#
# Indices 1 2 3 4 5 6 
#
# 1 0.007100 -0.001196 -0.001491 -0.000285 0.001937 -0.002146
# 2 -0.001196 0.011300 -0.003966 0.000169 0.003363 0.001361
# 3 -0.001491 -0.003966 0.011039 -0.005122 0.000682 0.000867
# 4 -0.000285 0.000169 -0.005122 0.036219 0.003667 -0.002994
# 5 0.001937 0.003363 0.000682 0.003667 0.026003 -0.005625
# 6 -0.002146 0.001361 0.000867 -0.002994 -0.005625 0.029849
#
#
# Mechanical properties :
#
#
# Convention : Reuss Voigt Hill
#
# Bulk Modulus (GPa) = 61.98420 73.53424 67.75922
# Shear Modulus (GPa) = 35.66458 41.13550 38.40004
#
# Velocity S-wave (km/s) = 4.23973 4.55332 4.39932
# Velocity P-wave (km/s) = 7.43020 8.04399 7.74318
#
# Compressibility (1/GPa) = 0.01613314
#
# Stress axis : x y z
#
# Youngs Moduli (GPa) = 140.83574 88.49336 90.58914
#
# Poissons Ratio (x) = 0.10583 0.13507
# Poissons Ratio (y) = 0.16843 0.35931
# Poissons Ratio (z) = 0.20999 0.35099
#
# Static dielectric constant tensor:
#      x y z
#    x 1.720030 -0.007400 0.028660 
#    y -0.007400 1.744250 -0.004330 
#    z 0.028660 -0.004330 1.699620 
# 
# From -- ./inp_files/271999.got.cif
#   From: 2010.05.17/outbox.cif.g08.bks.cpg/sg2_136_cif.got.tgz:271999.got - 2010.06.03 11:33:40.
