data_PCOD9096949
_publ_section_title
;
Structure prediction by ZEFSAII (Michael W. Deem and Ramdas Pophale) SiO2 
 PCOD9096949
Probable space group: P -1
;
_chemical_formula_sum "Si O2"
_cell_formula_units_Z 14
_cell_length_a 18.004757
_cell_length_b 8.607502
_cell_length_c 11.638848
_cell_angle_alpha 38.102569
_cell_angle_beta 142.593655
_cell_angle_gamma 139.383186
_cell_volume 631.450455
_symmetry_space_group_name_H-M "P -1"
_symmetry_group_IT_number 2
_symmetry_cell_setting 'triclinic'
loop_
_space_group_symop_operation_xyz
x,y,z
-x,-y,-z
loop_
_atom_site_type_symbol
_atom_site_label
_atom_site_fract_x
_atom_site_fract_y
_atom_site_fract_z
Si Si1 0.332088 0.878784 0.235492
Si Si2 0.816196 0.087104 0.173387
Si Si3 0.023430 0.128822 0.788606
Si Si4 0.821887 0.655711 0.913070
Si Si5 0.621865 0.926457 0.561177
Si Si6 0.112833 0.358296 0.354470
Si Si7 0.163096 0.571795 0.540632
O O1 0.467512 0.831538 0.411236
O O2 0.212511 0.592774 0.265419
O O3 0.347048 0.030829 0.288125
O O4 0.294536 0.018990 0.998231
O O5 0.961785 0.207917 0.226396
O O6 0.824714 0.865356 0.403503
O O7 0.793009 0.340515 0.056685
O O8 0.122601 0.287539 0.719702
O O9 0.912247 0.262407 0.582598
O O10 0.108871 0.212058 0.960127
O O11 0.933093 0.814922 0.863247
O O12 0.693484 0.737240 0.704803
O O13 0.689801 0.224424 0.414761
O O14 0.106422 0.504915 0.382283
#
# Coordination Sequence:
#
# PCOD9096949 Si02
#       7
#     2   2   2   2   2   2   2
#     4  10  22  43  62  83 121 161 193 241 295 340
#     4  11  23  38  60  88 122 153 192 246 301 342
#     4   9  18  32  59  88 116 147 192 246 295 335
#     4  10  20  36  58  90 117 148 198 239 294 350
#     4   9  21  41  61  85 116 155 205 237 278 364
#     4  10  22  39  58  91 120 150 200 241 287 366
#     4   9  17  35  58  86 115 149 194 246 286 340
#
# _framework density 22.171178000000001
#
# number of rings (size 3 to 8) (size 9 to 14) (size 15 to 20)
#    0.000    2.286    1.429    0.429    4.000    2.857 
#    5.143    2.857    0.000    0.000    0.000    0.000 
#    0.000    0.000    0.000    0.000    0.000    0.000 
#
# Total GULP energy -78176.685344 kJ/mol
# GULP energy per Si atom -5584.048953 kJ/mol
# Density = 2.212072 g / cm^3
# Si number density = 22.171178 Si / 1000 Ang^3
#
#
#
# Elastic Constant Matrix: (Units=GPa)
#
#
# Indices 1 2 3 4 5 6 
#
# 1 57.2269 4.5363 23.2907 -0.6316 7.9910 9.6769
# 2 4.5363 45.2441 21.3486 1.2996 6.3405 -6.0048
# 3 23.2907 21.3486 90.4006 3.6932 19.2433 -1.6708
# 4 -0.6316 1.2996 3.6932 34.9948 -3.1167 6.3605
# 5 7.9910 6.3405 19.2433 -3.1167 20.2741 -8.7960
# 6 9.6769 -6.0048 -1.6708 6.3605 -8.7960 24.5709
#
#
#
# Elastic Compliance Matrix: (Units=1/GPa)
#
#
# Indices 1 2 3 4 5 6 
#
# 1 0.023013 -0.000953 -0.003726 0.002430 -0.010985 -0.014111
# 2 -0.000953 0.025805 -0.005769 -0.001571 0.000526 0.006884
# 3 -0.003726 -0.005769 0.016411 -0.002241 -0.014073 -0.003284
# 4 0.002430 -0.001571 -0.002241 0.030695 0.002704 -0.008471
# 5 -0.010985 0.000526 -0.014073 0.002704 0.081067 0.031819
# 6 -0.014111 0.006884 -0.003284 -0.008471 0.031819 0.061299
#
#
# Mechanical properties :
#
#
# Convention : Reuss Voigt Hill
#
# Bulk Modulus (GPa) = 22.55622 32.35808 27.45715
# Shear Modulus (GPa) = 18.25065 25.54769 21.89917
#
# Velocity S-wave (km/s) = 2.87221 3.39823 3.14623
# Velocity P-wave (km/s) = 4.60382 5.47938 5.06057
#
# Compressibility (1/GPa) = 0.04433366
#
# Stress axis : x y z
#
# Youngs Moduli (GPa) = 43.45358 38.75201 60.93537
#
# Poissons Ratio (x) = 0.03691 0.22704
# Poissons Ratio (y) = 0.04139 0.35155
# Poissons Ratio (z) = 0.16190 0.22357
#
# Static dielectric constant tensor:
#      x y z
#    x 1.885250 -0.048590 -0.044500 
#    y -0.048590 1.829060 -0.033060 
#    z -0.044500 -0.033060 1.840480 
# 
# From -- ./inp_files/460966.got.cif
#   From: 2010.05.17/outbox.cif.g08.bks.cpg/sg2_231_cif.got.tgz:460966.got - 2010.06.03 11:33:40.
