data_PCOD9096489
_publ_section_title
;
Structure prediction by ZEFSAII (Michael W. Deem and Ramdas Pophale) SiO2 
 PCOD9096489
Probable space group: P -1
;
_chemical_formula_sum "Si O2"
_cell_formula_units_Z 16
_cell_length_a 5.138033
_cell_length_b 11.768015
_cell_length_c 14.534956
_cell_angle_alpha 43.830790
_cell_angle_beta 103.457774
_cell_angle_gamma 93.644617
_cell_volume 584.774252
_symmetry_space_group_name_H-M "P -1"
_symmetry_group_IT_number 2
_symmetry_cell_setting 'triclinic'
loop_
_space_group_symop_operation_xyz
x,y,z
-x,-y,-z
loop_
_atom_site_type_symbol
_atom_site_label
_atom_site_fract_x
_atom_site_fract_y
_atom_site_fract_z
Si Si1 0.583936 0.271792 0.099928
Si Si2 0.702040 0.178679 0.966628
Si Si3 0.179439 0.284849 0.211123
Si Si4 0.105487 0.187280 0.828482
Si Si5 0.641837 0.891473 0.334758
Si Si6 0.605233 0.611200 0.364917
Si Si7 0.446902 0.356507 0.361761
Si Si8 0.849128 0.068648 0.539629
O O1 0.341448 0.353665 0.099383
O O2 0.868573 0.281869 0.165204
O O3 0.520617 0.082288 0.202980
O O4 0.648980 0.294574 0.984274
O O5 0.398827 0.170379 0.911670
O O6 0.882423 0.218823 0.870915
O O7 0.869454 0.993541 0.111991
O O8 0.214928 0.378321 0.254504
O O9 0.298103 0.088710 0.354584
O O10 0.095849 0.347612 0.666783
O O11 0.528682 0.793632 0.298476
O O12 0.589434 0.779710 0.483575
O O13 0.959189 0.900476 0.376454
O O14 0.500000 0.500000 0.500000
O O15 0.516771 0.517342 0.322980
O O16 0.700795 0.250422 0.394108
O O17 0.000000 0.000000 0.500000
#
# Coordination Sequence:
#
# PCOD9096489 Si02
#       8
#     2   2   2   2   2   2   2   2
#     4  11  21  37  64  96 120 154 215 289 315 364
#     4  10  21  40  71  90 128 159 224 278 319 367
#     4  11  22  34  61  89 128 164 215 268 322 374
#     4  10  21  43  64  97 124 173 210 267 328 381
#     4  10  20  36  55  88 128 164 216 255 326 379
#     4  10  23  43  62  94 138 174 211 256 324 417
#     4  11  21  38  55  85 131 180 206 253 328 399
#     4  11  20  34  57  83 125 174 216 265 309 383
#
# _framework density 27.360987000000002
#
# number of rings (size 3 to 8) (size 9 to 14) (size 15 to 20)
#    0.000    1.500    3.750    2.625    0.000    0.500 
#    9.000    0.000    0.000    4.500    0.000    0.000 
#    0.000    0.000    0.000    0.000    0.000    0.000 
#
# Total GULP energy -89284.134134 kJ/mol
# GULP energy per Si atom -5580.258383 kJ/mol
# Density = 2.729871 g / cm^3
# Si number density = 27.360987 Si / 1000 Ang^3
#
#
#
# Elastic Constant Matrix: (Units=GPa)
#
#
# Indices 1 2 3 4 5 6 
#
# 1 112.5693 44.9383 32.9542 4.9413 -29.1194 -10.8346
# 2 44.9383 198.0728 52.2025 26.4156 -1.1120 4.8294
# 3 32.9542 52.2025 113.3547 4.1794 -38.6149 -0.2466
# 4 4.9413 26.4156 4.1794 61.0836 -5.7003 -4.8470
# 5 -29.1194 -1.1120 -38.6149 -5.7003 48.5873 4.7498
# 6 -10.8346 4.8294 -0.2466 -4.8470 4.7498 24.6616
#
#
#
# Elastic Compliance Matrix: (Units=1/GPa)
#
#
# Indices 1 2 3 4 5 6 
#
# 1 0.012337 -0.003140 0.000281 0.001406 0.007229 0.004922
# 2 -0.003140 0.007307 -0.004070 -0.003302 -0.005090 -0.002520
# 3 0.000281 -0.004070 0.014636 0.001785 0.012004 -0.000894
# 4 0.001406 -0.003302 0.001785 0.018256 0.003925 0.004114
# 5 0.007229 -0.005090 0.012004 0.003925 0.034961 -0.001669
# 6 0.004922 -0.002520 -0.000894 0.004114 -0.001669 0.044326
#
#
# Mechanical properties :
#
#
# Convention : Reuss Voigt Hill
#
# Bulk Modulus (GPa) = 48.96749 76.02075 62.49412
# Shear Modulus (GPa) = 32.78960 46.45995 39.62478
#
# Velocity S-wave (km/s) = 3.46556 4.12519 3.80968
# Velocity P-wave (km/s) = 5.82659 7.10875 6.49936
#
# Compressibility (1/GPa) = 0.02042171
#
# Stress axis : x y z
#
# Youngs Moduli (GPa) = 81.06015 136.85662 68.32467
#
# Poissons Ratio (x) = 0.42970 -0.01919
# Poissons Ratio (y) = 0.25451 0.27808
# Poissons Ratio (z) = -0.02277 0.55700
#
# Static dielectric constant tensor:
#      x y z
#    x 2.267010 -0.048380 -0.032180 
#    y -0.048380 2.102920 0.004050 
#    z -0.032180 0.004050 2.378930 
# 
# From -- ./inp_files/482749.got.cif
#   From: 2010.05.17/outbox.cif.g08.bks.cpg/sg2_242_cif.got.tgz:482749.got - 2010.06.03 11:33:40.
