data_PCOD9096706
_publ_section_title
;
Structure prediction by ZEFSAII (Michael W. Deem and Ramdas Pophale) SiO2 
 PCOD9096706
Probable space group: P -1
;
_chemical_formula_sum "Si O2"
_cell_formula_units_Z 16
_cell_length_a 13.811185
_cell_length_b 11.391141
_cell_length_c 9.411757
_cell_angle_alpha 89.591144
_cell_angle_beta 83.156829
_cell_angle_gamma 149.362939
_cell_volume 731.383277
_symmetry_space_group_name_H-M "P -1"
_symmetry_group_IT_number 2
_symmetry_cell_setting 'triclinic'
loop_
_space_group_symop_operation_xyz
x,y,z
-x,-y,-z
loop_
_atom_site_type_symbol
_atom_site_label
_atom_site_fract_x
_atom_site_fract_y
_atom_site_fract_z
Si Si1 0.628376 0.359286 0.228059
Si Si2 0.947703 0.888334 0.162569
Si Si3 0.822109 0.405486 0.397501
Si Si4 0.819235 0.048986 0.698412
Si Si5 0.723193 0.081916 0.225053
Si Si6 0.080264 0.917986 0.638340
Si Si7 0.742907 0.391561 0.710667
Si Si8 0.272761 0.741575 0.002463
O O1 0.750269 0.605238 0.187563
O O2 0.663388 0.338553 0.376546
O O3 0.722471 0.359280 0.109759
O O4 0.401247 0.139200 0.239206
O O5 0.112269 0.971120 0.193236
O O6 0.919899 0.956006 0.290109
O O7 0.000000 0.000000 0.000000
O O8 0.770109 0.231306 0.331173
O O9 0.799744 0.370344 0.568823
O O10 0.027787 0.683272 0.325728
O O11 0.838326 0.011197 0.537028
O O12 0.804275 0.046738 0.273503
O O13 0.803247 0.220177 0.060979
O O14 0.489002 0.830629 0.246393
O O15 0.861033 0.635681 0.673453
O O16 0.815902 0.401069 0.837791
O O17 0.500000 0.000000 0.000000
#
# Coordination Sequence:
#
# PCOD9096706 Si02
#       8
#     2   2   2   2   2   2   2   2
#     4  10  21  41  64  85 116 156 192 237 292 343
#     4  11  25  43  61  86 117 150 198 247 287 343
#     4   9  20  37  59  90 120 149 192 240 285 347
#     4  10  23  41  63  86 113 153 198 242 292 342
#     4  10  21  36  57  88 122 156 191 233 291 349
#     4  11  24  39  60  87 115 155 199 241 288 341
#     4  10  20  36  57  86 123 154 191 238 286 343
#     4   9  20  36  58  88 120 153 188 231 288 350
#
# _framework density 21.876353999999999
#
# number of rings (size 3 to 8) (size 9 to 14) (size 15 to 20)
#    0.000    2.000    0.000    2.250    0.000   11.500 
#    0.000    0.000    0.000    0.000    0.000    0.000 
#    0.000    0.000    0.000    0.000    0.000    0.000 
#
# Total GULP energy -89516.758768 kJ/mol
# GULP energy per Si atom -5594.797423 kJ/mol
# Density = 2.182656 g / cm^3
# Si number density = 21.876354 Si / 1000 Ang^3
#
#
#
# Elastic Constant Matrix: (Units=GPa)
#
#
# Indices 1 2 3 4 5 6 
#
# 1 106.7775 40.5124 22.7266 -4.2162 17.7112 18.1582
# 2 40.5124 77.6599 -4.9421 5.1835 -2.4032 18.2379
# 3 22.7266 -4.9421 106.5015 5.5041 23.2141 10.1058
# 4 -4.2162 5.1835 5.5041 27.9854 1.8828 -4.1422
# 5 17.7112 -2.4032 23.2141 1.8828 29.6322 7.8395
# 6 18.1582 18.2379 10.1058 -4.1422 7.8395 39.8720
#
#
#
# Elastic Compliance Matrix: (Units=1/GPa)
#
#
# Indices 1 2 3 4 5 6 
#
# 1 0.014407 -0.008110 -0.001917 0.004537 -0.007969 -0.000327
# 2 -0.008110 0.019847 0.002185 -0.007022 0.007337 -0.008111
# 3 -0.001917 0.002185 0.011809 -0.002825 -0.007222 -0.001993
# 4 0.004537 -0.007022 -0.002825 0.039684 -0.005457 0.007057
# 5 -0.007969 0.007337 -0.007222 -0.005457 0.047156 -0.007735
# 6 -0.000327 -0.008111 -0.001993 0.007057 -0.007735 0.031698
#
#
# Mechanical properties :
#
#
# Convention : Reuss Voigt Hill
#
# Bulk Modulus (GPa) = 32.91863 45.28142 39.10003
# Shear Modulus (GPa) = 26.25875 35.00740 30.63307
#
# Velocity S-wave (km/s) = 3.46833 4.00464 3.74609
# Velocity P-wave (km/s) = 5.57847 6.49050 6.05169
#
# Compressibility (1/GPa) = 0.03037794
#
# Stress axis : x y z
#
# Youngs Moduli (GPa) = 69.41078 50.38564 84.67950
#
# Poissons Ratio (x) = 0.40864 0.16235
# Poissons Ratio (y) = 0.56293 -0.18501
# Poissons Ratio (z) = 0.13308 -0.11008
#
# Static dielectric constant tensor:
#      x y z
#    x 1.785730 0.029060 0.007840 
#    y 0.029060 1.786040 0.005080 
#    z 0.007840 0.005080 1.872420 
# 
# From -- ./inp_files/242097.got.cif
#   From: 2010.05.17/outbox.cif.g08.bks.cpg/sg2_122_cif.got.tgz:242097.got - 2010.06.03 11:33:40.
