data_PCOD9096501
_publ_section_title
;
Structure prediction by ZEFSAII (Michael W. Deem and Ramdas Pophale) SiO2 
 PCOD9096501
Probable space group: P -1
;
_chemical_formula_sum "Si O2"
_cell_formula_units_Z 16
_cell_length_a 14.146806
_cell_length_b 7.671870
_cell_length_c 15.006638
_cell_angle_alpha 114.685674
_cell_angle_beta 29.486671
_cell_angle_gamma 102.276776
_cell_volume 685.700521
_symmetry_space_group_name_H-M "P -1"
_symmetry_group_IT_number 2
_symmetry_cell_setting 'triclinic'
loop_
_space_group_symop_operation_xyz
x,y,z
-x,-y,-z
loop_
_atom_site_type_symbol
_atom_site_label
_atom_site_fract_x
_atom_site_fract_y
_atom_site_fract_z
Si Si1 0.011149 0.671491 0.647256
Si Si2 0.361217 0.519863 0.846432
Si Si3 0.487647 0.045486 0.297530
Si Si4 0.933374 0.683885 0.022729
Si Si5 0.447437 0.122414 0.979024
Si Si6 0.233247 0.478797 0.583334
Si Si7 0.908001 0.065878 0.935048
Si Si8 0.396954 0.661711 0.236744
O O1 0.084200 0.495266 0.624323
O O2 0.183173 0.634444 0.423809
O O3 0.786632 0.733182 0.805601
O O4 0.003749 0.870268 0.753698
O O5 0.566266 0.485364 0.613008
O O6 0.426068 0.515185 0.895727
O O7 0.196653 0.733646 0.997005
O O8 0.262836 0.347427 0.867445
O O9 0.318390 0.254400 0.508275
O O10 0.411491 0.853924 0.325588
O O11 0.713826 0.033690 0.138984
O O12 0.511992 0.044948 0.168982
O O13 0.108314 0.633296 0.793106
O O14 0.935797 0.881103 0.116379
O O15 0.000000 0.500000 0.000000
O O16 0.569550 0.267877 0.874382
O O17 0.500000 0.000000 0.000000
#
# Coordination Sequence:
#
# PCOD9096501 Si02
#       8
#     2   2   2   2   2   2   2   2
#     4  10  20  36  56  78 102 142 173 208 259 315
#     4   9  19  35  52  74 103 138 178 215 255 302
#     4   8  19  35  55  74 104 140 169 210 262 309
#     4  10  21  31  53  76 104 139 183 219 255 294
#     4   9  19  36  57  81 107 129 164 217 262 308
#     4  10  20  37  53  74 108 141 175 214 256 303
#     4   9  19  35  51  75 106 139 178 217 258 296
#     4   9  19  35  55  79 100 137 174 206 259 316
#
# _framework density 23.333801000000001
#
# number of rings (size 3 to 8) (size 9 to 14) (size 15 to 20)
#    0.750    2.000    0.000    0.750    3.500    5.500 
#    0.000    1.875    0.000   12.000    0.000    0.000 
#    0.000    0.000    0.000    0.000    0.000    0.000 
#
# Total GULP energy -89259.706288 kJ/mol
# GULP energy per Si atom -5578.731643 kJ/mol
# Density = 2.328069 g / cm^3
# Si number density = 23.333801 Si / 1000 Ang^3
#
#
#
# Elastic Constant Matrix: (Units=GPa)
#
#
# Indices 1 2 3 4 5 6 
#
# 1 22.1615 -4.9850 49.4262 12.3248 25.5224 -15.1725
# 2 -4.9850 63.8839 8.4848 3.3718 14.5003 -4.5673
# 3 49.4262 8.4848 66.7816 -7.9666 -6.9934 -6.2693
# 4 12.3248 3.3718 -7.9666 21.7222 -15.7573 9.4441
# 5 25.5224 14.5003 -6.9934 -15.7573 14.0129 3.9111
# 6 -15.1725 -4.5673 -6.2693 9.4441 3.9111 40.8554
#
#
#
# Elastic Compliance Matrix: (Units=1/GPa)
#
#
# Indices 1 2 3 4 5 6 
#
# 1 0.003530 -0.005856 0.001807 0.016601 0.020559 -0.004872
# 2 -0.005856 0.014482 0.002818 0.002883 0.000563 -0.000844
# 3 0.001807 0.002818 0.011197 -0.010255 -0.013940 0.006410
# 4 0.016601 0.002883 -0.010255 0.027230 -0.007533 -0.000660
# 5 0.020559 0.000563 -0.013940 -0.007533 0.016304 0.005739
# 6 -0.004872 -0.000844 0.006410 -0.000660 0.005739 0.023160
#
#
# Mechanical properties :
#
#
# Convention : Reuss Voigt Hill
#
# Bulk Modulus (GPa) = 37.38659 28.74210 33.06435
# Shear Modulus (GPa) = 46.60679 21.97816 34.29247
#
# Velocity S-wave (km/s) = 4.47407 3.07237 3.83776
# Velocity P-wave (km/s) = 6.53812 4.99305 5.81711
#
# Compressibility (1/GPa) = 0.02674756
#
# Stress axis : x y z
#
# Youngs Moduli (GPa) = 283.29021 69.05131 89.30958
#
# Poissons Ratio (x) = 0.40434 -0.16142
# Poissons Ratio (y) = 1.65886 -0.25164
# Poissons Ratio (z) = -0.51202 -0.19456
#
# Static dielectric constant tensor:
#      x y z
#    x 1.906260 -0.003250 0.006410 
#    y -0.003250 1.944440 -0.006180 
#    z 0.006410 -0.006180 1.846650 
# 
# From -- ./inp_files/349514.got.cif
#   From: 2010.05.17/outbox.cif.g08.bks.cpg/sg2_175_cif.got.tgz:349514.got - 2010.06.03 11:33:40.
