data_PCOD9096193
_publ_section_title
;
Structure prediction by ZEFSAII (Michael W. Deem and Ramdas Pophale) SiO2 
 PCOD9096193
Probable space group: P -1
;
_chemical_formula_sum "Si O2"
_cell_formula_units_Z 16
_cell_length_a 4.985421
_cell_length_b 12.975158
_cell_length_c 11.739616
_cell_angle_alpha 95.496713
_cell_angle_beta 80.359972
_cell_angle_gamma 74.943521
_cell_volume 715.191432
_symmetry_space_group_name_H-M "P -1"
_symmetry_group_IT_number 2
_symmetry_cell_setting 'triclinic'
loop_
_space_group_symop_operation_xyz
x,y,z
-x,-y,-z
loop_
_atom_site_type_symbol
_atom_site_label
_atom_site_fract_x
_atom_site_fract_y
_atom_site_fract_z
Si Si1 0.509501 0.905019 0.187561
Si Si2 0.185215 0.432235 0.305323
Si Si3 0.278022 0.290556 0.021043
Si Si4 0.727510 0.277169 0.167587
Si Si5 0.941723 0.028941 0.141260
Si Si6 0.046168 0.391878 0.818287
Si Si7 0.660193 0.278328 0.691566
Si Si8 0.771685 0.399754 0.500657
O O1 0.768506 0.952708 0.200829
O O2 0.403649 0.832767 0.280343
O O3 0.246147 0.001430 0.175744
O O4 0.382397 0.177121 0.933983
O O5 0.507491 0.359330 0.273897
O O6 0.117267 0.487001 0.192194
O O7 0.113168 0.541786 0.397350
O O8 0.988934 0.371869 0.378397
O O9 0.561799 0.302559 0.060732
O O10 0.044262 0.285046 0.130509
O O11 0.117351 0.371345 0.943259
O O12 0.764210 0.152673 0.178642
O O13 0.000000 0.000000 0.000000
O O14 0.879353 0.310162 0.768147
O O15 0.358733 0.367318 0.739560
O O16 0.730587 0.295449 0.556986
O O17 0.500000 0.500000 0.500000
#
# Coordination Sequence:
#
# PCOD9096193 Si02
#       8
#     2   2   2   2   2   2   2   2
#     4  11  20  37  59  84 118 156 199 238 280 339
#     4  10  24  39  59  89 119 152 195 246 298 349
#     4  11  21  36  55  86 123 160 195 228 283 350
#     4  12  25  36  57  87 122 162 195 237 289 344
#     4  12  21  37  57  85 118 162 198 238 278 335
#     4  10  20  36  57  85 122 155 193 232 285 357
#     4  10  20  35  63  89 111 148 200 246 289 346
#     4  10  20  42  65  87 111 148 198 250 300 351
#
# _framework density 22.37163
#
# number of rings (size 3 to 8) (size 9 to 14) (size 15 to 20)
#    0.000    1.250    3.750    4.125    1.750    1.000 
#    0.000    0.000    0.000    1.500    0.000    0.000 
#    0.000    0.000    0.000    0.000    0.000    0.000 
#
# Total GULP energy -89338.695977 kJ/mol
# GULP energy per Si atom -5583.668499 kJ/mol
# Density = 2.232071 g / cm^3
# Si number density = 22.371630 Si / 1000 Ang^3
#
#
#
# Elastic Constant Matrix: (Units=GPa)
#
#
# Indices 1 2 3 4 5 6 
#
# 1 83.7985 4.9078 13.7233 -3.4501 -8.3716 -8.1494
# 2 4.9078 96.1882 33.5967 -13.8035 -6.5780 -13.2148
# 3 13.7233 33.5967 96.1290 -17.0340 -23.5462 -1.7821
# 4 -3.4501 -13.8035 -17.0340 29.4747 2.6714 -7.8935
# 5 -8.3716 -6.5780 -23.5462 2.6714 32.9771 -2.9666
# 6 -8.1494 -13.2148 -1.7821 -7.8935 -2.9666 39.0905
#
#
#
# Elastic Compliance Matrix: (Units=1/GPa)
#
#
# Indices 1 2 3 4 5 6 
#
# 1 0.012746 0.000614 -0.000939 0.001895 0.002842 0.003420
# 2 0.000614 0.013200 -0.003507 0.005699 0.000327 0.005606
# 3 -0.000939 -0.003507 0.015302 0.006591 0.009578 0.001374
# 4 0.001895 0.005699 0.006591 0.043405 0.003858 0.011680
# 5 0.002842 0.000327 0.009578 0.003858 0.038069 0.004808
# 6 0.003420 0.005606 0.001374 0.011680 0.004808 0.030976
#
#
# Mechanical properties :
#
#
# Convention : Reuss Voigt Hill
#
# Bulk Modulus (GPa) = 29.77652 42.28572 36.03112
# Shear Modulus (GPa) = 28.97597 35.23431 32.10514
#
# Velocity S-wave (km/s) = 3.60281 3.97288 3.79236
# Velocity P-wave (km/s) = 5.53587 6.32357 5.94278
#
# Compressibility (1/GPa) = 0.03358351
#
# Stress axis : x y z
#
# Youngs Moduli (GPa) = 78.45764 75.75578 65.35207
#
# Poissons Ratio (x) = -0.04650 0.06135
# Poissons Ratio (y) = -0.04815 0.22920
# Poissons Ratio (z) = 0.07365 0.26569
#
# Static dielectric constant tensor:
#      x y z
#    x 1.899950 0.064880 0.043810 
#    y 0.064880 1.818020 -0.008510 
#    z 0.043810 -0.008510 1.937180 
# 
# From -- ./inp_files/366866.got.cif
#   From: 2010.05.17/outbox.cif.g08.bks.cpg/sg2_184_cif.got.tgz:366866.got - 2010.06.03 11:33:40.
