data_PCOD9096975
_publ_section_title
;
Structure prediction by ZEFSAII (Michael W. Deem and Ramdas Pophale) SiO2 
 PCOD9096975
Probable space group: P -1
;
_chemical_formula_sum "Si O2"
_cell_formula_units_Z 15
_cell_length_a 18.859796
_cell_length_b 9.371753
_cell_length_c 5.228523
_cell_angle_alpha 96.057338
_cell_angle_beta 108.517710
_cell_angle_gamma 39.483564
_cell_volume 542.054935
_symmetry_space_group_name_H-M "P -1"
_symmetry_group_IT_number 2
_symmetry_cell_setting 'triclinic'
loop_
_space_group_symop_operation_xyz
x,y,z
-x,-y,-z
loop_
_atom_site_type_symbol
_atom_site_label
_atom_site_fract_x
_atom_site_fract_y
_atom_site_fract_z
Si Si1 0.000000 0.500000 0.000000
Si Si2 0.195111 0.451732 0.360832
Si Si3 0.522447 0.689189 0.893752
Si Si4 0.813108 0.857072 0.075283
Si Si5 0.871346 0.014523 0.847643
Si Si6 0.102599 0.745808 0.805209
Si Si7 0.327463 0.730101 0.671290
Si Si8 0.417862 0.955505 0.329588
O O1 0.110121 0.439034 0.270025
O O2 0.084910 0.409542 0.814335
O O3 0.170419 0.580250 0.610473
O O4 0.333980 0.200218 0.414821
O O5 0.159751 0.599796 0.104300
O O6 0.634543 0.450717 0.123995
O O7 0.469614 0.878672 0.085299
O O8 0.436593 0.677236 0.754041
O O9 0.515990 0.766772 0.619706
O O10 0.893616 0.819029 0.941126
O O11 0.686951 0.006007 0.832762
O O12 0.777490 0.013034 0.287592
O O13 0.733211 0.234668 0.647937
O O14 0.894359 0.087892 0.119559
O O15 0.963074 0.915082 0.712134
#
# Coordination Sequence:
#
# PCOD9096975 Si02
#       8
#     1   2   2   2   2   2   2   2
#     4  10  20  38  62  88 130 152 204 246 312 358
#     4  11  23  42  61  92 119 168 199 255 301 368
#     4  10  21  37  61  95 122 158 193 266 305 364
#     4  10  20  36  58  93 121 164 194 251 303 371
#     4  11  23  39  60  89 125 166 204 251 289 371
#     4  11  26  40  63  87 129 163 211 239 299 358
#     4  10  22  35  61  89 130 153 210 242 318 353
#     4  10  21  38  62  90 127 151 200 252 317 359
#
# _framework density 27.672467999999999
#
# number of rings (size 3 to 8) (size 9 to 14) (size 15 to 20)
#    0.000    1.600    2.667    1.600    3.733    3.200 
#    0.000    0.000    0.000    4.800    0.000    0.000 
#    0.000    0.000    0.000    0.000    0.000    0.000 
#
# Total GULP energy -83731.641892 kJ/mol
# GULP energy per Si atom -5582.109459 kJ/mol
# Density = 2.760948 g / cm^3
# Si number density = 27.672468 Si / 1000 Ang^3
#
#
#
# Elastic Constant Matrix: (Units=GPa)
#
#
# Indices 1 2 3 4 5 6 
#
# 1 85.7151 4.5014 42.4182 11.6500 10.8754 17.5811
# 2 4.5014 100.8155 18.4386 22.6047 -2.7089 4.8365
# 3 42.4182 18.4386 142.0583 26.3057 -20.7276 13.4614
# 4 11.6500 22.6047 26.3057 49.6980 -0.2637 4.1138
# 5 10.8754 -2.7089 -20.7276 -0.2637 45.6138 3.6604
# 6 17.5811 4.8365 13.4614 4.1138 3.6604 27.4527
#
#
#
# Elastic Compliance Matrix: (Units=1/GPa)
#
#
# Indices 1 2 3 4 5 6 
#
# 1 0.016395 0.000577 -0.004911 -0.000930 -0.005524 -0.007317
# 2 0.000577 0.011146 -0.000546 -0.004799 0.000360 -0.001395
# 3 -0.004911 -0.000546 0.010365 -0.003885 0.005991 -0.002058
# 4 -0.000930 -0.004799 -0.003885 0.024579 -0.001677 -0.000114
# 5 -0.005524 0.000360 0.005991 -0.001677 0.026192 -0.002704
# 6 -0.007317 -0.001395 -0.002058 -0.000114 -0.002704 0.042745
#
#
# Mechanical properties :
#
#
# Convention : Reuss Voigt Hill
#
# Bulk Modulus (GPa) = 35.52782 51.03394 43.28088
# Shear Modulus (GPa) = 33.20905 42.10161 37.65533
#
# Velocity S-wave (km/s) = 3.46797 3.90478 3.69284
# Velocity P-wave (km/s) = 5.37609 6.22992 5.81869
#
# Compressibility (1/GPa) = 0.02814695
#
# Stress axis : x y z
#
# Youngs Moduli (GPa) = 60.99570 89.72090 96.47746
#
# Poissons Ratio (x) = -0.05179 0.47378
# Poissons Ratio (y) = -0.03521 0.05265
# Poissons Ratio (z) = 0.29954 0.04896
#
# Static dielectric constant tensor:
#      x y z
#    x 2.209810 0.045170 0.053330 
#    y 0.045170 2.319950 0.054680 
#    z 0.053330 0.054680 2.162290 
# 
# From -- ./inp_files/64396.got.cif
#   From: 2010.05.17/outbox.cif.g08.bks.cpg/sg2_33_cif.got.tgz:64396.got - 2010.06.03 11:33:40.
