data_PCOD9096180
_publ_section_title
;
Structure prediction by ZEFSAII (Michael W. Deem and Ramdas Pophale) SiO2 
 PCOD9096180
Probable space group: P -1
;
_chemical_formula_sum "Si O2"
_cell_formula_units_Z 16
_cell_length_a 9.085173
_cell_length_b 21.656310
_cell_length_c 15.247908
_cell_angle_alpha 19.039585
_cell_angle_beta 63.746473
_cell_angle_gamma 73.696556
_cell_volume 774.877244
_symmetry_space_group_name_H-M "P -1"
_symmetry_group_IT_number 2
_symmetry_cell_setting 'triclinic'
loop_
_space_group_symop_operation_xyz
x,y,z
-x,-y,-z
loop_
_atom_site_type_symbol
_atom_site_label
_atom_site_fract_x
_atom_site_fract_y
_atom_site_fract_z
Si Si1 0.061248 0.285108 0.530095
Si Si2 0.337397 0.754841 0.550611
Si Si3 0.711865 0.830026 0.249465
Si Si4 0.293898 0.366880 0.193678
Si Si5 0.716650 0.923804 0.744427
Si Si6 0.865462 0.490392 0.224130
Si Si7 0.484242 0.544870 0.544689
Si Si8 0.876550 0.898337 0.568106
O O1 0.193530 0.300699 0.554373
O O2 0.159014 0.249440 0.466926
O O3 0.029641 0.485511 0.242584
O O4 0.863431 0.078152 0.876654
O O5 0.530437 0.791663 0.405552
O O6 0.197251 0.693191 0.588151
O O7 0.351627 0.946121 0.350328
O O8 0.259849 0.550468 0.909702
O O9 0.648602 0.740425 0.288666
O O10 0.249157 0.195511 0.357949
O O11 0.500000 0.500000 0.000000
O O12 0.789117 0.996431 0.528946
O O13 0.558718 0.682219 0.096898
O O14 0.904527 0.943394 0.716232
O O15 0.696867 0.430691 0.416198
O O16 0.882570 0.695679 0.889346
O O17 0.500000 0.500000 0.500000
#
# Coordination Sequence:
#
# PCOD9096180 Si02
#       8
#     2   2   2   2   2   2   2   2
#     4  11  22  38  66  86 119 156 203 248 294 344
#     4  10  20  38  63  94 114 154 206 243 292 351
#     4  10  24  41  59  89 124 157 198 244 297 355
#     4  11  21  37  65  86 120 159 199 245 298 349
#     4  10  20  35  63  84 125 149 190 255 293 344
#     4   9  20  37  63  88 115 151 201 250 286 349
#     4  10  23  38  59  86 121 158 195 236 298 353
#     4   9  20  38  58  95 118 150 198 252 299 343
#
# _framework density 20.648432
#
# number of rings (size 3 to 8) (size 9 to 14) (size 15 to 20)
#    0.000    2.000    1.250    2.250    5.250    3.000 
#    0.000    1.250    8.250    0.000    0.000    0.000 
#    0.000    0.000    0.000    0.000    0.000    0.000 
#
# Total GULP energy -89181.481600 kJ/mol
# GULP energy per Si atom -5573.842600 kJ/mol
# Density = 2.060144 g / cm^3
# Si number density = 20.648432 Si / 1000 Ang^3
#
#
#
# Elastic Constant Matrix: (Units=GPa)
#
#
# Indices 1 2 3 4 5 6 
#
# 1 75.0481 23.9869 2.4905 1.6666 -2.6365 10.1851
# 2 23.9869 103.1212 -2.5947 -10.1339 -4.8105 13.9235
# 3 2.4905 -2.5947 37.5217 5.5853 -8.7016 -2.6468
# 4 1.6666 -10.1339 5.5853 33.6301 2.8469 0.4199
# 5 -2.6365 -4.8105 -8.7016 2.8469 30.2874 -3.8131
# 6 10.1851 13.9235 -2.6468 0.4199 -3.8131 21.1545
#
#
#
# Elastic Compliance Matrix: (Units=1/GPa)
#
#
# Indices 1 2 3 4 5 6 
#
# 1 0.015082 -0.002936 -0.001428 -0.001315 -0.000133 -0.005505
# 2 -0.002936 0.011602 0.000133 0.003654 0.000503 -0.006187
# 3 -0.001428 0.000133 0.030385 -0.005859 0.009972 0.006315
# 4 -0.001315 0.003654 -0.005859 0.032327 -0.004760 -0.004004
# 5 -0.000133 0.000503 0.009972 -0.004760 0.037382 0.007813
# 6 -0.005505 -0.006187 0.006315 -0.004004 0.007813 0.056272
#
#
# Mechanical properties :
#
#
# Convention : Reuss Voigt Hill
#
# Bulk Modulus (GPa) = 20.57250 29.27292 24.92271
# Shear Modulus (GPa) = 24.07150 29.80163 26.93656
#
# Velocity S-wave (km/s) = 3.41805 3.80318 3.61575
# Velocity P-wave (km/s) = 5.05592 5.78733 5.43395
#
# Compressibility (1/GPa) = 0.04860857
#
# Stress axis : x y z
#
# Youngs Moduli (GPa) = 66.30259 86.19449 32.91048
#
# Poissons Ratio (x) = 0.25309 0.04698
# Poissons Ratio (y) = 0.19468 -0.00439
# Poissons Ratio (z) = 0.09465 -0.01150
#
# Static dielectric constant tensor:
#      x y z
#    x 1.755570 -0.003930 -0.000180 
#    y -0.003930 1.753100 0.022520 
#    z -0.000180 0.022520 1.841970 
# 
# From -- ./inp_files/182419.got.cif
#   From: 2010.05.17/outbox.cif.g08.bks.cpg/sg2_92_cif.got.tgz:182419.got - 2010.06.03 11:33:40.
