data_PCOD9096073
_publ_section_title
;
Structure prediction by ZEFSAII (Michael W. Deem and Ramdas Pophale) SiO2 
 PCOD9096073
Probable space group: P -1
;
_chemical_formula_sum "Si O2"
_cell_formula_units_Z 12
_cell_length_a 7.674267
_cell_length_b 17.955365
_cell_length_c 5.022237
_cell_angle_alpha 120.920522
_cell_angle_beta 77.454399
_cell_angle_gamma 63.633478
_cell_volume 433.504324
_symmetry_space_group_name_H-M "P -1"
_symmetry_group_IT_number 2
_symmetry_cell_setting 'triclinic'
loop_
_space_group_symop_operation_xyz
x,y,z
-x,-y,-z
loop_
_atom_site_type_symbol
_atom_site_label
_atom_site_fract_x
_atom_site_fract_y
_atom_site_fract_z
Si Si1 0.851396 0.134657 0.868516
Si Si2 0.097175 0.344739 0.269028
Si Si3 0.473222 0.145771 0.186924
Si Si4 0.507396 0.643790 0.896256
Si Si5 0.280810 0.090611 0.554153
Si Si6 0.748895 0.445240 0.066552
O O1 0.041190 0.147100 0.895547
O O2 0.641874 0.174400 0.209540
O O3 0.709361 0.219708 0.823752
O O4 0.000000 0.000000 0.500000
O O5 0.300058 0.220004 0.128848
O O6 0.256810 0.374288 0.162728
O O7 0.912948 0.379927 0.158597
O O8 0.918233 0.416371 0.712866
O O9 0.309791 0.168509 0.523243
O O10 0.667968 0.004632 0.846906
O O11 0.574225 0.577874 0.467617
O O12 0.400484 0.595695 0.001967
O O13 0.500000 0.000000 0.500000
#
# Coordination Sequence:
#
# PCOD9096073 Si02
#       6
#     2   2   2   2   2   2
#     4   9  19  39  61  89 129 165 215 271 327 392
#     4  11  24  43  69  99 138 176 225 278 339 401
#     4   9  21  37  56  89 121 166 208 266 325 385
#     4  10  23  42  68 102 137 179 226 280 337 401
#     4  10  20  35  62  84 120 161 215 262 321 387
#     4  11  25  43  71 101 136 179 227 277 338 400
#
# _framework density 27.681386
#
# number of rings (size 3 to 8) (size 9 to 14) (size 15 to 20)
#    0.000    2.000    0.000    2.000    4.667    4.667 
#    0.000    0.000    3.667    0.000    0.000    0.000 
#    0.000    0.000    0.000    0.000    0.000    0.000 
#
# Total GULP energy -67026.161025 kJ/mol
# GULP energy per Si atom -5585.513419 kJ/mol
# Density = 2.761838 g / cm^3
# Si number density = 27.681386 Si / 1000 Ang^3
#
#
#
# Elastic Constant Matrix: (Units=GPa)
#
#
# Indices 1 2 3 4 5 6 
#
# 1 195.2661 66.6533 33.8303 -35.3814 -55.7329 17.6542
# 2 66.6533 172.8019 58.6012 -8.9737 -12.9858 15.9923
# 3 33.8303 58.6012 84.4266 -3.2979 -20.1571 -7.8399
# 4 -35.3814 -8.9737 -3.2979 58.8302 4.4567 -4.6246
# 5 -55.7329 -12.9858 -20.1571 4.4567 45.5202 -15.5545
# 6 17.6542 15.9923 -7.8399 -4.6246 -15.5545 52.3947
#
#
#
# Elastic Compliance Matrix: (Units=1/GPa)
#
#
# Indices 1 2 3 4 5 6 
#
# 1 0.010371 -0.003565 0.001726 0.004992 0.012656 0.002050
# 2 -0.003565 0.009501 -0.007161 -0.000988 -0.006349 -0.004742
# 3 0.001726 -0.007161 0.019623 0.000810 0.011414 0.008001
# 4 0.004992 -0.000988 0.000810 0.019675 0.004926 0.001939
# 5 0.012656 -0.006349 0.011414 0.004926 0.044697 0.013085
# 6 0.002050 -0.004742 0.008001 0.001939 0.013085 0.025096
#
#
# Mechanical properties :
#
#
# Convention : Reuss Voigt Hill
#
# Bulk Modulus (GPa) = 46.52226 85.62933 66.07580
# Shear Modulus (GPa) = 32.44078 50.90966 41.67522
#
# Velocity S-wave (km/s) = 3.42707 4.29316 3.88433
# Velocity P-wave (km/s) = 5.70110 7.45493 6.63621
#
# Compressibility (1/GPa) = 0.02149508
#
# Stress axis : x y z
#
# Youngs Moduli (GPa) = 96.42526 105.25247 50.95959
#
# Poissons Ratio (x) = 0.37521 -0.08795
# Poissons Ratio (y) = 0.34374 0.36493
# Poissons Ratio (z) = -0.16642 0.75372
#
# Static dielectric constant tensor:
#      x y z
#    x 2.346560 0.185690 0.205890 
#    y 0.185690 2.239090 0.192990 
#    z 0.205890 0.192990 2.402620 
# 
# From -- ./inp_files/48492.got.cif
#   From: 2010.05.17/outbox.cif.g08.bks.cpg/sg2_25_cif.got.tgz:48492.got - 2010.06.03 11:33:40.
