data_PCOD9096220
_publ_section_title
;
Structure prediction by ZEFSAII (Michael W. Deem and Ramdas Pophale) SiO2 
 PCOD9096220
Probable space group: P -1
;
_chemical_formula_sum "Si O2"
_cell_formula_units_Z 14
_cell_length_a 8.644185
_cell_length_b 7.279355
_cell_length_c 14.413176
_cell_angle_alpha 107.798522
_cell_angle_beta 43.126952
_cell_angle_gamma 98.502475
_cell_volume 586.365182
_symmetry_space_group_name_H-M "P -1"
_symmetry_group_IT_number 2
_symmetry_cell_setting 'triclinic'
loop_
_space_group_symop_operation_xyz
x,y,z
-x,-y,-z
loop_
_atom_site_type_symbol
_atom_site_label
_atom_site_fract_x
_atom_site_fract_y
_atom_site_fract_z
Si Si1 0.398545 0.542094 0.420549
Si Si2 0.128051 0.569751 0.724605
Si Si3 0.863447 0.392882 0.963704
Si Si4 0.397487 0.629683 0.233487
Si Si5 0.985631 0.977556 0.806581
Si Si6 0.987192 0.892148 0.389233
Si Si7 0.502390 0.944309 0.369333
O O1 0.210346 0.526276 0.577329
O O2 0.632946 0.413042 0.323627
O O3 0.332366 0.519632 0.339291
O O4 0.455057 0.766487 0.430779
O O5 0.956649 0.766941 0.826554
O O6 0.016795 0.413026 0.809111
O O7 0.610897 0.499202 0.077273
O O8 0.856027 0.163652 0.943839
O O9 0.000000 0.500000 0.000000
O O10 0.493506 0.828019 0.258132
O O11 0.172003 0.704436 0.288833
O O12 0.946861 0.994587 0.715013
O O13 0.251620 0.996797 0.712030
O O14 0.713520 0.894228 0.502716
O O15 0.000000 0.000000 0.500000
#
# Coordination Sequence:
#
# PCOD9096220 Si02
#       7
#     2   2   2   2   2   2   2
#     4   9  18  36  59  89 122 149 196 261 302 335
#     4  11  21  34  63  97 121 151 205 267 295 352
#     4  12  22  42  58  92 128 163 202 252 300 366
#     4   9  19  40  59  84 132 163 191 252 309 352
#     4  12  22  36  66  94 116 166 209 241 312 366
#     4  10  20  35  63  94 120 160 204 253 306 367
#     4   9  17  36  62  90 117 150 209 246 302 352
#
# _framework density 23.875907000000002
#
# number of rings (size 3 to 8) (size 9 to 14) (size 15 to 20)
#    0.857    0.857    5.714    0.429    0.000    1.143 
#    0.000    0.714    0.000    9.429    0.000    0.000 
#    0.000    0.000    0.000    0.000    0.000    0.000 
#
# Total GULP energy -78145.339378 kJ/mol
# GULP energy per Si atom -5581.809956 kJ/mol
# Density = 2.382156 g / cm^3
# Si number density = 23.875907 Si / 1000 Ang^3
#
#
#
# Elastic Constant Matrix: (Units=GPa)
#
#
# Indices 1 2 3 4 5 6 
#
# 1 101.7685 8.3891 19.5814 3.2833 -0.0580 -29.7218
# 2 8.3891 94.6154 14.6459 23.9800 -12.4480 -24.7881
# 3 19.5814 14.6459 92.1165 27.0905 -25.3974 -20.1326
# 4 3.2833 23.9800 27.0905 47.2190 -15.3890 -8.5389
# 5 -0.0580 -12.4480 -25.3974 -15.3890 37.4237 12.9735
# 6 -29.7218 -24.7881 -20.1326 -8.5389 12.9735 34.6962
#
#
#
# Elastic Compliance Matrix: (Units=1/GPa)
#
#
# Indices 1 2 3 4 5 6 
#
# 1 0.014331 0.002250 -0.001578 -0.000363 -0.005646 0.014990
# 2 0.002250 0.014893 0.001512 -0.006711 -0.000993 0.012165
# 3 -0.001578 0.001512 0.015831 -0.006648 0.006879 0.004707
# 4 -0.000363 -0.006711 -0.006648 0.029955 0.007037 -0.004223
# 5 -0.005646 -0.000993 0.006879 0.007037 0.038929 -0.014379
# 6 0.014990 0.012165 0.004707 -0.004223 -0.014379 0.057421
#
#
# Mechanical properties :
#
#
# Convention : Reuss Voigt Hill
#
# Bulk Modulus (GPa) = 20.23317 41.52593 30.87955
# Shear Modulus (GPa) = 27.25312 40.26005 33.75659
#
# Velocity S-wave (km/s) = 3.38220 4.11082 3.76418
# Velocity P-wave (km/s) = 4.87289 6.32154 5.64389
#
# Compressibility (1/GPa) = 0.04942380
#
# Stress axis : x y z
#
# Youngs Moduli (GPa) = 69.78070 67.14672 63.16677
#
# Poissons Ratio (x) = -0.15108 0.09966
# Poissons Ratio (y) = -0.15701 -0.09553
# Poissons Ratio (z) = 0.11009 -0.10155
#
# Static dielectric constant tensor:
#      x y z
#    x 1.932520 0.027180 0.060480 
#    y 0.027180 1.970620 0.051310 
#    z 0.060480 0.051310 1.901260 
# 
# From -- ./inp_files/493128.got.cif
#   From: 2010.05.17/outbox.cif.g08.bks.cpg/sg2_247_cif.got.tgz:493128.got - 2010.06.03 11:33:40.
