data_PCOD9096720
_publ_section_title
;
Structure prediction by ZEFSAII (Michael W. Deem and Ramdas Pophale) SiO2 
 PCOD9096720
Probable space group: P -1
;
_chemical_formula_sum "Si O2"
_cell_formula_units_Z 16
_cell_length_a 14.014749
_cell_length_b 5.015222
_cell_length_c 14.361327
_cell_angle_alpha 71.157853
_cell_angle_beta 46.746866
_cell_angle_gamma 80.323244
_cell_volume 693.717503
_symmetry_space_group_name_H-M "P -1"
_symmetry_group_IT_number 2
_symmetry_cell_setting 'triclinic'
loop_
_space_group_symop_operation_xyz
x,y,z
-x,-y,-z
loop_
_atom_site_type_symbol
_atom_site_label
_atom_site_fract_x
_atom_site_fract_y
_atom_site_fract_z
Si Si1 0.624669 0.834751 0.898335
Si Si2 0.156320 0.021795 0.404876
Si Si3 0.285687 0.484556 0.406998
Si Si4 0.323443 0.003453 0.809530
Si Si5 0.090097 0.544472 0.792061
Si Si6 0.477093 0.558494 0.852329
Si Si7 0.836182 0.577337 0.038580
Si Si8 0.250834 0.122899 0.642613
O O1 0.565305 0.670328 0.867211
O O2 0.761888 0.972132 0.749094
O O3 0.642506 0.618082 0.995985
O O4 0.500000 0.000000 0.000000
O O5 0.200974 0.743308 0.457768
O O6 0.204970 0.287187 0.407419
O O7 0.000000 0.000000 0.500000
O O8 0.423907 0.606721 0.257227
O O9 0.319003 0.291511 0.493381
O O10 0.439063 0.827211 0.789426
O O11 0.207080 0.751632 0.910593
O O12 0.286375 0.236392 0.882435
O O13 0.332606 0.121810 0.684736
O O14 0.102709 0.396693 0.901217
O O15 0.124042 0.301540 0.726632
O O16 0.200148 0.804888 0.686460
O O17 0.946468 0.658759 0.879256
#
# Coordination Sequence:
#
# PCOD9096720 Si02
#       8
#     2   2   2   2   2   2   2   2
#     4  10  21  44  69  89 123 165 212 262 326 374
#     4  11  24  45  69  96 126 159 212 272 314 370
#     4  11  23  42  66  90 128 170 202 252 324 377
#     4  10  21  35  57  91 124 156 209 255 295 365
#     4   9  17  34  54  75 118 171 204 237 304 360
#     4  10  23  40  65  92 121 166 210 260 314 374
#     4   9  18  33  53  79 118 162 204 255 292 352
#     4  10  20  36  57  87 125 165 203 243 304 379
#
# _framework density 23.064145
#
# number of rings (size 3 to 8) (size 9 to 14) (size 15 to 20)
#    0.000    2.000    1.250    1.875    1.750    3.500 
#    6.750    0.000    0.000    6.750    0.000    0.000 
#    0.000    0.000    0.000    0.000    0.000    0.000 
#
# Total GULP energy -89231.999838 kJ/mol
# GULP energy per Si atom -5576.999990 kJ/mol
# Density = 2.301165 g / cm^3
# Si number density = 23.064145 Si / 1000 Ang^3
#
#
#
# Elastic Constant Matrix: (Units=GPa)
#
#
# Indices 1 2 3 4 5 6 
#
# 1 72.1765 5.6225 41.6785 -3.9673 5.3816 -11.9986
# 2 5.6225 85.2730 13.7096 1.1061 -1.6413 -9.9977
# 3 41.6785 13.7096 116.1210 -2.7128 9.6892 -20.3845
# 4 -3.9673 1.1061 -2.7128 27.6904 -3.8662 -1.7158
# 5 5.3816 -1.6413 9.6892 -3.8662 20.5811 1.4776
# 6 -11.9986 -9.9977 -20.3845 -1.7158 1.4776 37.3826
#
#
#
# Elastic Compliance Matrix: (Units=1/GPa)
#
#
# Indices 1 2 3 4 5 6 
#
# 1 0.017864 0.000009 -0.005731 0.001917 -0.001812 0.002771
# 2 0.000009 0.012237 -0.001100 -0.000258 0.001255 0.002614
# 3 -0.005731 -0.001100 0.011984 0.000045 -0.004552 0.004583
# 4 0.001917 -0.000258 0.000045 0.037414 0.006339 0.002038
# 5 -0.001812 0.001255 -0.004552 0.006339 0.052820 -0.004525
# 6 0.002771 0.002614 0.004583 0.002038 -0.004525 0.031111
#
#
# Mechanical properties :
#
#
# Convention : Reuss Voigt Hill
#
# Bulk Modulus (GPa) = 35.15909 43.95465 39.55687
# Shear Modulus (GPa) = 26.80174 31.30149 29.05161
#
# Velocity S-wave (km/s) = 3.41259 3.68795 3.55294
# Velocity P-wave (km/s) = 5.55021 6.10193 5.83260
#
# Compressibility (1/GPa) = 0.02844215
#
# Stress axis : x y z
#
# Youngs Moduli (GPa) = 55.97697 81.71737 83.44593
#
# Poissons Ratio (x) = -0.00070 0.47820
# Poissons Ratio (y) = -0.00048 0.09176
# Poissons Ratio (z) = 0.32078 0.08986
#
# Static dielectric constant tensor:
#      x y z
#    x 1.902450 -0.050220 -0.023110 
#    y -0.050220 1.867640 0.017290 
#    z -0.023110 0.017290 1.959770 
# 
# From -- ./inp_files/123718.got.cif
#   From: 2010.05.17/outbox.cif.g08.bks.cpg/sg2_62_cif.got.tgz:123718.got - 2010.06.03 11:33:40.
