data_PCOD9096944
_publ_section_title
;
Structure prediction by ZEFSAII (Michael W. Deem and Ramdas Pophale) SiO2 
 PCOD9096944
Probable space group: P -1
;
_chemical_formula_sum "Si O2"
_cell_formula_units_Z 14
_cell_length_a 8.627461
_cell_length_b 8.484767
_cell_length_c 15.083653
_cell_angle_alpha 40.299036
_cell_angle_beta 105.977003
_cell_angle_gamma 85.506222
_cell_volume 608.309436
_symmetry_space_group_name_H-M "P -1"
_symmetry_group_IT_number 2
_symmetry_cell_setting 'triclinic'
loop_
_space_group_symop_operation_xyz
x,y,z
-x,-y,-z
loop_
_atom_site_type_symbol
_atom_site_label
_atom_site_fract_x
_atom_site_fract_y
_atom_site_fract_z
Si Si1 0.606082 0.026117 0.409640
Si Si2 0.037538 0.450171 0.919902
Si Si3 0.904161 0.258706 0.663437
Si Si4 0.224078 0.613522 0.223294
Si Si5 0.744255 0.888429 0.309479
Si Si6 0.412651 0.992554 0.085640
Si Si7 0.254105 0.993052 0.384171
O O1 0.684223 0.704571 0.590778
O O2 0.683059 0.063996 0.313742
O O3 0.665684 0.151644 0.447277
O O4 0.394434 0.108792 0.328345
O O5 0.898651 0.354653 0.894500
O O6 0.947608 0.763423 0.735611
O O7 0.000000 0.500000 0.000000
O O8 0.233988 0.253335 0.990669
O O9 0.898451 0.232220 0.777954
O O10 0.841327 0.574380 0.493947
O O11 0.106238 0.075996 0.738349
O O12 0.763492 0.183471 0.622236
O O13 0.356694 0.748050 0.175059
O O14 0.573303 0.930085 0.207079
O O15 0.500000 0.000000 0.000000
#
# Coordination Sequence:
#
# PCOD9096944 Si02
#       7
#     2   2   2   2   2   2   2
#     4   9  19  37  62  88 116 150 200 258 300 348
#     4  11  23  39  61  88 124 162 197 240 299 368
#     4  10  20  38  65  89 117 154 200 256 301 349
#     4  10  21  40  64  86 115 160 205 244 298 353
#     4  10  21  37  59  90 118 152 204 251 295 346
#     4  12  25  41  62  88 123 162 205 245 287 360
#     4  10  20  36  58  89 120 156 198 244 308 355
#
# _framework density 23.014603000000001
#
# number of rings (size 3 to 8) (size 9 to 14) (size 15 to 20)
#    0.000    1.714    0.000    4.714    0.000    5.143 
#    0.000    7.143    0.000    0.000    0.000    0.000 
#    0.000    0.000    0.000    0.000    0.000    0.000 
#
# Total GULP energy -78071.868752 kJ/mol
# GULP energy per Si atom -5576.562054 kJ/mol
# Density = 2.296222 g / cm^3
# Si number density = 23.014603 Si / 1000 Ang^3
#
#
#
# Elastic Constant Matrix: (Units=GPa)
#
#
# Indices 1 2 3 4 5 6 
#
# 1 120.0833 62.4863 44.5909 21.6165 18.0435 -28.2496
# 2 62.4863 151.0569 37.6019 46.4227 6.6805 -22.4885
# 3 44.5909 37.6019 60.3650 14.0170 10.3829 -15.9199
# 4 21.6165 46.4227 14.0170 48.7330 2.9465 3.8821
# 5 18.0435 6.6805 10.3829 2.9465 30.3390 5.0399
# 6 -28.2496 -22.4885 -15.9199 3.8821 5.0399 48.5856
#
#
#
# Elastic Compliance Matrix: (Units=1/GPa)
#
#
# Indices 1 2 3 4 5 6 
#
# 1 0.014932 -0.002686 -0.005859 -0.002464 -0.007117 0.006454
# 2 -0.002686 0.011873 -0.002051 -0.009850 -0.000032 0.004053
# 3 -0.005859 -0.002051 0.024850 -0.002650 -0.005063 0.004524
# 4 -0.002464 -0.009850 -0.002650 0.032353 0.003020 -0.009759
# 5 -0.007117 -0.000032 -0.005063 0.003020 0.040341 -0.010238
# 6 0.006454 0.004053 0.004524 -0.009759 -0.010238 0.029535
#
#
# Mechanical properties :
#
#
# Convention : Reuss Voigt Hill
#
# Bulk Modulus (GPa) = 32.82389 68.98482 50.90436
# Shear Modulus (GPa) = 26.99367 37.98659 32.49013
#
# Velocity S-wave (km/s) = 3.42847 4.06709 3.76136
# Velocity P-wave (km/s) = 5.47409 7.21765 6.40547
#
# Compressibility (1/GPa) = 0.03046562
#
# Stress axis : x y z
#
# Youngs Moduli (GPa) = 66.97134 84.22244 40.24126
#
# Poissons Ratio (x) = 0.22618 0.23576
# Poissons Ratio (y) = 0.17985 0.08252
# Poissons Ratio (z) = 0.39236 0.17271
#
# Static dielectric constant tensor:
#      x y z
#    x 1.856650 -0.059160 0.016120 
#    y -0.059160 1.955580 -0.053160 
#    z 0.016120 -0.053160 1.900230 
# 
# From -- ./inp_files/302260.got.cif
#   From: 2010.05.17/outbox.cif.g08.bks.cpg/sg2_152_cif.got.tgz:302260.got - 2010.06.03 11:33:40.
