data_PCOD9096802
_publ_section_title
;
Structure prediction by ZEFSAII (Michael W. Deem and Ramdas Pophale) SiO2 
 PCOD9096802
Probable space group: P -1
;
_chemical_formula_sum "Si O2"
_cell_formula_units_Z 16
_cell_length_a 20.455014
_cell_length_b 11.762083
_cell_length_c 8.664000
_cell_angle_alpha 36.990474
_cell_angle_beta 141.503824
_cell_angle_gamma 144.686642
_cell_volume 671.702545
_symmetry_space_group_name_H-M "P -1"
_symmetry_group_IT_number 2
_symmetry_cell_setting 'triclinic'
loop_
_space_group_symop_operation_xyz
x,y,z
-x,-y,-z
loop_
_atom_site_type_symbol
_atom_site_label
_atom_site_fract_x
_atom_site_fract_y
_atom_site_fract_z
Si Si1 0.115369 0.313956 0.943281
Si Si2 0.901230 0.265316 0.462689
Si Si3 0.758865 0.883153 0.422671
Si Si4 0.367279 0.497163 0.075471
Si Si5 0.912695 0.406452 0.793896
Si Si6 0.873553 0.971591 0.235039
Si Si7 0.311436 0.546707 0.592896
Si Si8 0.565370 0.409071 0.555223
O O1 0.129438 0.553259 0.735149
O O2 0.972943 0.173239 0.793201
O O3 0.156809 0.221979 0.262841
O O4 0.220384 0.356910 0.968962
O O5 0.009400 0.400719 0.392158
O O6 0.781135 0.061331 0.395851
O O7 0.809683 0.010094 0.222260
O O8 0.627597 0.675234 0.384119
O O9 0.425139 0.339959 0.353968
O O10 0.404561 0.627805 0.171234
O O11 0.394509 0.605826 0.837283
O O12 0.782797 0.373063 0.632834
O O13 0.000000 0.500000 0.000000
O O14 0.899909 0.179959 0.956221
O O15 0.776797 0.720574 0.285716
O O16 0.000000 0.000000 0.500000
O O17 0.378292 0.626837 0.460606
#
# Coordination Sequence:
#
# PCOD9096802 Si02
#       8
#     2   2   2   2   2   2   2   2
#     4  10  22  36  57  86 123 157 201 252 303 368
#     4  11  21  37  55  89 123 161 194 249 310 371
#     4  10  20  36  58  82 118 161 200 247 305 364
#     4  10  20  42  63  92 119 160 216 255 310 361
#     4  12  22  35  59  91 129 164 202 245 309 378
#     4  11  21  34  56  88 126 161 202 242 303 375
#     4  11  22  40  65  90 121 170 202 256 311 364
#     4   9  22  39  66  89 120 161 212 266 300 361
#
# _framework density 23.820069
#
# number of rings (size 3 to 8) (size 9 to 14) (size 15 to 20)
#    0.000    1.500    3.750    1.500    3.500    0.000 
#    9.000    0.625    0.000   14.250    0.000    0.000 
#    0.000    0.000    0.000    0.000    0.000    0.000 
#
# Total GULP energy -89104.419119 kJ/mol
# GULP energy per Si atom -5569.026195 kJ/mol
# Density = 2.376585 g / cm^3
# Si number density = 23.820069 Si / 1000 Ang^3
#
#
#
# Elastic Constant Matrix: (Units=GPa)
#
#
# Indices 1 2 3 4 5 6 
#
# 1 145.6491 8.0153 37.9705 13.0280 -13.8008 -6.1264
# 2 8.0153 44.9577 11.0398 -5.2575 5.9638 -11.0934
# 3 37.9705 11.0398 98.7316 9.0166 -6.0307 -13.9631
# 4 13.0280 -5.2575 9.0166 33.1451 -6.6990 -1.6219
# 5 -13.8008 5.9638 -6.0307 -6.6990 39.8997 5.4939
# 6 -6.1264 -11.0934 -13.9631 -1.6219 5.4939 23.3734
#
#
#
# Elastic Compliance Matrix: (Units=1/GPa)
#
#
# Indices 1 2 3 4 5 6 
#
# 1 0.008042 -0.001587 -0.002703 -0.002247 0.002367 -0.000972
# 2 -0.001587 0.027563 -0.001354 0.004830 -0.005933 0.013587
# 3 -0.002703 -0.001354 0.012353 -0.002235 -0.000051 0.005885
# 4 -0.002247 0.004830 -0.002235 0.033223 0.003486 0.001854
# 5 0.002367 -0.005933 -0.000051 0.003486 0.028543 -0.008693
# 6 -0.000972 0.013587 0.005885 0.001854 -0.008693 0.054665
#
#
# Mechanical properties :
#
#
# Convention : Reuss Voigt Hill
#
# Bulk Modulus (GPa) = 27.26977 44.82109 36.04543
# Shear Modulus (GPa) = 26.60999 34.77117 30.69058
#
# Velocity S-wave (km/s) = 3.34597 3.82480 3.59337
# Velocity P-wave (km/s) = 5.13813 6.19378 5.69049
#
# Compressibility (1/GPa) = 0.03667064
#
# Stress axis : x y z
#
# Youngs Moduli (GPa) = 124.34424 36.28072 80.95347
#
# Poissons Ratio (x) = 0.05756 0.21884
# Poissons Ratio (y) = 0.19728 0.10959
# Poissons Ratio (z) = 0.33613 0.04912
#
# Static dielectric constant tensor:
#      x y z
#    x 1.999950 -0.032470 -0.065340 
#    y -0.032470 1.987600 0.013150 
#    z -0.065340 0.013150 2.009410 
# 
# From -- ./inp_files/272060.got.cif
#   From: 2010.05.17/outbox.cif.g08.bks.cpg/sg2_137_cif.got.tgz:272060.got - 2010.06.03 11:33:40.
