data_PCOD9096401
_publ_section_title
;
Structure prediction by ZEFSAII (Michael W. Deem and Ramdas Pophale) SiO2 
 PCOD9096401
Probable space group: P -1
;
_chemical_formula_sum "Si O2"
_cell_formula_units_Z 14
_cell_length_a 8.767920
_cell_length_b 11.519698
_cell_length_c 9.603989
_cell_angle_alpha 55.313711
_cell_angle_beta 115.865704
_cell_angle_gamma 75.688275
_cell_volume 533.053466
_symmetry_space_group_name_H-M "P -1"
_symmetry_group_IT_number 2
_symmetry_cell_setting 'triclinic'
loop_
_space_group_symop_operation_xyz
x,y,z
-x,-y,-z
loop_
_atom_site_type_symbol
_atom_site_label
_atom_site_fract_x
_atom_site_fract_y
_atom_site_fract_z
Si Si1 0.720458 0.383276 0.493035
Si Si2 0.041735 0.867452 0.816347
Si Si3 0.680361 0.813270 0.447276
Si Si4 0.970135 0.590624 0.276311
Si Si5 0.628485 0.203435 0.788741
Si Si6 0.190307 0.295273 0.137342
Si Si7 0.109687 0.775241 0.619853
O O1 0.951295 0.297259 0.726095
O O2 0.647653 0.273128 0.600858
O O3 0.540333 0.600695 0.323081
O O4 0.758444 0.372357 0.351804
O O5 0.197305 0.720156 0.850556
O O6 0.919992 0.796389 0.867713
O O7 0.149738 0.899718 0.958884
O O8 0.888258 0.064096 0.537715
O O9 0.832785 0.594221 0.609811
O O10 0.462398 0.903645 0.202336
O O11 0.630876 0.825034 0.583774
O O12 0.853487 0.847540 0.469842
O O13 0.000000 0.500000 0.500000
O O14 0.762327 0.687571 0.016459
O O15 0.000000 0.500000 0.000000
#
# Coordination Sequence:
#
# PCOD9096401 Si02
#       7
#     2   2   2   2   2   2   2
#     4  10  20  35  56  84 116 150 187 242 284 337
#     4  10  21  38  58  85 114 155 192 236 285 345
#     4   9  19  34  56  81 112 154 185 233 286 337
#     4  10  16  30  54  83 108 137 197 238 263 328
#     4  10  21  36  57  86 120 147 190 240 293 331
#     4   9  18  33  55  80 109 151 188 227 283 339
#     4  10  21  38  60  82 117 153 199 229 277 351
#
# _framework density 26.263780000000001
#
# number of rings (size 3 to 8) (size 9 to 14) (size 15 to 20)
#    0.000    2.286    2.857    0.000    2.000    1.714 
#    0.000    2.857    0.000    7.714    0.000    0.000 
#    0.000    0.000    0.000    0.000    0.000    0.000 
#
# Total GULP energy -78025.549096 kJ/mol
# GULP energy per Si atom -5573.253507 kJ/mol
# Density = 2.620400 g / cm^3
# Si number density = 26.263780 Si / 1000 Ang^3
#
#
#
# Elastic Constant Matrix: (Units=GPa)
#
#
# Indices 1 2 3 4 5 6 
#
# 1 83.4677 50.6002 39.3309 16.1384 -13.7797 14.9747
# 2 50.6002 128.3086 35.3310 35.3227 -0.5091 6.8041
# 3 39.3309 35.3310 74.6327 43.3624 -17.3929 -6.1659
# 4 16.1384 35.3227 43.3624 49.5592 -6.6321 -5.5470
# 5 -13.7797 -0.5091 -17.3929 -6.6321 38.6906 10.9487
# 6 14.9747 6.8041 -6.1659 -5.5470 10.9487 55.0664
#
#
#
# Elastic Compliance Matrix: (Units=1/GPa)
#
#
# Indices 1 2 3 4 5 6 
#
# 1 0.023462 -0.007808 -0.013589 0.009801 0.005836 -0.007110
# 2 -0.007808 0.012599 0.002896 -0.009319 -0.003070 0.000563
# 3 -0.013589 0.002896 0.038370 -0.029985 0.006359 0.003349
# 4 0.009801 -0.009319 -0.029985 0.049686 -0.001730 0.000478
# 5 0.005836 -0.003070 0.006359 -0.001730 0.032463 -0.007124
# 6 -0.007110 0.000563 0.003349 0.000478 -0.007124 0.021864
#
#
# Mechanical properties :
#
#
# Convention : Reuss Voigt Hill
#
# Bulk Modulus (GPa) = 26.71833 59.65927 43.18880
# Shear Modulus (GPa) = 21.93723 39.40637 30.67180
#
# Velocity S-wave (km/s) = 2.89323 3.87771 3.42107
# Velocity P-wave (km/s) = 4.62128 6.54321 5.66435
#
# Compressibility (1/GPa) = 0.03742748
#
# Stress axis : x y z
#
# Youngs Moduli (GPa) = 42.62203 79.37100 26.06204
#
# Poissons Ratio (x) = 0.61977 0.35417
# Poissons Ratio (y) = 0.33281 -0.07548
# Poissons Ratio (z) = 0.57921 -0.22986
#
# Static dielectric constant tensor:
#      x y z
#    x 2.205040 -0.041170 0.123070 
#    y -0.041170 2.098450 -0.007770 
#    z 0.123070 -0.007770 2.223340 
# 
# From -- ./inp_files/175450.got.cif
#   From: 2010.05.17/outbox.cif.g08.bks.cpg/sg2_88_cif.got.tgz:175450.got - 2010.06.03 11:33:40.
