data_PCOD9096222
_publ_section_title
;
Structure prediction by ZEFSAII (Michael W. Deem and Ramdas Pophale) SiO2 
 PCOD9096222
Probable space group: P -1
;
_chemical_formula_sum "Si O2"
_cell_formula_units_Z 15
_cell_length_a 7.591775
_cell_length_b 9.010029
_cell_length_c 14.594085
_cell_angle_alpha 45.754132
_cell_angle_beta 108.014024
_cell_angle_gamma 122.797562
_cell_volume 597.189758
_symmetry_space_group_name_H-M "P -1"
_symmetry_group_IT_number 2
_symmetry_cell_setting 'triclinic'
loop_
_space_group_symop_operation_xyz
x,y,z
-x,-y,-z
loop_
_atom_site_type_symbol
_atom_site_label
_atom_site_fract_x
_atom_site_fract_y
_atom_site_fract_z
Si Si1 0.899658 0.951851 0.711292
Si Si2 0.631529 0.263396 0.942695
Si Si3 0.477942 0.730797 0.415702
Si Si4 0.852039 0.547787 0.385831
Si Si5 0.000000 0.000000 0.500000
Si Si6 0.533445 0.418402 0.139800
Si Si7 0.800327 0.228271 0.184388
Si Si8 0.137079 0.550001 0.284399
O O1 0.895295 0.005189 0.581438
O O2 0.666143 0.840522 0.762519
O O3 0.976678 0.754600 0.813421
O O4 0.079151 0.181534 0.693811
O O5 0.496135 0.405985 0.869537
O O6 0.802655 0.362737 0.846238
O O7 0.707549 0.238876 0.066461
O O8 0.500000 0.000000 0.000000
O O9 0.500000 0.500000 0.500000
O O10 0.373555 0.662871 0.529000
O O11 0.322670 0.716150 0.314280
O O12 0.689831 0.977505 0.332413
O O13 0.000000 0.500000 0.500000
O O14 0.932049 0.541330 0.301412
O O15 0.887080 0.710078 0.608511
O O16 0.739431 0.388516 0.169477
O O17 0.500000 0.500000 0.000000
#
# Coordination Sequence:
#
# PCOD9096222 Si02
#       8
#     2   2   2   2   1   2   2   2
#     4  12  23  43  69  97 132 172 220 274 333 394
#     4  11  23  42  68  95 133 178 218 278 329 387
#     4  11  19  37  63  94 127 169 219 266 324 393
#     4  10  20  35  63  94 125 173 214 258 333 397
#     4  12  22  40  64  98 134 172 212 284 330 384
#     4  10  24  43  69  92 132 177 220 271 337 394
#     4  11  24  43  71  98 131 178 226 270 331 404
#     4  11  22  39  65  92 132 174 218 266 340 384
#
# _framework density 25.117646000000001
#
# number of rings (size 3 to 8) (size 9 to 14) (size 15 to 20)
#    0.000    1.067    6.667    1.600    1.867    2.133 
#    0.000    4.000    2.933    0.000    0.000    0.000 
#    0.000    0.000    0.000    0.000    0.000    0.000 
#
# Total GULP energy -83552.306951 kJ/mol
# GULP energy per Si atom -5570.153797 kJ/mol
# Density = 2.506048 g / cm^3
# Si number density = 25.117646 Si / 1000 Ang^3
#
#
#
# Elastic Constant Matrix: (Units=GPa)
#
#
# Indices 1 2 3 4 5 6 
#
# 1 107.8851 29.5134 27.0317 9.1023 -18.2755 -36.6206
# 2 29.5134 112.4879 25.6377 9.8108 -13.8025 -31.0626
# 3 27.0317 25.6377 120.7058 5.5586 -42.8426 -20.0537
# 4 9.1023 9.8108 5.5586 45.1542 -12.1676 -7.0704
# 5 -18.2755 -13.8025 -42.8426 -12.1676 45.7438 0.1964
# 6 -36.6206 -31.0626 -20.0537 -7.0704 0.1964 37.8543
#
#
#
# Elastic Compliance Matrix: (Units=1/GPa)
#
#
# Indices 1 2 3 4 5 6 
#
# 1 0.015817 0.001225 0.002359 0.001528 0.009228 0.017795
# 2 0.001225 0.012180 0.000800 0.000147 0.004903 0.011606
# 3 0.002359 0.000800 0.015107 0.003681 0.016262 0.011545
# 4 0.001528 0.000147 0.003681 0.025577 0.010870 0.008269
# 5 0.009228 0.004903 0.016262 0.010870 0.045049 0.023363
# 6 0.017795 0.011606 0.011545 0.008269 0.023363 0.060695
#
#
# Mechanical properties :
#
#
# Convention : Reuss Voigt Hill
#
# Bulk Modulus (GPa) = 19.27769 56.16047 37.71908
# Shear Modulus (GPa) = 27.33031 43.01020 35.17025
#
# Velocity S-wave (km/s) = 3.30220 4.14254 3.74601
# Velocity P-wave (km/s) = 4.71498 6.72967 5.81031
#
# Compressibility (1/GPa) = 0.05187344
#
# Stress axis : x y z
#
# Youngs Moduli (GPa) = 63.22126 82.10423 66.19489
#
# Poissons Ratio (x) = -0.10060 -0.15615
# Poissons Ratio (y) = -0.07746 -0.05299
# Poissons Ratio (z) = -0.14914 -0.06572
#
# Static dielectric constant tensor:
#      x y z
#    x 2.308350 0.338770 -0.086380 
#    y 0.338770 2.433680 -0.187310 
#    z -0.086380 -0.187310 2.052130 
# 
# From -- ./inp_files/492060.got.cif
#   From: 2010.05.17/outbox.cif.g08.bks.cpg/sg2_247_cif.got.tgz:492060.got - 2010.06.03 11:33:40.
