data_PCOD9096365
_publ_section_title
;
Structure prediction by ZEFSAII (Michael W. Deem and Ramdas Pophale) SiO2 
 PCOD9096365
Probable space group: P -1
;
_chemical_formula_sum "Si O2"
_cell_formula_units_Z 14
_cell_length_a 15.537998
_cell_length_b 11.941777
_cell_length_c 7.697776
_cell_angle_alpha 89.876948
_cell_angle_beta 128.013854
_cell_angle_gamma 49.964470
_cell_volume 647.073078
_symmetry_space_group_name_H-M "P -1"
_symmetry_group_IT_number 2
_symmetry_cell_setting 'triclinic'
loop_
_space_group_symop_operation_xyz
x,y,z
-x,-y,-z
loop_
_atom_site_type_symbol
_atom_site_label
_atom_site_fract_x
_atom_site_fract_y
_atom_site_fract_z
Si Si1 0.990141 0.891180 0.086403
Si Si2 0.217566 0.182199 0.763691
Si Si3 0.379613 0.504091 0.761945
Si Si4 0.786759 0.572891 0.354703
Si Si5 0.399302 0.839133 0.217969
Si Si6 0.257808 0.327016 0.289679
Si Si7 0.891259 0.756275 0.753377
O O1 0.178069 0.715981 0.436310
O O2 0.968451 0.805115 0.928872
O O3 0.000000 0.000000 0.000000
O O4 0.795418 0.044595 0.950278
O O5 0.282060 0.257253 0.827572
O O6 0.203800 0.149503 0.550138
O O7 0.006004 0.365489 0.581082
O O8 0.345682 0.989293 0.028332
O O9 0.331046 0.440218 0.827541
O O10 0.499491 0.346560 0.757170
O O11 0.500000 0.500000 0.000000
O O12 0.771595 0.608899 0.544224
O O13 0.554871 0.765754 0.537901
O O14 0.242253 0.205813 0.284569
O O15 0.077004 0.522325 0.959293
#
# Coordination Sequence:
#
# PCOD9096365 Si02
#       7
#     2   2   2   2   2   2   2
#     4  12  27  47  63  90 134 172 217 270 317 381
#     4  10  20  35  72  99 126 166 208 265 329 376
#     4  11  25  45  67  93 129 172 219 267 310 383
#     4   9  18  40  62  98 132 162 204 265 313 380
#     4  11  23  45  69  94 126 172 215 267 323 384
#     4   9  19  39  67  92 133 166 203 266 327 376
#     4  10  20  39  63  98 132 165 206 265 321 380
#
# _framework density 21.635888000000001
#
# number of rings (size 3 to 8) (size 9 to 14) (size 15 to 20)
#    0.000    1.714    4.286    0.000    2.000    8.000 
#    2.571    0.000    0.000    0.000    0.000    0.000 
#    0.000    0.000    0.000    0.000    0.000    0.000 
#
# Total GULP energy -78255.292873 kJ/mol
# GULP energy per Si atom -5589.663777 kJ/mol
# Density = 2.158664 g / cm^3
# Si number density = 21.635888 Si / 1000 Ang^3
#
#
#
# Elastic Constant Matrix: (Units=GPa)
#
#
# Indices 1 2 3 4 5 6 
#
# 1 109.3353 41.5969 58.2963 0.7027 24.4805 32.6053
# 2 41.5969 74.3502 39.7124 12.5924 28.6521 24.8143
# 3 58.2963 39.7124 101.0386 1.7482 37.5022 15.3567
# 4 0.7027 12.5924 1.7482 36.7471 5.2991 18.2357
# 5 24.4805 28.6521 37.5022 5.2991 29.3959 5.1725
# 6 32.6053 24.8143 15.3567 18.2357 5.1725 42.0639
#
#
#
# Elastic Compliance Matrix: (Units=1/GPa)
#
#
# Indices 1 2 3 4 5 6 
#
# 1 0.018167 -0.002019 -0.006132 0.008011 -0.004392 -0.013585
# 2 -0.002019 0.027354 0.001416 0.000177 -0.024685 -0.012130
# 3 -0.006132 0.001416 0.022632 0.003588 -0.025303 -0.002789
# 4 0.008011 0.000177 0.003588 0.040552 -0.014613 -0.023407
# 5 -0.004392 -0.024685 -0.025303 -0.014613 0.092757 0.022134
# 6 -0.013585 -0.012130 -0.002789 -0.023407 0.022134 0.049904
#
#
# Mechanical properties :
#
#
# Convention : Reuss Voigt Hill
#
# Bulk Modulus (GPa) = 18.28669 62.65946 40.47308
# Shear Modulus (GPa) = 17.66396 31.31596 24.48996
#
# Velocity S-wave (km/s) = 2.86041 3.80861 3.36804
# Velocity P-wave (km/s) = 4.40223 6.95445 5.81997
#
# Compressibility (1/GPa) = 0.05468459
#
# Stress axis : x y z
#
# Youngs Moduli (GPa) = 55.04503 36.55751 44.18550
#
# Poissons Ratio (x) = 0.07380 0.27094
# Poissons Ratio (y) = 0.11113 -0.06259
# Poissons Ratio (z) = 0.33753 -0.05178
#
# Static dielectric constant tensor:
#      x y z
#    x 1.820350 -0.035000 0.019330 
#    y -0.035000 1.815580 -0.010360 
#    z 0.019330 -0.010360 1.785620 
# 
# From -- ./inp_files/269611.got.cif
#   From: 2010.05.17/outbox.cif.g08.bks.cpg/sg2_135_cif.got.tgz:269611.got - 2010.06.03 11:33:40.
