data_PCOD9096115
_publ_section_title
;
Structure prediction by ZEFSAII (Michael W. Deem and Ramdas Pophale) SiO2 
 PCOD9096115
Probable space group: P -1
;
_chemical_formula_sum "Si O2"
_cell_formula_units_Z 16
_cell_length_a 14.066246
_cell_length_b 7.068001
_cell_length_c 15.042920
_cell_angle_alpha 54.982042
_cell_angle_beta 30.507689
_cell_angle_gamma 53.149808
_cell_volume 601.503742
_symmetry_space_group_name_H-M "P -1"
_symmetry_group_IT_number 2
_symmetry_cell_setting 'triclinic'
loop_
_space_group_symop_operation_xyz
x,y,z
-x,-y,-z
loop_
_atom_site_type_symbol
_atom_site_label
_atom_site_fract_x
_atom_site_fract_y
_atom_site_fract_z
Si Si1 0.303100 0.106855 0.957876
Si Si2 0.312587 0.532541 0.389905
Si Si3 0.166396 0.643385 0.994017
Si Si4 0.404820 0.350699 0.185721
Si Si5 0.270096 0.004150 0.192465
Si Si6 0.912918 0.474209 0.726944
Si Si7 0.405825 0.685823 0.633129
Si Si8 0.739031 0.706575 0.248226
O O1 0.277129 0.368828 0.951617
O O2 0.207666 0.980223 0.146317
O O3 0.231108 0.157023 0.902690
O O4 0.515645 0.927868 0.822914
O O5 0.450559 0.400839 0.235630
O O6 0.245989 0.797892 0.332952
O O7 0.417214 0.500861 0.408002
O O8 0.141508 0.400998 0.563058
O O9 0.164760 0.674635 0.093964
O O10 0.940107 0.666078 0.148599
O O11 0.256947 0.787859 0.806999
O O12 0.184087 0.471319 0.305682
O O13 0.500000 0.500000 0.000000
O O14 0.150507 0.257541 0.254119
O O15 0.500000 0.000000 0.000000
O O16 0.536137 0.820694 0.433103
O O17 0.295026 0.544539 0.694894
#
# Coordination Sequence:
#
# PCOD9096115 Si02
#       8
#     2   2   2   2   2   2   2   2
#     4  10  20  35  62  90 119 163 205 253 314 362
#     4  12  23  39  59  93 131 166 208 254 320 379
#     4  10  20  39  66  93 128 155 209 271 311 366
#     4  12  23  41  61  86 130 175 208 247 320 389
#     4  11  19  37  61  92 118 156 210 264 309 366
#     4  11  23  38  62  92 128 162 213 263 314 370
#     4  10  20  35  63  93 120 162 202 254 323 360
#     4  10  20  39  64  95 126 153 213 264 313 369
#
# _framework density 26.600002
#
# number of rings (size 3 to 8) (size 9 to 14) (size 15 to 20)
#    0.000    1.250    3.750    5.250    0.000    0.000 
#    0.000    0.625    0.000    3.750    0.000    0.000 
#    0.000    0.000    0.000    0.000    0.000    0.000 
#
# Total GULP energy -89347.361135 kJ/mol
# GULP energy per Si atom -5584.210071 kJ/mol
# Density = 2.653946 g / cm^3
# Si number density = 26.600002 Si / 1000 Ang^3
#
#
#
# Elastic Constant Matrix: (Units=GPa)
#
#
# Indices 1 2 3 4 5 6 
#
# 1 101.4746 10.1844 12.4347 -4.6804 27.8793 -18.4256
# 2 10.1844 74.1263 3.8235 -12.7764 -2.2360 11.1758
# 3 12.4347 3.8235 128.0890 -3.7782 -0.6119 -3.1705
# 4 -4.6804 -12.7764 -3.7782 25.3636 -8.3630 1.8469
# 5 27.8793 -2.2360 -0.6119 -8.3630 51.5527 6.3920
# 6 -18.4256 11.1758 -3.1705 1.8469 6.3920 29.7074
#
#
#
# Elastic Compliance Matrix: (Units=1/GPa)
#
#
# Indices 1 2 3 4 5 6 
#
# 1 0.016264 -0.005625 -0.001245 -0.004962 -0.011707 0.014899
# 2 -0.005625 0.018385 0.000059 0.011559 0.007288 -0.012686
# 3 -0.001245 0.000059 0.007964 0.001340 0.001018 -0.000247
# 4 -0.004962 0.011559 0.001340 0.049744 0.012901 -0.013152
# 5 -0.011707 0.007288 0.001018 0.012901 0.030284 -0.017212
# 6 0.014899 -0.012686 -0.000247 -0.013152 -0.017212 0.052169
#
#
# Mechanical properties :
#
#
# Convention : Reuss Voigt Hill
#
# Bulk Modulus (GPa) = 34.49151 39.61944 37.05548
# Shear Modulus (GPa) = 25.24020 39.80788 32.52404
#
# Velocity S-wave (km/s) = 3.08373 3.87271 3.50052
# Velocity P-wave (km/s) = 5.06696 5.90965 5.50446
#
# Compressibility (1/GPa) = 0.02899264
#
# Stress axis : x y z
#
# Youngs Moduli (GPa) = 61.48377 54.39229 125.55843
#
# Poissons Ratio (x) = 0.30596 0.15626
# Poissons Ratio (y) = 0.34585 -0.00741
# Poissons Ratio (z) = 0.07652 -0.00321
#
# Static dielectric constant tensor:
#      x y z
#    x 2.145780 0.001450 -0.040390 
#    y 0.001450 2.080020 -0.022640 
#    z -0.040390 -0.022640 2.151380 
# 
# From -- ./inp_files/387231.got.cif
#   From: 2010.05.17/outbox.cif.g08.bks.cpg/sg2_194_cif.got.tgz:387231.got - 2010.06.03 11:33:40.
