data_PCOD9096837
_publ_section_title
;
Structure prediction by ZEFSAII (Michael W. Deem and Ramdas Pophale) SiO2 
 PCOD9096837
Probable space group: P -1
;
_chemical_formula_sum "Si O2"
_cell_formula_units_Z 16
_cell_length_a 4.940296
_cell_length_b 17.001736
_cell_length_c 9.305207
_cell_angle_alpha 105.500212
_cell_angle_beta 63.858791
_cell_angle_gamma 101.726929
_cell_volume 672.801476
_symmetry_space_group_name_H-M "P -1"
_symmetry_group_IT_number 2
_symmetry_cell_setting 'triclinic'
loop_
_space_group_symop_operation_xyz
x,y,z
-x,-y,-z
loop_
_atom_site_type_symbol
_atom_site_label
_atom_site_fract_x
_atom_site_fract_y
_atom_site_fract_z
Si Si1 0.781302 0.594095 0.962589
Si Si2 0.483500 0.807645 0.565465
Si Si3 0.168241 0.905739 0.281994
Si Si4 0.315900 0.124652 0.042998
Si Si5 0.095261 0.576921 0.168066
Si Si6 0.855450 0.234628 0.107850
Si Si7 0.842050 0.046931 0.351204
Si Si8 0.105841 0.750356 0.372289
O O1 0.425505 0.598997 0.027005
O O2 0.835109 0.573940 0.107874
O O3 0.887291 0.514243 0.818836
O O4 0.980849 0.678663 0.931364
O O5 0.229449 0.762106 0.702870
O O6 0.428553 0.904106 0.626767
O O7 0.806546 0.783353 0.525811
O O8 0.402286 0.774037 0.409307
O O9 0.177272 0.929678 0.461962
O O10 0.132239 0.806441 0.249994
O O11 0.468728 0.928412 0.127735
O O12 0.894661 0.951504 0.303970
O O13 0.541912 0.198176 0.092473
O O14 0.083982 0.164682 0.012547
O O15 0.120623 0.080339 0.196604
O O16 0.057644 0.653969 0.314445
#
# Coordination Sequence:
#
# PCOD9096837 Si02
#       8
#     2   2   2   2   2   2   2   2
#     4  10  20  36  58  84 115 149 186 240 299 344
#     4  10  22  38  57  80 117 155 189 242 297 343
#     4  10  20  37  63  86 115 159 199 240 296 353
#     4  11  23  39  61  88 119 154 198 245 289 349
#     4  10  21  36  57  86 116 144 189 247 290 343
#     4  11  21  39  60  84 115 154 194 235 294 355
#     4   9  21  40  58  87 122 153 196 248 295 342
#     4  11  21  37  58  85 113 151 198 239 289 351
#
# _framework density 23.781162999999999
#
# number of rings (size 3 to 8) (size 9 to 14) (size 15 to 20)
#    0.000    1.750    0.000    5.625    0.000    3.500 
#    0.000   13.125    0.000    0.000    0.000    0.000 
#    0.000    0.000    0.000    0.000    0.000    0.000 
#
# Total GULP energy -89326.225601 kJ/mol
# GULP energy per Si atom -5582.889100 kJ/mol
# Density = 2.372704 g / cm^3
# Si number density = 23.781163 Si / 1000 Ang^3
#
#
#
# Elastic Constant Matrix: (Units=GPa)
#
#
# Indices 1 2 3 4 5 6 
#
# 1 80.6815 2.4552 21.7126 -2.5309 -10.6089 1.0040
# 2 2.4552 86.2463 47.4653 6.1042 -8.1433 3.1226
# 3 21.7126 47.4653 114.4346 3.6304 -23.3595 1.8109
# 4 -2.5309 6.1042 3.6304 32.7939 2.7285 -7.6576
# 5 -10.6089 -8.1433 -23.3595 2.7285 34.7792 3.1342
# 6 1.0040 3.1226 1.8109 -7.6576 3.1342 31.2133
#
#
#
# Elastic Compliance Matrix: (Units=1/GPa)
#
#
# Indices 1 2 3 4 5 6 
#
# 1 0.013417 0.001224 -0.002525 0.000750 0.002669 -0.000492
# 2 0.001224 0.015380 -0.006514 -0.002464 -0.000045 -0.001800
# 3 -0.002525 -0.006514 0.013383 -0.001282 0.006889 -0.001050
# 4 0.000750 -0.002464 -0.001282 0.033646 -0.004662 0.009019
# 5 0.002669 -0.000045 0.006889 -0.004662 0.035012 -0.005140
# 6 -0.000492 -0.001800 -0.001050 0.009019 -0.005140 0.035023
#
#
# Mechanical properties :
#
#
# Convention : Reuss Voigt Hill
#
# Bulk Modulus (GPa) = 37.66345 47.18098 42.42221
# Shear Modulus (GPa) = 29.35276 33.73921 31.54598
#
# Velocity S-wave (km/s) = 3.51705 3.77070 3.64608
# Velocity P-wave (km/s) = 5.68900 6.23220 5.96678
#
# Compressibility (1/GPa) = 0.02655094
#
# Stress axis : x y z
#
# Youngs Moduli (GPa) = 74.53114 65.01840 74.72093
#
# Poissons Ratio (x) = -0.07960 0.18865
# Poissons Ratio (y) = -0.09124 0.48676
# Poissons Ratio (z) = 0.18817 0.42355
#
# Static dielectric constant tensor:
#      x y z
#    x 1.914770 0.039260 0.021090 
#    y 0.039260 1.934990 0.018910 
#    z 0.021090 0.018910 1.969300 
# 
# From -- ./inp_files/137786.got.cif
#   From: 2010.05.17/outbox.cif.g08.bks.cpg/sg2_69_cif.got.tgz:137786.got - 2010.06.03 11:33:40.
