data_PCOD9096001
_publ_section_title
;
Structure prediction by ZEFSAII (Michael W. Deem and Ramdas Pophale) SiO2 
 PCOD9096001
Probable space group: P -1
;
_chemical_formula_sum "Si O2"
_cell_formula_units_Z 16
_cell_length_a 8.893668
_cell_length_b 9.138299
_cell_length_c 12.295098
_cell_angle_alpha 59.997293
_cell_angle_beta 118.953830
_cell_angle_gamma 111.615445
_cell_volume 746.606802
_symmetry_space_group_name_H-M "P -1"
_symmetry_group_IT_number 2
_symmetry_cell_setting 'triclinic'
loop_
_space_group_symop_operation_xyz
x,y,z
-x,-y,-z
loop_
_atom_site_type_symbol
_atom_site_label
_atom_site_fract_x
_atom_site_fract_y
_atom_site_fract_z
Si Si1 0.194603 0.012392 0.963376
Si Si2 0.710211 0.087063 0.189335
Si Si3 0.368384 0.160546 0.317640
Si Si4 0.355698 0.658437 0.501029
Si Si5 0.844194 0.133193 0.764044
Si Si6 0.069684 0.162779 0.388220
Si Si7 0.419479 0.305174 0.066290
Si Si8 0.658452 0.703295 0.409302
O O1 0.014779 0.048639 0.833054
O O2 0.299294 0.933503 0.936264
O O3 0.280372 0.196481 0.975804
O O4 0.166055 0.880274 0.103927
O O5 0.573327 0.192229 0.153713
O O6 0.899981 0.186832 0.253531
O O7 0.680455 0.890160 0.294077
O O8 0.554774 0.218548 0.417253
O O9 0.222700 0.136969 0.368423
O O10 0.343687 0.296785 0.165210
O O11 0.327578 0.988681 0.296995
O O12 0.174679 0.699225 0.373524
O O13 0.490130 0.681529 0.437028
O O14 0.352441 0.462054 0.609293
O O15 0.171592 0.301784 0.453970
O O16 0.000000 0.000000 0.500000
O O17 0.500000 0.500000 0.000000
#
# Coordination Sequence:
#
# PCOD9096001 Si02
#       8
#     2   2   2   2   2   2   2   2
#     4  10  22  40  64  89 124 168 212 253 308 382
#     4  11  21  42  66  88 121 170 210 256 314 374
#     4  10  20  40  61  90 127 166 206 257 317 368
#     4  10  20  35  61  91 125 159 204 258 312 371
#     4  10  20  38  63  93 122 164 213 255 315 369
#     4   9  19  37  64  90 122 158 208 256 308 376
#     4  11  26  42  61  94 130 165 212 262 310 373
#     4   9  20  36  58  94 122 159 203 256 312 376
#
# _framework density 21.430288999999998
#
# number of rings (size 3 to 8) (size 9 to 14) (size 15 to 20)
#    0.000    2.000    1.250    2.250    1.750    3.000 
#    4.500    1.250    0.000    0.000    0.000    0.000 
#    0.000    0.000    0.000    0.000    0.000    0.000 
#
# Total GULP energy -89147.554238 kJ/mol
# GULP energy per Si atom -5571.722140 kJ/mol
# Density = 2.138151 g / cm^3
# Si number density = 21.430289 Si / 1000 Ang^3
#
#
#
# Elastic Constant Matrix: (Units=GPa)
#
#
# Indices 1 2 3 4 5 6 
#
# 1 64.9925 16.7388 21.3041 2.2633 -0.6172 -1.5711
# 2 16.7388 53.9679 40.0450 -3.6495 14.4177 -2.8257
# 3 21.3041 40.0450 65.8651 5.5597 11.6777 -4.7392
# 4 2.2633 -3.6495 5.5597 35.8175 6.5947 -0.3476
# 5 -0.6172 14.4177 11.6777 6.5947 39.6285 2.0054
# 6 -1.5711 -2.8257 -4.7392 -0.3476 2.0054 16.6408
#
#
#
# Elastic Compliance Matrix: (Units=1/GPa)
#
#
# Indices 1 2 3 4 5 6 
#
# 1 0.017660 -0.003307 -0.004143 -0.001357 0.002948 -0.000458
# 2 -0.003307 0.038697 -0.021461 0.009231 -0.009417 0.001474
# 3 -0.004143 -0.021461 0.030521 -0.006546 -0.000392 0.004568
# 4 -0.001357 0.009231 -0.006546 0.031205 -0.006696 0.001034
# 5 0.002948 -0.009417 -0.000392 -0.006696 0.030200 -0.005212
# 6 -0.000458 0.001474 0.004568 0.001034 -0.005212 0.062251
#
#
# Mechanical properties :
#
#
# Convention : Reuss Voigt Hill
#
# Bulk Modulus (GPa) = 34.41499 37.88903 36.15201
# Shear Modulus (GPa) = 17.98298 25.53320 21.75809
#
# Velocity S-wave (km/s) = 2.89993 3.45549 3.18983
# Velocity P-wave (km/s) = 5.22558 5.79992 5.52022
#
# Compressibility (1/GPa) = 0.02905711
#
# Stress axis : x y z
#
# Youngs Moduli (GPa) = 56.62447 25.84194 32.76406
#
# Poissons Ratio (x) = 0.08545 0.13573
# Poissons Ratio (y) = 0.18725 0.70315
# Poissons Ratio (z) = 0.23458 0.55459
#
# Static dielectric constant tensor:
#      x y z
#    x 1.826070 0.013160 -0.002920 
#    y 0.013160 1.828190 -0.019630 
#    z -0.002920 -0.019630 1.850620 
# 
# From -- ./inp_files/381491.got.cif
#   From: 2010.05.17/outbox.cif.g08.bks.cpg/sg2_191_cif.got.tgz:381491.got - 2010.06.03 11:33:40.
