data_PCOD9096829
_publ_section_title
;
Structure prediction by ZEFSAII (Michael W. Deem and Ramdas Pophale) SiO2 
 PCOD9096829
Probable space group: P -1
;
_chemical_formula_sum "Si O2"
_cell_formula_units_Z 16
_cell_length_a 9.288307
_cell_length_b 8.440062
_cell_length_c 14.426044
_cell_angle_alpha 126.979382
_cell_angle_beta 62.046654
_cell_angle_gamma 97.916057
_cell_volume 781.177862
_symmetry_space_group_name_H-M "P -1"
_symmetry_group_IT_number 2
_symmetry_cell_setting 'triclinic'
loop_
_space_group_symop_operation_xyz
x,y,z
-x,-y,-z
loop_
_atom_site_type_symbol
_atom_site_label
_atom_site_fract_x
_atom_site_fract_y
_atom_site_fract_z
Si Si1 0.286205 0.583881 0.231600
Si Si2 0.412751 0.535544 0.774334
Si Si3 0.056684 0.864103 0.270460
Si Si4 0.086843 0.684702 0.516186
Si Si5 0.925515 0.170927 0.958068
Si Si6 0.371642 0.440489 0.446113
Si Si7 0.793133 0.660855 0.372529
Si Si8 0.915208 0.728777 0.874703
O O1 0.470429 0.555193 0.207292
O O2 0.164634 0.660765 0.382182
O O3 0.240418 0.372243 0.137906
O O4 0.224591 0.743170 0.224717
O O5 0.528993 0.636358 0.704492
O O6 0.344369 0.371218 0.673325
O O7 0.252296 0.694629 0.912084
O O8 0.901041 0.816752 0.359169
O O9 0.040864 0.789142 0.144437
O O10 0.035422 0.103560 0.359218
O O11 0.242831 0.642773 0.524403
O O12 0.000000 0.500000 0.500000
O O13 0.918556 0.935933 0.893518
O O14 0.060946 0.225485 0.007874
O O15 0.500000 0.500000 0.500000
O O16 0.279967 0.300940 0.488586
O O17 0.923378 0.444255 0.260567
#
# Coordination Sequence:
#
# PCOD9096829 Si02
#       8
#     2   2   2   2   2   2   2   2
#     4  10  21  36  54  82 116 147 183 233 287 328
#     4   9  20  35  55  82 117 154 187 227 278 337
#     4  11  22  36  59  85 113 147 187 232 280 336
#     4  11  21  37  60  84 112 145 189 236 280 331
#     4  10  20  36  58  84 111 150 195 227 273 334
#     4   9  18  36  58  79 109 148 187 230 275 325
#     4   9  18  36  59  82 111 147 191 237 278 323
#     4   9  19  36  59  82 108 146 194 236 268 325
#
# _framework density 20.48189
#
# number of rings (size 3 to 8) (size 9 to 14) (size 15 to 20)
#    0.000    2.250    0.000    3.375    0.000    6.500 
#    0.000    6.875    0.000    6.000    0.000    0.000 
#    0.000    0.000    0.000    0.000    0.000    0.000 
#
# Total GULP energy -89285.027629 kJ/mol
# GULP energy per Si atom -5580.314227 kJ/mol
# Density = 2.043527 g / cm^3
# Si number density = 20.481890 Si / 1000 Ang^3
#
#
#
# Elastic Constant Matrix: (Units=GPa)
#
#
# Indices 1 2 3 4 5 6 
#
# 1 123.8618 30.8951 5.2881 6.3979 16.3082 -27.2022
# 2 30.8951 72.5895 25.1309 -14.1281 9.5897 -13.5349
# 3 5.2881 25.1309 37.0330 -3.6843 10.5938 2.6818
# 4 6.3979 -14.1281 -3.6843 27.5340 1.4325 6.4822
# 5 16.3082 9.5897 10.5938 1.4325 19.2242 -10.9336
# 6 -27.2022 -13.5349 2.6818 6.4822 -10.9336 28.6590
#
#
#
# Elastic Compliance Matrix: (Units=1/GPa)
#
#
# Indices 1 2 3 4 5 6 
#
# 1 0.012067 -0.004576 0.000421 -0.007412 -0.001811 0.010238
# 2 -0.004576 0.024330 -0.017242 0.008846 0.005660 0.008919
# 3 0.000421 -0.017242 0.051860 0.006529 -0.036812 -0.028117
# 4 -0.007412 0.008846 0.006529 0.049387 -0.017533 -0.021327
# 5 -0.001811 0.005660 -0.036812 -0.017533 0.098439 0.045920
# 6 0.010238 0.008919 -0.028117 -0.021327 0.045920 0.073797
#
#
# Mechanical properties :
#
#
# Convention : Reuss Voigt Hill
#
# Bulk Modulus (GPa) = 21.99590 39.56804 30.78197
# Shear Modulus (GPa) = 13.59335 26.56145 20.07740
#
# Velocity S-wave (km/s) = 2.57899 3.60505 3.13429
# Velocity P-wave (km/s) = 4.43066 6.05715 5.30659
#
# Compressibility (1/GPa) = 0.04546301
#
# Stress axis : x y z
#
# Youngs Moduli (GPa) = 82.87301 41.10156 19.28275
#
# Poissons Ratio (x) = 0.18808 -0.00813
# Poissons Ratio (y) = 0.37922 0.33248
# Poissons Ratio (z) = -0.03492 0.70868
#
# Static dielectric constant tensor:
#      x y z
#    x 1.784250 0.010700 -0.001030 
#    y 0.010700 1.741760 -0.036690 
#    z -0.001030 -0.036690 1.728390 
# 
# From -- ./inp_files/333498.got.cif
#   From: 2010.05.17/outbox.cif.g08.bks.cpg/sg2_167_cif.got.tgz:333498.got - 2010.06.03 11:33:40.
