data_PCOD9096740
_publ_section_title
;
Structure prediction by ZEFSAII (Michael W. Deem and Ramdas Pophale) SiO2 
 PCOD9096740
Probable space group: P -1
;
_chemical_formula_sum "Si O2"
_cell_formula_units_Z 16
_cell_length_a 7.725090
_cell_length_b 8.559927
_cell_length_c 14.307204
_cell_angle_alpha 127.783069
_cell_angle_beta 69.558680
_cell_angle_gamma 117.342912
_cell_volume 661.073534
_symmetry_space_group_name_H-M "P -1"
_symmetry_group_IT_number 2
_symmetry_cell_setting 'triclinic'
loop_
_space_group_symop_operation_xyz
x,y,z
-x,-y,-z
loop_
_atom_site_type_symbol
_atom_site_label
_atom_site_fract_x
_atom_site_fract_y
_atom_site_fract_z
Si Si1 0.771430 0.664382 0.052068
Si Si2 0.316298 0.209880 0.072231
Si Si3 0.698687 0.783205 0.476655
Si Si4 0.424320 0.822999 0.821524
Si Si5 0.677715 0.347278 0.411122
Si Si6 0.894064 0.465231 0.118732
Si Si7 0.962033 0.109358 0.236491
Si Si8 0.952375 0.105580 0.684406
O O1 0.667563 0.628723 0.957788
O O2 0.999420 0.687413 0.997764
O O3 0.744313 0.504007 0.084557
O O4 0.784361 0.891688 0.170439
O O5 0.432104 0.239997 0.158989
O O6 0.096044 0.158221 0.136351
O O7 0.384510 0.028094 0.943414
O O8 0.722748 0.587570 0.459926
O O9 0.462772 0.717407 0.495278
O O10 0.824180 0.818248 0.370575
O O11 0.807462 0.998049 0.589944
O O12 0.460141 0.800612 0.698319
O O13 0.218990 0.639064 0.807506
O O14 0.870942 0.283338 0.350149
O O15 0.061383 0.680999 0.192065
O O16 0.069857 0.051533 0.283414
#
# Coordination Sequence:
#
# PCOD9096740 Si02
#       8
#     2   2   2   2   2   2   2   2
#     4  10  20  36  57  90 119 160 196 232 298 373
#     4  11  22  35  59  92 126 155 199 240 292 369
#     4  10  23  42  64  86 112 159 207 253 299 355
#     4  11  21  37  58  89 124 159 197 245 296 352
#     4  11  22  40  66  87 118 156 205 253 300 344
#     4  10  20  37  62  85 124 163 190 241 301 361
#     4  11  21  37  63  90 120 155 197 246 302 360
#     4  10  22  41  63  87 119 157 199 246 307 351
#
# _framework density 24.203057999999999
#
# number of rings (size 3 to 8) (size 9 to 14) (size 15 to 20)
#    0.000    1.500    3.750    1.875    0.000    1.500 
#    0.000    2.500    0.000    0.000    0.000    0.000 
#    0.000    0.000    0.000    0.000    0.000    0.000 
#
# Total GULP energy -89205.073322 kJ/mol
# GULP energy per Si atom -5575.317083 kJ/mol
# Density = 2.414797 g / cm^3
# Si number density = 24.203058 Si / 1000 Ang^3
#
#
#
# Elastic Constant Matrix: (Units=GPa)
#
#
# Indices 1 2 3 4 5 6 
#
# 1 44.3634 10.7506 -7.4906 7.1183 -5.2473 -13.3690
# 2 10.7506 76.8191 13.8662 -21.6122 -24.7516 1.9527
# 3 -7.4906 13.8662 61.6365 3.1510 -8.6951 7.7963
# 4 7.1183 -21.6122 3.1510 44.7350 0.0179 -9.1781
# 5 -5.2473 -24.7516 -8.6951 0.0179 36.1452 -8.8412
# 6 -13.3690 1.9527 7.7963 -9.1781 -8.8412 27.9180
#
#
#
# Elastic Compliance Matrix: (Units=1/GPa)
#
#
# Indices 1 2 3 4 5 6 
#
# 1 0.029875 -0.004785 0.003958 -0.004525 0.005378 0.013751
# 2 -0.004785 0.023483 -0.005241 0.013933 0.015863 0.007134
# 3 0.003958 -0.005241 0.018805 -0.005443 0.000372 -0.004661
# 4 -0.004525 0.013933 -0.005443 0.032750 0.010618 0.012508
# 5 0.005378 0.015863 0.000372 0.010618 0.043989 0.018783
# 6 0.013751 0.007134 -0.004661 0.012508 0.018783 0.053267
#
#
# Mechanical properties :
#
#
# Convention : Reuss Voigt Hill
#
# Bulk Modulus (GPa) = 16.65951 24.11905 20.38928
# Shear Modulus (GPa) = 21.33883 32.80583 27.07233
#
# Velocity S-wave (km/s) = 2.97249 3.68563 3.34810
# Velocity P-wave (km/s) = 4.32194 5.30082 4.83621
#
# Compressibility (1/GPa) = 0.06002578
#
# Stress axis : x y z
#
# Youngs Moduli (GPa) = 33.47266 42.58368 53.17874
#
# Poissons Ratio (x) = 0.20377 -0.21048
# Poissons Ratio (y) = 0.16017 0.27872
# Poissons Ratio (z) = -0.13248 0.22319
#
# Static dielectric constant tensor:
#      x y z
#    x 1.983900 0.019940 -0.020700 
#    y 0.019940 1.926010 -0.020300 
#    z -0.020700 -0.020300 1.914900 
# 
# From -- ./inp_files/329619.got.cif
#   From: 2010.05.17/outbox.cif.g08.bks.cpg/sg2_165_cif.got.tgz:329619.got - 2010.06.03 11:33:40.
