data_PCOD9096971
_publ_section_title
;
Structure prediction by ZEFSAII (Michael W. Deem and Ramdas Pophale) SiO2 
 PCOD9096971
Probable space group: P -1
;
_chemical_formula_sum "Si O2"
_cell_formula_units_Z 14
_cell_length_a 7.682153
_cell_length_b 15.018505
_cell_length_c 5.748194
_cell_angle_alpha 98.383331
_cell_angle_beta 107.623228
_cell_angle_gamma 100.855098
_cell_volume 606.012750
_symmetry_space_group_name_H-M "P -1"
_symmetry_group_IT_number 2
_symmetry_cell_setting 'triclinic'
loop_
_space_group_symop_operation_xyz
x,y,z
-x,-y,-z
loop_
_atom_site_type_symbol
_atom_site_label
_atom_site_fract_x
_atom_site_fract_y
_atom_site_fract_z
Si Si1 0.044207 0.056643 0.285906
Si Si2 0.208042 0.481101 0.338332
Si Si3 0.484968 0.104669 0.531154
Si Si4 0.627842 0.273070 0.946037
Si Si5 0.168967 0.791970 0.607974
Si Si6 0.556594 0.581117 0.240372
Si Si7 0.984711 0.367287 0.808300
O O1 0.923206 0.134159 0.272283
O O2 0.268773 0.102498 0.388489
O O3 0.000000 0.000000 0.500000
O O4 0.000000 0.000000 0.000000
O O5 0.400673 0.555010 0.371331
O O6 0.253349 0.427419 0.561518
O O7 0.056971 0.543017 0.302975
O O8 0.145510 0.407465 0.076210
O O9 0.544302 0.165135 0.810798
O O10 0.650135 0.153310 0.441474
O O11 0.500000 0.000000 0.500000
O O12 0.466135 0.326533 0.859874
O O13 0.794680 0.323738 0.861990
O O14 0.738731 0.276857 0.230822
O O15 0.007205 0.723743 0.366773
O O16 0.500000 0.500000 0.000000
#
# Coordination Sequence:
#
# PCOD9096971 Si02
#       7
#     2   2   2   2   2   2   2
#     4  12  28  47  74 110 140 187 249 298 367 442
#     4   9  19  37  62  88 135 177 230 287 341 433
#     4  11  24  46  71  97 138 185 234 297 366 424
#     4  10  23  39  62  97 130 180 234 290 360 426
#     4  11  24  44  71  98 145 183 239 301 360 436
#     4  10  20  36  58  92 131 177 229 284 355 415
#     4   9  20  39  62  95 130 184 233 286 362 416
#
# _framework density 23.101821999999999
#
# number of rings (size 3 to 8) (size 9 to 14) (size 15 to 20)
#    0.000    1.714    1.429    1.714    4.000    5.714 
#    0.000    4.286    0.000    0.000    0.000    0.000 
#    0.000    0.000    0.000    0.000    0.000    0.000 
#
# Total GULP energy -78115.421983 kJ/mol
# GULP energy per Si atom -5579.672999 kJ/mol
# Density = 2.304924 g / cm^3
# Si number density = 23.101822 Si / 1000 Ang^3
#
#
#
# Elastic Constant Matrix: (Units=GPa)
#
#
# Indices 1 2 3 4 5 6 
#
# 1 127.4538 22.2401 28.9956 3.1569 9.7184 -1.2545
# 2 22.2401 119.5417 53.5105 -2.6050 -2.3594 -13.9443
# 3 28.9956 53.5105 124.2873 9.1527 16.2115 -22.4692
# 4 3.1569 -2.6050 9.1527 38.2675 -3.6971 7.0435
# 5 9.7184 -2.3594 16.2115 -3.6971 35.5624 1.4279
# 6 -1.2545 -13.9443 -22.4692 7.0435 1.4279 39.0936
#
#
#
# Elastic Compliance Matrix: (Units=1/GPa)
#
#
# Indices 1 2 3 4 5 6 
#
# 1 0.008491 -0.001097 -0.001378 -0.000478 -0.001784 -0.000760
# 2 -0.001097 0.010992 -0.005026 0.002299 0.003541 0.000453
# 3 -0.001378 -0.005026 0.013032 -0.005254 -0.006719 0.006845
# 4 -0.000478 0.002299 -0.005254 0.029601 0.006068 -0.007770
# 5 -0.001784 0.003541 -0.006719 0.006068 0.032734 -0.004945
# 6 -0.000760 0.000453 0.006845 -0.007770 -0.004945 0.031232
#
#
# Mechanical properties :
#
#
# Convention : Reuss Voigt Hill
#
# Bulk Modulus (GPa) = 57.09885 64.53058 60.81471
# Shear Modulus (GPa) = 34.03164 40.35380 37.19272
#
# Velocity S-wave (km/s) = 3.84228 4.18398 4.01677
# Velocity P-wave (km/s) = 6.66738 7.16482 6.92057
#
# Compressibility (1/GPa) = 0.01751349
#
# Stress axis : x y z
#
# Youngs Moduli (GPa) = 117.76694 90.97555 76.73428
#
# Poissons Ratio (x) = 0.09982 0.10574
# Poissons Ratio (y) = 0.12921 0.38565
# Poissons Ratio (z) = 0.16228 0.45722
#
# Static dielectric constant tensor:
#      x y z
#    x 0.898920 -0.834080 -0.300590 
#    y -0.834080 1.160030 -0.267360 
#    z -0.300590 -0.267360 1.837150 
# 
# From -- ./inp_files/35946.got.cif
#   From: 2010.05.17/outbox.cif.g08.bks.cpg/sg2_18_cif.got.tgz:35946.got - 2010.06.03 11:33:40.
