data_PCOD9096101
_publ_section_title
;
Structure prediction by ZEFSAII (Michael W. Deem and Ramdas Pophale) SiO2 
 PCOD9096101
Probable space group: P -1
;
_chemical_formula_sum "Si O2"
_cell_formula_units_Z 16
_cell_length_a 9.706774
_cell_length_b 11.295493
_cell_length_c 15.341924
_cell_angle_alpha 58.624548
_cell_angle_beta 58.926583
_cell_angle_gamma 109.657745
_cell_volume 690.638865
_symmetry_space_group_name_H-M "P -1"
_symmetry_group_IT_number 2
_symmetry_cell_setting 'triclinic'
loop_
_space_group_symop_operation_xyz
x,y,z
-x,-y,-z
loop_
_atom_site_type_symbol
_atom_site_label
_atom_site_fract_x
_atom_site_fract_y
_atom_site_fract_z
Si Si1 0.765090 0.811011 0.576196
Si Si2 0.294142 0.404222 0.026599
Si Si3 0.795725 0.341820 0.020323
Si Si4 0.205339 0.439934 0.631801
Si Si5 0.226549 0.124065 0.040482
Si Si6 0.323100 0.763815 0.091854
Si Si7 0.572121 0.176788 0.345934
Si Si8 0.501637 0.459050 0.661729
O O1 0.490434 0.576085 0.813152
O O2 0.693727 0.910200 0.524647
O O3 0.769507 0.699723 0.542144
O O4 0.000000 0.000000 0.500000
O O5 0.171968 0.466992 0.065847
O O6 0.116275 0.150756 0.140889
O O7 0.500000 0.500000 0.000000
O O8 0.627365 0.179019 0.224991
O O9 0.640156 0.187753 0.042012
O O10 0.126331 0.531911 0.842027
O O11 0.380304 0.507160 0.631845
O O12 0.407810 0.584509 0.425710
O O13 0.012414 0.439775 0.705035
O O14 0.986248 0.156127 0.793775
O O15 0.535054 0.281454 0.911276
O O16 0.276924 0.231710 0.889351
O O17 0.500000 0.000000 0.000000
O O18 0.500000 0.000000 0.500000
#
# Coordination Sequence:
#
# PCOD9096101 Si02
#       8
#     2   2   2   2   2   2   2   2
#     4  10  23  37  58  89 122 150 201 253 292 361
#     4  10  20  35  62  89 114 156 191 241 309 346
#     4  10  21  41  61  88 129 151 200 254 289 362
#     4  10  22  39  61  82 123 158 198 245 287 353
#     4  10  21  38  62  90 115 152 203 243 296 359
#     4  10  21  38  62  88 120 160 197 242 297 349
#     4  10  23  39  62  90 118 162 197 243 312 355
#     4  10  22  40  58  87 116 159 201 242 297 346
#
# _framework density 23.166955999999999
#
# number of rings (size 3 to 8) (size 9 to 14) (size 15 to 20)
#    0.000    2.000    1.250    1.125    3.500    2.500 
#    0.000    7.500    0.000    0.000    0.000    0.000 
#    0.000    0.000    0.000    0.000    0.000    0.000 
#
# Total GULP energy -89304.161371 kJ/mol
# GULP energy per Si atom -5581.510086 kJ/mol
# Density = 2.311423 g / cm^3
# Si number density = 23.166956 Si / 1000 Ang^3
#
#
#
# Elastic Constant Matrix: (Units=GPa)
#
#
# Indices 1 2 3 4 5 6 
#
# 1 116.7448 31.8869 15.3330 15.4728 -1.8411 16.5652
# 2 31.8869 112.1040 17.5987 19.6744 5.7134 25.7543
# 3 15.3330 17.5987 59.5073 18.3132 10.9485 3.3638
# 4 15.4728 19.6744 18.3132 35.5761 1.3445 1.2358
# 5 -1.8411 5.7134 10.9485 1.3445 40.3285 4.4083
# 6 16.5652 25.7543 3.3638 1.2358 4.4083 35.4584
#
#
#
# Elastic Compliance Matrix: (Units=1/GPa)
#
#
# Indices 1 2 3 4 5 6 
#
# 1 0.010040 -0.001384 -0.001384 -0.002820 0.001523 -0.003645
# 2 -0.001384 0.012262 -0.001101 -0.005320 -0.000459 -0.007912
# 3 -0.001384 -0.001101 0.021429 -0.009629 -0.005450 0.000426
# 4 -0.002820 -0.005320 -0.009629 0.037017 0.001500 0.004618
# 5 0.001523 -0.000459 -0.005450 0.001500 0.026714 -0.003234
# 6 -0.003645 -0.007912 0.000426 0.004618 -0.003234 0.035853
#
#
# Mechanical properties :
#
#
# Convention : Reuss Voigt Hill
#
# Bulk Modulus (GPa) = 27.78270 46.44372 37.11321
# Shear Modulus (GPa) = 30.66554 37.17510 33.92032
#
# Velocity S-wave (km/s) = 3.64218 4.01017 3.83060
# Velocity P-wave (km/s) = 5.45030 6.44460 5.96819
#
# Compressibility (1/GPa) = 0.03599362
#
# Stress axis : x y z
#
# Youngs Moduli (GPa) = 99.59734 81.55543 46.66629
#
# Poissons Ratio (x) = 0.11287 0.06459
# Poissons Ratio (y) = 0.13783 0.05136
# Poissons Ratio (z) = 0.13785 0.08976
#
# Static dielectric constant tensor:
#      x y z
#    x 1.921320 -0.040900 -0.048190 
#    y -0.040900 1.971000 -0.058770 
#    z -0.048190 -0.058770 1.920680 
# 
# From -- ./inp_files/500147.got.cif
#   From: 2010.05.17/outbox.cif.g08.bks.cpg/sg2_251_cif.got.tgz:500147.got - 2010.06.03 11:33:40.
