data_PCOD9096589
_publ_section_title
;
Structure prediction by ZEFSAII (Michael W. Deem and Ramdas Pophale) SiO2 
 PCOD9096589
Probable space group: P -1
;
_chemical_formula_sum "Si O2"
_cell_formula_units_Z 13
_cell_length_a 14.627026
_cell_length_b 24.001169
_cell_length_c 14.327052
_cell_angle_alpha 19.641240
_cell_angle_beta 149.559078
_cell_angle_gamma 159.071890
_cell_volume 597.418934
_symmetry_space_group_name_H-M "P -1"
_symmetry_group_IT_number 2
_symmetry_cell_setting 'triclinic'
loop_
_space_group_symop_operation_xyz
x,y,z
-x,-y,-z
loop_
_atom_site_type_symbol
_atom_site_label
_atom_site_fract_x
_atom_site_fract_y
_atom_site_fract_z
Si Si1 0.513795 0.375610 0.126605
Si Si2 0.614134 0.591025 0.601189
Si Si3 0.648913 0.849720 0.054789
Si Si4 0.000000 0.500000 0.500000
Si Si5 0.523980 0.991628 0.221888
Si Si6 0.991248 0.802195 0.771405
Si Si7 0.184314 0.370376 0.708293
O O1 0.457038 0.162131 0.456280
O O2 0.500000 0.500000 0.000000
O O3 0.810644 0.577892 0.035339
O O4 0.328190 0.315637 0.976737
O O5 0.715651 0.757571 0.338298
O O6 0.484158 0.336242 0.852561
O O7 0.841394 0.708808 0.688350
O O8 0.385540 0.540087 0.534492
O O9 0.453402 0.842680 0.948093
O O10 0.904128 0.120312 0.824029
O O11 0.769025 0.205514 0.761743
O O12 0.850129 0.506092 0.442331
O O13 0.736427 0.105391 0.150593
O O14 0.000000 0.000000 0.500000
#
# Coordination Sequence:
#
# PCOD9096589 Si02
#       7
#     2   2   2   1   2   2   2
#     4  11  20  37  61  85 122 154 191 237 294 361
#     4  10  22  42  60  84 116 159 205 239 290 356
#     4  10  23  39  61  84 118 160 198 246 290 344
#     4  10  20  36  56  88 122 146 192 244 292 352
#     4  11  22  37  56  90 118 154 195 245 294 347
#     4  11  22  37  63  88 115 158 197 240 302 351
#     4  10  20  38  61  86 116 158 193 245 296 348
#
# _framework density 21.760273999999999
#
# number of rings (size 3 to 8) (size 9 to 14) (size 15 to 20)
#    0.000    1.538    3.077    2.308    0.000    3.077 
#    0.000    6.154    0.000    0.000    0.000    0.000 
#    0.000    0.000    0.000    0.000    0.000    0.000 
#
# Total GULP energy -72424.053573 kJ/mol
# GULP energy per Si atom -5571.081044 kJ/mol
# Density = 2.171075 g / cm^3
# Si number density = 21.760274 Si / 1000 Ang^3
#
#
#
# Elastic Constant Matrix: (Units=GPa)
#
#
# Indices 1 2 3 4 5 6 
#
# 1 102.1987 32.2108 3.4993 -18.8122 13.9597 18.2044
# 2 32.2108 61.5215 -6.8265 -11.2857 1.4564 2.0357
# 3 3.4993 -6.8265 32.6008 1.3745 9.9879 -3.3318
# 4 -18.8122 -11.2857 1.3745 24.4418 -1.3163 -4.5920
# 5 13.9597 1.4564 9.9879 -1.3163 42.4740 -8.3595
# 6 18.2044 2.0357 -3.3318 -4.5920 -8.3595 46.2514
#
#
#
# Elastic Compliance Matrix: (Units=1/GPa)
#
#
# Indices 1 2 3 4 5 6 
#
# 1 0.015009 -0.006457 -0.002314 0.007300 -0.005120 -0.005991
# 2 -0.006457 0.020980 0.004859 0.004989 0.000933 0.002632
# 3 -0.002314 0.004859 0.034387 -0.001536 -0.007201 0.001720
# 4 0.007300 0.004989 -0.001536 0.049206 -0.000366 0.001616
# 5 -0.005120 0.000933 -0.007201 -0.000366 0.028158 0.006508
# 6 -0.005991 0.002632 0.001720 0.001616 0.006508 0.025324
#
#
# Mechanical properties :
#
#
# Convention : Reuss Voigt Hill
#
# Bulk Modulus (GPa) = 15.98657 28.23202 22.10930
# Shear Modulus (GPa) = 24.78455 33.79594 29.29024
#
# Velocity S-wave (km/s) = 3.37854 3.94522 3.67282
# Velocity P-wave (km/s) = 4.75205 5.80993 5.30741
#
# Compressibility (1/GPa) = 0.06255249
#
# Stress axis : x y z
#
# Youngs Moduli (GPa) = 66.62507 47.66386 29.08089
#
# Poissons Ratio (x) = 0.30775 0.06731
# Poissons Ratio (y) = 0.43018 -0.14131
# Poissons Ratio (z) = 0.15420 -0.23161
#
# Static dielectric constant tensor:
#      x y z
#    x 1.808160 0.010820 -0.037210 
#    y 0.010820 1.848870 0.048010 
#    z -0.037210 0.048010 1.803950 
# 
# From -- ./inp_files/173756.got.cif
#   From: 2010.05.17/outbox.cif.g08.bks.cpg/sg2_87_cif.got.tgz:173756.got - 2010.06.03 11:33:40.
