data_PCOD9096075
_publ_section_title
;
Structure prediction by ZEFSAII (Michael W. Deem and Ramdas Pophale) SiO2 
 PCOD9096075
Probable space group: P -1
;
_chemical_formula_sum "Si O2"
_cell_formula_units_Z 14
_cell_length_a 8.119618
_cell_length_b 12.635984
_cell_length_c 14.268489
_cell_angle_alpha 145.724103
_cell_angle_beta 50.342200
_cell_angle_gamma 112.343192
_cell_volume 597.018235
_symmetry_space_group_name_H-M "P -1"
_symmetry_group_IT_number 2
_symmetry_cell_setting 'triclinic'
loop_
_space_group_symop_operation_xyz
x,y,z
-x,-y,-z
loop_
_atom_site_type_symbol
_atom_site_label
_atom_site_fract_x
_atom_site_fract_y
_atom_site_fract_z
Si Si1 0.459812 0.266883 0.119443
Si Si2 0.140739 0.144084 0.287024
Si Si3 0.169725 0.087221 0.775831
Si Si4 0.249445 0.549837 0.240487
Si Si5 0.113009 0.669073 0.186224
Si Si6 0.344105 0.898455 0.388627
Si Si7 0.219285 0.523364 0.828783
O O1 0.273432 0.227302 0.224118
O O2 0.352310 0.358164 0.126353
O O3 0.548629 0.441165 0.255914
O O4 0.673075 0.057604 0.885082
O O5 0.003127 0.316691 0.535347
O O6 0.940345 0.073243 0.265243
O O7 0.425424 0.064506 0.693432
O O8 0.975669 0.296581 0.019738
O O9 0.185674 0.064191 0.638693
O O10 0.244892 0.512327 0.104890
O O11 0.383482 0.709534 0.308059
O O12 0.205770 0.845158 0.314311
O O13 0.189708 0.582924 0.993363
O O14 0.854084 0.670985 0.298192
#
# Coordination Sequence:
#
# PCOD9096075 Si02
#       7
#     2   2   2   2   2   2   2
#     4  10  20  35  62  85 116 160 194 235 296 343
#     4   9  19  38  58  87 119 155 197 238 283 358
#     4   9  17  34  56  78 118 150 186 239 299 338
#     4   9  19  36  61  85 115 151 195 244 291 345
#     4   9  21  34  55  84 122 146 196 246 296 347
#     4   8  18  33  55  84 112 147 190 243 289 354
#     4  10  21  33  54  84 118 156 189 246 296 344
#
# _framework density 23.449869
#
# number of rings (size 3 to 8) (size 9 to 14) (size 15 to 20)
#    0.857    2.000    0.000    0.429    4.000    2.857 
#    0.000    0.714    0.000   15.429    0.000    0.000 
#    0.000    0.000    0.000    0.000    0.000    0.000 
#
# Total GULP energy -77943.206819 kJ/mol
# GULP energy per Si atom -5567.371916 kJ/mol
# Density = 2.339650 g / cm^3
# Si number density = 23.449869 Si / 1000 Ang^3
#
#
#
# Elastic Constant Matrix: (Units=GPa)
#
#
# Indices 1 2 3 4 5 6 
#
# 1 96.3085 53.0725 20.2605 -7.6042 -5.9383 38.2055
# 2 53.0725 140.2433 21.1654 -18.1368 -25.3064 25.3811
# 3 20.2605 21.1654 75.9991 -8.9436 -25.6823 4.8925
# 4 -7.6042 -18.1368 -8.9436 24.4796 10.2663 -13.4957
# 5 -5.9383 -25.3064 -25.6823 10.2663 33.5639 6.0688
# 6 38.2055 25.3811 4.8925 -13.4957 6.0688 58.7927
#
#
#
# Elastic Compliance Matrix: (Units=1/GPa)
#
#
# Indices 1 2 3 4 5 6 
#
# 1 0.017348 -0.004841 -0.003065 -0.005112 0.000473 -0.010151
# 2 -0.004841 0.010865 0.001368 0.002721 0.007884 -0.001848
# 3 -0.003065 0.001368 0.018868 -0.000564 0.015441 -0.001892
# 4 -0.005112 0.002721 -0.000564 0.059768 -0.020832 0.018064
# 5 0.000473 0.007884 0.015441 -0.020832 0.056838 -0.015645
# 6 -0.010151 -0.001848 -0.001892 0.018064 -0.015645 0.030322
#
#
# Mechanical properties :
#
#
# Convention : Reuss Voigt Hill
#
# Bulk Modulus (GPa) = 29.40765 55.72752 42.56758
# Shear Modulus (GPa) = 22.89180 37.90408 30.39794
#
# Velocity S-wave (km/s) = 3.12781 4.02479 3.60432
# Velocity P-wave (km/s) = 5.06084 6.73905 5.95932
#
# Compressibility (1/GPa) = 0.03400476
#
# Stress axis : x y z
#
# Youngs Moduli (GPa) = 57.64273 92.03897 53.00118
#
# Poissons Ratio (x) = 0.44559 0.16244
# Poissons Ratio (y) = 0.27906 -0.07252
# Poissons Ratio (z) = 0.17667 -0.12593
#
# Static dielectric constant tensor:
#      x y z
#    x 1.996360 0.020650 -0.020560 
#    y 0.020650 1.950990 0.101960 
#    z -0.020560 0.101960 1.975860 
# 
# From -- ./inp_files/502085.got.cif
#   From: 2010.05.17/outbox.cif.g08.bks.cpg/sg2_252_cif.got.tgz:502085.got - 2010.06.03 11:33:40.
