data_PCOD9096160
_publ_section_title
;
Structure prediction by ZEFSAII (Michael W. Deem and Ramdas Pophale) SiO2 
 PCOD9096160
Probable space group: P -1
;
_chemical_formula_sum "Si O2"
_cell_formula_units_Z 14
_cell_length_a 12.536319
_cell_length_b 11.403310
_cell_length_c 5.317278
_cell_angle_alpha 98.077089
_cell_angle_beta 86.156665
_cell_angle_gamma 133.065887
_cell_volume 549.382146
_symmetry_space_group_name_H-M "P -1"
_symmetry_group_IT_number 2
_symmetry_cell_setting 'triclinic'
loop_
_space_group_symop_operation_xyz
x,y,z
-x,-y,-z
loop_
_atom_site_type_symbol
_atom_site_label
_atom_site_fract_x
_atom_site_fract_y
_atom_site_fract_z
Si Si1 0.141310 0.190202 0.480636
Si Si2 0.060183 0.782000 0.753596
Si Si3 0.324760 0.374460 0.021909
Si Si4 0.216354 0.746673 0.360212
Si Si5 0.171856 0.487421 0.978995
Si Si6 0.672561 0.003856 0.957662
Si Si7 0.379283 0.772939 0.727187
O O1 0.238210 0.275988 0.745022
O O2 0.052707 0.238602 0.413378
O O3 0.250745 0.252204 0.240014
O O4 0.000000 0.000000 0.500000
O O5 0.109364 0.698406 0.588071
O O6 0.978862 0.692701 0.002009
O O7 0.208982 0.961806 0.864505
O O8 0.500000 0.500000 0.000000
O O9 0.286093 0.484813 0.091866
O O10 0.153490 0.599982 0.148414
O O11 0.253430 0.901653 0.285954
O O12 0.368142 0.801824 0.449139
O O13 0.247832 0.582551 0.737823
O O14 0.523524 0.830592 0.849404
O O15 0.641545 0.113174 0.105952
#
# Coordination Sequence:
#
# PCOD9096160 Si02
#       7
#     2   2   2   2   2   2   2
#     4  11  26  50  78 105 144 185 245 302 361 425
#     4  10  23  38  64  95 135 173 224 281 348 415
#     4  11  26  50  77 106 144 185 244 302 362 424
#     4  10  20  35  62  96 135 176 222 271 348 412
#     4  10  23  38  64  94 136 171 224 278 346 412
#     4   9  19  36  54  87 130 176 219 270 323 409
#     4   9  19  35  56  85 131 175 221 266 330 403
#
# _framework density 25.483174000000002
#
# number of rings (size 3 to 8) (size 9 to 14) (size 15 to 20)
#    0.000    2.000    0.000    1.714    8.000    7.429 
#    2.571    0.000    0.000    0.000    0.000    0.000 
#    0.000    0.000    0.000    0.000    0.000    0.000 
#
# Total GULP energy -78027.721356 kJ/mol
# GULP energy per Si atom -5573.408668 kJ/mol
# Density = 2.542517 g / cm^3
# Si number density = 25.483174 Si / 1000 Ang^3
#
#
#
# Elastic Constant Matrix: (Units=GPa)
#
#
# Indices 1 2 3 4 5 6 
#
# 1 106.6273 48.3643 41.0591 10.1741 10.2832 29.3282
# 2 48.3643 129.9559 64.3696 -4.4278 13.8989 25.4941
# 3 41.0591 64.3696 141.5835 -1.6402 23.8657 28.6134
# 4 10.1741 -4.4278 -1.6402 33.6150 12.1911 10.3706
# 5 10.2832 13.8989 23.8657 12.1911 33.2924 7.0486
# 6 29.3282 25.4941 28.6134 10.3706 7.0486 37.0379
#
#
#
# Elastic Compliance Matrix: (Units=1/GPa)
#
#
# Indices 1 2 3 4 5 6 
#
# 1 0.013355 -0.003193 -0.001131 -0.002546 0.000405 -0.006868
# 2 -0.003193 0.011579 -0.003110 0.004393 -0.002421 -0.003809
# 3 -0.001131 -0.003110 0.011147 0.004693 -0.006880 -0.005580
# 4 -0.002546 0.004393 0.004693 0.041453 -0.016831 -0.013037
# 5 0.000405 -0.002421 -0.006880 -0.016831 0.041273 0.003519
# 6 -0.006868 -0.003809 -0.005580 -0.013037 0.003519 0.042351
#
#
# Mechanical properties :
#
#
# Convention : Reuss Voigt Hill
#
# Bulk Modulus (GPa) = 47.13972 76.19473 61.66722
# Shear Modulus (GPa) = 27.30808 35.74732 31.52770
#
# Velocity S-wave (km/s) = 3.27710 3.74944 3.52120
# Velocity P-wave (km/s) = 5.73216 6.97920 6.38620
#
# Compressibility (1/GPa) = 0.02121353
#
# Stress axis : x y z
#
# Youngs Moduli (GPa) = 74.87775 86.36133 89.71359
#
# Poissons Ratio (x) = 0.27572 0.10149
# Poissons Ratio (y) = 0.23906 0.27899
# Poissons Ratio (z) = 0.08471 0.26856
#
# Static dielectric constant tensor:
#      x y z
#    x 2.077760 0.033380 0.018460 
#    y 0.033380 2.037690 -0.053030 
#    z 0.018460 -0.053030 2.123810 
# 
# From -- ./inp_files/71310.got.cif
#   From: 2010.05.17/outbox.cif.g08.bks.cpg/sg2_36_cif.got.tgz:71310.got - 2010.06.03 11:33:40.
