data_PCOD9096930
_publ_section_title
;
Structure prediction by ZEFSAII (Michael W. Deem and Ramdas Pophale) SiO2 
 PCOD9096930
Probable space group: P -1
;
_chemical_formula_sum "Si O2"
_cell_formula_units_Z 16
_cell_length_a 21.431455
_cell_length_b 15.463067
_cell_length_c 9.499321
_cell_angle_alpha 129.558204
_cell_angle_beta 134.406504
_cell_angle_gamma 15.380756
_cell_volume 584.487183
_symmetry_space_group_name_H-M "P -1"
_symmetry_group_IT_number 2
_symmetry_cell_setting 'triclinic'
loop_
_space_group_symop_operation_xyz
x,y,z
-x,-y,-z
loop_
_atom_site_type_symbol
_atom_site_label
_atom_site_fract_x
_atom_site_fract_y
_atom_site_fract_z
Si Si1 0.703810 0.958238 0.152508
Si Si2 0.141629 0.895534 0.449435
Si Si3 0.272547 0.834325 0.297199
Si Si4 0.597926 0.544758 0.029262
Si Si5 0.451399 0.926162 0.368212
Si Si6 0.939707 0.911575 0.186039
Si Si7 0.216074 0.143458 0.494138
Si Si8 0.918489 0.482267 0.960866
O O1 0.726741 0.936529 0.332529
O O2 0.958595 0.679928 0.169717
O O3 0.491469 0.294108 0.095535
O O4 0.680081 0.854713 0.972418
O O5 0.178260 0.923879 0.398774
O O6 0.419449 0.521348 0.562624
O O7 0.982498 0.977207 0.249478
O O8 0.016474 0.111057 0.604454
O O9 0.243655 0.755072 0.082476
O O10 0.150704 0.091985 0.303044
O O11 0.633546 0.615681 0.251384
O O12 0.349986 0.786925 0.966129
O O13 0.500000 0.000000 0.500000
O O14 0.440197 0.909482 0.497873
O O15 0.160750 0.246795 0.183668
O O16 0.124359 0.584960 0.104624
O O17 0.000000 0.500000 0.500000
#
# Coordination Sequence:
#
# PCOD9096930 Si02
#       8
#     2   2   2   2   2   2   2   2
#     4   9  17  34  61  88 110 158 198 242 296 349
#     4   9  16  33  56  91 125 152 199 254 303 353
#     4  10  20  36  58  88 124 158 197 254 305 356
#     4   9  20  41  64  87 122 163 202 250 304 355
#     4  10  22  43  60  88 126 162 202 252 309 365
#     4   8  15  29  57  91 120 153 196 243 303 362
#     4  12  23  39  61  89 119 166 205 245 307 368
#     4   9  17  35  60  89 121 159 200 246 298 355
#
# _framework density 27.374423
#
# number of rings (size 3 to 8) (size 9 to 14) (size 15 to 20)
#    0.000    2.750    1.250    3.000    0.000    0.500 
#   11.250    5.000    0.000    3.750    0.000    0.000 
#    0.000    0.000    0.000    0.000    0.000    0.000 
#
# Total GULP energy -89504.710338 kJ/mol
# GULP energy per Si atom -5594.044396 kJ/mol
# Density = 2.731212 g / cm^3
# Si number density = 27.374423 Si / 1000 Ang^3
#
#
#
# Elastic Constant Matrix: (Units=GPa)
#
#
# Indices 1 2 3 4 5 6 
#
# 1 145.4283 16.7782 70.7223 21.2179 10.9873 19.7227
# 2 16.7782 83.1721 46.3193 14.3880 15.7947 12.8174
# 3 70.7223 46.3193 152.5829 14.0407 -16.1793 20.4895
# 4 21.2179 14.3880 14.0407 39.6627 12.5277 19.9390
# 5 10.9873 15.7947 -16.1793 12.5277 67.4353 11.5095
# 6 19.7227 12.8174 20.4895 19.9390 11.5095 38.4693
#
#
#
# Elastic Compliance Matrix: (Units=1/GPa)
#
#
# Indices 1 2 3 4 5 6 
#
# 1 0.009840 0.001954 -0.005064 -0.003032 -0.002602 -0.000649
# 2 0.001954 0.016605 -0.006180 -0.003260 -0.005079 -0.000033
# 3 -0.005064 -0.006180 0.011790 0.000908 0.005575 -0.003763
# 4 -0.003032 -0.003260 0.000908 0.036567 -0.002583 -0.016023
# 5 -0.002602 -0.005079 0.005575 -0.002583 0.018991 -0.004286
# 6 -0.000649 -0.000033 -0.003763 -0.016023 -0.004286 0.037930
#
#
# Mechanical properties :
#
#
# Convention : Reuss Voigt Hill
#
# Bulk Modulus (GPa) = 50.88047 72.09143 61.48595
# Shear Modulus (GPa) = 31.87662 45.60436 38.74049
#
# Velocity S-wave (km/s) = 3.41613 4.08603 3.76601
# Velocity P-wave (km/s) = 5.84698 6.97520 6.43586
#
# Compressibility (1/GPa) = 0.01965391
#
# Stress axis : x y z
#
# Youngs Moduli (GPa) = 101.62223 60.22453 84.81858
#
# Poissons Ratio (x) = -0.11766 0.42950
# Poissons Ratio (y) = -0.19853 0.52420
# Poissons Ratio (z) = 0.51459 0.37220
#
# Static dielectric constant tensor:
#      x y z
#    x 2.103090 0.010620 0.020070 
#    y 0.010620 2.278170 -0.073000 
#    z 0.020070 -0.073000 2.244810 
# 
# From -- ./inp_files/347658.got.cif
#   From: 2010.05.17/outbox.cif.g08.bks.cpg/sg2_174_cif.got.tgz:347658.got - 2010.06.03 11:33:40.
