data_PCOD9096618
_publ_section_title
;
Structure prediction by ZEFSAII (Michael W. Deem and Ramdas Pophale) SiO2 
 PCOD9096618
Probable space group: P -1
;
_chemical_formula_sum "Si O2"
_cell_formula_units_Z 16
_cell_length_a 11.904224
_cell_length_b 15.957518
_cell_length_c 10.376975
_cell_angle_alpha 62.544478
_cell_angle_beta 102.354824
_cell_angle_gamma 153.761562
_cell_volume 665.779268
_symmetry_space_group_name_H-M "P -1"
_symmetry_group_IT_number 2
_symmetry_cell_setting 'triclinic'
loop_
_space_group_symop_operation_xyz
x,y,z
-x,-y,-z
loop_
_atom_site_type_symbol
_atom_site_label
_atom_site_fract_x
_atom_site_fract_y
_atom_site_fract_z
Si Si1 0.585445 0.456431 0.074685
Si Si2 0.031322 0.411283 0.470656
Si Si3 0.661058 0.286388 0.410111
Si Si4 0.297844 0.167117 0.461127
Si Si5 0.013337 0.390741 0.992871
Si Si6 0.847456 0.977003 0.920080
Si Si7 0.345752 0.722620 0.084454
Si Si8 0.304016 0.437524 0.544394
O O1 0.509533 0.375960 0.259798
O O2 0.909569 0.661432 0.972616
O O3 0.364840 0.225633 0.098909
O O4 0.500000 0.500000 0.000000
O O5 0.131226 0.504681 0.577172
O O6 0.237405 0.626205 0.271275
O O7 0.076324 0.337102 0.492887
O O8 0.712365 0.216059 0.505521
O O9 0.339863 0.089205 0.494827
O O10 0.778954 0.402442 0.214301
O O11 0.441197 0.296685 0.540709
O O12 0.000000 0.000000 0.500000
O O13 0.697113 0.199883 0.022161
O O14 0.124291 0.504226 0.081408
O O15 0.648236 0.894936 0.016678
O O16 0.099178 0.232424 0.743118
O O17 0.000000 0.000000 0.000000
O O18 0.500000 0.500000 0.500000
#
# Coordination Sequence:
#
# PCOD9096618 Si02
#       8
#     2   2   2   2   2   2   2   2
#     4  10  20  36  57  79 108 147 188 229 275 331
#     4   9  17  32  56  82 108 144 187 232 281 332
#     4   8  16  32  55  79 108 146 186 229 278 333
#     4  10  20  36  57  79 108 147 188 229 275 331
#     4   8  16  32  55  79 108 146 186 229 278 333
#     4  11  22  36  56  83 116 150 188 235 285 337
#     4   9  17  32  56  82 108 144 187 232 281 332
#     4  11  22  36  56  83 116 150 188 235 285 337
#
# _framework density 24.03199
#
# number of rings (size 3 to 8) (size 9 to 14) (size 15 to 20)
#    0.000    2.500    0.000    2.250    0.000    2.000 
#    0.000    1.250    0.000   64.500    0.000    0.000 
#    0.000    0.000    0.000    0.000    0.000    0.000 
#
# Total GULP energy -89141.363432 kJ/mol
# GULP energy per Si atom -5571.335215 kJ/mol
# Density = 2.397729 g / cm^3
# Si number density = 24.031990 Si / 1000 Ang^3
#
#
#
# Elastic Constant Matrix: (Units=GPa)
#
#
# Indices 1 2 3 4 5 6 
#
# 1 236.9862 46.2446 18.1937 -2.2368 -0.5684 68.6333
# 2 46.2446 76.7953 11.7327 9.4302 5.2476 0.3017
# 3 18.1937 11.7327 48.1020 13.0289 -6.5578 9.4316
# 4 -2.2368 9.4302 13.0289 24.8097 6.2955 -0.4959
# 5 -0.5684 5.2476 -6.5578 6.2955 37.9888 13.9247
# 6 68.6333 0.3017 9.4316 -0.4959 13.9247 56.2046
#
#
#
# Elastic Compliance Matrix: (Units=1/GPa)
#
#
# Indices 1 2 3 4 5 6 
#
# 1 0.008913 -0.005961 0.001027 0.000880 0.005528 -0.012386
# 2 -0.005961 0.018016 -0.003780 -0.003687 -0.006019 0.009276
# 3 0.001027 -0.003780 0.029375 -0.017083 0.011828 -0.009244
# 4 0.000880 -0.003687 -0.017083 0.054294 -0.013489 0.005633
# 5 0.005528 -0.006019 0.011828 -0.013489 0.038219 -0.018291
# 6 -0.012386 0.009276 -0.009244 0.005633 -0.018291 0.038999
#
#
# Mechanical properties :
#
#
# Convention : Reuss Voigt Hill
#
# Bulk Modulus (GPa) = 25.72359 57.13615 41.42987
# Shear Modulus (GPa) = 22.91435 42.84814 32.88124
#
# Velocity S-wave (km/s) = 3.09122 4.22709 3.70297
# Velocity P-wave (km/s) = 4.84438 6.90298 5.96318
#
# Compressibility (1/GPa) = 0.03887482
#
# Stress axis : x y z
#
# Youngs Moduli (GPa) = 112.20126 55.50484 34.04271
#
# Poissons Ratio (x) = 0.33086 -0.03496
# Poissons Ratio (y) = 0.66883 0.12869
# Poissons Ratio (z) = -0.11521 0.20983
#
# Static dielectric constant tensor:
#      x y z
#    x 3.109330 0.089250 0.390420 
#    y 0.089250 2.049440 0.010500 
#    z 0.390420 0.010500 2.028590 
# 
# From -- ./inp_files/333786.got.cif
#   From: 2010.05.17/outbox.cif.g08.bks.cpg/sg2_167_cif.got.tgz:333786.got - 2010.06.03 11:33:40.
