data_PCOD9096732
_publ_section_title
;
Structure prediction by ZEFSAII (Michael W. Deem and Ramdas Pophale) SiO2 
 PCOD9096732
Probable space group: P -1
;
_chemical_formula_sum "Si O2"
_cell_formula_units_Z 16
_cell_length_a 8.985335
_cell_length_b 17.244819
_cell_length_c 6.994962
_cell_angle_alpha 95.279940
_cell_angle_beta 124.153025
_cell_angle_gamma 52.157180
_cell_volume 653.356561
_symmetry_space_group_name_H-M "P -1"
_symmetry_group_IT_number 2
_symmetry_cell_setting 'triclinic'
loop_
_space_group_symop_operation_xyz
x,y,z
-x,-y,-z
loop_
_atom_site_type_symbol
_atom_site_label
_atom_site_fract_x
_atom_site_fract_y
_atom_site_fract_z
Si Si1 0.295666 0.827805 0.599829
Si Si2 0.793554 0.746906 0.084667
Si Si3 0.706758 0.946292 0.917285
Si Si4 0.694662 0.423975 0.788165
Si Si5 0.273210 0.321609 0.656287
Si Si6 0.085323 0.507750 0.859098
Si Si7 0.791191 0.969598 0.407068
Si Si8 0.771701 0.224755 0.864254
O O1 0.233792 0.935001 0.513559
O O2 0.281361 0.775024 0.398904
O O3 0.565782 0.759810 0.861994
O O4 0.078911 0.863958 0.593634
O O5 0.746338 0.847276 0.003029
O O6 0.811531 0.733674 0.322251
O O7 0.043673 0.648686 0.145407
O O8 0.941825 0.885537 0.933212
O O9 0.737338 0.989603 0.139802
O O10 0.421549 0.024884 0.666362
O O11 0.500000 0.500000 0.500000
O O12 0.700133 0.336665 0.865817
O O13 0.698700 0.493391 0.955474
O O14 0.172851 0.416322 0.753340
O O15 0.564899 0.236397 0.823494
O O16 0.142568 0.380063 0.377501
O O17 0.000000 0.500000 0.000000
#
# Coordination Sequence:
#
# PCOD9096732 Si02
#       8
#     2   2   2   2   2   2   2   2
#     4   9  17  32  62  87 119 157 205 247 297 367
#     4  10  20  36  57  89 120 160 203 253 296 355
#     4   8  16  32  57  86 126 152 198 252 300 362
#     4  11  23  38  61  83 122 165 197 250 310 348
#     4  11  24  39  64  88 117 165 210 250 303 354
#     4  11  23  43  64  83 118 166 213 251 296 363
#     4   8  14  30  60  90 109 164 203 230 310 373
#     4  10  21  35  53  91 121 156 202 250 299 357
#
# _framework density 24.488924999999998
#
# number of rings (size 3 to 8) (size 9 to 14) (size 15 to 20)
#    0.000    2.250    1.250    1.500    3.500    0.500 
#    0.000    0.000    0.000   28.500    0.000    0.000 
#    0.000    0.000    0.000    0.000    0.000    0.000 
#
# Total GULP energy -89368.993425 kJ/mol
# GULP energy per Si atom -5585.562089 kJ/mol
# Density = 2.443319 g / cm^3
# Si number density = 24.488925 Si / 1000 Ang^3
#
#
#
# Elastic Constant Matrix: (Units=GPa)
#
#
# Indices 1 2 3 4 5 6 
#
# 1 60.6061 -4.0757 10.6536 -0.2571 2.7548 -27.1749
# 2 -4.0757 51.3842 12.4005 -4.1240 7.6114 -10.4960
# 3 10.6536 12.4005 89.9259 -7.3892 15.2169 -5.6783
# 4 -0.2571 -4.1240 -7.3892 34.7693 -8.4000 18.0892
# 5 2.7548 7.6114 15.2169 -8.4000 38.6411 3.3034
# 6 -27.1749 -10.4960 -5.6783 18.0892 3.3034 43.4575
#
#
#
# Elastic Compliance Matrix: (Units=1/GPa)
#
#
# Indices 1 2 3 4 5 6 
#
# 1 0.030651 0.008921 -0.002924 -0.016193 -0.008734 0.028343
# 2 0.008921 0.024307 -0.002871 -0.006891 -0.007029 0.014476
# 3 -0.002924 -0.002871 0.012550 0.002256 -0.003545 -0.001552
# 4 -0.016193 -0.006891 0.002256 0.049197 0.015150 -0.033125
# 5 -0.008734 -0.007029 -0.003545 0.015150 0.033987 -0.016512
# 6 0.028343 0.014476 -0.001552 -0.033125 -0.016512 0.059072
#
#
# Mechanical properties :
#
#
# Convention : Reuss Voigt Hill
#
# Bulk Modulus (GPa) = 13.55797 26.65254 20.10525
# Shear Modulus (GPa) = 21.92025 35.56944 28.74484
#
# Velocity S-wave (km/s) = 2.99508 3.81526 3.42978
# Velocity P-wave (km/s) = 4.18439 5.50595 4.89002
#
# Compressibility (1/GPa) = 0.07375734
#
# Stress axis : x y z
#
# Youngs Moduli (GPa) = 32.62554 41.14067 79.68179
#
# Poissons Ratio (x) = -0.36700 0.23301
# Poissons Ratio (y) = -0.29104 0.22880
# Poissons Ratio (z) = 0.09541 0.11813
#
# Static dielectric constant tensor:
#      x y z
#    x 1.981430 0.013910 -0.000860 
#    y 0.013910 2.001740 -0.015690 
#    z -0.000860 -0.015690 1.992740 
# 
# From -- ./inp_files/53334.got.cif
#   From: 2010.05.17/outbox.cif.g08.bks.cpg/sg2_27_cif.got.tgz:53334.got - 2010.06.03 11:33:40.
