data_PCOD9096522
_publ_section_title
;
Structure prediction by ZEFSAII (Michael W. Deem and Ramdas Pophale) SiO2 
 PCOD9096522
Probable space group: P -1
;
_chemical_formula_sum "Si O2"
_cell_formula_units_Z 14
_cell_length_a 19.961315
_cell_length_b 15.833361
_cell_length_c 7.949434
_cell_angle_alpha 75.731958
_cell_angle_beta 68.277625
_cell_angle_gamma 17.630320
_cell_volume 654.563179
_symmetry_space_group_name_H-M "P -1"
_symmetry_group_IT_number 2
_symmetry_cell_setting 'triclinic'
loop_
_space_group_symop_operation_xyz
x,y,z
-x,-y,-z
loop_
_atom_site_type_symbol
_atom_site_label
_atom_site_fract_x
_atom_site_fract_y
_atom_site_fract_z
Si Si1 0.366900 0.179889 0.770710
Si Si2 0.592479 0.295255 0.051444
Si Si3 0.012817 0.854297 0.648651
Si Si4 0.690761 0.910915 0.351115
Si Si5 0.299923 0.469002 0.241990
Si Si6 0.610912 0.441739 0.551210
Si Si7 0.829314 0.544775 0.828488
O O1 0.228371 0.269866 0.736647
O O2 0.484500 0.117630 0.574113
O O3 0.602214 0.856427 0.792037
O O4 0.210800 0.397054 0.963711
O O5 0.382623 0.468794 0.103898
O O6 0.591071 0.290160 0.258007
O O7 0.500000 0.500000 0.000000
O O8 0.853555 0.982762 0.865864
O O9 0.123878 0.679421 0.466297
O O10 0.239260 0.649038 0.617343
O O11 0.814780 0.152023 0.610282
O O12 0.917260 0.698440 0.330733
O O13 0.556502 0.129476 0.236657
O O14 0.183019 0.539949 0.180109
O O15 0.500000 0.500000 0.500000
#
# Coordination Sequence:
#
# PCOD9096522 Si02
#       7
#     2   2   2   2   2   2   2
#     4   9  20  37  58  83 108 144 184 215 266 328
#     4   9  19  38  57  74 106 147 182 222 272 319
#     4   9  19  36  52  73 110 139 168 226 276 313
#     4  10  20  36  56  81 113 143 178 223 268 320
#     4  10  22  35  52  83 112 141 183 225 269 322
#     4   9  18  34  57  79  97 132 184 225 268 326
#     4  10  20  36  58  82 112 144 179 223 267 319
#
# _framework density 21.388310000000001
#
# number of rings (size 3 to 8) (size 9 to 14) (size 15 to 20)
#    0.000    2.571    0.000    1.714    0.000    5.143 
#    0.000    8.571    0.000    0.000    0.000    0.000 
#    0.000    0.000    0.000    0.000    0.000    0.000 
#
# Total GULP energy -78113.438435 kJ/mol
# GULP energy per Si atom -5579.531317 kJ/mol
# Density = 2.133963 g / cm^3
# Si number density = 21.388310 Si / 1000 Ang^3
#
#
#
# Elastic Constant Matrix: (Units=GPa)
#
#
# Indices 1 2 3 4 5 6 
#
# 1 142.9699 9.2199 64.1202 13.3317 -21.6511 -11.6183
# 2 9.2199 24.3392 5.8887 5.5011 -10.1382 1.6104
# 3 64.1202 5.8887 112.0623 24.1729 -7.6064 -9.9933
# 4 13.3317 5.5011 24.1729 22.9505 1.9423 -2.3084
# 5 -21.6511 -10.1382 -7.6064 1.9423 23.0962 3.2794
# 6 -11.6183 1.6104 -9.9933 -2.3084 3.2794 25.4700
#
#
#
# Elastic Compliance Matrix: (Units=1/GPa)
#
#
# Indices 1 2 3 4 5 6 
#
# 1 0.010877 0.001139 -0.005160 -0.001755 0.008923 0.001557
# 2 0.001139 0.057603 0.001899 -0.019794 0.029779 -0.008006
# 3 -0.005160 0.001899 0.014892 -0.013092 0.001723 0.001961
# 4 -0.001755 -0.019794 -0.013092 0.065267 -0.020686 0.003894
# 5 0.008923 0.029779 0.001723 -0.020686 0.068146 -0.007786
# 6 0.001557 -0.008006 0.001961 0.003894 -0.007786 0.042603
#
#
# Mechanical properties :
#
#
# Convention : Reuss Voigt Hill
#
# Bulk Modulus (GPa) = 12.63812 48.64767 30.64289
# Shear Modulus (GPa) = 17.24079 27.64618 22.44348
#
# Velocity S-wave (km/s) = 2.84224 3.59915 3.24286
# Velocity P-wave (km/s) = 4.08569 6.32979 5.32724
#
# Compressibility (1/GPa) = 0.07912571
#
# Stress axis : x y z
#
# Youngs Moduli (GPa) = 91.93838 17.36023 67.14876
#
# Poissons Ratio (x) = -0.01977 0.34652
# Poissons Ratio (y) = -0.10469 -0.12749
# Poissons Ratio (z) = 0.47444 -0.03296
#
# Static dielectric constant tensor:
#      x y z
#    x 1.821880 0.035150 -0.009370 
#    y 0.035150 1.784120 0.010290 
#    z -0.009370 0.010290 1.808310 
# 
# From -- ./inp_files/104597.got.cif
#   From: 2010.05.17/outbox.cif.g08.bks.cpg/sg2_53_cif.got.tgz:104597.got - 2010.06.03 11:33:40.
