data_PCOD9096116
_publ_section_title
;
Structure prediction by ZEFSAII (Michael W. Deem and Ramdas Pophale) SiO2 
 PCOD9096116
Probable space group: P -1
;
_chemical_formula_sum "Si O2"
_cell_formula_units_Z 14
_cell_length_a 6.724246
_cell_length_b 11.516245
_cell_length_c 17.614325
_cell_angle_alpha 26.284462
_cell_angle_beta 85.951083
_cell_angle_gamma 98.578308
_cell_volume 528.240281
_symmetry_space_group_name_H-M "P -1"
_symmetry_group_IT_number 2
_symmetry_cell_setting 'triclinic'
loop_
_space_group_symop_operation_xyz
x,y,z
-x,-y,-z
loop_
_atom_site_type_symbol
_atom_site_label
_atom_site_fract_x
_atom_site_fract_y
_atom_site_fract_z
Si Si1 0.657948 0.333878 0.546037
Si Si2 0.773437 0.333278 0.388313
Si Si3 0.324367 0.769009 0.963823
Si Si4 0.756941 0.714820 0.041982
Si Si5 0.068376 0.093169 0.356068
Si Si6 0.939103 0.846361 0.347567
Si Si7 0.238077 0.896406 0.049377
O O1 0.660403 0.428052 0.403631
O O2 0.871833 0.266047 0.585345
O O3 0.725508 0.579131 0.467020
O O4 0.437946 0.018173 0.751377
O O5 0.718394 0.409972 0.261761
O O6 0.046192 0.549749 0.265046
O O7 0.731221 0.000414 0.599681
O O8 0.526327 0.709096 0.025316
O O9 0.140642 0.437886 0.141598
O O10 0.250507 0.917682 0.945794
O O11 0.930872 0.861955 0.881277
O O12 0.833037 0.934802 0.985020
O O13 0.905795 0.928869 0.385320
O O14 0.000000 0.000000 0.500000
O O15 0.500000 0.000000 0.000000
#
# Coordination Sequence:
#
# PCOD9096116 Si02
#       7
#     2   2   2   2   2   2   2
#     4   9  19  35  61  91 114 157 203 249 287 355
#     4  11  21  38  66  89 123 156 204 245 307 353
#     4  10  22  39  61  88 124 156 205 246 295 357
#     4  10  21  37  64  94 118 155 197 261 301 343
#     4  11  23  39  61  87 120 166 202 240 299 370
#     4   9  19  34  59  87 117 154 202 241 296 353
#     4  10  20  35  62  90 120 157 199 247 293 356
#
# _framework density 26.50309
#
# number of rings (size 3 to 8) (size 9 to 14) (size 15 to 20)
#    0.000    2.000    2.857    0.429    6.000    5.714 
#    0.000    1.429    3.143    0.000    0.000    0.000 
#    0.000    0.000    0.000    0.000    0.000    0.000 
#
# Total GULP energy -78223.888986 kJ/mol
# GULP energy per Si atom -5587.420642 kJ/mol
# Density = 2.644277 g / cm^3
# Si number density = 26.503090 Si / 1000 Ang^3
#
#
#
# Elastic Constant Matrix: (Units=GPa)
#
#
# Indices 1 2 3 4 5 6 
#
# 1 80.4706 27.3496 26.1053 -2.5801 6.2032 7.2817
# 2 27.3496 169.9099 59.1185 18.7489 -10.5118 0.9641
# 3 26.1053 59.1185 121.0211 25.6009 1.9354 0.8080
# 4 -2.5801 18.7489 25.6009 48.3504 -4.7419 6.5173
# 5 6.2032 -10.5118 1.9354 -4.7419 47.3226 7.2276
# 6 7.2817 0.9641 0.8080 6.5173 7.2276 33.5149
#
#
#
# Elastic Compliance Matrix: (Units=1/GPa)
#
#
# Indices 1 2 3 4 5 6 
#
# 1 0.014485 -0.001740 -0.002936 0.003330 -0.001314 -0.003391
# 2 -0.001740 0.007477 -0.003054 -0.001199 0.001884 0.000063
# 3 -0.002936 -0.003054 0.011566 -0.005505 -0.001603 0.001863
# 4 0.003330 -0.001199 -0.005505 0.025361 0.003001 -0.006135
# 5 -0.001314 0.001884 -0.001603 0.003001 0.022890 -0.005250
# 6 -0.003391 0.000063 0.001863 -0.006135 -0.005250 0.032853
#
#
# Mechanical properties :
#
#
# Convention : Reuss Voigt Hill
#
# Bulk Modulus (GPa) = 55.34303 66.28313 60.81308
# Shear Modulus (GPa) = 36.73419 43.09281 39.91350
#
# Velocity S-wave (km/s) = 3.72699 4.03669 3.88492
# Velocity P-wave (km/s) = 6.28074 6.84035 6.56650
#
# Compressibility (1/GPa) = 0.01806912
#
# Stress axis : x y z
#
# Youngs Moduli (GPa) = 69.03521 133.75091 86.46214
#
# Poissons Ratio (x) = 0.23269 0.25382
# Poissons Ratio (y) = 0.12010 0.26405
# Poissons Ratio (z) = 0.20266 0.40847
#
# Static dielectric constant tensor:
#      x y z
#    x 2.261690 -0.034950 0.018000 
#    y -0.034950 2.095730 -0.030960 
#    z 0.018000 -0.030960 2.078020 
# 
# From -- ./inp_files/177589.got.cif
#   From: 2010.05.17/outbox.cif.g08.bks.cpg/sg2_89_cif.got.tgz:177589.got - 2010.06.03 11:33:40.
