data_PCOD9096651
_publ_section_title
;
Structure prediction by ZEFSAII (Michael W. Deem and Ramdas Pophale) SiO2 
 PCOD9096651
Probable space group: P -1
;
_chemical_formula_sum "Si O2"
_cell_formula_units_Z 16
_cell_length_a 9.726895
_cell_length_b 8.488901
_cell_length_c 8.598026
_cell_angle_alpha 101.239368
_cell_angle_beta 82.960044
_cell_angle_gamma 103.202830
_cell_volume 675.655216
_symmetry_space_group_name_H-M "P -1"
_symmetry_group_IT_number 2
_symmetry_cell_setting 'triclinic'
loop_
_space_group_symop_operation_xyz
x,y,z
-x,-y,-z
loop_
_atom_site_type_symbol
_atom_site_label
_atom_site_fract_x
_atom_site_fract_y
_atom_site_fract_z
Si Si1 0.422396 0.652740 0.026291
Si Si2 0.643705 0.094339 0.417853
Si Si3 0.090451 0.814598 0.068577
Si Si4 0.911694 0.830590 0.835439
Si Si5 0.681971 0.930576 0.060522
Si Si6 0.398384 0.581362 0.692455
Si Si7 0.198650 0.690062 0.317242
Si Si8 0.729383 0.608067 0.591022
O O1 0.531472 0.823941 0.015622
O O2 0.337120 0.676249 0.195155
O O3 0.500000 0.500000 0.000000
O O4 0.334643 0.604431 0.872580
O O5 0.613472 0.262691 0.381311
O O6 0.763389 0.153633 0.543708
O O7 0.500000 0.000000 0.500000
O O8 0.682102 0.988541 0.248800
O O9 0.024870 0.750974 0.898137
O O10 0.251039 0.913316 0.026269
O O11 0.088279 0.704385 0.198926
O O12 0.025566 0.974815 0.151071
O O13 0.831975 0.767485 0.676342
O O14 0.785796 0.809991 0.976783
O O15 0.567723 0.583994 0.677115
O O16 0.310451 0.420218 0.588977
O O17 0.183381 0.528551 0.392524
#
# Coordination Sequence:
#
# PCOD9096651 Si02
#       8
#     2   2   2   2   2   2   2   2
#     4  12  21  35  57  87 121 150 192 232 297 355
#     4  11  23  33  53  90 122 150 188 229 301 347
#     4   9  21  38  63  82 109 156 206 238 280 331
#     4   9  19  40  62  83 106 161 198 236 292 329
#     4  10  20  37  57  82 120 150 188 244 282 347
#     4  10  21  35  54  82 123 151 180 235 294 352
#     4  11  22  36  54  89 117 150 192 242 280 354
#     4  10  20  36  57  82 120 151 184 233 294 346
#
# _framework density 23.680717000000001
#
# number of rings (size 3 to 8) (size 9 to 14) (size 15 to 20)
#    0.750    1.000    3.750    0.750    3.500    1.500 
#    0.000    0.625    0.000    6.750    0.000    0.000 
#    0.000    0.000    0.000    0.000    0.000    0.000 
#
# Total GULP energy -89142.358905 kJ/mol
# GULP energy per Si atom -5571.397432 kJ/mol
# Density = 2.362682 g / cm^3
# Si number density = 23.680717 Si / 1000 Ang^3
#
#
#
# Elastic Constant Matrix: (Units=GPa)
#
#
# Indices 1 2 3 4 5 6 
#
# 1 43.9136 5.2182 0.4529 3.1558 25.2682 -7.2834
# 2 5.2182 35.6889 17.6881 3.6044 11.7183 -9.7673
# 3 0.4529 17.6881 104.2090 19.9011 12.9300 9.3214
# 4 3.1558 3.6044 19.9011 34.8815 -1.5394 15.3950
# 5 25.2682 11.7183 12.9300 -1.5394 37.9803 1.0091
# 6 -7.2834 -9.7673 9.3214 15.3950 1.0091 20.2666
#
#
#
# Elastic Compliance Matrix: (Units=1/GPa)
#
#
# Indices 1 2 3 4 5 6 
#
# 1 0.079334 0.042100 0.004240 -0.059263 -0.072152 0.095461
# 2 0.042100 0.073335 -0.004275 -0.053638 -0.053902 0.095868
# 3 0.004240 -0.004275 0.012448 -0.007037 -0.006009 -0.000617
# 4 -0.059263 -0.053638 -0.007037 0.101267 0.065774 -0.124111
# 5 -0.072152 -0.053902 -0.006009 0.065774 0.098438 -0.104009
# 6 0.095461 0.095868 -0.000617 -0.124111 -0.104009 0.229592
#
#
# Mechanical properties :
#
#
# Convention : Reuss Voigt Hill
#
# Bulk Modulus (GPa) = 4.01203 25.61444 14.81324
# Shear Modulus (GPa) = 8.42652 29.32251 18.87452
#
# Velocity S-wave (km/s) = 1.88842 3.52269 2.82626
# Velocity P-wave (km/s) = 2.54022 5.23315 4.11330
#
# Compressibility (1/GPa) = 0.24925018
#
# Stress axis : x y z
#
# Youngs Moduli (GPa) = 12.60486 13.63599 80.33555
#
# Poissons Ratio (x) = -0.57408 -0.34066
# Poissons Ratio (y) = -0.53067 0.34340
# Poissons Ratio (z) = -0.05345 0.05829
#
# Static dielectric constant tensor:
#      x y z
#    x 1.980790 -0.065540 0.040710 
#    y -0.065540 1.956450 0.019510 
#    z 0.040710 0.019510 1.979780 
# 
# From -- ./inp_files/239829.got.cif
#   From: 2010.05.17/outbox.cif.g08.bks.cpg/sg2_120_cif.got.tgz:239829.got - 2010.06.03 11:33:40.
