data_PCOD9096281
_publ_section_title
;
Structure prediction by ZEFSAII (Michael W. Deem and Ramdas Pophale) SiO2 
 PCOD9096281
Probable space group: P -1
;
_chemical_formula_sum "Si O2"
_cell_formula_units_Z 16
_cell_length_a 8.738056
_cell_length_b 9.377082
_cell_length_c 10.831016
_cell_angle_alpha 89.481584
_cell_angle_beta 71.843723
_cell_angle_gamma 72.552874
_cell_volume 800.990431
_symmetry_space_group_name_H-M "P -1"
_symmetry_group_IT_number 2
_symmetry_cell_setting 'triclinic'
loop_
_space_group_symop_operation_xyz
x,y,z
-x,-y,-z
loop_
_atom_site_type_symbol
_atom_site_label
_atom_site_fract_x
_atom_site_fract_y
_atom_site_fract_z
Si Si1 0.003400 0.652926 0.775423
Si Si2 0.147099 0.855573 0.404503
Si Si3 0.278968 0.091305 0.297257
Si Si4 0.377311 0.858804 0.762814
Si Si5 0.304956 0.090982 0.578736
Si Si6 0.642274 0.348222 0.431926
Si Si7 0.011023 0.318799 0.742579
Si Si8 0.084726 0.820633 0.986536
O O1 0.185827 0.632410 0.667050
O O2 0.013920 0.727051 0.904827
O O3 0.855603 0.775489 0.739491
O O4 0.969021 0.494282 0.777470
O O5 0.284214 0.767404 0.472621
O O6 0.073770 0.738070 0.353376
O O7 0.241078 0.935658 0.284999
O O8 0.000000 0.000000 0.500000
O O9 0.471859 0.085114 0.225707
O O10 0.248005 0.117106 0.451451
O O11 0.444875 0.722892 0.651667
O O12 0.274590 0.807057 0.894820
O O13 0.260002 0.982768 0.694815
O O14 0.214719 0.249283 0.666366
O O15 0.500000 0.000000 0.500000
O O16 0.500000 0.500000 0.500000
O O17 0.948119 0.243126 0.874383
O O18 0.000000 0.000000 0.000000
#
# Coordination Sequence:
#
# PCOD9096281 Si02
#       8
#     2   2   2   2   2   2   2   2
#     4  11  26  42  64 101 130 175 223 275 338 390
#     4  12  22  40  65 101 135 175 220 269 330 409
#     4  11  22  40  67  93 138 164 218 271 335 395
#     4  10  22  41  65  96 130 170 220 276 319 397
#     4  10  20  35  64  96 126 166 210 261 328 391
#     4  11  24  37  65 100 142 170 216 274 345 395
#     4  12  24  41  69  93 135 175 218 277 328 386
#     4  11  23  47  71  90 125 176 234 270 324 401
#
# _framework density 19.975269000000001
#
# number of rings (size 3 to 8) (size 9 to 14) (size 15 to 20)
#    0.000    1.000    5.000    1.125    5.250    1.000 
#    0.000    3.125    0.000    0.000    0.000    0.000 
#    0.000    0.000    0.000    0.000    0.000    0.000 
#
# Total GULP energy -89093.430119 kJ/mol
# GULP energy per Si atom -5568.339382 kJ/mol
# Density = 1.992980 g / cm^3
# Si number density = 19.975269 Si / 1000 Ang^3
#
#
#
# Elastic Constant Matrix: (Units=GPa)
#
#
# Indices 1 2 3 4 5 6 
#
# 1 96.4818 33.3399 30.6503 2.6230 -0.4810 11.7143
# 2 33.3399 99.4548 13.1903 12.9402 -2.6697 11.1741
# 3 30.6503 13.1903 61.1746 0.3690 -5.9583 -5.4196
# 4 2.6230 12.9402 0.3690 34.5913 6.5295 0.6004
# 5 -0.4810 -2.6697 -5.9583 6.5295 15.5031 -2.0545
# 6 11.7143 11.1741 -5.4196 0.6004 -2.0545 39.6302
#
#
#
# Elastic Compliance Matrix: (Units=1/GPa)
#
#
# Indices 1 2 3 4 5 6 
#
# 1 0.014404 -0.003633 -0.007229 0.001185 -0.004046 -0.004450
# 2 -0.003633 0.012355 -0.000666 -0.004972 0.003556 -0.002241
# 3 -0.007229 -0.000666 0.021531 -0.001276 0.009238 0.005767
# 4 0.001185 -0.004972 -0.001276 0.033632 -0.015533 -0.000438
# 5 -0.004046 0.003556 0.009238 -0.015533 0.075827 0.005623
# 6 -0.004450 -0.002241 0.005767 -0.000438 0.005623 0.028267
#
#
# Mechanical properties :
#
#
# Convention : Reuss Voigt Hill
#
# Bulk Modulus (GPa) = 39.62885 45.71914 42.67400
# Shear Modulus (GPa) = 22.99013 29.94031 26.46522
#
# Velocity S-wave (km/s) = 3.39622 3.87572 3.64387
# Velocity P-wave (km/s) = 5.93810 6.55484 6.25408
#
# Compressibility (1/GPa) = 0.02523414
#
# Stress axis : x y z
#
# Youngs Moduli (GPa) = 69.42310 80.93835 46.44536
#
# Poissons Ratio (x) = 0.29403 0.33576
# Poissons Ratio (y) = 0.25220 0.03094
# Poissons Ratio (z) = 0.50187 0.05391
#
# Static dielectric constant tensor:
#      x y z
#    x 1.841770 0.045690 -0.027600 
#    y 0.045690 1.744210 0.005010 
#    z -0.027600 0.005010 1.724460 
# 
# From -- ./inp_files/217845.got.cif
#   From: 2010.05.17/outbox.cif.g08.bks.cpg/sg2_109_cif.got.tgz:217845.got - 2010.06.03 11:33:40.
