data_PCOD9096538
_publ_section_title
;
Structure prediction by ZEFSAII (Michael W. Deem and Ramdas Pophale) SiO2 
 PCOD9096538
Probable space group: P -1
;
_chemical_formula_sum "Si O2"
_cell_formula_units_Z 16
_cell_length_a 11.307166
_cell_length_b 8.967805
_cell_length_c 9.094726
_cell_angle_alpha 57.209599
_cell_angle_beta 74.042704
_cell_angle_gamma 74.847686
_cell_volume 738.133571
_symmetry_space_group_name_H-M "P -1"
_symmetry_group_IT_number 2
_symmetry_cell_setting 'triclinic'
loop_
_space_group_symop_operation_xyz
x,y,z
-x,-y,-z
loop_
_atom_site_type_symbol
_atom_site_label
_atom_site_fract_x
_atom_site_fract_y
_atom_site_fract_z
Si Si1 0.904035 0.652325 0.874879
Si Si2 0.470016 0.606305 0.677257
Si Si3 0.414146 0.772193 0.063984
Si Si4 0.040771 0.814960 0.497888
Si Si5 0.754121 0.349586 0.052301
Si Si6 0.005915 0.941074 0.862279
Si Si7 0.677492 0.158142 0.629986
Si Si8 0.566430 0.874592 0.674562
O O1 0.784893 0.552192 0.946644
O O2 0.967387 0.681133 0.681457
O O3 0.901849 0.830102 0.883119
O O4 0.000000 0.500000 0.000000
O O5 0.497599 0.395429 0.805483
O O6 0.429766 0.696840 0.486471
O O7 0.580317 0.687931 0.682175
O O8 0.350026 0.671918 0.781635
O O9 0.301062 0.697351 0.059587
O O10 0.358293 0.877802 0.170199
O O11 0.485368 0.859971 0.859978
O O12 0.189942 0.771878 0.467126
O O13 0.000000 0.000000 0.500000
O O14 0.995689 0.872487 0.321519
O O15 0.870711 0.200504 0.126249
O O16 0.000000 0.000000 0.000000
O O17 0.679567 0.973556 0.636662
O O18 0.500000 0.000000 0.500000
#
# Coordination Sequence:
#
# PCOD9096538 Si02
#       8
#     2   2   2   2   2   2   2   2
#     4   9  19  37  59  81 110 152 190 224 276 344
#     4  10  21  38  59  83 112 152 191 223 278 349
#     4  11  22  37  59  87 113 147 189 235 284 329
#     4  10  21  36  59  84 109 152 193 223 280 344
#     4  10  20  39  58  78 116 153 184 231 278 335
#     4  10  20  36  56  83 111 142 187 237 278 323
#     4  11  21  38  58  84 118 145 182 246 285 316
#     4   9  20  37  60  84 112 151 190 225 279 346
#
# _framework density 21.676295
#
# number of rings (size 3 to 8) (size 9 to 14) (size 15 to 20)
#    0.000    2.000    0.000    5.250    0.000    4.000 
#    0.000   11.875    0.000    0.000    0.000    0.000 
#    0.000    0.000    0.000    0.000    0.000    0.000 
#
# Total GULP energy -89151.982836 kJ/mol
# GULP energy per Si atom -5571.998927 kJ/mol
# Density = 2.162696 g / cm^3
# Si number density = 21.676295 Si / 1000 Ang^3
#
#
#
# Elastic Constant Matrix: (Units=GPa)
#
#
# Indices 1 2 3 4 5 6 
#
# 1 68.1252 18.8789 22.2189 1.0576 12.0121 11.5656
# 2 18.8789 53.1505 28.1598 4.8581 4.0297 7.8532
# 3 22.2189 28.1598 157.5763 9.0170 15.3229 21.8469
# 4 1.0576 4.8581 9.0170 36.8547 7.6206 5.4942
# 5 12.0121 4.0297 15.3229 7.6206 26.9624 -5.4914
# 6 11.5656 7.8532 21.8469 5.4942 -5.4914 27.7294
#
#
#
# Elastic Compliance Matrix: (Units=1/GPa)
#
#
# Indices 1 2 3 4 5 6 
#
# 1 0.019634 -0.005212 0.000445 0.003868 -0.011367 -0.010081
# 2 -0.005212 0.022603 -0.003134 -0.002123 0.001097 -0.001121
# 3 0.000445 -0.003134 0.008418 0.000711 -0.006201 -0.007299
# 4 0.003868 -0.002123 0.000711 0.031301 -0.012755 -0.010300
# 5 -0.011367 0.001097 -0.006201 -0.012755 0.053696 0.022477
# 6 -0.010081 -0.001121 -0.007299 -0.010300 0.022477 0.052827
#
#
# Mechanical properties :
#
#
# Convention : Reuss Voigt Hill
#
# Bulk Modulus (GPa) = 28.69302 46.37411 37.53357
# Shear Modulus (GPa) = 23.15904 32.28225 27.72065
#
# Velocity S-wave (km/s) = 3.27219 3.86332 3.57998
# Velocity P-wave (km/s) = 5.24806 6.42967 5.86868
#
# Compressibility (1/GPa) = 0.03485168
#
# Stress axis : x y z
#
# Youngs Moduli (GPa) = 50.93265 44.24262 118.79629
#
# Poissons Ratio (x) = 0.23058 -0.05281
# Poissons Ratio (y) = 0.26544 0.37233
# Poissons Ratio (z) = -0.02264 0.13866
#
# Static dielectric constant tensor:
#      x y z
#    x 1.801610 0.033100 0.072990 
#    y 0.033100 1.844270 -0.007650 
#    z 0.072990 -0.007650 1.793830 
# 
# From -- ./inp_files/178244.got.cif
#   From: 2010.05.17/outbox.cif.g08.bks.cpg/sg2_90_cif.got.tgz:178244.got - 2010.06.03 11:33:40.
