data_PCOD9096360
_publ_section_title
;
Structure prediction by ZEFSAII (Michael W. Deem and Ramdas Pophale) SiO2 
 PCOD9096360
Probable space group: P -1
;
_chemical_formula_sum "Si O2"
_cell_formula_units_Z 14
_cell_length_a 7.542263
_cell_length_b 19.539040
_cell_length_c 12.511105
_cell_angle_alpha 144.705446
_cell_angle_beta 34.690380
_cell_angle_gamma 133.726115
_cell_volume 605.159745
_symmetry_space_group_name_H-M "P -1"
_symmetry_group_IT_number 2
_symmetry_cell_setting 'triclinic'
loop_
_space_group_symop_operation_xyz
x,y,z
-x,-y,-z
loop_
_atom_site_type_symbol
_atom_site_label
_atom_site_fract_x
_atom_site_fract_y
_atom_site_fract_z
Si Si1 0.634661 0.706500 0.350445
Si Si2 0.980606 0.236929 0.577183
Si Si3 0.956922 0.108626 0.741724
Si Si4 0.843822 0.489118 0.868236
Si Si5 0.955984 0.582587 0.526285
Si Si6 0.551815 0.800016 0.025050
Si Si7 0.843186 0.990261 0.265475
O O1 0.276081 0.665233 0.462817
O O2 0.709791 0.755765 0.493997
O O3 0.761347 0.796605 0.310358
O O4 0.844538 0.592268 0.086266
O O5 0.906966 0.361110 0.720001
O O6 0.710813 0.210102 0.765024
O O7 0.971384 0.125929 0.359735
O O8 0.633543 0.162520 0.939368
O O9 0.970741 0.068098 0.804824
O O10 0.000000 0.000000 0.500000
O O11 0.075929 0.501603 0.668918
O O12 0.500000 0.500000 0.000000
O O13 0.000000 0.500000 0.500000
O O14 0.689799 0.673007 0.784211
O O15 0.799838 0.903255 0.075430
O O16 0.500000 0.000000 0.500000
#
# Coordination Sequence:
#
# PCOD9096360 Si02
#       7
#     2   2   2   2   2   2   2
#     4  10  22  40  67  91 124 166 212 266 306 387
#     4  10  20  41  64  93 119 163 224 254 310 385
#     4  11  20  40  67  99 124 165 222 255 312 385
#     4  10  22  37  64  87 117 169 213 255 313 381
#     4  11  25  43  59  93 134 166 210 267 326 373
#     4  10  22  39  65  93 129 169 206 270 317 369
#     4  10  20  35  69  92 125 166 211 258 316 377
#
# _framework density 23.134387
#
# number of rings (size 3 to 8) (size 9 to 14) (size 15 to 20)
#    0.000    1.714    4.286    2.143   10.000    1.143 
#    2.571    7.143    0.000    0.000    0.000    0.000 
#    0.000    0.000    0.000    0.000    0.000    0.000 
#
# Total GULP energy -78249.030143 kJ/mol
# GULP energy per Si atom -5589.216439 kJ/mol
# Density = 2.308173 g / cm^3
# Si number density = 23.134387 Si / 1000 Ang^3
#
#
#
# Elastic Constant Matrix: (Units=GPa)
#
#
# Indices 1 2 3 4 5 6 
#
# 1 85.7172 9.1855 19.3673 4.7636 -14.1685 -8.0331
# 2 9.1855 69.5197 -1.3047 17.4134 -7.2100 -8.6049
# 3 19.3673 -1.3047 64.0135 6.0317 -19.8488 -7.5442
# 4 4.7636 17.4134 6.0317 26.2272 -7.1667 -9.4848
# 5 -14.1685 -7.2100 -19.8488 -7.1667 30.1927 12.8734
# 6 -8.0331 -8.6049 -7.5442 -9.4848 12.8734 29.1536
#
#
#
# Elastic Compliance Matrix: (Units=1/GPa)
#
#
# Indices 1 2 3 4 5 6 
#
# 1 0.013122 -0.001422 -0.002791 0.000584 0.003679 0.001039
# 2 -0.001422 0.017778 0.002664 -0.011212 0.002290 0.000886
# 3 -0.002791 0.002664 0.020587 -0.002974 0.012674 -0.001220
# 4 0.000584 -0.011212 -0.002974 0.051071 0.002895 0.011419
# 5 0.003679 0.002290 0.012674 0.002895 0.051610 -0.016878
# 6 0.001039 0.000886 -0.001220 0.011419 -0.016878 0.045701
#
#
# Mechanical properties :
#
#
# Convention : Reuss Voigt Hill
#
# Bulk Modulus (GPa) = 20.66652 30.41630 25.54141
# Shear Modulus (GPa) = 22.82096 29.91486 26.36791
#
# Velocity S-wave (km/s) = 3.14419 3.59986 3.37971
# Velocity P-wave (km/s) = 4.70467 5.51859 5.12780
#
# Compressibility (1/GPa) = 0.04838744
#
# Stress axis : x y z
#
# Youngs Moduli (GPa) = 76.20596 56.25010 48.57484
#
# Poissons Ratio (x) = 0.08000 0.13557
# Poissons Ratio (y) = 0.10839 -0.12938
# Poissons Ratio (z) = 0.21269 -0.14982
#
# Static dielectric constant tensor:
#      x y z
#    x 1.937840 0.029410 0.031100 
#    y 0.029410 1.905920 0.006860 
#    z 0.031100 0.006860 1.878080 
# 
# From -- ./inp_files/399053.got.cif
#   From: 2010.05.17/outbox.cif.g08.bks.cpg/sg2_200_cif.got.tgz:399053.got - 2010.06.03 11:33:40.
