data_PCOD9096165
_publ_section_title
;
Structure prediction by ZEFSAII (Michael W. Deem and Ramdas Pophale) SiO2 
 PCOD9096165
Probable space group: P -1
;
_chemical_formula_sum "Si O2"
_cell_formula_units_Z 16
_cell_length_a 29.559052
_cell_length_b 5.608887
_cell_length_c 8.650007
_cell_angle_alpha 77.725285
_cell_angle_beta 29.775446
_cell_angle_gamma 71.535132
_cell_volume 669.582881
_symmetry_space_group_name_H-M "P -1"
_symmetry_group_IT_number 2
_symmetry_cell_setting 'triclinic'
loop_
_space_group_symop_operation_xyz
x,y,z
-x,-y,-z
loop_
_atom_site_type_symbol
_atom_site_label
_atom_site_fract_x
_atom_site_fract_y
_atom_site_fract_z
Si Si1 0.828148 0.409035 0.142454
Si Si2 0.426088 0.388661 0.649811
Si Si3 0.982736 0.857222 0.224522
Si Si4 0.149751 0.778037 0.230281
Si Si5 0.797843 0.707539 0.684306
Si Si6 0.524161 0.013935 0.177149
Si Si7 0.671854 0.085702 0.237047
Si Si8 0.733559 0.937316 0.505332
O O1 0.769866 0.692741 0.319267
O O2 0.773760 0.187026 0.354424
O O3 0.856037 0.381541 0.882957
O O4 0.921119 0.343871 0.983255
O O5 0.500000 0.500000 0.500000
O O6 0.428203 0.159546 0.792094
O O7 0.344369 0.645086 0.839206
O O8 0.469291 0.284422 0.371968
O O9 0.891242 0.772180 0.459070
O O10 0.947631 0.025081 0.459139
O O11 0.000000 0.000000 0.000000
O O12 0.172939 0.591488 0.334163
O O13 0.237783 0.902562 0.928959
O O14 0.768464 0.809591 0.587202
O O15 0.711937 0.849913 0.034278
O O16 0.434002 0.921534 0.394158
O O17 0.619403 0.022011 0.806689
#
# Coordination Sequence:
#
# PCOD9096165 Si02
#       8
#     2   2   2   2   2   2   2   2
#     4  12  30  48  70 106 152 189 235 293 364 433
#     4   9  17  31  59  93 136 168 236 297 356 399
#     4  11  24  47  78 107 138 180 238 301 358 425
#     4  11  26  46  72 102 144 190 233 293 362 435
#     4  11  24  42  76 103 138 186 241 301 359 426
#     4  10  20  35  62  98 136 189 236 296 350 412
#     4  10  21  38  67 100 139 179 248 291 360 412
#     4  12  27  45  72 106 147 189 243 297 353 416
#
# _framework density 23.895474
#
# number of rings (size 3 to 8) (size 9 to 14) (size 15 to 20)
#    0.000    1.250    1.250    4.875   12.250    1.500 
#    0.000    1.250    0.000    0.000    0.000    0.000 
#    0.000    0.000    0.000    0.000    0.000    0.000 
#
# Total GULP energy -89182.628564 kJ/mol
# GULP energy per Si atom -5573.914285 kJ/mol
# Density = 2.384109 g / cm^3
# Si number density = 23.895474 Si / 1000 Ang^3
#
#
#
# Elastic Constant Matrix: (Units=GPa)
#
#
# Indices 1 2 3 4 5 6 
#
# 1 78.1505 0.6811 28.2789 -9.7793 8.9987 7.2063
# 2 0.6811 92.8836 37.2446 5.8226 -0.2735 -0.3537
# 3 28.2789 37.2446 134.4301 1.7775 -29.6033 10.4630
# 4 -9.7793 5.8226 1.7775 20.3981 3.1203 9.1376
# 5 8.9987 -0.2735 -29.6033 3.1203 24.2602 3.6649
# 6 7.2063 -0.3537 10.4630 9.1376 3.6649 30.4202
#
#
#
# Elastic Compliance Matrix: (Units=1/GPa)
#
#
# Indices 1 2 3 4 5 6 
#
# 1 0.020847 0.002712 -0.009650 0.014833 -0.020851 -0.003531
# 2 0.002712 0.013501 -0.006564 -0.002164 -0.009117 0.003521
# 3 -0.009650 -0.006564 0.017630 -0.006002 0.026583 -0.005254
# 4 0.014833 -0.002164 -0.006002 0.069086 -0.018719 -0.019971
# 5 -0.020851 -0.009117 0.026583 -0.018719 0.085047 -0.008933
# 6 -0.003531 0.003521 -0.005254 -0.019971 -0.008933 0.042633
#
#
# Mechanical properties :
#
#
# Convention : Reuss Voigt Hill
#
# Bulk Modulus (GPa) = 40.04288 48.65259 44.34773
# Shear Modulus (GPa) = 17.60132 30.96632 24.28382
#
# Velocity S-wave (km/s) = 2.71698 3.60378 3.19133
# Velocity P-wave (km/s) = 5.16106 6.14175 5.67263
#
# Compressibility (1/GPa) = 0.02497323
#
# Stress axis : x y z
#
# Youngs Moduli (GPa) = 47.96957 74.07132 56.72280
#
# Poissons Ratio (x) = -0.20087 0.54735
# Poissons Ratio (y) = -0.13008 0.37232
# Poissons Ratio (z) = 0.46289 0.48620
#
# Static dielectric constant tensor:
#      x y z
#    x 1.952800 0.005220 -0.011960 
#    y 0.005220 1.908640 -0.058460 
#    z -0.011960 -0.058460 1.988660 
# 
# From -- ./inp_files/288598.got.cif
#   From: 2010.05.17/outbox.cif.g08.bks.cpg/sg2_145_cif.got.tgz:288598.got - 2010.06.03 11:33:40.
