data_PCOD9096493
_publ_section_title
;
Structure prediction by ZEFSAII (Michael W. Deem and Ramdas Pophale) SiO2 
 PCOD9096493
Probable space group: P -1
;
_chemical_formula_sum "Si O2"
_cell_formula_units_Z 16
_cell_length_a 10.856024
_cell_length_b 11.797643
_cell_length_c 11.444502
_cell_angle_alpha 130.209057
_cell_angle_beta 141.182491
_cell_angle_gamma 56.201229
_cell_volume 697.322941
_symmetry_space_group_name_H-M "P -1"
_symmetry_group_IT_number 2
_symmetry_cell_setting 'triclinic'
loop_
_space_group_symop_operation_xyz
x,y,z
-x,-y,-z
loop_
_atom_site_type_symbol
_atom_site_label
_atom_site_fract_x
_atom_site_fract_y
_atom_site_fract_z
Si Si1 0.314330 0.328889 0.812603
Si Si2 0.978871 0.198181 0.856202
Si Si3 0.571331 0.745380 0.737369
Si Si4 0.019569 0.147383 0.360267
Si Si5 0.745999 0.388591 0.202521
Si Si6 0.943722 0.504839 0.097820
Si Si7 0.348099 0.495831 0.533980
Si Si8 0.166813 0.863070 0.541100
O O1 0.230380 0.481348 0.785152
O O2 0.222354 0.195460 0.593024
O O3 0.221038 0.365496 0.895730
O O4 0.548634 0.314246 0.976029
O O5 0.886260 0.220469 0.672501
O O6 0.959044 0.028401 0.767098
O O7 0.214594 0.212556 0.043024
O O8 0.884270 0.335972 0.957135
O O9 0.493106 0.612181 0.668893
O O10 0.574523 0.671632 0.561386
O O11 0.397502 0.879978 0.710703
O O12 0.929108 0.262354 0.271472
O O13 0.867349 0.183379 0.381228
O O14 0.693179 0.476745 0.343314
O O15 0.140901 0.520754 0.327588
O O16 0.000000 0.500000 0.000000
O O17 0.000000 0.000000 0.500000
#
# Coordination Sequence:
#
# PCOD9096493 Si02
#       8
#     2   2   2   2   2   2   2   2
#     4  11  25  41  68  88 122 163 218 269 296 378
#     4  10  24  36  58  95 127 163 200 249 330 366
#     4  10  20  36  55  90 127 155 196 259 302 370
#     4  11  22  40  60  87 126 162 205 260 310 375
#     4  11  24  42  64  91 116 171 220 250 318 360
#     4  11  22  39  65  98 127 161 207 259 312 371
#     4  10  21  35  62  90 120 163 203 253 314 357
#     4  10  21  34  53  89 122 163 196 235 313 373
#
# _framework density 22.944893
#
# number of rings (size 3 to 8) (size 9 to 14) (size 15 to 20)
#    0.000    1.500    2.500    1.875    8.750    4.000 
#    0.000    0.625    0.000    1.500    0.000    0.000 
#    0.000    0.000    0.000    0.000    0.000    0.000 
#
# Total GULP energy -89355.029441 kJ/mol
# GULP energy per Si atom -5584.689340 kJ/mol
# Density = 2.289267 g / cm^3
# Si number density = 22.944893 Si / 1000 Ang^3
#
#
#
# Elastic Constant Matrix: (Units=GPa)
#
#
# Indices 1 2 3 4 5 6 
#
# 1 25.8959 -2.3821 7.7903 2.0124 3.6934 3.5696
# 2 -2.3821 50.6402 20.8658 4.6891 -6.7679 -11.1004
# 3 7.7903 20.8658 123.9168 12.9087 16.3099 0.8674
# 4 2.0124 4.6891 12.9087 36.2097 -1.6829 -4.2278
# 5 3.6934 -6.7679 16.3099 -1.6829 32.4449 -7.1186
# 6 3.5696 -11.1004 0.8674 -4.2278 -7.1186 25.5160
#
#
#
# Elastic Compliance Matrix: (Units=1/GPa)
#
#
# Indices 1 2 3 4 5 6 
#
# 1 0.041202 0.000443 -0.001566 -0.002935 -0.005625 -0.007574
# 2 0.000443 0.027483 -0.006532 0.001170 0.012493 0.015795
# 3 -0.001566 -0.006532 0.010792 -0.003982 -0.008114 -0.005913
# 4 -0.002935 0.001170 -0.003982 0.030217 0.005834 0.007689
# 5 -0.005625 0.012493 -0.008114 0.005834 0.042700 0.019377
# 6 -0.007574 0.015795 -0.005913 0.007689 0.019377 0.054003
#
#
# Mechanical properties :
#
#
# Convention : Reuss Voigt Hill
#
# Bulk Modulus (GPa) = 15.58411 28.11121 21.84766
# Shear Modulus (GPa) = 20.56785 30.44603 25.50694
#
# Velocity S-wave (km/s) = 2.99725 3.64664 3.33778
# Velocity P-wave (km/s) = 4.33413 5.47804 4.93931
#
# Compressibility (1/GPa) = 0.06416794
#
# Stress axis : x y z
#
# Youngs Moduli (GPa) = 24.27051 36.38582 92.65753
#
# Poissons Ratio (x) = -0.01613 0.14509
# Poissons Ratio (y) = -0.01076 0.60527
# Poissons Ratio (z) = 0.03800 0.23768
#
# Static dielectric constant tensor:
#      x y z
#    x 1.873990 0.033750 -0.010220 
#    y 0.033750 1.972450 0.012460 
#    z -0.010220 0.012460 1.877020 
# 
# From -- ./inp_files/428999.got.cif
#   From: 2010.05.17/outbox.cif.g08.bks.cpg/sg2_215_cif.got.tgz:428999.got - 2010.06.03 11:33:40.
