data_PCOD9096920
_publ_section_title
;
Structure prediction by ZEFSAII (Michael W. Deem and Ramdas Pophale) SiO2 
 PCOD9096920
Probable space group: P -1
;
_chemical_formula_sum "Si O2"
_cell_formula_units_Z 14
_cell_length_a 7.107062
_cell_length_b 12.719538
_cell_length_c 11.853243
_cell_angle_alpha 118.960139
_cell_angle_beta 96.768117
_cell_angle_gamma 47.763607
_cell_volume 657.508558
_symmetry_space_group_name_H-M "P -1"
_symmetry_group_IT_number 2
_symmetry_cell_setting 'triclinic'
loop_
_space_group_symop_operation_xyz
x,y,z
-x,-y,-z
loop_
_atom_site_type_symbol
_atom_site_label
_atom_site_fract_x
_atom_site_fract_y
_atom_site_fract_z
Si Si1 0.013374 0.633064 0.801385
Si Si2 0.844450 0.672776 0.217138
Si Si3 0.729031 0.699119 0.609513
Si Si4 0.446991 0.637316 0.422983
Si Si5 0.727005 0.150584 0.710288
Si Si6 0.899108 0.807508 0.497936
Si Si7 0.823530 0.334638 0.941619
O O1 0.043560 0.486764 0.782359
O O2 0.267784 0.543105 0.690264
O O3 0.756284 0.739623 0.757799
O O4 0.052412 0.703866 0.945937
O O5 0.553822 0.758368 0.202563
O O6 0.805852 0.801185 0.367108
O O7 0.961764 0.371294 0.890159
O O8 0.496137 0.713030 0.563360
O O9 0.741523 0.802962 0.576992
O O10 0.000000 0.500000 0.500000
O O11 0.346256 0.750141 0.360659
O O12 0.220731 0.643296 0.442039
O O13 0.877072 0.179880 0.812388
O O14 0.865754 0.963573 0.594500
O O15 0.500000 0.500000 0.000000
#
# Coordination Sequence:
#
# PCOD9096920 Si02
#       7
#     2   2   2   2   2   2   2
#     4  10  21  40  56  86 118 153 189 230 281 342
#     4  11  21  36  62  86 115 147 184 243 292 325
#     4  10  21  38  55  83 120 150 191 231 280 342
#     4  10  20  36  58  88 117 145 190 237 288 328
#     4  11  23  35  58  92 115 149 185 242 290 330
#     4  12  21  36  60  90 116 145 193 237 292 330
#     4  12  22  39  58  87 120 144 194 233 280 347
#
# _framework density 21.292498999999999
#
# number of rings (size 3 to 8) (size 9 to 14) (size 15 to 20)
#    0.000    1.143    8.571    1.286    0.000    2.286 
#    2.571    0.714    0.000    1.714    0.000    0.000 
#    0.000    0.000    0.000    0.000    0.000    0.000 
#
# Total GULP energy -78203.170448 kJ/mol
# GULP energy per Si atom -5585.940746 kJ/mol
# Density = 2.124404 g / cm^3
# Si number density = 21.292499 Si / 1000 Ang^3
#
#
#
# Elastic Constant Matrix: (Units=GPa)
#
#
# Indices 1 2 3 4 5 6 
#
# 1 99.8097 0.6750 14.0955 -10.5018 -0.7345 -14.0695
# 2 0.6750 24.1267 28.6466 -21.6442 6.2599 -4.2777
# 3 14.0955 28.6466 109.4003 -33.6771 30.3205 -4.0982
# 4 -10.5018 -21.6442 -33.6771 39.4186 -4.9556 11.8052
# 5 -0.7345 6.2599 30.3205 -4.9556 42.7225 -4.1254
# 6 -14.0695 -4.2777 -4.0982 11.8052 -4.1254 17.8147
#
#
#
# Elastic Compliance Matrix: (Units=1/GPa)
#
#
# Indices 1 2 3 4 5 6 
#
# 1 0.011913 0.004836 -0.002975 0.000595 0.002652 0.010105
# 2 0.004836 0.094603 -0.011418 0.045237 -0.001037 -0.006309
# 3 -0.002975 -0.011418 0.018439 0.010369 -0.011259 -0.010327
# 4 0.000595 0.045237 0.010369 0.068108 -0.009319 -0.033573
# 5 0.002652 -0.001037 -0.011259 -0.009319 0.031749 0.012783
# 6 0.010105 -0.006309 -0.010327 -0.033573 0.012783 0.085432
#
#
# Mechanical properties :
#
#
# Convention : Reuss Voigt Hill
#
# Bulk Modulus (GPa) = 9.44813 35.57454 22.51133
# Shear Modulus (GPa) = 13.71219 32.65247 23.18233
#
# Velocity S-wave (km/s) = 2.54045 3.92027 3.30321
# Velocity P-wave (km/s) = 3.61277 6.10206 5.01434
#
# Compressibility (1/GPa) = 0.10584109
#
# Stress axis : x y z
#
# Youngs Moduli (GPa) = 83.94168 10.57045 54.23157
#
# Poissons Ratio (x) = -0.05111 0.16131
# Poissons Ratio (y) = -0.40591 0.61924
# Poissons Ratio (z) = 0.24969 0.12070
#
# Static dielectric constant tensor:
#      x y z
#    x 1.769030 -0.035930 -0.006130 
#    y -0.035930 1.805330 0.011870 
#    z -0.006130 0.011870 1.812090 
# 
# From -- ./inp_files/506761.got.cif
#   From: 2010.05.17/outbox.cif.g08.bks.cpg/sg2_254_cif.got.tgz:506761.got - 2010.06.03 11:33:40.
