data_PCOD9096628
_publ_section_title
;
Structure prediction by ZEFSAII (Michael W. Deem and Ramdas Pophale) SiO2 
 PCOD9096628
Probable space group: P -1
;
_chemical_formula_sum "Si O2"
_cell_formula_units_Z 16
_cell_length_a 5.798465
_cell_length_b 13.710425
_cell_length_c 15.808536
_cell_angle_alpha 46.292141
_cell_angle_beta 112.502568
_cell_angle_gamma 81.428859
_cell_volume 659.087189
_symmetry_space_group_name_H-M "P -1"
_symmetry_group_IT_number 2
_symmetry_cell_setting 'triclinic'
loop_
_space_group_symop_operation_xyz
x,y,z
-x,-y,-z
loop_
_atom_site_type_symbol
_atom_site_label
_atom_site_fract_x
_atom_site_fract_y
_atom_site_fract_z
Si Si1 0.309405 0.794712 0.633633
Si Si2 0.858091 0.961255 0.670693
Si Si3 0.534572 0.799145 0.280932
Si Si4 0.441782 0.494315 0.595022
Si Si5 0.970300 0.890960 0.262014
Si Si6 0.892555 0.461545 0.811319
Si Si7 0.788689 0.693176 0.886882
Si Si8 0.161807 0.272527 0.454391
O O1 0.200787 0.973859 0.472521
O O2 0.619190 0.628423 0.728336
O O3 0.434835 0.772074 0.760234
O O4 0.046970 0.782003 0.570349
O O5 0.082859 0.976999 0.753235
O O6 0.511763 0.115905 0.566430
O O7 0.896618 0.790916 0.794165
O O8 0.633094 0.640011 0.331430
O O9 0.172158 0.890682 0.211538
O O10 0.751064 0.715545 0.445566
O O11 0.654496 0.902965 0.196433
O O12 0.500000 0.500000 0.500000
O O13 0.212908 0.700158 0.452726
O O14 0.725116 0.419925 0.745915
O O15 0.019733 0.541645 0.725140
O O16 0.138580 0.315270 0.998916
O O17 0.000000 0.500000 0.000000
#
# Coordination Sequence:
#
# PCOD9096628 Si02
#       8
#     2   2   2   2   2   2   2   2
#     4  10  19  36  59  84 107 154 200 245 299 359
#     4  10  19  36  57  83 113 152 200 251 293 358
#     4  10  18  30  54  95 116 150 195 259 297 354
#     4  10  16  30  55  86 114 153 200 249 297 352
#     4  10  18  31  56  88 119 150 197 254 302 344
#     4  10  19  37  53  84 122 149 190 250 303 364
#     4  10  23  38  58  80 119 158 193 245 310 370
#     4  10  18  33  60  83 115 145 202 251 295 348
#
# _framework density 24.276
#
# number of rings (size 3 to 8) (size 9 to 14) (size 15 to 20)
#    0.000    2.000    6.250    0.750    0.000    1.000 
#    0.000    2.500    0.000    7.500    0.000    0.000 
#    0.000    0.000    0.000    0.000    0.000    0.000 
#
# Total GULP energy -89155.985798 kJ/mol
# GULP energy per Si atom -5572.249112 kJ/mol
# Density = 2.422075 g / cm^3
# Si number density = 24.276000 Si / 1000 Ang^3
#
#
#
# Elastic Constant Matrix: (Units=GPa)
#
#
# Indices 1 2 3 4 5 6 
#
# 1 78.7254 27.0342 23.8762 -1.4296 -5.4587 21.5629
# 2 27.0342 145.7442 43.2998 9.6959 -4.9944 25.6550
# 3 23.8762 43.2998 94.5990 17.4034 -4.6246 13.1742
# 4 -1.4296 9.6959 17.4034 33.9526 0.8323 -5.2847
# 5 -5.4587 -4.9944 -4.6246 0.8323 23.4896 -9.9615
# 6 21.5629 25.6550 13.1742 -5.2847 -9.9615 36.3631
#
#
#
# Elastic Compliance Matrix: (Units=1/GPa)
#
#
# Indices 1 2 3 4 5 6 
#
# 1 0.015969 -0.000852 -0.002782 0.001137 -0.000364 -0.007795
# 2 -0.000852 0.008881 -0.002805 -0.001935 -0.001046 -0.005312
# 3 -0.002782 -0.002805 0.014201 -0.006974 0.000823 -0.002304
# 4 0.001137 -0.001935 -0.006974 0.034935 0.000859 0.008530
# 5 -0.000364 -0.001046 0.000823 0.000859 0.048344 0.014024
# 6 -0.007795 -0.005312 -0.002304 0.008530 0.014024 0.041787
#
#
# Mechanical properties :
#
#
# Convention : Reuss Voigt Hill
#
# Bulk Modulus (GPa) = 38.20708 56.38767 47.29738
# Shear Modulus (GPa) = 26.92235 33.75163 30.33699
#
# Velocity S-wave (km/s) = 3.33379 3.73276 3.53890
# Velocity P-wave (km/s) = 5.53098 6.46963 6.01863
#
# Compressibility (1/GPa) = 0.02617316
#
# Stress axis : x y z
#
# Youngs Moduli (GPa) = 62.62094 112.60401 70.41595
#
# Poissons Ratio (x) = 0.09588 0.19591
# Poissons Ratio (y) = 0.05332 0.19754
# Poissons Ratio (z) = 0.17422 0.31589
#
# Static dielectric constant tensor:
#      x y z
#    x 2.228230 -0.098840 -0.024270 
#    y -0.098840 1.981420 -0.011100 
#    z -0.024270 -0.011100 1.923410 
# 
# From -- ./inp_files/550084.got.cif
#   From: 2010.05.17/outbox.cif.g08.bks.cpg/sg2_276_cif.got.tgz:550084.got - 2010.06.03 11:33:40.
