data_PCOD9096535
_publ_section_title
;
Structure prediction by ZEFSAII (Michael W. Deem and Ramdas Pophale) SiO2 
 PCOD9096535
Probable space group: P -1
;
_chemical_formula_sum "Si O2"
_cell_formula_units_Z 16
_cell_length_a 6.665429
_cell_length_b 9.295182
_cell_length_c 15.030831
_cell_angle_alpha 71.791496
_cell_angle_beta 88.110895
_cell_angle_gamma 96.470174
_cell_volume 876.693372
_symmetry_space_group_name_H-M "P -1"
_symmetry_group_IT_number 2
_symmetry_cell_setting 'triclinic'
loop_
_space_group_symop_operation_xyz
x,y,z
-x,-y,-z
loop_
_atom_site_type_symbol
_atom_site_label
_atom_site_fract_x
_atom_site_fract_y
_atom_site_fract_z
Si Si1 0.044569 0.982030 0.852887
Si Si2 0.115467 0.241060 0.345745
Si Si3 0.074262 0.100607 0.640308
Si Si4 0.024301 0.648951 0.855620
Si Si5 0.554198 0.827744 0.512268
Si Si6 0.873933 0.342346 0.496427
Si Si7 0.693311 0.914076 0.000266
Si Si8 0.297918 0.430604 0.967845
O O1 0.108357 0.821641 0.849197
O O2 0.085955 0.093764 0.747571
O O3 0.167111 0.035043 0.927849
O O4 0.812720 0.956627 0.897268
O O5 0.093936 0.337161 0.237863
O O6 0.331155 0.228715 0.391455
O O7 0.980786 0.307092 0.409705
O O8 0.016639 0.068232 0.358838
O O9 0.282265 0.150832 0.574552
O O10 0.921501 0.215407 0.590672
O O11 0.199698 0.539611 0.878515
O O12 0.865549 0.597279 0.945334
O O13 0.365688 0.701517 0.512131
O O14 0.500000 0.000000 0.500000
O O15 0.000000 0.500000 0.500000
O O16 0.659691 0.731285 0.039566
O O17 0.500000 0.000000 0.000000
O O18 0.500000 0.500000 0.000000
#
# Coordination Sequence:
#
# PCOD9096535 Si02
#       8
#     2   2   2   2   2   2   2   2
#     4   9  20  37  57  83 113 149 196 243 289 348
#     4  10  20  37  59  84 113 153 203 244 294 358
#     4  10  20  37  59  86 111 152 203 244 294 357
#     4   9  20  37  57  83 113 151 196 242 290 349
#     4  11  19  37  63  86 114 155 199 246 296 358
#     4  11  23  37  56  86 124 154 188 250 307 350
#     4  10  20  36  57  83 115 152 192 241 295 348
#     4  10  20  36  56  82 117 153 194 240 291 351
#
# _framework density 18.250392999999999
#
# number of rings (size 3 to 8) (size 9 to 14) (size 15 to 20)
#    0.000    2.000    2.500    1.500    0.000    6.000 
#    2.250    1.250    0.000    0.000    0.000    0.000 
#    0.000    0.000    0.000    0.000    0.000    0.000 
#
# Total GULP energy -89110.769108 kJ/mol
# GULP energy per Si atom -5569.423069 kJ/mol
# Density = 1.820885 g / cm^3
# Si number density = 18.250393 Si / 1000 Ang^3
#
#
#
# Elastic Constant Matrix: (Units=GPa)
#
#
# Indices 1 2 3 4 5 6 
#
# 1 107.3092 58.5469 31.5602 -3.9350 27.5099 -1.2694
# 2 58.5469 78.0340 41.5445 -3.8369 14.1515 -0.6136
# 3 31.5602 41.5445 118.5231 -0.0667 29.9899 -8.4052
# 4 -3.9350 -3.8369 -0.0667 18.7513 -2.9945 4.2863
# 5 27.5099 14.1515 29.9899 -2.9945 18.3942 0.4645
# 6 -1.2694 -0.6136 -8.4052 4.2863 0.4645 32.7880
#
#
#
# Elastic Compliance Matrix: (Units=1/GPa)
#
#
# Indices 1 2 3 4 5 6 
#
# 1 0.028506 -0.019166 0.011697 -0.006811 -0.048201 0.005317
# 2 -0.019166 0.029110 -0.012527 0.007458 0.028027 -0.004780
# 3 0.011697 -0.012527 0.021523 -0.008872 -0.044582 0.007527
# 4 -0.006811 0.007458 -0.008872 0.060480 0.029030 -0.010716
# 5 -0.048201 0.028027 -0.044582 0.029030 0.182786 -0.019154
# 6 0.005317 -0.004780 0.007527 -0.010716 -0.019154 0.034217
#
#
# Mechanical properties :
#
#
# Convention : Reuss Voigt Hill
#
# Bulk Modulus (GPa) = 25.54477 63.01885 44.28181
# Shear Modulus (GPa) = 12.20517 25.46767 18.83642
#
# Velocity S-wave (km/s) = 2.58885 3.73964 3.21613
# Velocity P-wave (km/s) = 4.79201 7.29737 6.17313
#
# Compressibility (1/GPa) = 0.03914696
#
# Stress axis : x y z
#
# Youngs Moduli (GPa) = 35.08088 34.35201 46.46288
#
# Poissons Ratio (x) = 0.65840 -0.54348
# Poissons Ratio (y) = 0.67237 0.58202
# Poissons Ratio (z) = -0.41035 0.43032
#
# Static dielectric constant tensor:
#      x y z
#    x 6.685240 1.612910 -1.903470 
#    y 1.612910 2.171300 -0.622690 
#    z -1.903470 -0.622690 2.362710 
# 
# From -- ./inp_files/83114.got.cif
#   From: 2010.05.17/outbox.cif.g08.bks.cpg/sg2_42_cif.got.tgz:83114.got - 2010.06.03 11:33:40.
