data_PCOD9096230
_publ_section_title
;
Structure prediction by ZEFSAII (Michael W. Deem and Ramdas Pophale) SiO2 
 PCOD9096230
Probable space group: P -1
;
_chemical_formula_sum "Si O2"
_cell_formula_units_Z 16
_cell_length_a 14.307253
_cell_length_b 9.061537
_cell_length_c 12.310039
_cell_angle_alpha 111.586585
_cell_angle_beta 103.874610
_cell_angle_gamma 30.444054
_cell_volume 741.731082
_symmetry_space_group_name_H-M "P -1"
_symmetry_group_IT_number 2
_symmetry_cell_setting 'triclinic'
loop_
_space_group_symop_operation_xyz
x,y,z
-x,-y,-z
loop_
_atom_site_type_symbol
_atom_site_label
_atom_site_fract_x
_atom_site_fract_y
_atom_site_fract_z
Si Si1 0.755411 0.753560 0.704857
Si Si2 0.079009 0.143609 0.509042
Si Si3 0.765649 0.491656 0.367127
Si Si4 0.667600 0.209588 0.724286
Si Si5 0.017034 0.490214 0.874902
Si Si6 0.993777 0.876568 0.870798
Si Si7 0.332411 0.834704 0.681376
Si Si8 0.516319 0.130051 0.429042
O O1 0.843984 0.635960 0.815907
O O2 0.621371 0.797859 0.651739
O O3 0.940090 0.477242 0.604769
O O4 0.654736 0.061889 0.742494
O O5 0.934230 0.235775 0.430808
O O6 0.223629 0.979067 0.409671
O O7 0.193211 0.930690 0.590394
O O8 0.584277 0.689559 0.436330
O O9 0.842218 0.325590 0.227895
O O10 0.705339 0.762184 0.403690
O O11 0.470145 0.560268 0.730452
O O12 0.802042 0.131805 0.814962
O O13 0.014820 0.672484 0.876455
O O14 0.203200 0.141849 0.791002
O O15 0.000000 0.500000 0.000000
O O16 0.000000 0.000000 0.000000
O O17 0.452097 0.764635 0.608342
#
# Coordination Sequence:
#
# PCOD9096230 Si02
#       8
#     2   2   2   2   2   2   2   2
#     4   9  20  38  62  84 120 163 198 238 304 363
#     4   9  19  35  61  83 121 163 190 231 304 367
#     4   9  19  37  61  89 121 158 198 243 296 364
#     4  10  21  37  60  91 121 155 202 249 294 355
#     4  10  22  44  62  83 117 166 205 242 302 366
#     4  10  21  43  64  86 118 167 207 241 295 360
#     4  11  22  38  61  94 122 151 199 257 302 349
#     4  10  20  35  63  96 118 149 204 248 302 353
#
# _framework density 21.571159000000002
#
# number of rings (size 3 to 8) (size 9 to 14) (size 15 to 20)
#    0.000    2.250    1.250    0.750    7.000    1.000 
#    4.500    9.375    0.000    0.000    0.000    0.000 
#    0.000    0.000    0.000    0.000    0.000    0.000 
#
# Total GULP energy -89323.581482 kJ/mol
# GULP energy per Si atom -5582.723843 kJ/mol
# Density = 2.152206 g / cm^3
# Si number density = 21.571159 Si / 1000 Ang^3
#
#
#
# Elastic Constant Matrix: (Units=GPa)
#
#
# Indices 1 2 3 4 5 6 
#
# 1 74.5153 36.1260 39.7620 -1.8752 10.6418 -7.2927
# 2 36.1260 156.0311 60.2090 -15.6919 15.8789 -3.3070
# 3 39.7620 60.2090 174.8932 -20.7535 10.2313 -10.3374
# 4 -1.8752 -15.6919 -20.7535 30.5025 -3.9743 4.7362
# 5 10.6418 15.8789 10.2313 -3.9743 30.2748 -4.0442
# 6 -7.2927 -3.3070 -10.3374 4.7362 -4.0442 25.4725
#
#
#
# Elastic Compliance Matrix: (Units=1/GPa)
#
#
# Indices 1 2 3 4 5 6 
#
# 1 0.017059 -0.002720 -0.002928 -0.003335 -0.003564 0.003397
# 2 -0.002720 0.008251 -0.001830 0.002708 -0.002579 -0.001363
# 3 -0.002928 -0.001830 0.007537 0.003821 0.000116 0.001291
# 4 -0.003335 0.002708 0.003821 0.037798 0.002667 -0.005657
# 5 -0.003564 -0.002579 0.000116 0.002667 0.036480 0.003988
# 6 0.003397 -0.001363 0.001291 -0.005657 0.003988 0.042262
#
#
# Mechanical properties :
#
#
# Convention : Reuss Voigt Hill
#
# Bulk Modulus (GPa) = 55.90241 75.29263 65.59752
# Shear Modulus (GPa) = 29.35865 35.20613 32.28239
#
# Velocity S-wave (km/s) = 3.69319 4.04430 3.87273
# Velocity P-wave (km/s) = 6.64514 7.53582 7.10445
#
# Compressibility (1/GPa) = 0.01788832
#
# Stress axis : x y z
#
# Youngs Moduli (GPa) = 58.62005 121.19615 132.68683
#
# Poissons Ratio (x) = 0.32970 0.38855
# Poissons Ratio (y) = 0.15947 0.24287
# Poissons Ratio (z) = 0.17166 0.22184
#
# Static dielectric constant tensor:
#      x y z
#    x 1.849860 -0.029510 0.025140 
#    y -0.029510 1.832840 -0.001090 
#    z 0.025140 -0.001090 1.767050 
# 
# From -- ./inp_files/274438.got.cif
#   From: 2010.05.17/outbox.cif.g08.bks.cpg/sg2_138_cif.got.tgz:274438.got - 2010.06.03 11:33:40.
