data_PCOD9096219
_publ_section_title
;
Structure prediction by ZEFSAII (Michael W. Deem and Ramdas Pophale) SiO2 
 PCOD9096219
Probable space group: P -1
;
_chemical_formula_sum "Si O2"
_cell_formula_units_Z 14
_cell_length_a 9.024588
_cell_length_b 5.189401
_cell_length_c 24.110503
_cell_angle_alpha 119.641037
_cell_angle_beta 44.339435
_cell_angle_gamma 111.326925
_cell_volume 685.807783
_symmetry_space_group_name_H-M "P -1"
_symmetry_group_IT_number 2
_symmetry_cell_setting 'triclinic'
loop_
_space_group_symop_operation_xyz
x,y,z
-x,-y,-z
loop_
_atom_site_type_symbol
_atom_site_label
_atom_site_fract_x
_atom_site_fract_y
_atom_site_fract_z
Si Si1 0.177579 0.376115 0.772542
Si Si2 0.819989 0.532690 0.097106
Si Si3 0.608018 0.129820 0.391266
Si Si4 0.152226 0.196892 0.361474
Si Si5 0.411344 0.897918 0.813714
Si Si6 0.136056 0.290770 0.653859
Si Si7 0.839297 0.722878 0.508809
O O1 0.355099 0.123888 0.692119
O O2 0.293870 0.694123 0.777009
O O3 0.049036 0.343984 0.746172
O O4 0.083029 0.355580 0.857448
O O5 0.697725 0.229028 0.114735
O O6 0.648917 0.767966 0.147136
O O7 0.000000 0.500000 0.000000
O O8 0.686824 0.954417 0.405444
O O9 0.365618 0.221335 0.467172
O O10 0.758201 0.407812 0.364331
O O11 0.342967 0.179239 0.265244
O O12 0.242254 0.297408 0.407904
O O13 0.036960 0.874341 0.355279
O O14 0.971954 0.438708 0.426289
O O15 0.000000 0.000000 0.500000
#
# Coordination Sequence:
#
# PCOD9096219 Si02
#       7
#     2   2   2   2   2   2   2
#     4   8  19  34  61  82 117 148 196 232 294 334
#     4  10  20  35  63  94 116 146 195 244 292 354
#     4  10  22  41  58  83 119 157 207 238 296 335
#     4  11  25  39  58  89 120 158 204 242 306 339
#     4  10  21  37  62  87 120 153 192 245 291 357
#     4  10  23  38  60  85 116 166 196 247 287 359
#     4  11  25  39  60  85 119 162 205 255 288 348
#
# _framework density 20.413881
#
# number of rings (size 3 to 8) (size 9 to 14) (size 15 to 20)
#    1.714    0.286    0.000    3.857    8.000    1.143 
#    0.000    0.000    0.000    1.714    0.000    0.000 
#    0.000    0.000    0.000    0.000    0.000    0.000 
#
# Total GULP energy -77988.136157 kJ/mol
# GULP energy per Si atom -5570.581154 kJ/mol
# Density = 2.036742 g / cm^3
# Si number density = 20.413881 Si / 1000 Ang^3
#
#
#
# Elastic Constant Matrix: (Units=GPa)
#
#
# Indices 1 2 3 4 5 6 
#
# 1 46.4466 -4.0167 13.1251 -2.0147 12.6556 -7.3805
# 2 -4.0167 60.2872 -9.6825 -2.5136 2.6861 -10.7137
# 3 13.1251 -9.6825 88.4012 -17.3133 17.8262 0.2333
# 4 -2.0147 -2.5136 -17.3133 28.8688 -4.0769 1.7694
# 5 12.6556 2.6861 17.8262 -4.0769 21.2012 -1.1456
# 6 -7.3805 -10.7137 0.2333 1.7694 -1.1456 29.8394
#
#
#
# Elastic Compliance Matrix: (Units=1/GPa)
#
#
# Indices 1 2 3 4 5 6 
#
# 1 0.027620 0.003784 -0.000607 -0.000863 -0.016210 0.007624
# 2 0.003784 0.019083 0.003337 0.002545 -0.006596 0.007357
# 3 -0.000607 0.003337 0.015700 0.008008 -0.011721 0.000001
# 4 -0.000863 0.002545 0.008008 0.039853 0.001032 -0.001686
# 5 -0.016210 -0.006596 -0.011721 0.001032 0.067530 -0.003754
# 6 0.007624 0.007357 0.000001 -0.001686 -0.003754 0.037996
#
#
# Mechanical properties :
#
#
# Convention : Reuss Voigt Hill
#
# Bulk Modulus (GPa) = 13.25715 21.55409 17.40562
# Shear Modulus (GPa) = 22.73810 29.02917 25.88363
#
# Velocity S-wave (km/s) = 3.34107 3.77507 3.56468
# Velocity P-wave (km/s) = 4.62514 5.43903 5.04851
#
# Compressibility (1/GPa) = 0.07543102
#
# Stress axis : x y z
#
# Youngs Moduli (GPa) = 36.20610 52.40325 63.69554
#
# Poissons Ratio (x) = -0.19828 0.03864
# Poissons Ratio (y) = -0.13700 -0.21257
# Poissons Ratio (z) = 0.02196 -0.17488
#
# Static dielectric constant tensor:
#      x y z
#    x 1.790950 -0.022120 0.049400 
#    y -0.022120 1.746760 -0.014740 
#    z 0.049400 -0.014740 1.734220 
# 
# From -- ./inp_files/616287.got.cif
#   From: 2010.05.17/outbox.cif.g08.bks.cpg/sg2_309_cif.got.tgz:616287.got - 2010.06.03 11:33:40.
