data_PCOD9096109
_publ_section_title
;
Structure prediction by ZEFSAII (Michael W. Deem and Ramdas Pophale) SiO2 
 PCOD9096109
Probable space group: P -1
;
_chemical_formula_sum "Si O2"
_cell_formula_units_Z 16
_cell_length_a 9.985745
_cell_length_b 10.024441
_cell_length_c 15.758206
_cell_angle_alpha 143.888074
_cell_angle_beta 113.182913
_cell_angle_gamma 60.014275
_cell_volume 805.081056
_symmetry_space_group_name_H-M "P -1"
_symmetry_group_IT_number 2
_symmetry_cell_setting 'triclinic'
loop_
_space_group_symop_operation_xyz
x,y,z
-x,-y,-z
loop_
_atom_site_type_symbol
_atom_site_label
_atom_site_fract_x
_atom_site_fract_y
_atom_site_fract_z
Si Si1 0.210150 0.306561 0.878266
Si Si2 0.845604 0.454345 0.407945
Si Si3 0.656713 0.681782 0.814392
Si Si4 0.702829 0.078651 0.146371
Si Si5 0.624663 0.629898 0.590831
Si Si6 0.708958 0.966893 0.558077
Si Si7 0.434167 0.091257 0.675120
Si Si8 0.870764 0.305553 0.798421
O O1 0.320043 0.277384 0.808515
O O2 0.039743 0.301812 0.812209
O O3 0.277395 0.084413 0.847344
O O4 0.178697 0.548314 0.050559
O O5 0.829708 0.211638 0.239106
O O6 0.754387 0.469135 0.479704
O O7 0.000000 0.500000 0.500000
O O8 0.750260 0.686247 0.447091
O O9 0.472301 0.736239 0.803203
O O10 0.692752 0.657476 0.712309
O O11 0.748897 0.451895 0.773339
O O12 0.703676 0.897570 0.977427
O O13 0.500000 0.500000 0.500000
O O14 0.539653 0.882717 0.654796
O O15 0.561852 0.129598 0.661484
O O16 0.852124 0.047244 0.662596
O O17 0.668908 0.994056 0.462372
#
# Coordination Sequence:
#
# PCOD9096109 Si02
#       8
#     2   2   2   2   2   2   2   2
#     4  10  20  39  59  84 112 148 190 236 283 332
#     4  11  23  38  58  83 118 155 185 233 291 341
#     4  10  20  35  62  90 108 145 194 245 277 324
#     4  10  20  37  61  86 114 146 194 236 283 333
#     4  11  19  35  59  86 110 147 198 236 274 338
#     4  10  23  37  53  83 117 151 185 228 284 343
#     4  10  21  36  54  80 114 150 188 227 281 340
#     4  10  22  36  59  86 116 145 185 238 288 334
#
# _framework density 19.873774999999998
#
# number of rings (size 3 to 8) (size 9 to 14) (size 15 to 20)
#    0.000    1.750    2.500    1.500    3.500    2.000 
#    0.000    3.125    0.000    0.000    0.000    0.000 
#    0.000    0.000    0.000    0.000    0.000    0.000 
#
# Total GULP energy -89197.781751 kJ/mol
# GULP energy per Si atom -5574.861359 kJ/mol
# Density = 1.982854 g / cm^3
# Si number density = 19.873775 Si / 1000 Ang^3
#
#
#
# Elastic Constant Matrix: (Units=GPa)
#
#
# Indices 1 2 3 4 5 6 
#
# 1 50.5326 0.6002 13.4305 -8.7531 5.0900 -2.5146
# 2 0.6002 41.9624 17.7188 -14.3369 0.0469 -1.6686
# 3 13.4305 17.7188 83.4785 -14.9961 14.2673 14.1349
# 4 -8.7531 -14.3369 -14.9961 23.8554 4.0377 -0.6900
# 5 5.0900 0.0469 14.2673 4.0377 37.4463 -5.7815
# 6 -2.5146 -1.6686 14.1349 -0.6900 -5.7815 24.7870
#
#
#
# Elastic Compliance Matrix: (Units=1/GPa)
#
#
# Indices 1 2 3 4 5 6 
#
# 1 0.022661 0.004432 -0.003211 0.009460 -0.002239 0.004169
# 2 0.004432 0.032435 -0.005618 0.017675 0.000590 0.006467
# 3 -0.003211 -0.005618 0.019339 0.008899 -0.010018 -0.013821
# 4 0.009460 0.017675 0.008899 0.063550 -0.012168 -0.003994
# 5 -0.002239 0.000590 -0.010018 -0.012168 0.034169 0.013157
# 6 0.004169 0.006467 -0.013821 -0.003994 0.013157 0.052041
#
#
# Mechanical properties :
#
#
# Convention : Reuss Voigt Hill
#
# Bulk Modulus (GPa) = 15.23419 26.60807 20.92113
# Shear Modulus (GPa) = 19.61780 26.83265 23.22522
#
# Velocity S-wave (km/s) = 3.14525 3.67843 3.42224
# Velocity P-wave (km/s) = 4.56862 5.60881 5.11522
#
# Compressibility (1/GPa) = 0.06564180
#
# Stress axis : x y z
#
# Youngs Moduli (GPa) = 44.12771 30.83095 51.70839
#
# Poissons Ratio (x) = -0.13664 0.16601
# Poissons Ratio (y) = -0.19557 0.29051
# Poissons Ratio (z) = 0.14167 0.17322
#
# Static dielectric constant tensor:
#      x y z
#    x 1.290600 -0.151380 -0.455400 
#    y -0.151380 1.656540 -0.127830 
#    z -0.455400 -0.127830 1.217760 
# 
# From -- ./inp_files/495909.got.cif
#   From: 2010.05.17/outbox.cif.g08.bks.cpg/sg2_248_cif.got.tgz:495909.got - 2010.06.03 11:33:40.
