data_PCOD9096962
_publ_section_title
;
Structure prediction by ZEFSAII (Michael W. Deem and Ramdas Pophale) SiO2 
 PCOD9096962
Probable space group: P -1
;
_chemical_formula_sum "Si O2"
_cell_formula_units_Z 16
_cell_length_a 7.684816
_cell_length_b 17.628185
_cell_length_c 9.459205
_cell_angle_alpha 133.816457
_cell_angle_beta 98.039754
_cell_angle_gamma 55.340888
_cell_volume 687.466943
_symmetry_space_group_name_H-M "P -1"
_symmetry_group_IT_number 2
_symmetry_cell_setting 'triclinic'
loop_
_space_group_symop_operation_xyz
x,y,z
-x,-y,-z
loop_
_atom_site_type_symbol
_atom_site_label
_atom_site_fract_x
_atom_site_fract_y
_atom_site_fract_z
Si Si1 0.449863 0.927079 0.544147
Si Si2 0.966310 0.689271 0.668015
Si Si3 0.056588 0.303396 0.790064
Si Si4 0.944102 0.499429 0.786703
Si Si5 0.067702 0.866867 0.752045
Si Si6 0.559110 0.729889 0.551130
Si Si7 0.028923 0.774689 0.063301
Si Si8 0.843553 0.049705 0.687921
O O1 0.724599 0.838653 0.443489
O O2 0.441483 0.845050 0.562480
O O3 0.379598 0.912322 0.362389
O O4 0.249160 0.087823 0.774824
O O5 0.116763 0.538031 0.412382
O O6 0.700397 0.750611 0.701742
O O7 0.978391 0.795458 0.723008
O O8 0.047349 0.680588 0.823416
O O9 0.923425 0.419701 0.803685
O O10 0.906090 0.287920 0.852839
O O11 0.154061 0.355030 0.975115
O O12 0.222690 0.412820 0.684277
O O13 0.349462 0.749117 0.620583
O O14 0.958432 0.934318 0.673055
O O15 0.000000 0.000000 0.000000
O O16 0.167118 0.825289 0.100531
O O17 0.000000 0.000000 0.500000
#
# Coordination Sequence:
#
# PCOD9096962 Si02
#       8
#     2   2   2   2   2   2   2   2
#     4  10  20  36  58  91 120 149 197 247 305 354
#     4  10  23  38  60  89 122 158 203 233 301 361
#     4  10  20  38  63  83 117 156 205 248 290 347
#     4   8  21  41  59  86 113 162 208 241 286 357
#     4  12  21  37  59  87 132 159 184 249 301 362
#     4   9  20  39  59  86 120 155 200 240 291 355
#     4  11  21  36  56  92 123 152 190 252 306 353
#     4  10  21  35  52  85 126 151 190 236 307 358
#
# _framework density 23.273847
#
# number of rings (size 3 to 8) (size 9 to 14) (size 15 to 20)
#    0.750    1.250    3.750    0.375    3.500    4.500 
#    0.000    1.250    0.000    6.000    0.000    0.000 
#    0.000    0.000    0.000    0.000    0.000    0.000 
#
# Total GULP energy -89200.812766 kJ/mol
# GULP energy per Si atom -5575.050798 kJ/mol
# Density = 2.322087 g / cm^3
# Si number density = 23.273847 Si / 1000 Ang^3
#
#
#
# Elastic Constant Matrix: (Units=GPa)
#
#
# Indices 1 2 3 4 5 6 
#
# 1 51.6551 15.6919 -0.0580 -2.1965 9.0495 11.0337
# 2 15.6919 49.2424 -4.4713 -7.7504 -3.1496 14.2096
# 3 -0.0580 -4.4713 110.4416 -5.1777 11.1506 -8.0018
# 4 -2.1965 -7.7504 -5.1777 37.3113 -1.7028 2.1293
# 5 9.0495 -3.1496 11.1506 -1.7028 29.6948 -3.4506
# 6 11.0337 14.2096 -8.0018 2.1293 -3.4506 18.0457
#
#
#
# Elastic Compliance Matrix: (Units=1/GPa)
#
#
# Indices 1 2 3 4 5 6 
#
# 1 0.025496 -0.004577 -0.000160 0.000882 -0.009775 -0.014029
# 2 -0.004577 0.028891 -0.000243 0.006980 0.002582 -0.020389
# 3 -0.000160 -0.000243 0.009683 0.000920 -0.003109 0.003880
# 4 0.000882 0.006980 0.000920 0.028973 0.000753 -0.008902
# 5 -0.009775 0.002582 -0.003109 0.000753 0.039300 0.009991
# 6 -0.014029 -0.020389 0.003880 -0.008902 0.009991 0.084729
#
#
# Mechanical properties :
#
#
# Convention : Reuss Voigt Hill
#
# Bulk Modulus (GPa) = 18.48129 25.96269 22.22199
# Shear Modulus (GPa) = 20.40227 30.35546 25.37886
#
# Velocity S-wave (km/s) = 2.96399 3.61539 3.30577
# Velocity P-wave (km/s) = 4.43527 5.34861 4.91321
#
# Compressibility (1/GPa) = 0.05410878
#
# Stress axis : x y z
#
# Youngs Moduli (GPa) = 39.22151 34.61237 103.27573
#
# Poissons Ratio (x) = 0.15843 0.01653
# Poissons Ratio (y) = 0.17953 0.02514
# Poissons Ratio (z) = 0.00628 0.00842
#
# Static dielectric constant tensor:
#      x y z
#    x 1.971050 0.032340 0.052510 
#    y 0.032340 1.869160 -0.008950 
#    z 0.052510 -0.008950 1.913400 
# 
# From -- ./inp_files/213579.got.cif
#   From: 2010.05.17/outbox.cif.g08.bks.cpg/sg2_107_cif.got.tgz:213579.got - 2010.06.03 11:33:40.
