data_PCOD9096410
_publ_section_title
;
Structure prediction by ZEFSAII (Michael W. Deem and Ramdas Pophale) SiO2 
 PCOD9096410
Probable space group: P -1
;
_chemical_formula_sum "Si O2"
_cell_formula_units_Z 12
_cell_length_a 11.595614
_cell_length_b 5.408254
_cell_length_c 9.122647
_cell_angle_alpha 105.388725
_cell_angle_beta 111.652673
_cell_angle_gamma 81.390525
_cell_volume 511.810466
_symmetry_space_group_name_H-M "P -1"
_symmetry_group_IT_number 2
_symmetry_cell_setting 'triclinic'
loop_
_space_group_symop_operation_xyz
x,y,z
-x,-y,-z
loop_
_atom_site_type_symbol
_atom_site_label
_atom_site_fract_x
_atom_site_fract_y
_atom_site_fract_z
Si Si1 0.407747 0.545211 0.330152
Si Si2 0.931182 0.913230 0.307425
Si Si3 0.627083 0.026479 0.842929
Si Si4 0.184229 0.900047 0.284108
Si Si5 0.319996 0.799538 0.793660
Si Si6 0.722815 0.753560 0.358035
O O1 0.500000 0.500000 0.500000
O O2 0.401435 0.270907 0.205281
O O3 0.267772 0.643613 0.328298
O O4 0.437961 0.791335 0.283945
O O5 0.040081 0.859138 0.234655
O O6 0.840383 0.702115 0.292721
O O7 0.000000 0.000000 0.500000
O O8 0.827837 0.130677 0.245917
O O9 0.768704 0.031620 0.844748
O O10 0.617483 0.162615 0.015661
O O11 0.228643 0.121880 0.450568
O O12 0.337690 0.514269 0.697197
O O13 0.354027 0.017407 0.727977
#
# Coordination Sequence:
#
# PCOD9096410 Si02
#       6
#     2   2   2   2   2   2
#     4  10  22  40  61  82 109 143 191 238 281 329
#     4   8  18  34  52  85 115 155 180 218 268 338
#     4  10  22  36  61  84 109 146 187 233 285 321
#     4   9  21  34  59  86 106 150 195 227 264 333
#     4  10  20  36  54  83 121 150 174 229 280 329
#     4   9  20  34  56  79 121 149 182 215 277 330
#
# _framework density 23.446178
#
# number of rings (size 3 to 8) (size 9 to 14) (size 15 to 20)
#    2.000    0.667    0.000    1.500    2.333    4.667 
#    0.000    1.667    0.000    6.000    0.000    0.000 
#    0.000    0.000    0.000    0.000    0.000    0.000 
#
# Total GULP energy -66910.227444 kJ/mol
# GULP energy per Si atom -5575.852287 kJ/mol
# Density = 2.339281 g / cm^3
# Si number density = 23.446178 Si / 1000 Ang^3
#
#
#
# Elastic Constant Matrix: (Units=GPa)
#
#
# Indices 1 2 3 4 5 6 
#
# 1 112.7977 46.1821 -6.8007 2.4221 -18.9330 -5.2480
# 2 46.1821 151.4578 32.2540 7.3685 6.6655 13.9794
# 3 -6.8007 32.2540 53.9255 7.9135 -8.5145 9.9951
# 4 2.4221 7.3685 7.9135 25.3363 0.2579 -3.8214
# 5 -18.9330 6.6655 -8.5145 0.2579 23.2199 -10.6393
# 6 -5.2480 13.9794 9.9951 -3.8214 -10.6393 42.8387
#
#
#
# Elastic Compliance Matrix: (Units=1/GPa)
#
#
# Indices 1 2 3 4 5 6 
#
# 1 0.018368 -0.009841 0.010747 -0.001110 0.026025 0.009318
# 2 -0.009841 0.013544 -0.010856 -0.000616 -0.019553 -0.008004
# 3 0.010747 -0.010856 0.030769 -0.007255 0.024693 0.003166
# 4 -0.001110 -0.000616 -0.007255 0.042821 -0.001477 0.005211
# 5 0.026025 -0.019553 0.024693 -0.001477 0.091012 0.026279
# 6 0.009318 -0.008004 0.003166 0.005211 0.026279 0.033350
#
#
# Mechanical properties :
#
#
# Convention : Reuss Voigt Hill
#
# Bulk Modulus (GPa) = 23.37359 51.27242 37.32301
# Shear Modulus (GPa) = 18.93771 34.71536 26.82654
#
# Velocity S-wave (km/s) = 2.84511 3.85208 3.38624
# Velocity P-wave (km/s) = 4.55890 6.45758 5.58945
#
# Compressibility (1/GPa) = 0.04278332
#
# Stress axis : x y z
#
# Youngs Moduli (GPa) = 54.44204 73.83268 32.50009
#
# Poissons Ratio (x) = 0.72658 -0.34929
# Poissons Ratio (y) = 0.53576 0.35281
# Poissons Ratio (z) = -0.58511 0.80150
#
# Static dielectric constant tensor:
#      x y z
#    x 2.552450 -0.085440 -0.128220 
#    y -0.085440 1.855680 0.003090 
#    z -0.128220 0.003090 1.853770 
# 
# From -- ./inp_files/42399.got.cif
#   From: 2010.05.17/outbox.cif.g08.bks.cpg/sg2_22_cif.got.tgz:42399.got - 2010.06.03 11:33:40.
