data_PCOD9096298
_publ_section_title
;
Structure prediction by ZEFSAII (Michael W. Deem and Ramdas Pophale) SiO2 
 PCOD9096298
Probable space group: P -1
;
_chemical_formula_sum "Si O2"
_cell_formula_units_Z 14
_cell_length_a 14.146763
_cell_length_b 7.999686
_cell_length_c 10.496712
_cell_angle_alpha 135.272861
_cell_angle_beta 124.697673
_cell_angle_gamma 56.703978
_cell_volume 665.515622
_symmetry_space_group_name_H-M "P -1"
_symmetry_group_IT_number 2
_symmetry_cell_setting 'triclinic'
loop_
_space_group_symop_operation_xyz
x,y,z
-x,-y,-z
loop_
_atom_site_type_symbol
_atom_site_label
_atom_site_fract_x
_atom_site_fract_y
_atom_site_fract_z
Si Si1 0.587904 0.277380 0.221176
Si Si2 0.374161 0.199708 0.162404
Si Si3 0.122261 0.242786 0.311530
Si Si4 0.385284 0.198695 0.474377
Si Si5 0.116731 0.443017 0.142631
Si Si6 0.830960 0.073839 0.423181
Si Si7 0.986263 0.197963 0.405757
O O1 0.462761 0.327128 0.224483
O O2 0.615123 0.528265 0.331959
O O3 0.692207 0.139076 0.323173
O O4 0.589853 0.083156 0.005890
O O5 0.386553 0.220337 0.333968
O O6 0.236483 0.317685 0.090946
O O7 0.262117 0.134837 0.382774
O O8 0.104381 0.276035 0.165008
O O9 0.036633 0.120844 0.262777
O O10 0.087782 0.521011 0.491297
O O11 0.500000 0.000000 0.500000
O O12 0.141513 0.690922 0.356662
O O13 0.000000 0.500000 0.000000
O O14 0.900804 0.054436 0.331811
O O15 0.896791 0.846700 0.437744
#
# Coordination Sequence:
#
# PCOD9096298 Si02
#       7
#     2   2   2   2   2   2   2
#     4  11  22  42  63  92 122 165 216 254 311 364
#     4  10  24  40  64  91 126 159 213 267 291 379
#     4   9  19  37  54  91 122 156 202 250 313 367
#     4  11  23  40  65  87 127 169 199 262 313 373
#     4  10  21  37  59  90 124 160 201 256 311 368
#     4  10  20  35  65  89 115 169 203 258 314 365
#     4   9  18  33  58  90 114 151 212 244 306 375
#
# _framework density 21.03632
#
# number of rings (size 3 to 8) (size 9 to 14) (size 15 to 20)
#    0.000    2.000    4.286    0.429    8.000    0.571 
#    0.000    0.714    3.143    0.000    0.000    0.000 
#    0.000    0.000    0.000    0.000    0.000    0.000 
#
# Total GULP energy -78160.318998 kJ/mol
# GULP energy per Si atom -5582.879928 kJ/mol
# Density = 2.098844 g / cm^3
# Si number density = 21.036320 Si / 1000 Ang^3
#
#
#
# Elastic Constant Matrix: (Units=GPa)
#
#
# Indices 1 2 3 4 5 6 
#
# 1 138.8683 27.9518 17.7712 -17.0572 -6.3967 -27.6589
# 2 27.9518 93.3819 -0.0797 -18.8249 8.9176 -31.0715
# 3 17.7712 -0.0797 48.0563 3.2113 14.7610 -0.9694
# 4 -17.0572 -18.8249 3.2113 27.5881 -7.8542 5.6192
# 5 -6.3967 8.9176 14.7610 -7.8542 14.1473 -3.2748
# 6 -27.6589 -31.0715 -0.9694 5.6192 -3.2748 29.2314
#
#
#
# Elastic Compliance Matrix: (Units=1/GPa)
#
#
# Indices 1 2 3 4 5 6 
#
# 1 0.020758 0.000947 -0.026875 0.028797 0.057603 0.020674
# 2 0.000947 0.018680 0.000161 0.008841 -0.002253 0.018806
# 3 -0.026875 0.000161 0.071878 -0.054756 -0.123715 -0.026208
# 4 0.028797 0.008841 -0.054756 0.095797 0.124798 0.030396
# 5 0.057603 -0.002253 -0.123715 0.124798 0.310118 0.058758
# 6 0.020674 0.018806 -0.026208 0.030396 0.058758 0.073632
#
#
# Mechanical properties :
#
#
# Convention : Reuss Voigt Hill
#
# Bulk Modulus (GPa) = 16.72717 41.28813 29.00765
# Shear Modulus (GPa) = 7.54918 29.83759 18.69339
#
# Velocity S-wave (km/s) = 1.89643 3.77023 2.98421
# Velocity P-wave (km/s) = 3.57268 6.21470 5.06886
#
# Compressibility (1/GPa) = 0.05978298
#
# Stress axis : x y z
#
# Youngs Moduli (GPa) = 48.17425 53.53275 13.91241
#
# Poissons Ratio (x) = -0.05070 0.37390
# Poissons Ratio (y) = -0.04563 -0.00225
# Poissons Ratio (z) = 1.29469 -0.00864
#
# Static dielectric constant tensor:
#      x y z
#    x 1.786700 0.018570 0.004430 
#    y 0.018570 1.784640 0.031710 
#    z 0.004430 0.031710 1.780000 
# 
# From -- ./inp_files/352859.got.cif
#   From: 2010.05.17/outbox.cif.g08.bks.cpg/sg2_177_cif.got.tgz:352859.got - 2010.06.03 11:33:40.
