data_PCOD9096954
_publ_section_title
;
Structure prediction by ZEFSAII (Michael W. Deem and Ramdas Pophale) SiO2 
 PCOD9096954
Probable space group: P -1
;
_chemical_formula_sum "Si O2"
_cell_formula_units_Z 16
_cell_length_a 9.176579
_cell_length_b 18.265199
_cell_length_c 9.541191
_cell_angle_alpha 114.237587
_cell_angle_beta 46.448644
_cell_angle_gamma 131.388381
_cell_volume 866.582113
_symmetry_space_group_name_H-M "P -1"
_symmetry_group_IT_number 2
_symmetry_cell_setting 'triclinic'
loop_
_space_group_symop_operation_xyz
x,y,z
-x,-y,-z
loop_
_atom_site_type_symbol
_atom_site_label
_atom_site_fract_x
_atom_site_fract_y
_atom_site_fract_z
Si Si1 0.820047 0.740022 0.080720
Si Si2 0.332669 0.742232 0.971193
Si Si3 0.672837 0.096624 0.052453
Si Si4 0.570996 0.625918 0.675839
Si Si5 0.253949 0.401744 0.758548
Si Si6 0.967794 0.236430 0.331341
Si Si7 0.512785 0.815751 0.225503
Si Si8 0.283195 0.969619 0.725285
O O1 0.689448 0.643856 0.185326
O O2 0.636122 0.762382 0.154881
O O3 0.029461 0.833994 0.107483
O O4 0.967431 0.731129 0.848107
O O5 0.460059 0.689089 0.801705
O O6 0.394419 0.828241 0.889731
O O7 0.414553 0.785150 0.107985
O O8 0.040302 0.661637 0.102780
O O9 0.647869 0.058192 0.196579
O O10 0.500000 0.000000 0.000000
O O11 0.378451 0.516997 0.776932
O O12 0.645468 0.615657 0.463233
O O13 0.813039 0.683168 0.655368
O O14 0.714416 0.212775 0.543734
O O15 0.945383 0.133346 0.263781
O O16 0.712137 0.933708 0.188248
O O17 0.500000 0.000000 0.500000
#
# Coordination Sequence:
#
# PCOD9096954 Si02
#       8
#     2   2   2   2   2   2   2   2
#     4  10  23  38  60  89 117 156 194 247 293 347
#     4  11  21  38  65  86 119 160 196 239 298 356
#     4  10  20  36  58  90 120 155 194 241 287 345
#     4  11  22  40  65  86 113 160 202 240 305 352
#     4  10  24  42  60  87 122 147 199 261 293 344
#     4  10  21  38  59  88 118 154 200 238 289 352
#     4  11  20  38  62  86 122 158 193 237 295 352
#     4   9  20  34  57  85 121 153 190 234 290 342
#
# _framework density 18.463339999999999
#
# number of rings (size 3 to 8) (size 9 to 14) (size 15 to 20)
#    0.000    1.750    3.750    0.375    0.000    7.500 
#    0.000    0.625    0.000   10.500    0.000    0.000 
#    0.000    0.000    0.000    0.000    0.000    0.000 
#
# Total GULP energy -89191.887721 kJ/mol
# GULP energy per Si atom -5574.492983 kJ/mol
# Density = 1.842132 g / cm^3
# Si number density = 18.463340 Si / 1000 Ang^3
#
#
#
# Elastic Constant Matrix: (Units=GPa)
#
#
# Indices 1 2 3 4 5 6 
#
# 1 70.1544 27.9505 13.0298 -0.4589 4.3932 -13.2507
# 2 27.9505 110.1937 27.3673 -6.8913 7.7253 -8.3456
# 3 13.0298 27.3673 56.6625 -0.8446 -0.8379 -6.0570
# 4 -0.4589 -6.8913 -0.8446 27.6057 -3.1810 3.0102
# 5 4.3932 7.7253 -0.8379 -3.1810 27.1963 -3.1422
# 6 -13.2507 -8.3456 -6.0570 3.0102 -3.1422 25.4888
#
#
#
# Elastic Compliance Matrix: (Units=1/GPa)
#
#
# Indices 1 2 3 4 5 6 
#
# 1 0.017426 -0.003474 -0.001559 -0.001590 -0.001185 0.007593
# 2 -0.003474 0.011471 -0.004718 0.002343 -0.002541 0.000238
# 3 -0.001559 -0.004718 0.020626 -0.000604 0.002495 0.002925
# 4 -0.001590 0.002343 -0.000604 0.037626 0.003486 -0.004217
# 5 -0.001185 -0.002541 0.002495 0.003486 0.038571 0.003488
# 6 0.007593 0.000238 0.002925 -0.004217 0.003488 0.044881
#
#
# Mechanical properties :
#
#
# Convention : Reuss Voigt Hill
#
# Bulk Modulus (GPa) = 33.31106 41.52287 37.41696
# Shear Modulus (GPa) = 24.98623 27.30236 26.14430
#
# Velocity S-wave (km/s) = 3.68270 3.84960 3.76707
# Velocity P-wave (km/s) = 6.01364 6.50365 6.26344
#
# Compressibility (1/GPa) = 0.03002006
#
# Stress axis : x y z
#
# Youngs Moduli (GPa) = 57.38593 87.17846 48.48171
#
# Poissons Ratio (x) = 0.30288 0.07557
# Poissons Ratio (y) = 0.19937 0.22876
# Poissons Ratio (z) = 0.08945 0.41135
#
# Static dielectric constant tensor:
#      x y z
#    x 1.630800 0.013050 0.010710 
#    y 0.013050 1.657370 0.001650 
#    z 0.010710 0.001650 1.636700 
# 
# From -- ./inp_files/202722.got.cif
#   From: 2010.05.17/outbox.cif.g08.bks.cpg/sg2_102_cif.got.tgz:202722.got - 2010.06.03 11:33:40.
