data_PCOD9096198
_publ_section_title
;
Structure prediction by ZEFSAII (Michael W. Deem and Ramdas Pophale) SiO2 
 PCOD9096198
Probable space group: P -1
;
_chemical_formula_sum "Si O2"
_cell_formula_units_Z 15
_cell_length_a 8.723164
_cell_length_b 15.906270
_cell_length_c 10.252943
_cell_angle_alpha 32.327310
_cell_angle_beta 121.577930
_cell_angle_gamma 125.248471
_cell_volume 619.164774
_symmetry_space_group_name_H-M "P -1"
_symmetry_group_IT_number 2
_symmetry_cell_setting 'triclinic'
loop_
_space_group_symop_operation_xyz
x,y,z
-x,-y,-z
loop_
_atom_site_type_symbol
_atom_site_label
_atom_site_fract_x
_atom_site_fract_y
_atom_site_fract_z
Si Si1 0.431350 0.789601 0.319459
Si Si2 0.626470 0.054352 0.275433
Si Si3 0.267654 0.438526 0.843844
Si Si4 0.000000 0.000000 0.500000
Si Si5 0.911693 0.343276 0.381948
Si Si6 0.167585 0.180694 0.596125
Si Si7 0.055105 0.825259 0.105600
Si Si8 0.521409 0.220674 0.228401
O O1 0.360413 0.611301 0.587490
O O2 0.613196 0.790803 0.316288
O O3 0.248521 0.815028 0.136974
O O4 0.501228 0.936283 0.264767
O O5 0.536497 0.187138 0.125170
O O6 0.617007 0.933632 0.555540
O O7 0.846624 0.105880 0.277015
O O8 0.131729 0.487707 0.823520
O O9 0.128353 0.296975 0.880174
O O10 0.439315 0.366654 0.043402
O O11 0.876450 0.867586 0.510745
O O12 0.925878 0.245657 0.649917
O O13 0.728235 0.248321 0.342782
O O14 0.094858 0.334027 0.398927
O O15 0.056005 0.012981 0.843346
#
# Coordination Sequence:
#
# PCOD9096198 Si02
#       8
#     2   2   2   1   2   2   2   2
#     4  10  22  42  62  94 130 165 211 264 320 383
#     4  10  20  35  63  89 130 154 217 258 313 366
#     4  11  24  40  64  92 133 172 211 258 319 376
#     4  10  20  38  56  94 124 162 188 270 314 372
#     4  11  22  41  64  98 127 164 219 263 310 382
#     4  11  23  41  68  93 130 165 213 266 320 369
#     4  11  23  43  66  93 124 176 215 261 313 376
#     4  11  21  38  63  96 124 168 212 267 310 369
#
# _framework density 24.226184
#
# number of rings (size 3 to 8) (size 9 to 14) (size 15 to 20)
#    0.000    1.333    4.000    3.600    1.867    1.067 
#    0.000    7.333    0.000    0.000    0.000    0.000 
#    0.000    0.000    0.000    0.000    0.000    0.000 
#
# Total GULP energy -83530.794634 kJ/mol
# GULP energy per Si atom -5568.719642 kJ/mol
# Density = 2.417104 g / cm^3
# Si number density = 24.226184 Si / 1000 Ang^3
#
#
#
# Elastic Constant Matrix: (Units=GPa)
#
#
# Indices 1 2 3 4 5 6 
#
# 1 96.9581 28.8377 25.0077 -3.9340 39.3906 -17.0609
# 2 28.8377 57.5118 3.6535 4.0463 0.4791 10.9738
# 3 25.0077 3.6535 44.1487 -8.5525 21.3540 -7.9856
# 4 -3.9340 4.0463 -8.5525 35.7209 0.1203 12.2459
# 5 39.3906 0.4791 21.3540 0.1203 39.1998 -11.6110
# 6 -17.0609 10.9738 -7.9856 12.2459 -11.6110 26.1135
#
#
#
# Elastic Compliance Matrix: (Units=1/GPa)
#
#
# Indices 1 2 3 4 5 6 
#
# 1 0.026584 -0.015791 -0.000584 -0.000192 -0.022017 0.014126
# 2 -0.015791 0.028807 -0.002010 0.000809 0.011139 -0.018463
# 3 -0.000584 -0.002010 0.033253 0.008670 -0.017949 -0.001415
# 4 -0.000192 0.000809 0.008670 0.036752 -0.010492 -0.019714
# 5 -0.022017 0.011139 -0.017949 -0.010492 0.059303 0.006734
# 6 0.014126 -0.018463 -0.001415 -0.019714 0.006734 0.067088
#
#
# Mechanical properties :
#
#
# Convention : Reuss Voigt Hill
#
# Bulk Modulus (GPa) = 19.27782 34.84627 27.06205
# Shear Modulus (GPa) = 16.34804 29.61483 22.98143
#
# Velocity S-wave (km/s) = 2.60053 3.50012 3.08331
# Velocity P-wave (km/s) = 4.12210 5.54521 4.88575
#
# Compressibility (1/GPa) = 0.05187308
#
# Stress axis : x y z
#
# Youngs Moduli (GPa) = 37.61731 34.71429 30.07232
#
# Poissons Ratio (x) = 0.54817 0.01756
# Poissons Ratio (y) = 0.59401 0.06045
# Poissons Ratio (z) = 0.02197 0.06978
#
# Static dielectric constant tensor:
#      x y z
#    x 2.104390 -0.063380 -0.031520 
#    y -0.063380 1.906440 -0.005750 
#    z -0.031520 -0.005750 1.939270 
# 
# From -- ./inp_files/397171.got.cif
#   From: 2010.05.17/outbox.cif.g08.bks.cpg/sg2_199_cif.got.tgz:397171.got - 2010.06.03 11:33:40.
