data_PCOD9096592
_publ_section_title
;
Structure prediction by ZEFSAII (Michael W. Deem and Ramdas Pophale) SiO2 
 PCOD9096592
Probable space group: P -1
;
_chemical_formula_sum "Si O2"
_cell_formula_units_Z 15
_cell_length_a 9.034756
_cell_length_b 14.499831
_cell_length_c 20.504424
_cell_angle_alpha 20.833139
_cell_angle_beta 46.341545
_cell_angle_gamma 46.407429
_cell_volume 680.817656
_symmetry_space_group_name_H-M "P -1"
_symmetry_group_IT_number 2
_symmetry_cell_setting 'triclinic'
loop_
_space_group_symop_operation_xyz
x,y,z
-x,-y,-z
loop_
_atom_site_type_symbol
_atom_site_label
_atom_site_fract_x
_atom_site_fract_y
_atom_site_fract_z
Si Si1 0.621268 0.462063 0.920868
Si Si2 0.464754 0.074119 0.706459
Si Si3 0.786559 0.949975 0.570373
Si Si4 0.559742 0.369444 0.270008
Si Si5 0.882381 0.539899 0.611172
Si Si6 0.755080 0.340326 0.644182
Si Si7 0.000000 0.000000 0.000000
Si Si8 0.488159 0.966990 0.914379
O O1 0.791510 0.647474 0.748982
O O2 0.462429 0.573926 0.837546
O O3 0.500000 0.500000 0.000000
O O4 0.688698 0.147308 0.099287
O O5 0.347761 0.367442 0.540417
O O6 0.565721 0.035420 0.772684
O O7 0.617602 0.015184 0.637345
O O8 0.723604 0.142095 0.401490
O O9 0.000000 0.000000 0.500000
O O10 0.336450 0.303736 0.402235
O O11 0.568334 0.657205 0.107154
O O12 0.837027 0.381941 0.663897
O O13 0.043107 0.727201 0.418470
O O14 0.967554 0.315561 0.785090
O O15 0.591299 0.147201 0.813124
O O16 0.761619 0.989665 0.046023
#
# Coordination Sequence:
#
# PCOD9096592 Si02
#       8
#     2   2   2   2   2   2   1   2
#     4   9  21  42  67  82 116 162 204 262 315 356
#     4  10  20  41  61  87 123 163 204 245 309 366
#     4  11  23  43  62  91 116 158 215 272 308 354
#     4  10  21  42  61  91 124 157 208 256 313 365
#     4  10  22  37  60  93 125 164 205 244 299 380
#     4  11  21  40  60  91 133 168 200 238 306 374
#     4  10  20  36  56  88 128 156 204 236 292 360
#     4  10  22  39  61  92 130 166 198 246 302 380
#
# _framework density 22.032330999999999
#
# number of rings (size 3 to 8) (size 9 to 14) (size 15 to 20)
#    0.000    1.867    2.667    0.800    0.000    3.200 
#    9.600    6.000    0.000    0.000    0.000    0.000 
#    0.000    0.000    0.000    0.000    0.000    0.000 
#
# Total GULP energy -83507.980622 kJ/mol
# GULP energy per Si atom -5567.198708 kJ/mol
# Density = 2.198218 g / cm^3
# Si number density = 22.032331 Si / 1000 Ang^3
#
#
#
# Elastic Constant Matrix: (Units=GPa)
#
#
# Indices 1 2 3 4 5 6 
#
# 1 94.2085 24.5238 63.6081 1.9480 -32.8798 -3.4226
# 2 24.5238 30.5525 18.7519 7.6998 -1.5781 7.7542
# 3 63.6081 18.7519 129.1882 -6.1160 -18.1779 -4.5482
# 4 1.9480 7.6998 -6.1160 29.3806 10.5621 2.0696
# 5 -32.8798 -1.5781 -18.1779 10.5621 32.9009 -0.0186
# 6 -3.4226 7.7542 -4.5482 2.0696 -0.0186 19.8924
#
#
#
# Elastic Compliance Matrix: (Units=1/GPa)
#
#
# Indices 1 2 3 4 5 6 
#
# 1 0.033747 -0.020178 -0.009383 -0.010979 0.031105 0.012698
# 2 -0.020178 0.057358 -0.001907 -0.006378 -0.016434 -0.025618
# 3 -0.009383 -0.001907 0.012324 0.005137 -0.004308 0.001408
# 4 -0.010979 -0.006378 0.005137 0.046071 -0.023232 -0.003043
# 5 0.031105 -0.016434 -0.004308 -0.023232 0.065777 0.013252
# 6 0.012698 -0.025618 0.001408 -0.003043 0.013252 0.063092
#
#
# Mechanical properties :
#
#
# Convention : Reuss Voigt Hill
#
# Bulk Modulus (GPa) = 24.69578 51.96853 38.33216
# Shear Modulus (GPa) = 14.09235 26.23914 20.16574
#
# Velocity S-wave (km/s) = 2.53182 3.45474 3.02864
# Velocity P-wave (km/s) = 4.44747 6.28906 5.44666
#
# Compressibility (1/GPa) = 0.04049275
#
# Stress axis : x y z
#
# Youngs Moduli (GPa) = 29.63224 17.43440 81.14287
#
# Poissons Ratio (x) = 0.35179 0.76136
# Poissons Ratio (y) = 0.59793 0.15473
# Poissons Ratio (z) = 0.27804 0.03325
#
# Static dielectric constant tensor:
#      x y z
#    x 1.816800 0.044650 0.019670 
#    y 0.044650 1.985430 0.074970 
#    z 0.019670 0.074970 1.865220 
# 
# From -- ./inp_files/258623.got.cif
#   From: 2010.05.17/outbox.cif.g08.bks.cpg/sg2_130_cif.got.tgz:258623.got - 2010.06.03 11:33:40.
