data_PCOD9096699
_publ_section_title
;
Structure prediction by ZEFSAII (Michael W. Deem and Ramdas Pophale) SiO2 
 PCOD9096699
Probable space group: P -1
;
_chemical_formula_sum "Si O2"
_cell_formula_units_Z 16
_cell_length_a 22.608118
_cell_length_b 6.802169
_cell_length_c 18.409914
_cell_angle_alpha 57.803102
_cell_angle_beta 157.801544
_cell_angle_gamma 109.637268
_cell_volume 788.076215
_symmetry_space_group_name_H-M "P -1"
_symmetry_group_IT_number 2
_symmetry_cell_setting 'triclinic'
loop_
_space_group_symop_operation_xyz
x,y,z
-x,-y,-z
loop_
_atom_site_type_symbol
_atom_site_label
_atom_site_fract_x
_atom_site_fract_y
_atom_site_fract_z
Si Si1 0.803219 0.532799 0.791304
Si Si2 0.192264 0.491907 0.809668
Si Si3 0.013295 0.047126 0.919678
Si Si4 0.502463 0.942304 0.261216
Si Si5 0.099645 0.641089 0.516614
Si Si6 0.120002 0.493294 0.960552
Si Si7 0.767778 0.205839 0.081306
Si Si8 0.203490 0.936645 0.464437
O O1 0.648659 0.730351 0.523688
O O2 0.764213 0.625377 0.811494
O O3 0.000000 0.500000 0.000000
O O4 0.829117 0.237580 0.872637
O O5 0.212759 0.500177 0.744485
O O6 0.996154 0.519646 0.591401
O O7 0.214178 0.715837 0.832117
O O8 0.338826 0.199984 0.061729
O O9 0.052841 0.287541 0.903378
O O10 0.844819 0.096522 0.667371
O O11 0.000000 0.000000 0.000000
O O12 0.411032 0.808396 0.136060
O O13 0.613316 0.057268 0.322296
O O14 0.196220 0.715663 0.549725
O O15 0.934782 0.920798 0.304305
O O16 0.217915 0.573832 0.995509
O O17 0.952014 0.774233 0.741160
#
# Coordination Sequence:
#
# PCOD9096699 Si02
#       8
#     2   2   2   2   2   2   2   2
#     4  11  20  38  55  82 119 152 187 229 282 335
#     4  10  21  39  60  85 113 148 190 234 291 338
#     4  11  18  31  58  83 110 147 192 227 273 334
#     4  11  22  37  55  84 121 147 182 242 289 330
#     4   9  20  40  64  81 109 153 192 234 281 344
#     4  10  20  36  58  83 108 154 195 227 271 343
#     4  10  22  38  58  84 117 147 189 233 285 338
#     4  10  20  36  57  86 115 146 191 237 281 333
#
# _framework density 20.302606000000001
#
# number of rings (size 3 to 8) (size 9 to 14) (size 15 to 20)
#    0.000    1.750    3.750    1.125    0.000    5.000 
#    0.000    1.875    0.000    0.000    0.000    0.000 
#    0.000    0.000    0.000    0.000    0.000    0.000 
#
# Total GULP energy -89288.340251 kJ/mol
# GULP energy per Si atom -5580.521266 kJ/mol
# Density = 2.025640 g / cm^3
# Si number density = 20.302606 Si / 1000 Ang^3
#
#
#
# Elastic Constant Matrix: (Units=GPa)
#
#
# Indices 1 2 3 4 5 6 
#
# 1 70.2469 25.2794 26.5234 22.4486 -4.5159 20.6803
# 2 25.2794 119.9570 36.0740 32.7634 -1.6491 11.5031
# 3 26.5234 36.0740 94.9178 22.8767 -10.3103 2.3044
# 4 22.4486 32.7634 22.8767 31.8172 6.4961 -0.9695
# 5 -4.5159 -1.6491 -10.3103 6.4961 13.7745 -1.9255
# 6 20.6803 11.5031 2.3044 -0.9695 -1.9255 32.4274
#
#
#
# Elastic Compliance Matrix: (Units=1/GPa)
#
#
# Indices 1 2 3 4 5 6 
#
# 1 0.029766 0.004270 0.000411 -0.030865 0.022321 -0.020125
# 2 0.004270 0.013675 -0.000407 -0.019225 0.010753 -0.007482
# 3 0.000411 -0.000407 0.016575 -0.015868 0.019894 -0.000589
# 4 -0.030865 -0.019225 -0.015868 0.098952 -0.067246 0.026597
# 5 0.022321 0.010753 0.019894 -0.067246 0.125850 -0.014001
# 6 -0.020125 -0.007482 -0.000589 0.026597 -0.014001 0.046332
#
#
# Mechanical properties :
#
#
# Convention : Reuss Voigt Hill
#
# Bulk Modulus (GPa) = 14.58473 51.20838 32.89656
# Shear Modulus (GPa) = 14.47357 28.75347 21.61352
#
# Velocity S-wave (km/s) = 2.67290 3.76739 3.26631
# Velocity P-wave (km/s) = 4.08964 6.64843 5.51936
#
# Compressibility (1/GPa) = 0.06856485
#
# Stress axis : x y z
#
# Youngs Moduli (GPa) = 33.59487 73.12578 60.33233
#
# Poissons Ratio (x) = -0.31225 -0.02482
# Poissons Ratio (y) = -0.14345 0.02457
# Poissons Ratio (z) = -0.01382 0.02978
#
# Static dielectric constant tensor:
#      x y z
#    x 1.752970 0.006220 -0.020030 
#    y 0.006220 1.735330 0.002640 
#    z -0.020030 0.002640 1.739070 
# 
# From -- ./inp_files/349696.got.cif
#   From: 2010.05.17/outbox.cif.g08.bks.cpg/sg2_175_cif.got.tgz:349696.got - 2010.06.03 11:33:40.
