data_PCOD9096858
_publ_section_title
;
Structure prediction by ZEFSAII (Michael W. Deem and Ramdas Pophale) SiO2 
 PCOD9096858
Probable space group: P -1
;
_chemical_formula_sum "Si O2"
_cell_formula_units_Z 16
_cell_length_a 7.999532
_cell_length_b 12.749515
_cell_length_c 16.462322
_cell_angle_alpha 155.147609
_cell_angle_beta 105.749015
_cell_angle_gamma 76.853804
_cell_volume 678.423044
_symmetry_space_group_name_H-M "P -1"
_symmetry_group_IT_number 2
_symmetry_cell_setting 'triclinic'
loop_
_space_group_symop_operation_xyz
x,y,z
-x,-y,-z
loop_
_atom_site_type_symbol
_atom_site_label
_atom_site_fract_x
_atom_site_fract_y
_atom_site_fract_z
Si Si1 0.701485 0.101079 0.866436
Si Si2 0.942624 0.105364 0.196136
Si Si3 0.652353 0.651313 0.247400
Si Si4 0.909580 0.263409 0.777129
Si Si5 0.348181 0.093477 0.100520
Si Si6 0.816320 0.466119 0.561444
Si Si7 0.430603 0.023611 0.393955
Si Si8 0.055974 0.752640 0.408490
O O1 0.601384 0.912784 0.658927
O O2 0.662983 0.066736 0.931573
O O3 0.629125 0.366497 0.018538
O O4 0.908275 0.056274 0.856222
O O5 0.822052 0.234441 0.337610
O O6 0.049735 0.326651 0.317007
O O7 0.824957 0.952081 0.008872
O O8 0.587466 0.848630 0.312420
O O9 0.855009 0.674597 0.311254
O O10 0.560244 0.736951 0.378246
O O11 0.743411 0.141132 0.716551
O O12 0.855321 0.312318 0.710768
O O13 0.046982 0.046757 0.633130
O O14 0.000000 0.500000 0.000000
O O15 0.352235 0.378150 0.332561
O O16 0.500000 0.000000 0.000000
O O17 0.879074 0.376829 0.594141
#
# Coordination Sequence:
#
# PCOD9096858 Si02
#       8
#     2   2   2   2   2   2   2   2
#     4  11  21  38  63  87 117 159 203 242 287 350
#     4  10  21  39  65  90 113 155 204 246 290 344
#     4  10  20  37  59  86 121 154 199 245 283 346
#     4  10  21  35  54  82 118 152 193 239 285 343
#     4  11  25  41  59  91 124 151 190 246 307 356
#     4  10  21  40  65  88 116 155 205 245 283 352
#     4  10  22  38  59  87 117 159 199 239 294 343
#     4  10  20  36  58  85 116 155 193 238 291 338
#
# _framework density 23.584105999999998
#
# number of rings (size 3 to 8) (size 9 to 14) (size 15 to 20)
#    0.000    1.750    0.000    5.625    0.000    4.500 
#    0.000    6.250    0.000    0.000    0.000    0.000 
#    0.000    0.000    0.000    0.000    0.000    0.000 
#
# Total GULP energy -89431.856182 kJ/mol
# GULP energy per Si atom -5589.491011 kJ/mol
# Density = 2.353043 g / cm^3
# Si number density = 23.584106 Si / 1000 Ang^3
#
#
#
# Elastic Constant Matrix: (Units=GPa)
#
#
# Indices 1 2 3 4 5 6 
#
# 1 66.4725 4.0003 32.5085 -7.2127 -29.6782 -1.2244
# 2 4.0003 85.1006 32.5556 -21.9486 -21.0684 -8.5323
# 3 32.5085 32.5556 130.1344 -19.4103 -26.9616 0.2782
# 4 -7.2127 -21.9486 -19.4103 36.7100 -0.2042 -2.3379
# 5 -29.6782 -21.0684 -26.9616 -0.2042 37.1801 -4.2662
# 6 -1.2244 -8.5323 0.2782 -2.3379 -4.2662 21.1329
#
#
#
# Elastic Compliance Matrix: (Units=1/GPa)
#
#
# Indices 1 2 3 4 5 6 
#
# 1 0.031627 0.012398 -0.002306 0.013537 0.032383 0.014903
# 2 0.012398 0.023966 -0.001493 0.017211 0.024469 0.017258
# 3 -0.002306 -0.001493 0.010251 0.004138 0.004835 0.000562
# 4 0.013537 0.017211 0.004138 0.043651 0.025832 0.017723
# 5 0.032383 0.024469 0.004835 0.025832 0.073634 0.029415
# 6 0.014903 0.017258 0.000562 0.017723 0.029415 0.063042
#
#
# Mechanical properties :
#
#
# Convention : Reuss Voigt Hill
#
# Bulk Modulus (GPa) = 12.04183 46.64847 29.34515
# Shear Modulus (GPa) = 19.48147 33.18081 26.33114
#
# Velocity S-wave (km/s) = 2.87721 3.75495 3.34500
# Velocity P-wave (km/s) = 4.01930 6.21467 5.23340
#
# Compressibility (1/GPa) = 0.08304385
#
# Stress axis : x y z
#
# Youngs Moduli (GPa) = 31.61852 41.72520 97.54723
#
# Poissons Ratio (x) = -0.51732 0.22492
# Poissons Ratio (y) = -0.39201 0.14563
# Poissons Ratio (z) = 0.07291 0.06229
#
# Static dielectric constant tensor:
#      x y z
#    x 1.945260 0.035080 0.001040 
#    y 0.035080 1.891390 0.020820 
#    z 0.001040 0.020820 1.923300 
# 
# From -- ./inp_files/501262.got.cif
#   From: 2010.05.17/outbox.cif.g08.bks.cpg/sg2_251_cif.got.tgz:501262.got - 2010.06.03 11:33:40.
