data_PCOD9096283
_publ_section_title
;
Structure prediction by ZEFSAII (Michael W. Deem and Ramdas Pophale) SiO2 
 PCOD9096283
Probable space group: P -1
;
_chemical_formula_sum "Si O2"
_cell_formula_units_Z 16
_cell_length_a 18.619085
_cell_length_b 7.617284
_cell_length_c 11.165692
_cell_angle_alpha 75.064499
_cell_angle_beta 149.414446
_cell_angle_gamma 121.761007
_cell_volume 611.238821
_symmetry_space_group_name_H-M "P -1"
_symmetry_group_IT_number 2
_symmetry_cell_setting 'triclinic'
loop_
_space_group_symop_operation_xyz
x,y,z
-x,-y,-z
loop_
_atom_site_type_symbol
_atom_site_label
_atom_site_fract_x
_atom_site_fract_y
_atom_site_fract_z
Si Si1 0.190879 0.960412 0.770771
Si Si2 0.688642 0.726322 0.505770
Si Si3 0.250831 0.908477 0.282433
Si Si4 0.143347 0.880909 0.460935
Si Si5 0.886450 0.378986 0.078808
Si Si6 0.434986 0.640694 0.437615
Si Si7 0.363867 0.470799 0.909600
Si Si8 0.399292 0.829719 0.735468
O O1 0.084710 0.824669 0.522027
O O2 0.112696 0.783933 0.797551
O O3 0.217659 0.199075 0.776590
O O4 0.394509 0.053268 0.016685
O O5 0.675418 0.517372 0.578910
O O6 0.487055 0.591554 0.184604
O O7 0.758268 0.920811 0.675290
O O8 0.833855 0.890922 0.583782
O O9 0.325610 0.820622 0.499059
O O10 0.391125 0.094802 0.349684
O O11 0.101972 0.700451 0.021966
O O12 0.345071 0.965447 0.709893
O O13 0.025682 0.652218 0.253805
O O14 0.699928 0.342517 0.833482
O O15 0.500000 0.500000 0.500000
O O16 0.500000 0.500000 0.000000
O O17 0.308842 0.605375 0.731996
#
# Coordination Sequence:
#
# PCOD9096283 Si02
#       8
#     2   2   2   2   2   2   2   2
#     4  11  22  41  66  92 120 167 216 254 305 372
#     4  10  21  38  61  92 126 157 211 259 307 360
#     4  10  22  38  64  92 122 164 210 251 308 372
#     4  11  24  40  61  95 128 166 204 255 320 366
#     4  12  25  40  62  92 134 165 200 257 317 378
#     4  10  22  39  63  92 119 164 211 255 304 370
#     4  10  20  35  64  97 114 156 217 267 297 350
#     4  10  21  38  67  92 118 163 214 258 301 366
#
# _framework density 26.176347
#
# number of rings (size 3 to 8) (size 9 to 14) (size 15 to 20)
#    0.000    1.500    3.750    1.875    5.250    2.500 
#    0.000    3.125    0.000    0.000    0.000    0.000 
#    0.000    0.000    0.000    0.000    0.000    0.000 
#
# Total GULP energy -89262.027751 kJ/mol
# GULP energy per Si atom -5578.876734 kJ/mol
# Density = 2.611677 g / cm^3
# Si number density = 26.176347 Si / 1000 Ang^3
#
#
#
# Elastic Constant Matrix: (Units=GPa)
#
#
# Indices 1 2 3 4 5 6 
#
# 1 75.7030 27.8027 21.8834 -3.7232 -18.2551 -2.8992
# 2 27.8027 168.9327 44.8099 4.4449 -25.9415 34.0921
# 3 21.8834 44.8099 75.7433 20.4722 -32.5116 11.9810
# 4 -3.7232 4.4449 20.4722 40.6837 3.8568 -3.9351
# 5 -18.2551 -25.9415 -32.5116 3.8568 46.8851 -6.4555
# 6 -2.8992 34.0921 11.9810 -3.9351 -6.4555 48.4281
#
#
#
# Elastic Compliance Matrix: (Units=1/GPa)
#
#
# Indices 1 2 3 4 5 6 
#
# 1 0.016112 -0.002130 -0.003980 0.003862 0.002583 0.004107
# 2 -0.002130 0.008242 -0.002996 -0.000170 0.000969 -0.005073
# 3 -0.003980 -0.002996 0.028834 -0.016625 0.017567 -0.004272
# 4 0.003862 -0.000170 -0.016625 0.035025 -0.012218 0.005681
# 5 0.002583 0.000969 0.017567 -0.012218 0.035908 -0.001079
# 6 0.004107 -0.005073 -0.004272 0.005681 -0.001079 0.025841
#
#
# Mechanical properties :
#
#
# Convention : Reuss Voigt Hill
#
# Bulk Modulus (GPa) = 28.59073 56.59677 42.59375
# Shear Modulus (GPa) = 27.80354 42.25824 35.03089
#
# Velocity S-wave (km/s) = 3.26262 4.02228 3.66220
# Velocity P-wave (km/s) = 5.01388 6.57571 5.84717
#
# Compressibility (1/GPa) = 0.03497637
#
# Stress axis : x y z
#
# Youngs Moduli (GPa) = 62.06468 121.33254 34.68099
#
# Poissons Ratio (x) = 0.25841 0.13802
# Poissons Ratio (y) = 0.13218 0.10392
# Poissons Ratio (z) = 0.24701 0.36355
#
# Static dielectric constant tensor:
#      x y z
#    x 2.102580 0.012900 0.023700 
#    y 0.012900 2.111190 -0.099940 
#    z 0.023700 -0.099940 2.200740 
# 
# From -- ./inp_files/474195.got.cif
#   From: 2010.05.17/outbox.cif.g08.bks.cpg/sg2_238_cif.got.tgz:474195.got - 2010.06.03 11:33:40.
