data_PCOD9096213
_publ_section_title
;
Structure prediction by ZEFSAII (Michael W. Deem and Ramdas Pophale) SiO2 
 PCOD9096213
Probable space group: P -1
;
_chemical_formula_sum "Si O2"
_cell_formula_units_Z 16
_cell_length_a 8.035483
_cell_length_b 16.511312
_cell_length_c 9.168251
_cell_angle_alpha 56.051518
_cell_angle_beta 70.241642
_cell_angle_gamma 111.299913
_cell_volume 671.512729
_symmetry_space_group_name_H-M "P -1"
_symmetry_group_IT_number 2
_symmetry_cell_setting 'triclinic'
loop_
_space_group_symop_operation_xyz
x,y,z
-x,-y,-z
loop_
_atom_site_type_symbol
_atom_site_label
_atom_site_fract_x
_atom_site_fract_y
_atom_site_fract_z
Si Si1 0.901857 0.528228 0.369206
Si Si2 0.710987 0.339290 0.341397
Si Si3 0.937460 0.196341 0.989531
Si Si4 0.845211 0.826997 0.327140
Si Si5 0.337951 0.073396 0.038284
Si Si6 0.419231 0.916588 0.334809
Si Si7 0.489499 0.380610 0.128325
Si Si8 0.576911 0.682962 0.122348
O O1 0.859622 0.445487 0.322602
O O2 0.067960 0.688316 0.127762
O O3 0.627995 0.455180 0.582642
O O4 0.000000 0.500000 0.500000
O O5 0.416078 0.229383 0.587151
O O6 0.699846 0.407733 0.136874
O O7 0.745860 0.237819 0.399685
O O8 0.048809 0.205349 0.790928
O O9 0.143793 0.244972 0.997656
O O10 0.668176 0.037820 0.234020
O O11 0.762718 0.742416 0.585269
O O12 0.062872 0.986283 0.142924
O O13 0.310445 0.980186 0.264983
O O14 0.445196 0.213983 0.926204
O O15 0.503630 0.092955 0.839938
O O16 0.500000 0.500000 0.000000
O O17 0.485601 0.345279 0.000046
#
# Coordination Sequence:
#
# PCOD9096213 Si02
#       8
#     2   2   2   2   2   2   2   2
#     4  12  24  37  61  94 121 148 200 251 304 351
#     4  10  21  41  60  86 119 160 194 246 295 358
#     4  11  21  36  64  91 117 155 200 252 294 352
#     4   9  20  37  62  84 118 153 205 235 305 340
#     4  10  20  35  63  93 117 158 195 251 300 350
#     4  10  20  38  61  90 128 152 194 246 310 349
#     4  10  22  40  61  83 121 160 201 244 296 349
#     4  12  21  38  64  88 118 154 210 245 288 351
#
# _framework density 23.826801
#
# number of rings (size 3 to 8) (size 9 to 14) (size 15 to 20)
#    0.750    0.750    2.500    3.375    3.500    2.500 
#    0.000    1.250    2.750    0.000    0.000    0.000 
#    0.000    0.000    0.000    0.000    0.000    0.000 
#
# Total GULP energy -89434.120779 kJ/mol
# GULP energy per Si atom -5589.632549 kJ/mol
# Density = 2.377257 g / cm^3
# Si number density = 23.826801 Si / 1000 Ang^3
#
#
#
# Elastic Constant Matrix: (Units=GPa)
#
#
# Indices 1 2 3 4 5 6 
#
# 1 95.2344 36.4886 13.6997 0.0541 34.3027 17.4681
# 2 36.4886 143.0641 48.4146 -15.4023 24.4726 23.9289
# 3 13.6997 48.4146 79.5184 0.7429 28.6065 -2.4423
# 4 0.0541 -15.4023 0.7429 30.9758 -8.9997 16.2547
# 5 34.3027 24.4726 28.6065 -8.9997 39.6659 -3.6350
# 6 17.4681 23.9289 -2.4423 16.2547 -3.6350 28.7975
#
#
#
# Elastic Compliance Matrix: (Units=1/GPa)
#
#
# Indices 1 2 3 4 5 6 
#
# 1 0.020696 0.000260 0.003493 0.002448 -0.021541 -0.016574
# 2 0.000260 0.020439 -0.014063 0.028806 0.000680 -0.034507
# 3 0.003493 -0.014063 0.028054 -0.025600 -0.018177 0.024101
# 4 0.002448 0.028806 -0.025600 0.091555 0.012222 -0.077727
# 5 -0.021541 0.000680 -0.018177 0.012222 0.060372 0.011681
# 6 -0.016574 -0.034507 0.024101 -0.077727 0.011681 0.120844
#
#
# Mechanical properties :
#
#
# Convention : Reuss Voigt Hill
#
# Bulk Modulus (GPa) = 20.58863 57.22475 38.90669
# Shear Modulus (GPa) = 13.20065 34.50210 23.85138
#
# Velocity S-wave (km/s) = 2.35633 3.80944 3.16734
# Velocity P-wave (km/s) = 4.00784 6.58925 5.45348
#
# Compressibility (1/GPa) = 0.04857049
#
# Stress axis : x y z
#
# Youngs Moduli (GPa) = 48.31906 48.92563 35.64510
#
# Poissons Ratio (x) = -0.01271 -0.12453
# Poissons Ratio (y) = -0.01256 0.50127
# Poissons Ratio (z) = -0.16880 0.68803
#
# Static dielectric constant tensor:
#      x y z
#    x 1.996870 0.014060 -0.079120 
#    y 0.014060 1.851400 -0.025340 
#    z -0.079120 -0.025340 2.268150 
# 
# From -- ./inp_files/205903.got.cif
#   From: 2010.05.17/outbox.cif.g08.bks.cpg/sg2_103_cif.got.tgz:205903.got - 2010.06.03 11:33:40.
