data_PCOD9096352
_publ_section_title
;
Structure prediction by ZEFSAII (Michael W. Deem and Ramdas Pophale) SiO2 
 PCOD9096352
Probable space group: P -1
;
_chemical_formula_sum "Si O2"
_cell_formula_units_Z 15
_cell_length_a 16.364293
_cell_length_b 11.921286
_cell_length_c 7.529004
_cell_angle_alpha 72.388358
_cell_angle_beta 58.649211
_cell_angle_gamma 124.279423
_cell_volume 555.847243
_symmetry_space_group_name_H-M "P -1"
_symmetry_group_IT_number 2
_symmetry_cell_setting 'triclinic'
loop_
_space_group_symop_operation_xyz
x,y,z
-x,-y,-z
loop_
_atom_site_type_symbol
_atom_site_label
_atom_site_fract_x
_atom_site_fract_y
_atom_site_fract_z
Si Si1 0.107532 0.815271 0.521046
Si Si2 0.473650 0.278318 0.375948
Si Si3 0.264794 0.853417 0.664318
Si Si4 0.903001 0.998174 0.001521
Si Si5 0.771869 0.802508 0.872440
Si Si6 0.321432 0.646229 0.620372
Si Si7 0.145990 0.485361 0.511710
Si Si8 0.000000 0.500000 0.500000
O O1 0.174669 0.798052 0.606057
O O2 0.072954 0.701374 0.439848
O O3 0.247109 0.083299 0.221307
O O4 0.890519 0.632552 0.921050
O O5 0.252210 0.091696 0.668146
O O6 0.508124 0.255798 0.541588
O O7 0.463087 0.150580 0.331273
O O8 0.626909 0.553116 0.057752
O O9 0.319782 0.777785 0.629150
O O10 0.073118 0.671508 0.112270
O O11 0.758474 0.794184 0.105259
O O12 0.000000 0.000000 0.000000
O O13 0.076152 0.282350 0.617037
O O14 0.000000 0.000000 0.500000
O O15 0.281357 0.610178 0.472452
O O16 0.219948 0.669939 0.216418
#
# Coordination Sequence:
#
# PCOD9096352 Si02
#       8
#     2   2   2   2   2   2   2   1
#     4  11  22  39  69  97 136 174 225 273 332 399
#     4  11  25  41  69  95 136 179 227 275 338 400
#     4  10  21  39  62  98 131 176 220 272 327 404
#     4  11  25  45  66  95 129 179 227 276 338 407
#     4  12  25  43  67  98 135 178 223 279 335 397
#     4  11  19  41  67  98 130 177 224 273 333 401
#     4  10  20  35  68  93 128 172 223 270 331 395
#     4  12  18  38  66 102 128 176 226 268 338 384
#
# _framework density 26.98583
#
# number of rings (size 3 to 8) (size 9 to 14) (size 15 to 20)
#    0.000    1.067    5.333    2.400    3.733    0.533 
#    0.000    0.000    2.933    4.800    0.000    0.000 
#    0.000    0.000    0.000    0.000    0.000    0.000 
#
# Total GULP energy -83735.785589 kJ/mol
# GULP energy per Si atom -5582.385706 kJ/mol
# Density = 2.692441 g / cm^3
# Si number density = 26.985830 Si / 1000 Ang^3
#
#
#
# Elastic Constant Matrix: (Units=GPa)
#
#
# Indices 1 2 3 4 5 6 
#
# 1 203.5024 26.8564 19.9590 3.8138 20.3922 -16.9938
# 2 26.8564 113.1983 11.7226 -16.0299 16.4579 -2.1127
# 3 19.9590 11.7226 50.4773 -16.4989 4.2675 -13.4905
# 4 3.8138 -16.0299 -16.4989 45.6664 -14.2031 10.4452
# 5 20.3922 16.4579 4.2675 -14.2031 34.2171 -3.5432
# 6 -16.9938 -2.1127 -13.4905 10.4452 -3.5432 51.3416
#
#
#
# Elastic Compliance Matrix: (Units=1/GPa)
#
#
# Indices 1 2 3 4 5 6 
#
# 1 0.005877 -0.001015 -0.002391 -0.003314 -0.003918 0.001679
# 2 -0.001015 0.009972 -0.001105 0.002419 -0.003145 -0.000925
# 3 -0.002391 -0.001105 0.024705 0.008710 0.002914 0.004084
# 4 -0.003314 0.002419 0.008710 0.030890 0.012117 -0.004157
# 5 -0.003918 -0.003145 0.002914 0.012117 0.037684 -0.000525
# 6 0.001679 -0.000925 0.004084 -0.004157 -0.000525 0.021878
#
#
# Mechanical properties :
#
#
# Convention : Reuss Voigt Hill
#
# Bulk Modulus (GPa) = 31.71458 53.80599 42.76029
# Shear Modulus (GPa) = 33.21385 46.82103 40.01744
#
# Velocity S-wave (km/s) = 3.51207 4.16988 3.85503
# Velocity P-wave (km/s) = 5.31262 6.57007 5.97452
#
# Compressibility (1/GPa) = 0.03153124
#
# Stress axis : x y z
#
# Youngs Moduli (GPa) = 170.14484 100.28159 40.47769
#
# Poissons Ratio (x) = 0.10179 0.09680
# Poissons Ratio (y) = 0.17271 0.04473
# Poissons Ratio (z) = 0.40688 0.11082
#
# Static dielectric constant tensor:
#      x y z
#    x -0.950240 -0.274600 -2.098540 
#    y -0.274600 2.567590 0.204130 
#    z -2.098540 0.204130 1.072950 
# 
# From -- ./inp_files/259524.got.cif
#   From: 2010.05.17/outbox.cif.g08.bks.cpg/sg2_130_cif.got.tgz:259524.got - 2010.06.03 11:33:40.
