data_PCOD9096765
_publ_section_title
;
Structure prediction by ZEFSAII (Michael W. Deem and Ramdas Pophale) SiO2 
 PCOD9096765
Probable space group: P -1
;
_chemical_formula_sum "Si O2"
_cell_formula_units_Z 16
_cell_length_a 15.504190
_cell_length_b 9.404960
_cell_length_c 8.351973
_cell_angle_alpha 120.447028
_cell_angle_beta 85.227623
_cell_angle_gamma 123.821346
_cell_volume 837.945625
_symmetry_space_group_name_H-M "P -1"
_symmetry_group_IT_number 2
_symmetry_cell_setting 'triclinic'
loop_
_space_group_symop_operation_xyz
x,y,z
-x,-y,-z
loop_
_atom_site_type_symbol
_atom_site_label
_atom_site_fract_x
_atom_site_fract_y
_atom_site_fract_z
Si Si1 0.268098 0.366275 0.881586
Si Si2 0.258423 0.799837 0.508339
Si Si3 0.948717 0.609832 0.634012
Si Si4 0.822062 0.038741 0.128002
Si Si5 0.280205 0.220981 0.304279
Si Si6 0.384765 0.228035 0.584461
Si Si7 0.889956 0.792994 0.463381
Si Si8 0.377874 0.629016 0.317944
O O1 0.356027 0.358869 0.764991
O O2 0.184643 0.347299 0.755342
O O3 0.204718 0.154404 0.873177
O O4 0.326339 0.552366 0.104825
O O5 0.155841 0.566152 0.351145
O O6 0.225285 0.858390 0.709067
O O7 0.356902 0.784224 0.484604
O O8 0.291753 0.985683 0.492800
O O9 0.915689 0.682823 0.528243
O O10 0.000000 0.500000 0.500000
O O11 0.048503 0.806937 0.822627
O O12 0.762515 0.952402 0.920544
O O13 0.377626 0.264365 0.420420
O O14 0.183622 0.158051 0.403752
O O15 0.316925 0.426929 0.323877
O O16 0.497878 0.282432 0.651930
O O17 0.000000 0.000000 0.500000
#
# Coordination Sequence:
#
# PCOD9096765 Si02
#       8
#     2   2   2   2   2   2   2   2
#     4   9  20  35  60  87 112 145 191 236 275 335
#     4  10  21  38  57  81 116 153 186 231 279 339
#     4  10  20  36  58  79 116 151 177 220 295 332
#     4   9  19  38  58  81 117 152 181 226 292 336
#     4  10  22  37  59  88 112 145 193 236 274 335
#     4  10  21  39  58  81 118 151 188 235 283 325
#     4  11  20  36  60  87 114 143 187 234 277 334
#     4  11  20  38  61  85 109 152 194 235 279 327
#
# _framework density 19.094318000000001
#
# number of rings (size 3 to 8) (size 9 to 14) (size 15 to 20)
#    0.000    2.000    2.500    1.125    1.750    1.500 
#    4.500    1.250    0.000    0.000    0.000    0.000 
#    0.000    0.000    0.000    0.000    0.000    0.000 
#
# Total GULP energy -89197.287789 kJ/mol
# GULP energy per Si atom -5574.830487 kJ/mol
# Density = 1.905086 g / cm^3
# Si number density = 19.094318 Si / 1000 Ang^3
#
#
#
# Elastic Constant Matrix: (Units=GPa)
#
#
# Indices 1 2 3 4 5 6 
#
# 1 88.6947 19.4076 31.9822 0.8201 8.7499 -4.3239
# 2 19.4076 48.1507 30.6922 -0.5495 2.0512 2.5419
# 3 31.9822 30.6922 99.1570 -9.1832 17.4108 -9.7184
# 4 0.8201 -0.5495 -9.1832 16.2270 -3.3675 -0.4507
# 5 8.7499 2.0512 17.4108 -3.3675 20.8756 0.8553
# 6 -4.3239 2.5419 -9.7184 -0.4507 0.8553 27.0769
#
#
#
# Elastic Compliance Matrix: (Units=1/GPa)
#
#
# Indices 1 2 3 4 5 6 
#
# 1 0.013521 -0.003685 -0.002715 -0.003047 -0.003598 0.001594
# 2 -0.003685 0.028562 -0.009817 -0.003208 0.006697 -0.007058
# 3 -0.002715 -0.009817 0.017423 0.007475 -0.011519 0.007230
# 4 -0.003047 -0.003208 0.007475 0.067255 0.006067 0.003425
# 5 -0.003598 0.006697 -0.011519 0.006067 0.059630 -0.007120
# 6 0.001594 -0.007058 0.007230 0.003425 -0.007120 0.040726
#
#
# Mechanical properties :
#
#
# Convention : Reuss Voigt Hill
#
# Bulk Modulus (GPa) = 36.93883 44.46294 40.70088
# Shear Modulus (GPa) = 18.61688 23.09726 20.85707
#
# Velocity S-wave (km/s) = 3.12588 3.48176 3.30861
# Velocity P-wave (km/s) = 5.69347 6.28491 5.99649
#
# Compressibility (1/GPa) = 0.02707179
#
# Stress axis : x y z
#
# Youngs Moduli (GPa) = 73.96131 35.01197 57.39625
#
# Poissons Ratio (x) = 0.12902 0.15581
# Poissons Ratio (y) = 0.27254 0.56346
# Poissons Ratio (z) = 0.20078 0.34372
#
# Static dielectric constant tensor:
#      x y z
#    x 1.685270 0.025480 0.015340 
#    y 0.025480 1.685840 0.015460 
#    z 0.015340 0.015460 1.662870 
# 
# From -- ./inp_files/180598.got.cif
#   From: 2010.05.17/outbox.cif.g08.bks.cpg/sg2_91_cif.got.tgz:180598.got - 2010.06.03 11:33:40.
