data_PCOD9096155
_publ_section_title
;
Structure prediction by ZEFSAII (Michael W. Deem and Ramdas Pophale) SiO2 
 PCOD9096155
Probable space group: P -1
;
_chemical_formula_sum "Si O2"
_cell_formula_units_Z 16
_cell_length_a 15.747933
_cell_length_b 12.413483
_cell_length_c 22.087623
_cell_angle_alpha 28.010847
_cell_angle_beta 27.155431
_cell_angle_gamma 27.706231
_cell_volume 819.070258
_symmetry_space_group_name_H-M "P -1"
_symmetry_group_IT_number 2
_symmetry_cell_setting 'triclinic'
loop_
_space_group_symop_operation_xyz
x,y,z
-x,-y,-z
loop_
_atom_site_type_symbol
_atom_site_label
_atom_site_fract_x
_atom_site_fract_y
_atom_site_fract_z
Si Si1 0.484009 0.110714 0.059049
Si Si2 0.911128 0.150153 0.336889
Si Si3 0.796811 0.340258 0.763099
Si Si4 0.766540 0.705970 0.993954
Si Si5 0.819954 0.211845 0.237454
Si Si6 0.398682 0.308205 0.405050
Si Si7 0.006518 0.415571 0.394549
Si Si8 0.045113 0.231163 0.333527
O O1 0.290806 0.130532 0.211853
O O2 0.631200 0.825927 0.080461
O O3 0.626458 0.234689 0.933575
O O4 0.375723 0.255268 0.993808
O O5 0.912999 0.313042 0.313730
O O6 0.753588 0.251236 0.330659
O O7 0.919916 0.883587 0.485250
O O8 0.117191 0.123314 0.182780
O O9 0.710039 0.548377 0.659750
O O10 0.848292 0.475054 0.720333
O O11 0.017261 0.087480 0.730499
O O12 0.913560 0.401574 0.062136
O O13 0.605247 0.331683 0.277344
O O14 0.221083 0.431884 0.506915
O O15 0.500000 0.000000 0.500000
O O16 0.993411 0.428659 0.323712
O O17 0.000000 0.000000 0.500000
#
# Coordination Sequence:
#
# PCOD9096155 Si02
#       8
#     2   2   2   2   2   2   2   2
#     4  10  20  37  62  94 125 163 211 256 308 368
#     4  10  20  39  61  92 124 159 206 255 304 365
#     4  12  23  40  64  97 126 159 209 263 316 366
#     4  10  20  35  62  95 127 155 202 266 313 357
#     4  12  22  35  63 101 124 156 201 264 324 360
#     4  12  23  38  63  97 127 161 205 257 319 370
#     4  11  22  41  62  87 132 168 204 252 313 369
#     4   9  22  39  64  87 124 176 206 248 309 372
#
# _framework density 19.534344999999998
#
# number of rings (size 3 to 8) (size 9 to 14) (size 15 to 20)
#    0.000    1.250    5.000    1.500    5.250    0.500 
#    0.000    0.625    2.750    6.750    0.000    0.000 
#    0.000    0.000    0.000    0.000    0.000    0.000 
#
# Total GULP energy -89080.381415 kJ/mol
# GULP energy per Si atom -5567.523838 kJ/mol
# Density = 1.948988 g / cm^3
# Si number density = 19.534345 Si / 1000 Ang^3
#
#
#
# Elastic Constant Matrix: (Units=GPa)
#
#
# Indices 1 2 3 4 5 6 
#
# 1 104.8949 44.3396 23.9615 -15.3787 -20.8111 27.2215
# 2 44.3396 61.0610 28.9133 -9.3733 4.1642 1.5144
# 3 23.9615 28.9133 86.1740 0.1110 -16.8683 10.0329
# 4 -15.3787 -9.3733 0.1110 23.9678 -5.7918 5.9787
# 5 -20.8111 4.1642 -16.8683 -5.7918 31.1565 2.2121
# 6 27.2215 1.5144 10.0329 5.9787 2.2121 30.6598
#
#
#
# Elastic Compliance Matrix: (Units=1/GPa)
#
#
# Indices 1 2 3 4 5 6 
#
# 1 0.277353 -0.227324 0.106740 0.258295 0.345962 -0.345279
# 2 -0.227324 0.208316 -0.096249 -0.204853 -0.290033 0.283910
# 3 0.106740 -0.096249 0.058543 0.100162 0.144354 -0.139120
# 4 0.258295 -0.204853 0.100162 0.289948 0.331641 -0.332455
# 5 0.345962 -0.290033 0.144354 0.331641 0.472912 -0.438867
# 6 -0.345279 0.283910 -0.139120 -0.332455 -0.438867 0.467168
#
#
# Mechanical properties :
#
#
# Convention : Reuss Voigt Hill
#
# Bulk Modulus (GPa) = 9.04600 49.61764 29.33182
# Shear Modulus (GPa) = 2.22741 27.48452 14.85597
#
# Velocity S-wave (km/s) = 1.06899 3.75505 2.76072
# Velocity P-wave (km/s) = 2.48284 6.65251 5.02098
#
# Compressibility (1/GPa) = 0.11054608
#
# Stress axis : x y z
#
# Youngs Moduli (GPa) = 3.60551 4.80039 17.08137
#
# Poissons Ratio (x) = 1.09124 -1.82326
# Poissons Ratio (y) = 0.81962 1.64407
# Poissons Ratio (z) = -0.38485 0.46203
#
# Static dielectric constant tensor:
#      x y z
#    x 1.811000 0.031530 -0.102590 
#    y 0.031530 1.662610 -0.040920 
#    z -0.102590 -0.040920 1.783800 
# 
# From -- ./inp_files/472786.got.cif
#   From: 2010.05.17/outbox.cif.g08.bks.cpg/sg2_237_cif.got.tgz:472786.got - 2010.06.03 11:33:40.
