data_PCOD9096189
_publ_section_title
;
Structure prediction by ZEFSAII (Michael W. Deem and Ramdas Pophale) SiO2 
 PCOD9096189
Probable space group: P -1
;
_chemical_formula_sum "Si O2"
_cell_formula_units_Z 12
_cell_length_a 24.359753
_cell_length_b 7.661639
_cell_length_c 9.586725
_cell_angle_alpha 118.110818
_cell_angle_beta 146.646067
_cell_angle_gamma 39.112097
_cell_volume 533.756879
_symmetry_space_group_name_H-M "P -1"
_symmetry_group_IT_number 2
_symmetry_cell_setting 'triclinic'
loop_
_space_group_symop_operation_xyz
x,y,z
-x,-y,-z
loop_
_atom_site_type_symbol
_atom_site_label
_atom_site_fract_x
_atom_site_fract_y
_atom_site_fract_z
Si Si1 0.167000 0.912900 0.698000
Si Si2 0.765860 0.406913 0.787442
Si Si3 0.351768 0.074974 0.722262
Si Si4 0.510524 0.428912 0.832229
Si Si5 0.089682 0.709819 0.235448
Si Si6 0.803538 0.515841 0.202763
O O1 0.144908 0.828970 0.473102
O O2 0.205800 0.677713 0.803261
O O3 0.310203 0.842518 0.952948
O O4 0.993802 0.271429 0.507115
O O5 0.597476 0.588999 0.441248
O O6 0.855038 0.380313 0.840651
O O7 0.745262 0.564136 0.942208
O O8 0.895272 0.027045 0.953257
O O9 0.192870 0.388075 0.417103
O O10 0.295319 0.172505 0.800214
O O11 0.420223 0.761207 0.699601
O O12 0.500000 0.000000 0.000000
O O13 0.500000 0.500000 0.000000
#
# Coordination Sequence:
#
# PCOD9096189 Si02
#       6
#     2   2   2   2   2   2
#     4   9  17  36  60  81 116 153 194 220 295 352
#     4  10  20  35  63  88 117 146 197 241 284 337
#     4  11  20  39  62  83 116 158 196 229 288 354
#     4  12  22  37  62  88 116 153 196 240 289 338
#     4   9  18  37  60  83 116 161 189 222 295 356
#     4   9  19  36  62  85 109 156 195 233 281 351
#
# _framework density 22.482147000000001
#
# number of rings (size 3 to 8) (size 9 to 14) (size 15 to 20)
#    0.000    2.000    5.000    1.000    0.000    1.333 
#    0.000    4.167    0.000    0.000    0.000    0.000 
#    0.000    0.000    0.000    0.000    0.000    0.000 
#
# Total GULP energy -67057.553063 kJ/mol
# GULP energy per Si atom -5588.129422 kJ/mol
# Density = 2.243098 g / cm^3
# Si number density = 22.482147 Si / 1000 Ang^3
#
#
#
# Elastic Constant Matrix: (Units=GPa)
#
#
# Indices 1 2 3 4 5 6 
#
# 1 77.6066 27.2082 40.5754 -2.6896 1.0362 -32.3004
# 2 27.2082 54.1090 14.7077 -9.2008 2.8928 -24.1063
# 3 40.5754 14.7077 108.2067 -7.1647 6.6809 -17.8150
# 4 -2.6896 -9.2008 -7.1647 22.7981 -11.9809 -4.4843
# 5 1.0362 2.8928 6.6809 -11.9809 44.7874 -1.6100
# 6 -32.3004 -24.1063 -17.8150 -4.4843 -1.6100 36.2652
#
#
#
# Elastic Compliance Matrix: (Units=1/GPa)
#
#
# Indices 1 2 3 4 5 6 
#
# 1 0.024271 -0.001625 -0.005622 0.005401 0.002494 0.018554
# 2 -0.001625 0.032632 0.001115 0.020022 0.003962 0.023443
# 3 -0.005622 0.001115 0.011791 0.003507 -0.000693 0.001929
# 4 0.005401 0.020022 0.003507 0.068576 0.017449 0.029096
# 5 0.002494 0.003962 -0.000693 0.017449 0.027068 0.007874
# 6 0.018554 0.023443 0.001929 0.029096 0.007874 0.064578
#
#
# Mechanical properties :
#
#
# Convention : Reuss Voigt Hill
#
# Bulk Modulus (GPa) = 17.72139 44.98943 31.35541
# Shear Modulus (GPa) = 19.23147 31.26552 25.24850
#
# Velocity S-wave (km/s) = 2.92791 3.73323 3.35482
# Velocity P-wave (km/s) = 4.39656 6.21589 5.38364
#
# Compressibility (1/GPa) = 0.05642898
#
# Stress axis : x y z
#
# Youngs Moduli (GPa) = 41.20202 30.64444 84.81255
#
# Poissons Ratio (x) = 0.04980 0.47680
# Poissons Ratio (y) = 0.06696 -0.09454
# Poissons Ratio (z) = 0.23163 -0.03416
#
# Static dielectric constant tensor:
#      x y z
#    x 1.857120 0.053600 -0.035380 
#    y 0.053600 1.844880 -0.055360 
#    z -0.035380 -0.055360 1.855160 
# 
# From -- ./inp_files/144378.got.cif
#   From: 2010.05.17/outbox.cif.g08.bks.cpg/sg2_73_cif.got.tgz:144378.got - 2010.06.03 11:33:40.
