data_PCOD9096494
_publ_section_title
;
Structure prediction by ZEFSAII (Michael W. Deem and Ramdas Pophale) SiO2 
 PCOD9096494
Probable space group: P -1
;
_chemical_formula_sum "Si O2"
_cell_formula_units_Z 16
_cell_length_a 22.030436
_cell_length_b 17.725209
_cell_length_c 8.142392
_cell_angle_alpha 37.548113
_cell_angle_beta 130.898271
_cell_angle_gamma 156.489788
_cell_volume 737.992521
_symmetry_space_group_name_H-M "P -1"
_symmetry_group_IT_number 2
_symmetry_cell_setting 'triclinic'
loop_
_space_group_symop_operation_xyz
x,y,z
-x,-y,-z
loop_
_atom_site_type_symbol
_atom_site_label
_atom_site_fract_x
_atom_site_fract_y
_atom_site_fract_z
Si Si1 0.952732 0.077947 0.754183
Si Si2 0.132662 0.849215 0.243308
Si Si3 0.172826 0.737204 0.807356
Si Si4 0.791459 0.782561 0.658611
Si Si5 0.748314 0.435603 0.741519
Si Si6 0.511969 0.704786 0.558978
Si Si7 0.537160 0.626683 0.104487
Si Si8 0.932401 0.732308 0.889698
O O1 0.876499 0.046557 0.825348
O O2 0.113657 0.360493 0.500183
O O3 0.836740 0.917885 0.668796
O O4 0.000000 0.000000 0.000000
O O5 0.135651 0.734122 0.562284
O O6 0.982996 0.671697 0.167150
O O7 0.300299 0.094110 0.029263
O O8 0.304220 0.009351 0.638712
O O9 0.265770 0.730729 0.986156
O O10 0.000000 0.500000 0.000000
O O11 0.604097 0.540234 0.729576
O O12 0.846287 0.713155 0.891093
O O13 0.900941 0.982974 0.362963
O O14 0.602557 0.331472 0.620483
O O15 0.824472 0.577389 0.805612
O O16 0.458781 0.513104 0.693576
O O17 0.499365 0.647247 0.828263
#
# Coordination Sequence:
#
# PCOD9096494 Si02
#       8
#     2   2   2   2   2   2   2   2
#     4  11  18  32  64  88 116 156 200 253 300 349
#     4  11  22  40  61  95 125 156 208 252 306 366
#     4  11  23  41  65  91 116 163 213 256 296 354
#     4  10  20  36  55  90 127 159 201 240 310 372
#     4  11  23  40  61  86 126 166 202 250 301 363
#     4  10  22  39  63  97 120 153 208 261 306 354
#     4  10  21  36  64  95 125 151 198 267 310 347
#     4  10  24  37  57  92 129 167 195 239 315 379
#
# _framework density 21.680439
#
# number of rings (size 3 to 8) (size 9 to 14) (size 15 to 20)
#    0.000    1.500    2.500    4.125    5.250    1.000 
#    0.000    0.000    0.000    3.750    0.000    0.000 
#    0.000    0.000    0.000    0.000    0.000    0.000 
#
# Total GULP energy -89383.919090 kJ/mol
# GULP energy per Si atom -5586.494943 kJ/mol
# Density = 2.163109 g / cm^3
# Si number density = 21.680439 Si / 1000 Ang^3
#
#
#
# Elastic Constant Matrix: (Units=GPa)
#
#
# Indices 1 2 3 4 5 6 
#
# 1 62.1193 22.9180 19.0607 -2.3460 10.8080 15.4181
# 2 22.9180 106.8723 44.0172 6.9697 3.4698 22.5043
# 3 19.0607 44.0172 95.1973 8.8772 30.5441 12.3278
# 4 -2.3460 6.9697 8.8772 47.8671 15.2897 2.9171
# 5 10.8080 3.4698 30.5441 15.2897 31.8716 5.8275
# 6 15.4181 22.5043 12.3278 2.9171 5.8275 25.7930
#
#
#
# Elastic Compliance Matrix: (Units=1/GPa)
#
#
# Indices 1 2 3 4 5 6 
#
# 1 0.020677 -0.002674 0.000209 0.004248 -0.007322 -0.008953
# 2 -0.002674 0.015363 -0.008448 -0.003682 0.010891 -0.009812
# 3 0.000209 -0.008448 0.020534 0.004065 -0.021098 0.001739
# 4 0.004248 -0.003682 0.004065 0.026523 -0.017607 -0.000292
# 5 -0.007322 0.010891 -0.021098 -0.017607 0.062657 -0.007207
# 6 -0.008953 -0.009812 0.001739 -0.000292 -0.007207 0.053513
#
#
# Mechanical properties :
#
#
# Convention : Reuss Voigt Hill
#
# Bulk Modulus (GPa) = 28.78004 48.46454 38.62229
# Shear Modulus (GPa) = 21.48910 32.98585 27.23748
#
# Velocity S-wave (km/s) = 3.15171 3.90482 3.54830
# Velocity P-wave (km/s) = 5.15246 6.53703 5.88560
#
# Compressibility (1/GPa) = 0.03474630
#
# Stress axis : x y z
#
# Youngs Moduli (GPa) = 48.36281 65.09285 48.69946
#
# Poissons Ratio (x) = 0.17408 -0.01018
# Poissons Ratio (y) = 0.12934 0.41144
# Poissons Ratio (z) = -0.01011 0.54993
#
# Static dielectric constant tensor:
#      x y z
#    x 1.776030 0.001650 0.024900 
#    y 0.001650 1.843230 0.022740 
#    z 0.024900 0.022740 1.848430 
# 
# From -- ./inp_files/238245.got.cif
#   From: 2010.05.17/outbox.cif.g08.bks.cpg/sg2_120_cif.got.tgz:238245.got - 2010.06.03 11:33:40.
