data_PCOD9096796
_publ_section_title
;
Structure prediction by ZEFSAII (Michael W. Deem and Ramdas Pophale) SiO2 
 PCOD9096796
Probable space group: P -1
;
_chemical_formula_sum "Si O2"
_cell_formula_units_Z 16
_cell_length_a 17.444207
_cell_length_b 11.709549
_cell_length_c 10.937561
_cell_angle_alpha 73.261443
_cell_angle_beta 140.033464
_cell_angle_gamma 135.151984
_cell_volume 835.916041
_symmetry_space_group_name_H-M "P -1"
_symmetry_group_IT_number 2
_symmetry_cell_setting 'triclinic'
loop_
_space_group_symop_operation_xyz
x,y,z
-x,-y,-z
loop_
_atom_site_type_symbol
_atom_site_label
_atom_site_fract_x
_atom_site_fract_y
_atom_site_fract_z
Si Si1 0.002227 0.590499 0.257020
Si Si2 0.649434 0.378947 0.041792
Si Si3 0.950720 0.320471 0.981247
Si Si4 0.805691 0.700851 0.292966
Si Si5 0.793410 0.492581 0.548965
Si Si6 0.644290 0.141513 0.245563
Si Si7 0.597707 0.957446 0.823433
Si Si8 0.256978 0.090758 0.762296
O O1 0.062362 0.500222 0.327563
O O2 0.143712 0.742438 0.496244
O O3 0.778596 0.431914 0.072932
O O4 0.043126 0.695395 0.150820
O O5 0.723078 0.566271 0.116506
O O6 0.692355 0.318459 0.221747
O O7 0.414086 0.193606 0.814762
O O8 0.114255 0.391271 0.246057
O O9 0.000000 0.500000 0.000000
O O10 0.744417 0.121720 0.850897
O O11 0.780049 0.591074 0.409418
O O12 0.709658 0.751589 0.189556
O O13 0.037875 0.907237 0.502768
O O14 0.579572 0.264160 0.375348
O O15 0.516088 0.029479 0.245695
O O16 0.500000 0.000000 0.000000
O O17 0.708801 0.974096 0.063499
#
# Coordination Sequence:
#
# PCOD9096796 Si02
#       8
#     2   2   2   2   2   2   2   2
#     4  10  22  36  52  84 118 157 178 228 277 348
#     4  11  22  35  56  82 124 142 184 229 301 339
#     4  10  22  36  56  77 116 157 196 227 269 333
#     4  11  20  37  60  88 113 143 193 235 299 332
#     4  10  20  36  58  82 115 149 186 237 277 336
#     4  10  22  32  56  84 118 154 176 232 288 345
#     4  10  20  37  55  85 111 147 198 229 280 333
#     4  10  22  35  60  91 108 146 188 245 286 344
#
# _framework density 19.140678000000001
#
# number of rings (size 3 to 8) (size 9 to 14) (size 15 to 20)
#    0.000    1.750    5.000    0.750    7.000    4.500 
#    0.000    0.000    0.000    1.500    0.000    0.000 
#    0.000    0.000    0.000    0.000    0.000    0.000 
#
# Total GULP energy -89146.349672 kJ/mol
# GULP energy per Si atom -5571.646854 kJ/mol
# Density = 1.909711 g / cm^3
# Si number density = 19.140678 Si / 1000 Ang^3
#
#
#
# Elastic Constant Matrix: (Units=GPa)
#
#
# Indices 1 2 3 4 5 6 
#
# 1 47.9634 29.2171 20.6781 9.6337 14.5402 20.0200
# 2 29.2171 77.1139 7.5835 17.3394 13.8904 16.0761
# 3 20.6781 7.5835 59.2796 18.7450 6.8342 12.1974
# 4 9.6337 17.3394 18.7450 31.5790 2.7543 6.2258
# 5 14.5402 13.8904 6.8342 2.7543 31.6311 9.0168
# 6 20.0200 16.0761 12.1974 6.2258 9.0168 36.3483
#
#
#
# Elastic Compliance Matrix: (Units=1/GPa)
#
#
# Indices 1 2 3 4 5 6 
#
# 1 0.037801 -0.010144 -0.009410 0.002607 -0.007783 -0.011692
# 2 -0.010144 0.019652 0.005031 -0.009937 -0.003559 -0.002208
# 3 -0.009410 0.005031 0.024568 -0.013853 -0.001243 -0.002606
# 4 0.002607 -0.009937 -0.013853 0.044458 0.002463 -0.000618
# 5 -0.007783 -0.003559 -0.001243 0.002463 0.037814 -0.003524
# 6 -0.011692 -0.002208 -0.002606 -0.000618 -0.003524 0.036782
#
#
# Mechanical properties :
#
#
# Convention : Reuss Voigt Hill
#
# Bulk Modulus (GPa) = 18.87616 33.25714 26.06665
# Shear Modulus (GPa) = 20.17936 28.37022 24.27479
#
# Velocity S-wave (km/s) = 3.25047 3.85411 3.56509
# Velocity P-wave (km/s) = 4.89598 6.10068 5.53123
#
# Compressibility (1/GPa) = 0.05297689
#
# Stress axis : x y z
#
# Youngs Moduli (GPa) = 26.45437 50.88510 40.70356
#
# Poissons Ratio (x) = 0.51616 0.38300
# Poissons Ratio (y) = 0.26834 -0.20479
# Poissons Ratio (z) = 0.24892 -0.25601
#
# Static dielectric constant tensor:
#      x y z
#    x 1.738750 -0.022910 -0.016540 
#    y -0.022910 1.682840 0.038350 
#    z -0.016540 0.038350 1.732290 
# 
# From -- ./inp_files/432997.got.cif
#   From: 2010.05.17/outbox.cif.g08.bks.cpg/sg2_217_cif.got.tgz:432997.got - 2010.06.03 11:33:40.
