data_PCOD9096179
_publ_section_title
;
Structure prediction by ZEFSAII (Michael W. Deem and Ramdas Pophale) SiO2 
 PCOD9096179
Probable space group: P -1
;
_chemical_formula_sum "Si O2"
_cell_formula_units_Z 16
_cell_length_a 8.978082
_cell_length_b 18.385982
_cell_length_c 9.482220
_cell_angle_alpha 112.956237
_cell_angle_beta 97.345637
_cell_angle_gamma 132.653591
_cell_volume 864.235705
_symmetry_space_group_name_H-M "P -1"
_symmetry_group_IT_number 2
_symmetry_cell_setting 'triclinic'
loop_
_space_group_symop_operation_xyz
x,y,z
-x,-y,-z
loop_
_atom_site_type_symbol
_atom_site_label
_atom_site_fract_x
_atom_site_fract_y
_atom_site_fract_z
Si Si1 0.963666 0.743352 0.954549
Si Si2 0.684451 0.398317 0.982354
Si Si3 0.693265 0.220320 0.803389
Si Si4 0.502061 0.444575 0.767865
Si Si5 0.876638 0.032111 0.376857
Si Si6 0.966354 0.655791 0.317689
Si Si7 0.061883 0.244223 0.370400
Si Si8 0.875699 0.852477 0.212486
O O1 0.708843 0.593778 0.858863
O O2 0.956994 0.755747 0.797332
O O3 0.996133 0.838302 0.116141
O O4 0.179356 0.774243 0.051388
O O5 0.760126 0.341081 0.912489
O O6 0.627326 0.427179 0.858410
O O7 0.419924 0.280139 0.938787
O O8 0.876726 0.528369 0.197622
O O9 0.398484 0.088095 0.681504
O O10 0.814586 0.239253 0.687694
O O11 0.281539 0.396900 0.791832
O O12 0.345565 0.350561 0.540911
O O13 0.945920 0.973329 0.288493
O O14 0.904550 0.106930 0.313644
O O15 0.054083 0.131448 0.602809
O O16 0.022659 0.712259 0.522142
#
# Coordination Sequence:
#
# PCOD9096179 Si02
#       8
#     2   2   2   2   2   2   2   2
#     4  12  22  38  58  86 114 155 183 226 287 343
#     4  11  18  36  62  91 109 138 193 245 281 317
#     4  11  24  34  60  86 116 147 187 231 286 332
#     4  10  20  35  63  84 112 141 193 237 275 328
#     4  10  22  39  57  87 111 147 191 239 271 325
#     4  10  20  36  60  88 111 144 186 240 281 326
#     4  10  23  37  60  81 118 149 192 222 281 335
#     4  10  20  38  64  82 110 144 197 238 272 324
#
# _framework density 18.513468
#
# number of rings (size 3 to 8) (size 9 to 14) (size 15 to 20)
#    0.750    0.750    3.750    2.625    0.000    3.000 
#    0.000    0.625    5.500    0.000    0.000    0.000 
#    0.000    0.000    0.000    0.000    0.000    0.000 
#
# Total GULP energy -89246.303872 kJ/mol
# GULP energy per Si atom -5577.893992 kJ/mol
# Density = 1.847133 g / cm^3
# Si number density = 18.513468 Si / 1000 Ang^3
#
#
#
# Elastic Constant Matrix: (Units=GPa)
#
#
# Indices 1 2 3 4 5 6 
#
# 1 101.7885 36.7840 39.1219 -9.5182 -11.2849 -11.2365
# 2 36.7840 80.6290 36.6498 -0.1930 -20.0224 -9.6953
# 3 39.1219 36.6498 67.9275 -14.5447 -22.2328 -16.6704
# 4 -9.5182 -0.1930 -14.5447 29.4909 6.0885 1.8350
# 5 -11.2849 -20.0224 -22.2328 6.0885 20.9373 10.1522
# 6 -11.2365 -9.6953 -16.6704 1.8350 10.1522 12.9883
#
#
#
# Elastic Compliance Matrix: (Units=1/GPa)
#
#
# Indices 1 2 3 4 5 6 
#
# 1 0.013849 -0.004726 -0.005512 0.002721 -0.006734 0.006258
# 2 -0.004726 0.020714 -0.006971 -0.007687 0.016733 -0.009567
# 3 -0.005512 -0.006971 0.033216 0.010736 0.011934 0.021815
# 4 0.002721 -0.007687 0.010736 0.042006 -0.014272 0.015616
# 5 -0.006734 0.016733 0.011934 -0.014272 0.105187 -0.058220
# 6 0.006258 -0.009567 0.021815 0.015616 -0.058220 0.146565
#
#
# Mechanical properties :
#
#
# Convention : Reuss Voigt Hill
#
# Bulk Modulus (GPa) = 29.97525 52.82850 41.40187
# Shear Modulus (GPa) = 12.28270 21.86926 17.07598
#
# Velocity S-wave (km/s) = 2.57854 3.44068 3.04032
# Velocity P-wave (km/s) = 5.00913 6.66194 5.89376
#
# Compressibility (1/GPa) = 0.03336086
#
# Stress axis : x y z
#
# Youngs Moduli (GPa) = 72.20540 48.27689 30.10605
#
# Poissons Ratio (x) = 0.22815 0.16594
# Poissons Ratio (y) = 0.34124 0.20988
# Poissons Ratio (z) = 0.39799 0.33655
#
# Static dielectric constant tensor:
#      x y z
#    x 1.665980 0.000720 -0.005980 
#    y 0.000720 1.647950 0.038670 
#    z -0.005980 0.038670 1.642820 
# 
# From -- ./inp_files/217894.got.cif
#   From: 2010.05.17/outbox.cif.g08.bks.cpg/sg2_109_cif.got.tgz:217894.got - 2010.06.03 11:33:40.
