data_PCOD9096574
_publ_section_title
;
Structure prediction by ZEFSAII (Michael W. Deem and Ramdas Pophale) SiO2 
 PCOD9096574
Probable space group: P -1
;
_chemical_formula_sum "Si O2"
_cell_formula_units_Z 14
_cell_length_a 13.012298
_cell_length_b 12.956360
_cell_length_c 13.939357
_cell_angle_alpha 144.341296
_cell_angle_beta 146.734821
_cell_angle_gamma 33.896445
_cell_volume 662.793719
_symmetry_space_group_name_H-M "P -1"
_symmetry_group_IT_number 2
_symmetry_cell_setting 'triclinic'
loop_
_space_group_symop_operation_xyz
x,y,z
-x,-y,-z
loop_
_atom_site_type_symbol
_atom_site_label
_atom_site_fract_x
_atom_site_fract_y
_atom_site_fract_z
Si Si1 0.578524 0.200184 0.298984
Si Si2 0.484860 0.217715 0.764170
Si Si3 0.173339 0.229166 0.886530
Si Si4 0.418871 0.470556 0.566222
Si Si5 0.830659 0.359408 0.095616
Si Si6 0.131955 0.622340 0.074811
Si Si7 0.273836 0.237859 0.409314
O O1 0.507222 0.316172 0.430180
O O2 0.674715 0.312240 0.391701
O O3 0.738567 0.967635 0.256790
O O4 0.368747 0.220731 0.095969
O O5 0.314471 0.398064 0.832451
O O6 0.373392 0.239490 0.590681
O O7 0.582008 0.983920 0.691238
O O8 0.679895 0.265845 0.937406
O O9 0.001193 0.238733 0.836088
O O10 0.091338 0.430622 0.912807
O O11 0.621529 0.442522 0.765468
O O12 0.276482 0.409698 0.474463
O O13 0.031889 0.284103 0.264895
O O14 0.922250 0.293350 0.010209
#
# Coordination Sequence:
#
# PCOD9096574 Si02
#       7
#     2   2   2   2   2   2   2
#     4   9  19  36  57  83 117 157 203 238 297 363
#     4  10  24  42  64  91 120 158 208 253 297 366
#     4   9  19  36  57  83 117 158 200 243 292 363
#     4  10  20  36  56  85 124 154 194 256 293 355
#     4  11  22  42  64  89 122 163 199 252 308 359
#     4  10  20  36  56  85 122 156 198 247 298 357
#     4  11  22  42  64  90 124 158 200 257 304 359
#
# _framework density 21.122709
#
# number of rings (size 3 to 8) (size 9 to 14) (size 15 to 20)
#    0.000    2.000    1.429    1.714    2.000    1.714 
#    5.143    1.429    0.000    0.000    0.000    0.000 
#    0.000    0.000    0.000    0.000    0.000    0.000 
#
# Total GULP energy -78202.685278 kJ/mol
# GULP energy per Si atom -5585.906091 kJ/mol
# Density = 2.107463 g / cm^3
# Si number density = 21.122709 Si / 1000 Ang^3
#
#
#
# Elastic Constant Matrix: (Units=GPa)
#
#
# Indices 1 2 3 4 5 6 
#
# 1 40.1065 -5.3662 6.3313 -11.8987 8.7501 5.1980
# 2 -5.3662 34.8514 8.4130 1.0389 7.4892 -7.0539
# 3 6.3313 8.4130 72.9907 -5.5894 14.6242 -1.9219
# 4 -11.8987 1.0389 -5.5894 24.7375 -10.3859 -1.7655
# 5 8.7501 7.4892 14.6242 -10.3859 17.7716 -2.6527
# 6 5.1980 -7.0539 -1.9219 -1.7655 -2.6527 20.5284
#
#
#
# Elastic Compliance Matrix: (Units=1/GPa)
#
#
# Indices 1 2 3 4 5 6 
#
# 1 0.032517 0.006473 -0.000166 0.008695 -0.014589 -0.007162
# 2 0.006473 0.035991 -0.000947 -0.006616 -0.020330 0.007443
# 3 -0.000166 -0.000947 0.016566 -0.002563 -0.014778 -0.000862
# 4 0.008695 -0.006616 -0.002563 0.059969 0.036432 0.005150
# 5 -0.014589 -0.020330 -0.014778 0.036432 0.107311 0.012325
# 6 -0.007162 0.007443 -0.000862 0.005150 0.012325 0.055039
#
#
# Mechanical properties :
#
#
# Convention : Reuss Voigt Hill
#
# Bulk Modulus (GPa) = 10.43926 18.52276 14.48101
# Shear Modulus (GPa) = 15.21588 21.84553 18.53071
#
# Velocity S-wave (km/s) = 2.68686 3.21942 2.96512
# Velocity P-wave (km/s) = 3.81818 4.75476 4.31197
#
# Compressibility (1/GPa) = 0.09579224
#
# Stress axis : x y z
#
# Youngs Moduli (GPa) = 30.75358 27.78466 60.36531
#
# Poissons Ratio (x) = -0.17985 0.01005
# Poissons Ratio (y) = -0.19907 0.05718
# Poissons Ratio (z) = 0.00512 0.02632
#
# Static dielectric constant tensor:
#      x y z
#    x 1.727130 -0.014490 0.020670 
#    y -0.014490 1.770330 0.008590 
#    z 0.020670 0.008590 1.777750 
# 
# From -- ./inp_files/188178.got.cif
#   From: 2010.05.17/outbox.cif.g08.bks.cpg/sg2_95_cif.got.tgz:188178.got - 2010.06.03 11:33:40.
