data_PCOD9096684
_publ_section_title
;
Structure prediction by ZEFSAII (Michael W. Deem and Ramdas Pophale) SiO2 
 PCOD9096684
Probable space group: P -1
;
_chemical_formula_sum "Si O2"
_cell_formula_units_Z 16
_cell_length_a 8.079403
_cell_length_b 11.336838
_cell_length_c 8.032357
_cell_angle_alpha 84.294102
_cell_angle_beta 79.550590
_cell_angle_gamma 56.208564
_cell_volume 601.294051
_symmetry_space_group_name_H-M "P -1"
_symmetry_group_IT_number 2
_symmetry_cell_setting 'triclinic'
loop_
_space_group_symop_operation_xyz
x,y,z
-x,-y,-z
loop_
_atom_site_type_symbol
_atom_site_label
_atom_site_fract_x
_atom_site_fract_y
_atom_site_fract_z
Si Si1 0.767490 0.917132 0.620387
Si Si2 0.208556 0.979916 0.913124
Si Si3 0.777038 0.511450 0.885649
Si Si4 0.001421 0.328699 0.176619
Si Si5 0.459944 0.830500 0.585799
Si Si6 0.645884 0.551674 0.415712
Si Si7 0.434561 0.727879 0.105589
Si Si8 0.022211 0.759443 0.275778
O O1 0.598369 0.882533 0.623379
O O2 0.880790 0.837495 0.779648
O O3 0.930528 0.836593 0.455313
O O4 0.654913 0.082446 0.573642
O O5 0.288281 0.880652 0.747051
O O6 0.378911 0.880997 0.030951
O O7 0.154171 0.132688 0.837116
O O8 0.000000 0.000000 0.000000
O O9 0.898372 0.405748 0.725684
O O10 0.849392 0.618115 0.879999
O O11 0.861795 0.391585 0.032136
O O12 0.540019 0.616746 0.947417
O O13 0.859930 0.415878 0.346692
O O14 0.605719 0.665231 0.547049
O O15 0.500000 0.500000 0.500000
O O16 0.581120 0.645617 0.244405
O O17 0.224851 0.751634 0.196542
#
# Coordination Sequence:
#
# PCOD9096684 Si02
#       8
#     2   2   2   2   2   2   2   2
#     4  10  21  39  62  85 113 150 194 236 282 340
#     4   9  20  37  56  81 111 144 190 234 275 335
#     4  10  21  36  57  82 116 151 188 238 283 337
#     4  10  22  38  55  85 116 148 192 235 286 337
#     4  10  22  40  61  85 114 151 191 236 286 337
#     4  11  24  39  57  86 120 150 189 237 285 339
#     4  10  21  37  56  83 116 151 189 232 284 340
#     4  10  20  36  57  85 113 148 194 235 283 336
#
# _framework density 26.609273999999999
#
# number of rings (size 3 to 8) (size 9 to 14) (size 15 to 20)
#    0.000    2.000    0.000    2.625    0.000   10.000 
#    0.000    8.750    0.000    9.000    0.000    0.000 
#    0.000    0.000    0.000    0.000    0.000    0.000 
#
# Total GULP energy -89469.547541 kJ/mol
# GULP energy per Si atom -5591.846721 kJ/mol
# Density = 2.654871 g / cm^3
# Si number density = 26.609274 Si / 1000 Ang^3
#
#
#
# Elastic Constant Matrix: (Units=GPa)
#
#
# Indices 1 2 3 4 5 6 
#
# 1 55.2068 2.6835 -1.1482 2.1663 -17.8305 -8.9588
# 2 2.6835 185.0736 26.6978 -24.7580 6.0670 -22.0152
# 3 -1.1482 26.6978 83.8846 -20.9801 0.6992 -8.6262
# 4 2.1663 -24.7580 -20.9801 59.4829 -9.9133 10.1427
# 5 -17.8305 6.0670 0.6992 -9.9133 22.5288 -1.9324
# 6 -8.9588 -22.0152 -8.6262 10.1427 -1.9324 30.0749
#
#
#
# Elastic Compliance Matrix: (Units=1/GPa)
#
#
# Indices 1 2 3 4 5 6 
#
# 1 0.026996 -0.000020 0.001596 0.001796 0.022914 0.009351
# 2 -0.000020 0.006233 -0.001248 0.001408 -0.000721 0.003678
# 3 0.001596 -0.001248 0.013642 0.004410 0.003305 0.002200
# 4 0.001796 0.001408 0.004410 0.021164 0.009903 -0.003671
# 5 0.022914 -0.000721 0.003305 0.009903 0.067680 0.008255
# 6 0.009351 0.003678 0.002200 -0.003671 0.008255 0.041127
#
#
# Mechanical properties :
#
#
# Convention : Reuss Voigt Hill
#
# Bulk Modulus (GPa) = 21.04133 42.29235 31.66684
# Shear Modulus (GPa) = 26.03790 42.14612 34.09201
#
# Velocity S-wave (km/s) = 3.13154 3.98413 3.58328
# Velocity P-wave (km/s) = 4.58258 6.09038 5.38947
#
# Compressibility (1/GPa) = 0.04752551
#
# Stress axis : x y z
#
# Youngs Moduli (GPa) = 37.04318 160.43742 73.30477
#
# Poissons Ratio (x) = 0.00324 -0.11697
# Poissons Ratio (y) = 0.00075 0.09147
# Poissons Ratio (z) = -0.05911 0.20019
#
# Static dielectric constant tensor:
#      x y z
#    x 2.044700 0.018870 0.080060 
#    y 0.018870 2.081320 -0.001220 
#    z 0.080060 -0.001220 2.226360 
# 
# From -- ./inp_files/186623.got.cif
#   From: 2010.05.17/outbox.cif.g08.bks.cpg/sg2_94_cif.got.tgz:186623.got - 2010.06.03 11:33:40.
