data_PCOD9096764
_publ_section_title
;
Structure prediction by ZEFSAII (Michael W. Deem and Ramdas Pophale) SiO2 
 PCOD9096764
Probable space group: P -1
;
_chemical_formula_sum "Si O2"
_cell_formula_units_Z 14
_cell_length_a 14.417314
_cell_length_b 6.343424
_cell_length_c 8.714266
_cell_angle_alpha 124.609365
_cell_angle_beta 120.910420
_cell_angle_gamma 80.606157
_cell_volume 553.371127
_symmetry_space_group_name_H-M "P -1"
_symmetry_group_IT_number 2
_symmetry_cell_setting 'triclinic'
loop_
_space_group_symop_operation_xyz
x,y,z
-x,-y,-z
loop_
_atom_site_type_symbol
_atom_site_label
_atom_site_fract_x
_atom_site_fract_y
_atom_site_fract_z
Si Si1 0.366810 0.687454 0.059654
Si Si2 0.883762 0.844640 0.523497
Si Si3 0.518328 0.212865 0.347732
Si Si4 0.064840 0.300401 0.169681
Si Si5 0.908837 0.721805 0.156584
Si Si6 0.285049 0.927755 0.347454
Si Si7 0.596399 0.539852 0.301747
O O1 0.474443 0.599618 0.190891
O O2 0.415973 0.979267 0.162492
O O3 0.272460 0.726772 0.114511
O O4 0.342682 0.492512 0.818099
O O5 0.884157 0.655916 0.596041
O O6 0.850053 0.755176 0.283997
O O7 0.812370 0.052912 0.613193
O O8 0.007823 0.001532 0.676097
O O9 0.500000 0.500000 0.500000
O O10 0.576679 0.268283 0.257857
O O11 0.608823 0.131116 0.500060
O O12 0.980862 0.497712 0.156461
O O13 0.135512 0.322327 0.077521
O O14 0.000000 0.000000 0.000000
O O15 0.330061 0.222386 0.449781
#
# Coordination Sequence:
#
# PCOD9096764 Si02
#       7
#     2   2   2   2   2   2   2
#     4  10  20  36  58  79 110 151 195 234 286 345
#     4  10  21  37  59  85 120 151 188 245 294 333
#     4  11  18  36  61  77 112 156 192 234 283 344
#     4   9  18  37  63  85 109 150 193 231 287 355
#     4   9  19  39  62  85 111 156 197 224 287 369
#     4  11  22  37  53  87 118 145 193 245 286 335
#     4  10  20  37  57  80 108 154 196 232 287 345
#
# _framework density 25.299475999999999
#
# number of rings (size 3 to 8) (size 9 to 14) (size 15 to 20)
#    0.000    2.000    2.857    1.714    0.000    1.143 
#   10.286    0.000    0.000    0.000    0.000    0.000 
#    0.000    0.000    0.000    0.000    0.000    0.000 
#
# Total GULP energy -78075.847383 kJ/mol
# GULP energy per Si atom -5576.846242 kJ/mol
# Density = 2.524189 g / cm^3
# Si number density = 25.299476 Si / 1000 Ang^3
#
#
#
# Elastic Constant Matrix: (Units=GPa)
#
#
# Indices 1 2 3 4 5 6 
#
# 1 105.9254 13.9517 55.7205 -15.6705 -56.5038 4.1724
# 2 13.9517 89.8732 24.1625 -12.9909 -11.8165 13.8679
# 3 55.7205 24.1625 138.0250 -6.5369 -49.8843 8.4197
# 4 -15.6705 -12.9909 -6.5369 31.8783 10.1666 -10.7851
# 5 -56.5038 -11.8165 -49.8843 10.1666 59.8437 -0.4112
# 6 4.1724 13.8679 8.4197 -10.7851 -0.4112 29.4467
#
#
#
# Elastic Compliance Matrix: (Units=1/GPa)
#
#
# Indices 1 2 3 4 5 6 
#
# 1 0.019814 0.000278 -0.001830 0.003946 0.016563 -0.000739
# 2 0.000278 0.012779 -0.001619 0.003255 0.000853 -0.004391
# 3 -0.001830 -0.001619 0.011083 -0.002754 0.007639 -0.003049
# 4 0.003946 0.003255 -0.002754 0.040050 -0.004640 0.013299
# 5 0.016563 0.000853 0.007639 -0.004640 0.039631 -0.006079
# 6 -0.000739 -0.004391 -0.003049 0.013299 -0.006079 0.041790
#
#
# Mechanical properties :
#
#
# Convention : Reuss Voigt Hill
#
# Bulk Modulus (GPa) = 26.78410 57.94364 42.36387
# Shear Modulus (GPa) = 27.18361 40.23301 33.70831
#
# Velocity S-wave (km/s) = 3.28147 3.99215 3.65413
# Velocity P-wave (km/s) = 4.99672 6.64849 5.88089
#
# Compressibility (1/GPa) = 0.03733558
#
# Stress axis : x y z
#
# Youngs Moduli (GPa) = 50.46809 78.25305 90.22495
#
# Poissons Ratio (x) = -0.02176 0.16509
# Poissons Ratio (y) = -0.01403 0.14607
# Poissons Ratio (z) = 0.09234 0.12669
#
# Static dielectric constant tensor:
#      x y z
#    x 2.084970 0.066130 -0.062340 
#    y 0.066130 1.988100 -0.031280 
#    z -0.062340 -0.031280 2.103440 
# 
# From -- ./inp_files/36384.got.cif
#   From: 2010.05.17/outbox.cif.g08.bks.cpg/sg2_19_cif.got.tgz:36384.got - 2010.06.03 11:33:40.
