data_PCOD9096471
_publ_section_title
;
Structure prediction by ZEFSAII (Michael W. Deem and Ramdas Pophale) SiO2 
 PCOD9096471
Probable space group: P -1
;
_chemical_formula_sum "Si O2"
_cell_formula_units_Z 14
_cell_length_a 11.897753
_cell_length_b 14.533316
_cell_length_c 12.198746
_cell_angle_alpha 150.589627
_cell_angle_beta 141.651334
_cell_angle_gamma 50.156699
_cell_volume 636.384420
_symmetry_space_group_name_H-M "P -1"
_symmetry_group_IT_number 2
_symmetry_cell_setting 'triclinic'
loop_
_space_group_symop_operation_xyz
x,y,z
-x,-y,-z
loop_
_atom_site_type_symbol
_atom_site_label
_atom_site_fract_x
_atom_site_fract_y
_atom_site_fract_z
Si Si1 0.925381 0.658809 0.534101
Si Si2 0.029386 0.263816 0.685198
Si Si3 0.893217 0.135038 0.674706
Si Si4 0.288517 0.543093 0.033993
Si Si5 0.233021 0.634304 0.581654
Si Si6 0.685550 0.726142 0.603869
Si Si7 0.506501 0.971851 0.104982
O O1 0.833460 0.783437 0.680798
O O2 0.000000 0.500000 0.500000
O O3 0.095997 0.724722 0.653759
O O4 0.766607 0.562740 0.231233
O O5 0.012998 0.244157 0.782818
O O6 0.859921 0.350012 0.591281
O O7 0.021433 0.047885 0.410880
O O8 0.206734 0.396750 0.914292
O O9 0.828046 0.280355 0.861822
O O10 0.707808 0.040819 0.374600
O O11 0.499599 0.618620 0.293830
O O12 0.244995 0.424893 0.416708
O O13 0.429486 0.758445 0.856506
O O14 0.625371 0.897234 0.802432
O O15 0.500000 0.000000 0.000000
#
# Coordination Sequence:
#
# PCOD9096471 Si02
#       7
#     2   2   2   2   2   2   2
#     4   9  20  39  60  87 114 149 196 237 285 342
#     4  10  20  36  55  84 118 152 193 232 281 344
#     4  10  21  37  55  83 118 155 189 234 283 338
#     4  10  20  37  60  83 114 150 193 234 290 337
#     4  10  21  38  60  87 118 150 195 234 286 342
#     4  10  22  39  61  85 116 156 189 240 286 336
#     4  11  22  39  57  86 118 152 192 234 286 343
#
# _framework density 21.999282000000001
#
# number of rings (size 3 to 8) (size 9 to 14) (size 15 to 20)
#    0.000    2.000    1.429    1.714    0.000    4.571 
#    2.571    4.286    0.000   15.429    0.000    0.000 
#    0.000    0.000    0.000    0.000    0.000    0.000 
#
# Total GULP energy -78217.125998 kJ/mol
# GULP energy per Si atom -5586.937571 kJ/mol
# Density = 2.194921 g / cm^3
# Si number density = 21.999282 Si / 1000 Ang^3
#
#
#
# Elastic Constant Matrix: (Units=GPa)
#
#
# Indices 1 2 3 4 5 6 
#
# 1 52.4711 -6.9760 0.6903 1.5856 0.6085 -1.9287
# 2 -6.9760 80.8866 7.2612 -2.7144 -5.8862 -3.9534
# 3 0.6903 7.2612 40.1622 -6.2219 9.7572 7.0343
# 4 1.5856 -2.7144 -6.2219 23.3719 -2.0122 2.2039
# 5 0.6085 -5.8862 9.7572 -2.0122 33.3481 6.2096
# 6 -1.9287 -3.9534 7.0343 2.2039 6.2096 25.8216
#
#
#
# Elastic Compliance Matrix: (Units=1/GPa)
#
#
# Indices 1 2 3 4 5 6 
#
# 1 0.019455 0.001834 -0.001279 -0.001677 -0.000181 0.002269
# 2 0.001834 0.013174 -0.003449 0.000515 0.002894 0.002354
# 3 -0.001279 -0.003449 0.029886 0.007721 -0.007442 -0.007634
# 4 -0.001677 0.000515 0.007721 0.045786 0.001835 -0.006499
# 5 -0.000181 0.002894 -0.007442 0.001835 0.033878 -0.005847
# 6 0.002269 0.002354 -0.007634 -0.006499 -0.005847 0.043298
#
#
# Mechanical properties :
#
#
# Convention : Reuss Voigt Hill
#
# Bulk Modulus (GPa) = 17.62837 19.49676 18.56257
# Shear Modulus (GPa) = 23.78995 28.01128 25.90061
#
# Velocity S-wave (km/s) = 3.29203 3.57218 3.43496
# Velocity P-wave (km/s) = 4.74136 5.08878 4.91814
#
# Compressibility (1/GPa) = 0.05672673
#
# Stress axis : x y z
#
# Youngs Moduli (GPa) = 51.40078 75.90907 33.46061
#
# Poissons Ratio (x) = -0.13923 0.04281
# Poissons Ratio (y) = -0.09428 0.11540
# Poissons Ratio (z) = 0.06576 0.26179
#
# Static dielectric constant tensor:
#      x y z
#    x 1.804550 -0.034710 -0.003610 
#    y -0.034710 1.794920 -0.000150 
#    z -0.003610 -0.000150 1.824780 
# 
# From -- ./inp_files/40283.got.cif
#   From: 2010.05.17/outbox.cif.g08.bks.cpg/sg2_21_cif.got.tgz:40283.got - 2010.06.03 11:33:40.
