data_PCOD9096969
_publ_section_title
;
Structure prediction by ZEFSAII (Michael W. Deem and Ramdas Pophale) SiO2 
 PCOD9096969
Probable space group: P -1
;
_chemical_formula_sum "Si O2"
_cell_formula_units_Z 14
_cell_length_a 16.815988
_cell_length_b 14.200856
_cell_length_c 22.981869
_cell_angle_alpha 25.885128
_cell_angle_beta 17.692117
_cell_angle_gamma 25.321523
_cell_volume 681.319353
_symmetry_space_group_name_H-M "P -1"
_symmetry_group_IT_number 2
_symmetry_cell_setting 'triclinic'
loop_
_space_group_symop_operation_xyz
x,y,z
-x,-y,-z
loop_
_atom_site_type_symbol
_atom_site_label
_atom_site_fract_x
_atom_site_fract_y
_atom_site_fract_z
Si Si1 0.189153 0.947119 0.570958
Si Si2 0.861644 0.374078 0.384144
Si Si3 0.412757 0.429831 0.412516
Si Si4 0.494751 0.869116 0.952119
Si Si5 0.824865 0.428526 0.613404
Si Si6 0.422554 0.185809 0.731890
Si Si7 0.216487 0.282863 0.004462
O O1 0.366197 0.791303 0.587148
O O2 0.389849 0.946102 0.379081
O O3 0.019405 0.196554 0.574200
O O4 0.984030 0.814866 0.764575
O O5 0.793704 0.447069 0.458536
O O6 0.618550 0.281618 0.582883
O O7 0.813326 0.597852 0.252830
O O8 0.176855 0.206099 0.248747
O O9 0.280844 0.388711 0.467206
O O10 0.566315 0.605450 0.186673
O O11 0.330449 0.013274 0.930921
O O12 0.392169 0.060798 0.967592
O O13 0.408629 0.651064 0.147836
O O14 0.000000 0.500000 0.500000
O O15 0.000000 0.500000 0.000000
#
# Coordination Sequence:
#
# PCOD9096969 Si02
#       7
#     2   2   2   2   2   2   2
#     4   9  21  37  61  85 118 154 184 241 297 346
#     4  10  21  34  59  93 124 154 176 228 299 368
#     4  10  20  39  58  85 121 151 190 239 292 352
#     4  11  22  36  60  86 117 157 192 237 291 350
#     4  11  26  42  58  80 111 160 213 250 277 323
#     4  10  20  36  58  91 130 145 180 230 296 372
#     4   9  19  33  54  89 121 151 183 228 295 353
#
# _framework density 20.548366999999999
#
# number of rings (size 3 to 8) (size 9 to 14) (size 15 to 20)
#    0.000    2.000    1.429    1.286    6.000    4.000 
#    0.000    2.857    0.000    3.429    0.000    0.000 
#    0.000    0.000    0.000    0.000    0.000    0.000 
#
# Total GULP energy -78148.439272 kJ/mol
# GULP energy per Si atom -5582.031377 kJ/mol
# Density = 2.050160 g / cm^3
# Si number density = 20.548367 Si / 1000 Ang^3
#
#
#
# Elastic Constant Matrix: (Units=GPa)
#
#
# Indices 1 2 3 4 5 6 
#
# 1 125.4252 -2.0643 23.9869 -8.9983 6.8353 -17.7487
# 2 -2.0643 45.1048 -0.9645 13.1851 0.7230 -16.4595
# 3 23.9869 -0.9645 27.6295 -0.8861 3.1981 -8.9267
# 4 -8.9983 13.1851 -0.8861 19.9367 -6.0686 0.3606
# 5 6.8353 0.7230 3.1981 -6.0686 23.2550 -5.8289
# 6 -17.7487 -16.4595 -8.9267 0.3606 -5.8289 21.1496
#
#
#
# Elastic Compliance Matrix: (Units=1/GPa)
#
#
# Indices 1 2 3 4 5 6 
#
# 1 0.010578 0.002507 -0.006409 0.002832 0.000491 0.008210
# 2 0.002507 0.048480 0.013400 -0.031408 -0.000802 0.045804
# 3 -0.006409 0.013400 0.050511 -0.010493 -0.001679 0.026085
# 4 0.002832 -0.031408 -0.010493 0.076974 0.015795 -0.023454
# 5 0.000491 -0.000802 -0.001679 0.015795 0.050420 0.012706
# 6 0.008210 0.045804 0.026085 -0.023454 0.012706 0.104730
#
#
# Mechanical properties :
#
#
# Convention : Reuss Voigt Hill
#
# Bulk Modulus (GPa) = 7.77818 26.67509 17.22663
# Shear Modulus (GPa) = 13.67789 24.68169 19.17979
#
# Velocity S-wave (km/s) = 2.58281 3.46952 3.05847
# Velocity P-wave (km/s) = 3.56203 5.39072 4.56880
#
# Compressibility (1/GPa) = 0.12856486
#
# Stress axis : x y z
#
# Youngs Moduli (GPa) = 94.53438 20.62688 19.79766
#
# Poissons Ratio (x) = -0.05172 0.12689
# Poissons Ratio (y) = -0.23702 -0.26528
# Poissons Ratio (z) = 0.60591 -0.27640
#
# Static dielectric constant tensor:
#      x y z
#    x 1.779640 -0.032220 0.016170 
#    y -0.032220 1.726810 0.007260 
#    z 0.016170 0.007260 1.748400 
# 
# From -- ./inp_files/255699.got.cif
#   From: 2010.05.17/outbox.cif.g08.bks.cpg/sg2_128_cif.got.tgz:255699.got - 2010.06.03 11:33:40.
