data_PCOD9096077
_publ_section_title
;
Structure prediction by ZEFSAII (Michael W. Deem and Ramdas Pophale) SiO2 
 PCOD9096077
Probable space group: P -1
;
_chemical_formula_sum "Si O2"
_cell_formula_units_Z 16
_cell_length_a 14.770504
_cell_length_b 8.605632
_cell_length_c 9.872588
_cell_angle_alpha 42.345350
_cell_angle_beta 113.602938
_cell_angle_gamma 91.034834
_cell_volume 691.653646
_symmetry_space_group_name_H-M "P -1"
_symmetry_group_IT_number 2
_symmetry_cell_setting 'triclinic'
loop_
_space_group_symop_operation_xyz
x,y,z
-x,-y,-z
loop_
_atom_site_type_symbol
_atom_site_label
_atom_site_fract_x
_atom_site_fract_y
_atom_site_fract_z
Si Si1 0.297659 0.840259 0.883617
Si Si2 0.482350 0.245064 0.070957
Si Si3 0.885899 0.599306 0.561316
Si Si4 0.579272 0.198582 0.740409
Si Si5 0.868092 0.624179 0.219483
Si Si6 0.867514 0.136174 0.834511
Si Si7 0.679150 0.190383 0.510227
Si Si8 0.684597 0.680102 0.859744
O O1 0.280765 0.583846 0.029780
O O2 0.188988 0.109746 0.626440
O O3 0.394591 0.799691 0.860157
O O4 0.346009 0.855594 0.048244
O O5 0.398764 0.528642 0.778536
O O6 0.436114 0.247171 0.193731
O O7 0.471056 0.004682 0.152228
O O8 0.878447 0.537994 0.436100
O O9 0.839618 0.406099 0.717513
O O10 0.016571 0.516599 0.703737
O O11 0.500000 0.500000 0.500000
O O12 0.631554 0.175345 0.639053
O O13 0.770127 0.617397 0.077810
O O14 0.845763 0.919579 0.035571
O O15 0.800391 0.164531 0.635734
O O16 0.000000 0.000000 0.000000
O O17 0.688267 0.921172 0.628812
#
# Coordination Sequence:
#
# PCOD9096077 Si02
#       8
#     2   2   2   2   2   2   2   2
#     4  12  23  38  58  89 120 150 193 240 291 341
#     4  11  23  41  59  82 116 158 197 232 287 344
#     4  10  20  35  62  86 110 148 193 243 279 333
#     4  11  23  38  58  85 110 146 194 248 279 329
#     4   9  19  39  59  83 114 149 191 233 288 342
#     4   9  17  31  56  84 106 138 186 232 281 330
#     4  10  20  39  61  78 116 158 189 238 285 338
#     4  10  23  40  56  85 121 157 191 230 290 352
#
# _framework density 23.132963
#
# number of rings (size 3 to 8) (size 9 to 14) (size 15 to 20)
#    0.000    1.750    1.250    4.500    1.750    1.000 
#    2.250    0.000    0.000    0.000    0.000   15.750 
#    0.000    0.000    0.000    0.000    0.000    0.000 
#
# Total GULP energy -89267.512745 kJ/mol
# GULP energy per Si atom -5579.219547 kJ/mol
# Density = 2.308031 g / cm^3
# Si number density = 23.132963 Si / 1000 Ang^3
#
#
#
# Elastic Constant Matrix: (Units=GPa)
#
#
# Indices 1 2 3 4 5 6 
#
# 1 87.6613 35.9210 47.3114 -16.5127 7.2766 18.8540
# 2 35.9210 101.7820 30.2420 -44.4061 -3.9945 23.1029
# 3 47.3114 30.2420 126.0372 -37.4400 10.8754 8.5526
# 4 -16.5127 -44.4061 -37.4400 57.2558 -2.9364 -9.9340
# 5 7.2766 -3.9945 10.8754 -2.9364 37.6887 -5.4525
# 6 18.8540 23.1029 8.5526 -9.9340 -5.4525 28.9694
#
#
#
# Elastic Compliance Matrix: (Units=1/GPa)
#
#
# Indices 1 2 3 4 5 6 
#
# 1 0.017757 -0.004442 -0.005837 -0.003768 -0.003706 -0.008280
# 2 -0.004442 0.018235 0.001323 0.012581 0.002335 -0.007288
# 3 -0.005837 0.001323 0.012025 0.007387 -0.001416 0.001460
# 4 -0.003768 0.012581 0.007387 0.031356 0.002586 0.001477
# 5 -0.003706 0.002335 -0.001416 0.002586 0.029169 0.007345
# 6 -0.008280 -0.007288 0.001460 0.001477 0.007345 0.047178
#
#
# Mechanical properties :
#
#
# Convention : Reuss Voigt Hill
#
# Bulk Modulus (GPa) = 33.21920 60.26994 46.74457
# Shear Modulus (GPa) = 27.22312 38.24984 32.73648
#
# Velocity S-wave (km/s) = 3.43419 4.07071 3.76592
# Velocity P-wave (km/s) = 5.48782 6.94295 6.25782
#
# Compressibility (1/GPa) = 0.03010307
#
# Stress axis : x y z
#
# Youngs Moduli (GPa) = 56.31551 54.84106 83.15826
#
# Poissons Ratio (x) = 0.24362 0.48542
# Poissons Ratio (y) = 0.25017 -0.10999
# Poissons Ratio (z) = 0.32873 -0.07253
#
# Static dielectric constant tensor:
#      x y z
#    x 1.920220 0.012210 -0.006060 
#    y 0.012210 1.911080 -0.026530 
#    z -0.006060 -0.026530 1.972570 
# 
# From -- ./inp_files/446677.got.cif
#   From: 2010.05.17/outbox.cif.g08.bks.cpg/sg2_224_cif.got.tgz:446677.got - 2010.06.03 11:33:40.
