data_PCOD9096204
_publ_section_title
;
Structure prediction by ZEFSAII (Michael W. Deem and Ramdas Pophale) SiO2 
 PCOD9096204
Probable space group: P -1
;
_chemical_formula_sum "Si O2"
_cell_formula_units_Z 12
_cell_length_a 10.685683
_cell_length_b 8.972488
_cell_length_c 8.808715
_cell_angle_alpha 109.621285
_cell_angle_beta 57.232557
_cell_angle_gamma 68.911783
_cell_volume 488.135811
_symmetry_space_group_name_H-M "P -1"
_symmetry_group_IT_number 2
_symmetry_cell_setting 'triclinic'
loop_
_space_group_symop_operation_xyz
x,y,z
-x,-y,-z
loop_
_atom_site_type_symbol
_atom_site_label
_atom_site_fract_x
_atom_site_fract_y
_atom_site_fract_z
Si Si1 0.481188 0.189016 0.652789
Si Si2 0.872020 0.485087 0.228884
Si Si3 0.548411 0.184130 0.958870
Si Si4 0.522710 0.602937 0.661199
Si Si5 0.178093 0.995768 0.840526
Si Si6 0.174022 0.282324 0.402177
O O1 0.279981 0.404786 0.776034
O O2 0.473732 0.211264 0.845302
O O3 0.688742 0.126732 0.440581
O O4 0.500000 0.000000 0.500000
O O5 0.757664 0.473354 0.434548
O O6 0.876850 0.651201 0.363839
O O7 0.076698 0.242295 0.983657
O O8 0.771507 0.940672 0.735214
O O9 0.533668 0.366760 0.113983
O O10 0.383254 0.211097 0.180925
O O11 0.500000 0.500000 0.500000
O O12 0.354679 0.855260 0.802740
O O13 0.000000 0.000000 0.000000
O O14 0.000000 0.500000 0.500000
#
# Coordination Sequence:
#
# PCOD9096204 Si02
#       6
#     2   2   2   2   2   2
#     4  11  24  41  63  97 138 168 204 273 333 373
#     4  10  21  38  64  92 125 171 211 259 323 385
#     4  10  22  39  57  97 128 162 212 269 319 385
#     4  10  20  40  67  85 120 170 220 262 313 377
#     4  11  23  41  68  91 125 178 223 256 315 397
#     4  10  20  35  63  90 126 164 213 259 322 384
#
# _framework density 24.583324000000001
#
# number of rings (size 3 to 8) (size 9 to 14) (size 15 to 20)
#    0.000    1.667    3.333    1.000    4.667    2.000 
#    0.000    4.167    0.000    0.000    0.000    0.000 
#    0.000    0.000    0.000    0.000    0.000    0.000 
#
# Total GULP energy -66817.947309 kJ/mol
# GULP energy per Si atom -5568.162276 kJ/mol
# Density = 2.452737 g / cm^3
# Si number density = 24.583324 Si / 1000 Ang^3
#
#
#
# Elastic Constant Matrix: (Units=GPa)
#
#
# Indices 1 2 3 4 5 6 
#
# 1 77.6086 30.5860 61.6409 -3.5970 17.9676 -20.0891
# 2 30.5860 80.4385 62.9169 7.9913 13.4769 -31.4052
# 3 61.6409 62.9169 179.4327 15.5409 30.8737 -27.1021
# 4 -3.5970 7.9913 15.5409 50.0988 -8.8343 -9.2440
# 5 17.9676 13.4769 30.8737 -8.8343 62.6783 -9.2224
# 6 -20.0891 -31.4052 -27.1021 -9.2440 -9.2224 44.6470
#
#
#
# Elastic Compliance Matrix: (Units=1/GPa)
#
#
# Indices 1 2 3 4 5 6 
#
# 1 0.019708 -0.001225 -0.005708 0.004110 -0.001240 0.005137
# 2 -0.001225 0.021573 -0.005470 0.000291 0.000124 0.011389
# 3 -0.005708 -0.005470 0.009989 -0.003440 -0.002835 -0.001651
# 4 0.004110 0.000291 -0.003440 0.023130 0.004552 0.005695
# 5 -0.001240 0.000124 -0.002835 0.004552 0.018706 0.002614
# 6 0.005137 0.011389 -0.001651 0.005695 0.002614 0.033437
#
#
# Mechanical properties :
#
#
# Convention : Reuss Voigt Hill
#
# Bulk Modulus (GPa) = 37.78588 71.97413 54.88001
# Shear Modulus (GPa) = 31.21686 43.64055 37.42871
#
# Velocity S-wave (km/s) = 3.56735 4.21789 3.90619
# Velocity P-wave (km/s) = 5.68963 7.28437 6.53582
#
# Compressibility (1/GPa) = 0.02646491
#
# Stress axis : x y z
#
# Youngs Moduli (GPa) = 50.73967 46.35462 100.11480
#
# Poissons Ratio (x) = 0.05676 0.57145
# Poissons Ratio (y) = 0.06213 0.54762
# Poissons Ratio (z) = 0.28962 0.25356
#
# Static dielectric constant tensor:
#      x y z
#    x 2.353440 0.213680 0.208180 
#    y 0.213680 2.121500 0.038270 
#    z 0.208180 0.038270 2.028690 
# 
# From -- ./inp_files/33944.got.cif
#   From: 2010.05.17/outbox.cif.g08.bks.cpg/sg2_17_cif.got.tgz:33944.got - 2010.06.03 11:33:40.
