data_PCOD9096873
_publ_section_title
;
Structure prediction by ZEFSAII (Michael W. Deem and Ramdas Pophale) SiO2 
 PCOD9096873
Probable space group: P -1
;
_chemical_formula_sum "Si O2"
_cell_formula_units_Z 16
_cell_length_a 12.657896
_cell_length_b 24.379160
_cell_length_c 11.368490
_cell_angle_alpha 43.616219
_cell_angle_beta 117.010672
_cell_angle_gamma 153.403483
_cell_volume 845.252481
_symmetry_space_group_name_H-M "P -1"
_symmetry_group_IT_number 2
_symmetry_cell_setting 'triclinic'
loop_
_space_group_symop_operation_xyz
x,y,z
-x,-y,-z
loop_
_atom_site_type_symbol
_atom_site_label
_atom_site_fract_x
_atom_site_fract_y
_atom_site_fract_z
Si Si1 0.259983 0.769499 0.873489
Si Si2 0.550374 0.939163 0.510113
Si Si3 0.341124 0.110120 0.973966
Si Si4 0.754278 0.790901 0.317853
Si Si5 0.398007 0.693172 0.667031
Si Si6 0.762319 0.937516 0.254427
Si Si7 0.304957 0.276846 0.166341
Si Si8 0.231284 0.317248 0.315684
O O1 0.310203 0.797020 0.715378
O O2 0.380913 0.932527 0.711529
O O3 0.457312 0.821857 0.951339
O O4 0.921076 0.542757 0.095885
O O5 0.438364 0.804106 0.572328
O O6 0.872414 0.110422 0.463071
O O7 0.448841 0.269074 0.760966
O O8 0.307304 0.055999 0.908133
O O9 0.014023 0.919541 0.164120
O O10 0.883552 0.930057 0.268771
O O11 0.636569 0.645311 0.560987
O O12 0.467157 0.739915 0.490557
O O13 0.651664 0.790468 0.697206
O O14 0.013965 0.122691 0.183865
O O15 0.288552 0.301110 0.252040
O O16 0.593520 0.493112 0.912695
#
# Coordination Sequence:
#
# PCOD9096873 Si02
#       8
#     2   2   2   2   2   2   2   2
#     4  11  24  41  58  86 121 161 196 234 295 360
#     4  11  23  40  60  86 121 152 195 250 294 344
#     4   9  20  38  61  79 118 160 192 235 293 348
#     4   9  18  36  62  84 107 156 192 239 297 337
#     4  12  22  37  61  91 115 158 198 242 298 346
#     4  10  20  36  58  86 115 150 193 244 287 341
#     4  11  21  33  61  94 119 142 193 254 303 342
#     4  11  19  36  61  91 117 148 190 251 307 342
#
# _framework density 18.929257
#
# number of rings (size 3 to 8) (size 9 to 14) (size 15 to 20)
#    0.750    0.750    5.000    1.500    0.000    0.500 
#    0.000    2.500    0.000    0.000    0.000    0.000 
#    0.000    0.000    0.000    0.000    0.000    0.000 
#
# Total GULP energy -89094.375549 kJ/mol
# GULP energy per Si atom -5568.398472 kJ/mol
# Density = 1.888617 g / cm^3
# Si number density = 18.929257 Si / 1000 Ang^3
#
#
#
# Elastic Constant Matrix: (Units=GPa)
#
#
# Indices 1 2 3 4 5 6 
#
# 1 68.3198 15.9005 47.0843 6.9777 0.9379 -1.6144
# 2 15.9005 35.5818 36.9790 9.5758 -2.6599 11.4002
# 3 47.0843 36.9790 117.3752 10.7330 -14.5904 -6.6374
# 4 6.9777 9.5758 10.7330 24.2000 7.4538 2.8598
# 5 0.9379 -2.6599 -14.5904 7.4538 36.9516 9.6717
# 6 -1.6144 11.4002 -6.6374 2.8598 9.6717 23.4474
#
#
#
# Elastic Compliance Matrix: (Units=1/GPa)
#
#
# Indices 1 2 3 4 5 6 
#
# 1 0.020834 -0.001241 -0.008334 -0.000717 -0.004151 0.001478
# 2 -0.001241 0.068786 -0.020699 -0.016122 0.011050 -0.041980
# 3 -0.008334 -0.020699 0.019596 -0.000650 0.002952 0.013899
# 4 -0.000717 -0.016122 -0.000650 0.051571 -0.013616 0.006932
# 5 -0.004151 0.011050 0.002952 -0.013616 0.036661 -0.018284
# 6 0.001478 -0.041980 0.013899 0.006932 -0.018284 0.073792
#
#
# Mechanical properties :
#
#
# Convention : Reuss Voigt Hill
#
# Bulk Modulus (GPa) = 20.54680 46.80047 33.67363
# Shear Modulus (GPa) = 14.36738 25.00735 19.68736
#
# Velocity S-wave (km/s) = 2.75799 3.63863 3.22848
# Velocity P-wave (km/s) = 4.58477 6.51386 5.63252
#
# Compressibility (1/GPa) = 0.04866939
#
# Stress axis : x y z
#
# Youngs Moduli (GPa) = 47.99824 14.53788 51.03016
#
# Poissons Ratio (x) = 0.01803 0.42526
# Poissons Ratio (y) = 0.05954 1.05629
# Poissons Ratio (z) = 0.39999 0.30092
#
# Static dielectric constant tensor:
#      x y z
#    x 1.672170 0.011680 -0.000510 
#    y 0.011680 1.639890 0.013840 
#    z -0.000510 0.013840 1.690180 
# 
# From -- ./inp_files/431643.got.cif
#   From: 2010.05.17/outbox.cif.g08.bks.cpg/sg2_216_cif.got.tgz:431643.got - 2010.06.03 11:33:40.
