data_PCOD9096562
_publ_section_title
;
Structure prediction by ZEFSAII (Michael W. Deem and Ramdas Pophale) SiO2 
 PCOD9096562
Probable space group: P -1
;
_chemical_formula_sum "Si O2"
_cell_formula_units_Z 16
_cell_length_a 20.567577
_cell_length_b 18.502579
_cell_length_c 6.370118
_cell_angle_alpha 104.779684
_cell_angle_beta 61.270578
_cell_angle_gamma 159.297874
_cell_volume 585.082430
_symmetry_space_group_name_H-M "P -1"
_symmetry_group_IT_number 2
_symmetry_cell_setting 'triclinic'
loop_
_space_group_symop_operation_xyz
x,y,z
-x,-y,-z
loop_
_atom_site_type_symbol
_atom_site_label
_atom_site_fract_x
_atom_site_fract_y
_atom_site_fract_z
Si Si1 0.396938 0.174722 0.818241
Si Si2 0.975833 0.145104 0.206499
Si Si3 0.778315 0.399482 0.321161
Si Si4 0.752907 0.251097 0.546856
Si Si5 0.713000 0.801164 0.742831
Si Si6 0.865475 0.824742 0.270745
Si Si7 0.112335 0.825556 0.348464
Si Si8 0.457625 0.838137 0.880347
O O1 0.272662 0.081194 0.725243
O O2 0.579842 0.278339 0.585842
O O3 0.148262 0.906642 0.141379
O O4 0.487093 0.335265 0.932190
O O5 0.058359 0.302436 0.300728
O O6 0.186002 0.304428 0.857422
O O7 0.869575 0.995892 0.460571
O O8 0.755762 0.291098 0.344152
O O9 0.797271 0.420333 0.055754
O O10 0.011366 0.649425 0.295762
O O11 0.000000 0.500000 0.500000
O O12 0.642868 0.061431 0.593786
O O13 0.564524 0.127736 0.866717
O O14 0.645809 0.659031 0.616928
O O15 0.912456 0.974038 0.748986
O O16 0.000000 0.000000 0.000000
O O17 0.395432 0.090779 0.208128
#
# Coordination Sequence:
#
# PCOD9096562 Si02
#       8
#     2   2   2   2   2   2   2   2
#     4  10  20  36  56  84 120 157 196 248 294 347
#     4   9  17  32  54  80 121 157 197 246 291 342
#     4  12  24  39  64  87 116 159 195 241 305 350
#     4  11  24  44  64  87 116 152 194 246 300 356
#     4   8  15  27  51  83 120 155 203 240 286 353
#     4   8  13  25  49  86 117 159 201 237 292 344
#     4  11  22  38  58  88 117 153 201 242 293 359
#     4  11  24  42  62  87 118 148 196 245 294 362
#
# _framework density 27.346571000000001
#
# number of rings (size 3 to 8) (size 9 to 14) (size 15 to 20)
#    0.000    2.000    3.750    0.375    0.000    2.500 
#    0.000    0.000    0.000    0.750    0.000   78.750 
#    0.000    0.000    0.000    0.000    0.000    0.000 
#
# Total GULP energy -89292.046918 kJ/mol
# GULP energy per Si atom -5580.752932 kJ/mol
# Density = 2.728433 g / cm^3
# Si number density = 27.346571 Si / 1000 Ang^3
#
#
#
# Elastic Constant Matrix: (Units=GPa)
#
#
# Indices 1 2 3 4 5 6 
#
# 1 108.8985 23.5090 39.8205 7.7750 16.6969 36.3159
# 2 23.5090 67.3880 33.1567 16.9084 6.3123 16.2713
# 3 39.8205 33.1567 106.8882 33.2031 -19.0333 3.3235
# 4 7.7750 16.9084 33.2031 46.9046 5.3224 -6.8444
# 5 16.6969 6.3123 -19.0333 5.3224 45.3457 16.0621
# 6 36.3159 16.2713 3.3235 -6.8444 16.0621 51.9815
#
#
#
# Elastic Compliance Matrix: (Units=1/GPa)
#
#
# Indices 1 2 3 4 5 6 
#
# 1 0.015262 0.000258 -0.007189 0.001956 -0.006009 -0.008169
# 2 0.000258 0.020044 -0.005329 -0.004058 -0.002572 -0.005853
# 3 -0.007189 -0.005329 0.020012 -0.012633 0.013412 -0.000396
# 4 0.001956 -0.004058 -0.012633 0.034176 -0.012706 0.009137
# 5 -0.006009 -0.002572 0.013412 -0.012706 0.034662 -0.008238
# 6 -0.008169 -0.005853 -0.000396 0.009137 -0.008238 0.030551
#
#
# Mechanical properties :
#
#
# Convention : Reuss Voigt Hill
#
# Bulk Modulus (GPa) = 32.47188 52.90522 42.68855
# Shear Modulus (GPa) = 26.38598 41.29225 33.83912
#
# Velocity S-wave (km/s) = 3.10961 3.89004 3.52151
# Velocity P-wave (km/s) = 4.97925 6.29005 5.67264
#
# Compressibility (1/GPa) = 0.03079588
#
# Stress axis : x y z
#
# Youngs Moduli (GPa) = 65.52142 49.89023 49.97050
#
# Poissons Ratio (x) = -0.01285 0.35926
# Poissons Ratio (y) = -0.01687 0.26630
# Poissons Ratio (z) = 0.47107 0.26587
#
# Static dielectric constant tensor:
#      x y z
#    x 2.273480 -0.105280 -0.076920 
#    y -0.105280 2.172250 0.000450 
#    z -0.076920 0.000450 2.183070 
# 
# From -- ./inp_files/10605.got.cif
#   From: 2010.05.17/outbox.cif.g08.bks.cpg/sg2_6_cif.got.tgz:10605.got - 2010.06.03 11:33:40.
