data_PCOD9096436
_publ_section_title
;
Structure prediction by ZEFSAII (Michael W. Deem and Ramdas Pophale) SiO2 
 PCOD9096436
Probable space group: P -1
;
_chemical_formula_sum "Si O2"
_cell_formula_units_Z 12
_cell_length_a 11.405245
_cell_length_b 9.278254
_cell_length_c 11.763996
_cell_angle_alpha 68.042716
_cell_angle_beta 25.651201
_cell_angle_gamma 66.722544
_cell_volume 494.541295
_symmetry_space_group_name_H-M "P -1"
_symmetry_group_IT_number 2
_symmetry_cell_setting 'triclinic'
loop_
_space_group_symop_operation_xyz
x,y,z
-x,-y,-z
loop_
_atom_site_type_symbol
_atom_site_label
_atom_site_fract_x
_atom_site_fract_y
_atom_site_fract_z
Si Si1 0.510560 0.992980 0.839000
Si Si2 0.197783 0.491119 0.721432
Si Si3 0.444862 0.356192 0.167495
Si Si4 0.038544 0.813900 0.678478
Si Si5 0.035486 0.027272 0.091410
Si Si6 0.048340 0.301353 0.716428
O O1 0.567833 0.803402 0.847736
O O2 0.754088 0.095365 0.597368
O O3 0.354117 0.018243 0.846126
O O4 0.262346 0.085300 0.105140
O O5 0.500000 0.500000 0.500000
O O6 0.085554 0.626724 0.685901
O O7 0.188303 0.334095 0.702544
O O8 0.000000 0.500000 0.000000
O O9 0.183941 0.383214 0.469964
O O10 0.500000 0.500000 0.000000
O O11 0.721498 0.335541 0.007594
O O12 0.097827 0.828514 0.758954
O O13 0.919268 0.880359 0.293940
O O14 0.000000 0.000000 0.000000
#
# Coordination Sequence:
#
# PCOD9096436 Si02
#       6
#     2   2   2   2   2   2
#     4   9  19  36  54  86 108 152 197 239 302 350
#     4  12  25  40  58  86 130 173 197 232 300 368
#     4  11  21  41  67  90 118 154 203 274 313 339
#     4  10  20  36  55  77 120 157 187 240 293 345
#     4   9  19  32  55  81 115 148 194 242 288 348
#     4  11  23  39  59  97 120 153 214 247 294 377
#
# _framework density 24.264911000000001
#
# number of rings (size 3 to 8) (size 9 to 14) (size 15 to 20)
#    1.000    0.667    1.667    3.500    2.333    2.000 
#    0.000    0.000    0.000    6.000    0.000    0.000 
#    0.000    0.000    0.000    0.000    0.000    0.000 
#
# Total GULP energy -66912.847886 kJ/mol
# GULP energy per Si atom -5576.070657 kJ/mol
# Density = 2.420968 g / cm^3
# Si number density = 24.264911 Si / 1000 Ang^3
#
#
#
# Elastic Constant Matrix: (Units=GPa)
#
#
# Indices 1 2 3 4 5 6 
#
# 1 42.4133 -8.1131 4.9159 2.1933 6.8243 17.7911
# 2 -8.1131 89.8373 30.3832 -12.6297 -0.9470 -7.5511
# 3 4.9159 30.3832 174.1592 -13.2708 -5.6832 -3.2096
# 4 2.1933 -12.6297 -13.2708 33.8805 -4.2022 5.9736
# 5 6.8243 -0.9470 -5.6832 -4.2022 29.8487 -8.3526
# 6 17.7911 -7.5511 -3.2096 5.9736 -8.3526 29.1118
#
#
#
# Elastic Compliance Matrix: (Units=1/GPa)
#
#
# Indices 1 2 3 4 5 6 
#
# 1 0.039012 0.001787 -0.002502 0.000059 -0.017346 -0.028643
# 2 0.001787 0.012575 -0.001925 0.003643 0.000517 0.001358
# 3 -0.002502 -0.001925 0.006417 0.001911 0.002586 0.002087
# 4 0.000059 0.003643 0.001911 0.032892 0.003828 -0.004532
# 5 -0.017346 0.000517 0.002586 0.003828 0.044992 0.023143
# 6 -0.028643 0.001358 0.002087 -0.004532 0.023143 0.060007
#
#
# Mechanical properties :
#
#
# Convention : Reuss Voigt Hill
#
# Bulk Modulus (GPa) = 18.96649 40.08689 29.52669
# Shear Modulus (GPa) = 22.85720 37.18312 30.02016
#
# Velocity S-wave (km/s) = 3.07251 3.91881 3.52118
# Velocity P-wave (km/s) = 4.51890 6.08543 5.35971
#
# Compressibility (1/GPa) = 0.05272458
#
# Stress axis : x y z
#
# Youngs Moduli (GPa) = 25.63308 79.52075 155.84225
#
# Poissons Ratio (x) = -0.14214 0.38998
# Poissons Ratio (y) = -0.04582 0.29997
# Poissons Ratio (z) = 0.06414 0.15307
#
# Static dielectric constant tensor:
#      x y z
#    x 2.010910 -0.084570 0.010980 
#    y -0.084570 1.985210 0.031120 
#    z 0.010980 0.031120 1.915560 
# 
# From -- ./inp_files/73341.got.cif
#   From: 2010.05.17/outbox.cif.g08.bks.cpg/sg2_37_cif.got.tgz:73341.got - 2010.06.03 11:33:40.
