data_PCOD9096525
_publ_section_title
;
Structure prediction by ZEFSAII (Michael W. Deem and Ramdas Pophale) SiO2 
 PCOD9096525
Probable space group: P -1
;
_chemical_formula_sum "Si O2"
_cell_formula_units_Z 16
_cell_length_a 6.103918
_cell_length_b 14.270558
_cell_length_c 13.908295
_cell_angle_alpha 44.472688
_cell_angle_beta 101.157971
_cell_angle_gamma 75.137227
_cell_volume 681.799681
_symmetry_space_group_name_H-M "P -1"
_symmetry_group_IT_number 2
_symmetry_cell_setting 'triclinic'
loop_
_space_group_symop_operation_xyz
x,y,z
-x,-y,-z
loop_
_atom_site_type_symbol
_atom_site_label
_atom_site_fract_x
_atom_site_fract_y
_atom_site_fract_z
Si Si1 0.357793 0.736751 0.853992
Si Si2 0.013227 0.998547 0.872280
Si Si3 0.422455 0.327327 0.870344
Si Si4 0.517659 0.391220 0.361942
Si Si5 0.911882 0.907796 0.402102
Si Si6 0.796214 0.477360 0.942760
Si Si7 0.408067 0.206401 0.631016
Si Si8 0.781235 0.820292 0.166072
O O1 0.511968 0.615253 0.868551
O O2 0.228205 0.922257 0.679193
O O3 0.555299 0.684841 0.002593
O O4 0.144847 0.698742 0.902396
O O5 0.086495 0.040065 0.745645
O O6 0.008303 0.128785 0.847514
O O7 0.710601 0.045856 0.799854
O O8 0.275786 0.814908 0.039925
O O9 0.376238 0.493205 0.708500
O O10 0.216733 0.289221 0.837388
O O11 0.257170 0.481154 0.203933
O O12 0.452567 0.337948 0.494361
O O13 0.772212 0.227276 0.453941
O O14 0.732419 0.835635 0.432616
O O15 0.000000 0.500000 0.000000
O O16 0.237094 0.252598 0.680763
O O17 0.500000 0.000000 0.000000
#
# Coordination Sequence:
#
# PCOD9096525 Si02
#       8
#     2   2   2   2   2   2   2   2
#     4   9  20  39  60  80 110 146 185 232 274 324
#     4   8  17  35  56  82 110 143 194 233 266 327
#     4   9  18  35  57  81 111 148 188 233 277 324
#     4  10  22  37  54  83 116 144 184 230 280 339
#     4   9  19  37  57  78 111 152 184 218 274 334
#     4  10  22  40  62  88 110 137 184 234 281 334
#     4  10  20  36  56  81 117 151 182 232 278 321
#     4   9  18  34  56  83 112 149 193 229 272 327
#
# _framework density 23.467305
#
# number of rings (size 3 to 8) (size 9 to 14) (size 15 to 20)
#    0.000    2.750    0.000    0.750    0.000   10.000 
#    0.000   14.375    0.000    0.000    0.000    0.000 
#    0.000    0.000    0.000    0.000    0.000    0.000 
#
# Total GULP energy -89293.160140 kJ/mol
# GULP energy per Si atom -5580.822509 kJ/mol
# Density = 2.341389 g / cm^3
# Si number density = 23.467305 Si / 1000 Ang^3
#
#
#
# Elastic Constant Matrix: (Units=GPa)
#
#
# Indices 1 2 3 4 5 6 
#
# 1 39.4069 -0.2821 16.7790 -0.3905 3.2328 10.1122
# 2 -0.2821 73.6420 17.6763 -0.4759 -13.4406 11.1315
# 3 16.7790 17.6763 85.2916 -9.7085 -15.3129 2.9896
# 4 -0.3905 -0.4759 -9.7085 26.0322 7.9658 -4.8099
# 5 3.2328 -13.4406 -15.3129 7.9658 26.1018 2.6412
# 6 10.1122 11.1315 2.9896 -4.8099 2.6412 40.0292
#
#
#
# Elastic Compliance Matrix: (Units=1/GPa)
#
#
# Indices 1 2 3 4 5 6 
#
# 1 0.031024 0.002003 -0.007520 -0.001929 -0.005857 -0.007678
# 2 0.002003 0.016701 -0.002565 -0.004442 0.008817 -0.006074
# 3 -0.007520 -0.002565 0.015427 0.003580 0.007427 0.001401
# 4 -0.001929 -0.004442 0.003580 0.045584 -0.014659 0.007900
# 5 -0.005857 0.008817 0.007427 -0.014659 0.053095 -0.006792
# 6 -0.007678 -0.006074 0.001401 0.007900 -0.006792 0.029903
#
#
# Mechanical properties :
#
#
# Convention : Reuss Voigt Hill
#
# Bulk Modulus (GPa) = 21.28192 29.63188 25.45690
# Shear Modulus (GPa) = 22.36507 29.37715 25.87111
#
# Velocity S-wave (km/s) = 3.09047 3.54196 3.32389
# Velocity P-wave (km/s) = 4.67152 5.42048 5.05988
#
# Compressibility (1/GPa) = 0.04698825
#
# Stress axis : x y z
#
# Youngs Moduli (GPa) = 32.23268 59.87564 64.82006
#
# Poissons Ratio (x) = -0.11993 0.48748
# Poissons Ratio (y) = -0.06456 0.16626
# Poissons Ratio (z) = 0.24240 0.15358
#
# Static dielectric constant tensor:
#      x y z
#    x 1.924990 0.009260 0.001120 
#    y 0.009260 1.917520 0.011560 
#    z 0.001120 0.011560 1.916420 
# 
# From -- ./inp_files/37931.got.cif
#   From: 2010.05.17/outbox.cif.g08.bks.cpg/sg2_19_cif.got.tgz:37931.got - 2010.06.03 11:33:40.
