data_PCOD9096571
_publ_section_title
;
Structure prediction by ZEFSAII (Michael W. Deem and Ramdas Pophale) SiO2 
 PCOD9096571
Probable space group: P -1
;
_chemical_formula_sum "Si O2"
_cell_formula_units_Z 16
_cell_length_a 5.063732
_cell_length_b 15.515885
_cell_length_c 23.688713
_cell_angle_alpha 23.901110
_cell_angle_beta 93.046983
_cell_angle_gamma 102.374638
_cell_volume 686.954111
_symmetry_space_group_name_H-M "P -1"
_symmetry_group_IT_number 2
_symmetry_cell_setting 'triclinic'
loop_
_space_group_symop_operation_xyz
x,y,z
-x,-y,-z
loop_
_atom_site_type_symbol
_atom_site_label
_atom_site_fract_x
_atom_site_fract_y
_atom_site_fract_z
Si Si1 0.354952 0.012069 0.551249
Si Si2 0.103174 0.287573 0.565564
Si Si3 0.341627 0.796965 0.218365
Si Si4 0.575894 0.265068 0.511689
Si Si5 0.140273 0.502593 0.846170
Si Si6 0.056318 0.006313 0.843561
Si Si7 0.644456 0.541030 0.753854
Si Si8 0.110440 0.273032 0.824818
O O1 0.162730 0.746829 0.725418
O O2 0.500000 0.000000 0.500000
O O3 0.573052 0.135657 0.530769
O O4 0.216322 0.198489 0.426908
O O5 0.245243 0.566958 0.393846
O O6 0.259394 0.201412 0.570574
O O7 0.144400 0.189036 0.684382
O O8 0.769038 0.211521 0.592207
O O9 0.682106 0.935426 0.144469
O O10 0.201243 0.962226 0.144923
O O11 0.204079 0.723644 0.198245
O O12 0.719205 0.542937 0.334300
O O13 0.904814 0.466341 0.814661
O O14 0.466833 0.550012 0.802630
O O15 0.026626 0.254311 0.023880
O O16 0.365595 0.387016 0.805510
O O17 0.000000 0.000000 0.000000
#
# Coordination Sequence:
#
# PCOD9096571 Si02
#       8
#     2   2   2   2   2   2   2   2
#     4   9  21  41  65  91 121 158 194 240 297 361
#     4  11  23  42  61  85 119 160 201 247 295 349
#     4  11  23  39  60  87 119 159 202 242 295 361
#     4  10  23  40  62  89 119 156 200 239 294 365
#     4  11  22  38  59  89 118 153 202 247 292 351
#     4  12  23  39  61  87 117 157 205 254 293 339
#     4  10  22  37  58  85 122 158 191 237 299 362
#     4  10  20  36  56  85 119 151 186 238 293 346
#
# _framework density 23.291219000000002
#
# number of rings (size 3 to 8) (size 9 to 14) (size 15 to 20)
#    0.000    1.500    0.000    5.625    0.000   11.000 
#    0.000    8.750    0.000    0.000    0.000    0.000 
#    0.000    0.000    0.000    0.000    0.000    0.000 
#
# Total GULP energy -89212.481591 kJ/mol
# GULP energy per Si atom -5575.780099 kJ/mol
# Density = 2.323821 g / cm^3
# Si number density = 23.291219 Si / 1000 Ang^3
#
#
#
# Elastic Constant Matrix: (Units=GPa)
#
#
# Indices 1 2 3 4 5 6 
#
# 1 119.5204 23.3356 31.2082 1.5481 9.4746 8.1511
# 2 23.3356 71.8641 33.6397 -7.4059 4.3128 5.4962
# 3 31.2082 33.6397 144.5597 -18.6326 17.5852 12.1071
# 4 1.5481 -7.4059 -18.6326 39.5491 4.7249 -0.2225
# 5 9.4746 4.3128 17.5852 4.7249 18.3226 1.8836
# 6 8.1511 5.4962 12.1071 -0.2225 1.8836 25.2919
#
#
#
# Elastic Compliance Matrix: (Units=1/GPa)
#
#
# Indices 1 2 3 4 5 6 
#
# 1 0.009481 -0.002344 -0.001141 -0.001022 -0.002807 -0.001800
# 2 -0.002344 0.016347 -0.002939 0.001777 -0.000134 -0.001365
# 3 -0.001141 -0.002939 0.009903 0.005250 -0.009269 -0.002998
# 4 -0.001022 0.001777 0.005250 0.029608 -0.012421 -0.001384
# 5 -0.002807 -0.000134 -0.009269 -0.012421 0.068140 0.000187
# 6 -0.001800 -0.001365 -0.002998 -0.001384 0.000187 0.041824
#
#
# Mechanical properties :
#
#
# Convention : Reuss Voigt Hill
#
# Bulk Modulus (GPa) = 43.69734 56.92346 50.31040
# Shear Modulus (GPa) = 25.53923 33.15010 29.34467
#
# Velocity S-wave (km/s) = 3.31496 3.77674 3.55336
# Velocity P-wave (km/s) = 5.78394 6.59631 6.20344
#
# Compressibility (1/GPa) = 0.02288469
#
# Stress axis : x y z
#
# Youngs Moduli (GPa) = 105.47639 61.17238 100.97982
#
# Poissons Ratio (x) = 0.14337 0.11521
# Poissons Ratio (y) = 0.24721 0.29673
# Poissons Ratio (z) = 0.12034 0.17976
#
# Static dielectric constant tensor:
#      x y z
#    x 1.943450 -0.049380 0.025630 
#    y -0.049380 1.960970 -0.051020 
#    z 0.025630 -0.051020 1.884070 
# 
# From -- ./inp_files/615787.got.cif
#   From: 2010.05.17/outbox.cif.g08.bks.cpg/sg2_308_cif.got.tgz:615787.got - 2010.06.03 11:33:40.
