data_PCOD9096614
_publ_section_title
;
Structure prediction by ZEFSAII (Michael W. Deem and Ramdas Pophale) SiO2 
 PCOD9096614
Probable space group: P -1
;
_chemical_formula_sum "Si O2"
_cell_formula_units_Z 16
_cell_length_a 14.237447
_cell_length_b 19.910789
_cell_length_c 12.060653
_cell_angle_alpha 31.214667
_cell_angle_beta 149.860431
_cell_angle_gamma 139.574682
_cell_volume 886.578317
_symmetry_space_group_name_H-M "P -1"
_symmetry_group_IT_number 2
_symmetry_cell_setting 'triclinic'
loop_
_space_group_symop_operation_xyz
x,y,z
-x,-y,-z
loop_
_atom_site_type_symbol
_atom_site_label
_atom_site_fract_x
_atom_site_fract_y
_atom_site_fract_z
Si Si1 0.360967 0.115711 0.877208
Si Si2 0.798133 0.092710 0.305390
Si Si3 0.295712 0.654029 0.581864
Si Si4 0.036883 0.810777 0.224921
Si Si5 0.705454 0.804362 0.535481
Si Si6 0.919134 0.888824 0.229673
Si Si7 0.263037 0.351454 0.004224
Si Si8 0.733793 0.173513 0.893274
O O1 0.283844 0.201211 0.578200
O O2 0.284110 0.151184 0.868029
O O3 0.584772 0.112779 0.097965
O O4 0.271376 0.968890 0.966432
O O5 0.936631 0.123103 0.505005
O O6 0.799975 0.941705 0.483737
O O7 0.838264 0.171792 0.120030
O O8 0.219331 0.735655 0.489542
O O9 0.234778 0.502258 0.745468
O O10 0.213263 0.717350 0.297480
O O11 0.521020 0.668173 0.780210
O O12 0.975919 0.810471 0.290930
O O13 0.872677 0.739337 0.083764
O O14 0.071639 0.960400 0.011126
O O15 0.483238 0.813344 0.316251
O O16 0.763973 0.692182 0.833855
#
# Coordination Sequence:
#
# PCOD9096614 Si02
#       8
#     2   2   2   2   2   2   2   2
#     4   9  17  31  50  74 105 130 162 214 253 295
#     4   9  17  31  50  74 105 130 162 214 253 295
#     4  10  20  36  57  76 100 134 169 211 257 294
#     4  11  23  35  47  76 110 133 174 207 235 310
#     4   8  15  29  51  78 100 124 167 214 255 293
#     4  11  22  32  50  75 105 146 166 191 258 310
#     4  10  20  36  57  76 100 134 169 211 257 294
#     4   8  15  29  51  78 100 124 167 214 255 293
#
# _framework density 18.046911999999999
#
# number of rings (size 3 to 8) (size 9 to 14) (size 15 to 20)
#    0.000    2.500    2.500    1.875    0.000    4.000 
#    0.000    2.500    0.000    3.000    0.000    7.000 
#    0.000    0.000    0.000    0.000    0.000    0.000 
#
# Total GULP energy -89235.128205 kJ/mol
# GULP energy per Si atom -5577.195513 kJ/mol
# Density = 1.800584 g / cm^3
# Si number density = 18.046912 Si / 1000 Ang^3
#
#
#
# Elastic Constant Matrix: (Units=GPa)
#
#
# Indices 1 2 3 4 5 6 
#
# 1 131.1884 14.2203 49.6690 -13.6952 -8.8623 -7.2905
# 2 14.2203 24.8233 17.0686 -8.9151 1.7221 3.0788
# 3 49.6690 17.0686 63.8030 -12.1263 -5.0932 4.7957
# 4 -13.6952 -8.9151 -12.1263 25.8630 9.8173 -0.7384
# 5 -8.8623 1.7221 -5.0932 9.8173 30.9172 0.7352
# 6 -7.2905 3.0788 4.7957 -0.7384 0.7352 19.0827
#
#
#
# Elastic Compliance Matrix: (Units=1/GPa)
#
#
# Indices 1 2 3 4 5 6 
#
# 1 0.011777 -0.000990 -0.009064 0.001331 0.001350 0.006937
# 2 -0.000990 0.056426 -0.011445 0.017476 -0.010730 -0.005516
# 3 -0.009064 -0.011445 0.027146 0.003087 0.001731 -0.008386
# 4 0.001331 0.017476 0.003087 0.053281 -0.016993 -0.000371
# 5 0.001350 -0.010730 0.001731 -0.016993 0.039018 -0.000349
# 6 0.006937 -0.005516 -0.008386 -0.000371 -0.000349 0.058050
#
#
# Mechanical properties :
#
#
# Convention : Reuss Voigt Hill
#
# Bulk Modulus (GPa) = 19.10167 42.41451 30.75809
# Shear Modulus (GPa) = 16.33195 24.42970 20.38083
#
# Velocity S-wave (km/s) = 3.01154 3.68323 3.36419
# Velocity P-wave (km/s) = 4.76444 6.45303 5.67193
#
# Compressibility (1/GPa) = 0.05235144
#
# Stress axis : x y z
#
# Youngs Moduli (GPa) = 84.90882 17.72226 36.83752
#
# Poissons Ratio (x) = 0.01755 0.33390
# Poissons Ratio (y) = 0.08409 0.42159
# Poissons Ratio (z) = 0.76962 0.20283
#
# Static dielectric constant tensor:
#      x y z
#    x 1.661370 0.042480 0.009080 
#    y 0.042480 1.584490 0.018460 
#    z 0.009080 0.018460 1.646650 
# 
# From -- ./inp_files/277925.got.cif
#   From: 2010.05.17/outbox.cif.g08.bks.cpg/sg2_139_cif.got.tgz:277925.got - 2010.06.03 11:33:40.
