data_PCOD9096058
_publ_section_title
;
Structure prediction by ZEFSAII (Michael W. Deem and Ramdas Pophale) SiO2 
 PCOD9096058
Probable space group: P -1
;
_chemical_formula_sum "Si O2"
_cell_formula_units_Z 14
_cell_length_a 12.046821
_cell_length_b 8.698127
_cell_length_c 18.885929
_cell_angle_alpha 47.761534
_cell_angle_beta 152.212173
_cell_angle_gamma 131.996169
_cell_volume 666.990747
_symmetry_space_group_name_H-M "P -1"
_symmetry_group_IT_number 2
_symmetry_cell_setting 'triclinic'
loop_
_space_group_symop_operation_xyz
x,y,z
-x,-y,-z
loop_
_atom_site_type_symbol
_atom_site_label
_atom_site_fract_x
_atom_site_fract_y
_atom_site_fract_z
Si Si1 0.937196 0.434933 0.365251
Si Si2 0.573752 0.782333 0.931395
Si Si3 0.269321 0.814217 0.884410
Si Si4 0.957920 0.431271 0.760342
Si Si5 0.823161 0.257339 0.883653
Si Si6 0.698798 0.489048 0.875418
Si Si7 0.818595 0.720967 0.327521
O O1 0.669130 0.329853 0.214480
O O2 0.117400 0.529523 0.373575
O O3 0.937277 0.634404 0.354305
O O4 0.024853 0.264143 0.517342
O O5 0.488998 0.783728 0.965425
O O6 0.674031 0.025674 0.890657
O O7 0.796953 0.665931 0.079896
O O8 0.035393 0.668761 0.760917
O O9 0.252672 0.057158 0.798344
O O10 0.264492 0.703813 0.992195
O O11 0.802186 0.299506 0.775471
O O12 0.745617 0.427776 0.840472
O O13 0.113527 0.304030 0.053342
O O14 0.414706 0.471241 0.730078
#
# Coordination Sequence:
#
# PCOD9096058 Si02
#       7
#     2   2   2   2   2   2   2
#     4  10  23  37  60  82 115 142 192 232 280 327
#     4  11  20  37  59  88 110 147 186 237 274 323
#     4  10  20  35  62  81 110 145 192 233 274 316
#     4  10  21  37  55  88 114 146 186 231 272 337
#     4  10  21  35  58  85 115 147 183 227 285 320
#     4  10  20  36  59  89 110 143 191 232 268 340
#     4  11  21  38  60  84 110 150 185 236 278 327
#
# _framework density 20.989796999999999
#
# number of rings (size 3 to 8) (size 9 to 14) (size 15 to 20)
#    0.000    1.714    1.429    5.143    2.000    2.286 
#    0.000    0.714    6.286    2.571    0.000    0.000 
#    0.000    0.000    0.000    0.000    0.000    0.000 
#
# Total GULP energy -78041.712569 kJ/mol
# GULP energy per Si atom -5574.408041 kJ/mol
# Density = 2.094202 g / cm^3
# Si number density = 20.989797 Si / 1000 Ang^3
#
#
#
# Elastic Constant Matrix: (Units=GPa)
#
#
# Indices 1 2 3 4 5 6 
#
# 1 127.0620 25.5533 20.5487 -9.3033 -32.4611 10.7335
# 2 25.5533 75.3112 -0.6349 -3.7005 -10.1783 18.6586
# 3 20.5487 -0.6349 44.1040 1.1533 -24.1658 -3.5463
# 4 -9.3033 -3.7005 1.1533 9.9911 0.4421 -1.5573
# 5 -32.4611 -10.1783 -24.1658 0.4421 25.2122 0.3032
# 6 10.7335 18.6586 -3.5463 -1.5573 0.3032 30.3136
#
#
#
# Elastic Compliance Matrix: (Units=1/GPa)
#
#
# Indices 1 2 3 4 5 6 
#
# 1 0.014054 -0.000057 0.005635 0.010765 0.023332 -0.003962
# 2 -0.000057 0.017934 0.007022 0.003579 0.013957 -0.010153
# 3 0.005635 0.007022 0.054069 -0.001240 0.061945 -0.000676
# 4 0.010765 0.003579 -0.001240 0.110952 0.012178 -0.000581
# 5 0.023332 0.013957 0.061945 0.012178 0.134623 -0.010326
# 6 -0.003962 -0.010153 -0.000676 -0.000581 -0.010326 0.040635
#
#
# Mechanical properties :
#
#
# Convention : Reuss Voigt Hill
#
# Bulk Modulus (GPa) = 8.98816 37.49015 23.23915
# Shear Modulus (GPa) = 13.01567 26.50405 19.75986
#
# Velocity S-wave (km/s) = 2.49287 3.55732 3.07156
# Velocity P-wave (km/s) = 3.54645 5.89683 4.86569
#
# Compressibility (1/GPa) = 0.11125752
#
# Stress axis : x y z
#
# Youngs Moduli (GPa) = 71.15460 55.75903 18.49500
#
# Poissons Ratio (x) = 0.00318 -0.10423
# Poissons Ratio (y) = 0.00406 -0.12987
# Poissons Ratio (z) = -0.40099 -0.39154
#
# Static dielectric constant tensor:
#      x y z
#    x 1.813530 0.001490 0.001350 
#    y 0.001490 1.737780 0.025040 
#    z 0.001350 0.025040 1.820500 
# 
# From -- ./inp_files/225604.got.cif
#   From: 2010.05.17/outbox.cif.g08.bks.cpg/sg2_113_cif.got.tgz:225604.got - 2010.06.03 11:33:40.
