data_PCOD9096067
_publ_section_title
;
Structure prediction by ZEFSAII (Michael W. Deem and Ramdas Pophale) SiO2 
 PCOD9096067
Probable space group: P -1
;
_chemical_formula_sum "Si O2"
_cell_formula_units_Z 14
_cell_length_a 9.430628
_cell_length_b 8.966601
_cell_length_c 17.826382
_cell_angle_alpha 43.561875
_cell_angle_beta 138.816428
_cell_angle_gamma 134.107909
_cell_volume 645.233916
_symmetry_space_group_name_H-M "P -1"
_symmetry_group_IT_number 2
_symmetry_cell_setting 'triclinic'
loop_
_space_group_symop_operation_xyz
x,y,z
-x,-y,-z
loop_
_atom_site_type_symbol
_atom_site_label
_atom_site_fract_x
_atom_site_fract_y
_atom_site_fract_z
Si Si1 0.071304 0.739165 0.245112
Si Si2 0.636633 0.984331 0.219853
Si Si3 0.295998 0.611702 0.152992
Si Si4 0.581917 0.774954 0.432436
Si Si5 0.304200 0.256121 0.025632
Si Si6 0.915698 0.812896 0.872877
Si Si7 0.076420 0.339983 0.304434
O O1 0.347065 0.826117 0.330794
O O2 0.014225 0.462558 0.309498
O O3 0.016459 0.916302 0.216890
O O4 0.919528 0.775293 0.101642
O O5 0.551472 0.788850 0.194865
O O6 0.682202 0.881456 0.354426
O O7 0.423024 0.073178 0.115381
O O8 0.858713 0.203868 0.217664
O O9 0.246986 0.366886 0.183951
O O10 0.223850 0.547295 0.234424
O O11 0.135015 0.733842 0.003930
O O12 0.500000 0.500000 0.500000
O O13 0.779385 0.823189 0.555581
O O14 0.225193 0.231876 0.088718
O O15 0.500000 0.500000 0.000000
#
# Coordination Sequence:
#
# PCOD9096067 Si02
#       7
#     2   2   2   2   2   2   2
#     4  11  19  36  61  82 114 151 194 240 284 334
#     4  12  20  37  64  85 119 149 189 249 287 337
#     4  11  22  38  56  84 125 154 187 233 294 358
#     4  10  20  35  62  84 113 151 202 240 276 335
#     4  12  20  35  60  93 115 140 199 246 286 344
#     4  11  21  37  57  84 120 158 183 236 302 338
#     4  11  22  38  59  89 111 154 198 236 287 335
#
# _framework density 21.697557
#
# number of rings (size 3 to 8) (size 9 to 14) (size 15 to 20)
#    0.000    0.857    8.571    0.857    0.000    0.000 
#    2.571    2.857    0.000    0.857    0.000    0.000 
#    0.000    0.000    0.000    0.000    0.000    0.000 
#
# Total GULP energy -77955.814390 kJ/mol
# GULP energy per Si atom -5568.272456 kJ/mol
# Density = 2.164817 g / cm^3
# Si number density = 21.697557 Si / 1000 Ang^3
#
#
#
# Elastic Constant Matrix: (Units=GPa)
#
#
# Indices 1 2 3 4 5 6 
#
# 1 29.8392 18.7268 10.7337 4.5166 11.2367 4.7684
# 2 18.7268 141.0122 19.9542 17.0840 10.1875 -12.0104
# 3 10.7337 19.9542 121.9161 7.4962 22.4719 -2.5135
# 4 4.5166 17.0840 7.4962 37.7381 8.3289 0.4080
# 5 11.2367 10.1875 22.4719 8.3289 16.9241 -0.0312
# 6 4.7684 -12.0104 -2.5135 0.4080 -0.0312 30.6963
#
#
#
# Elastic Compliance Matrix: (Units=1/GPa)
#
#
# Indices 1 2 3 4 5 6 
#
# 1 0.050640 -0.005869 0.002599 0.004033 -0.035543 -0.010040
# 2 -0.005869 0.008664 -0.000890 -0.003434 0.001560 0.004276
# 3 0.002599 -0.000890 0.011105 0.001572 -0.016708 0.000120
# 4 0.004033 -0.003434 0.001572 0.031276 -0.018094 -0.002275
# 5 -0.035543 0.001560 -0.016708 -0.018094 0.112847 0.005119
# 6 -0.010040 0.004276 0.000120 -0.002275 0.005119 0.035855
#
#
# Mechanical properties :
#
#
# Convention : Reuss Voigt Hill
#
# Bulk Modulus (GPa) = 16.10581 43.51075 29.80828
# Shear Modulus (GPa) = 17.89531 33.29521 25.59526
#
# Velocity S-wave (km/s) = 2.87498 3.92154 3.43831
# Velocity P-wave (km/s) = 4.29647 6.37193 5.43420
#
# Compressibility (1/GPa) = 0.06208939
#
# Stress axis : x y z
#
# Youngs Moduli (GPa) = 19.74729 115.41534 90.05202
#
# Poissons Ratio (x) = 0.67733 -0.23401
# Poissons Ratio (y) = 0.11589 0.08012
# Poissons Ratio (z) = -0.05131 0.10268
#
# Static dielectric constant tensor:
#      x y z
#    x 1.811110 -0.009760 0.024580 
#    y -0.009760 1.901270 -0.002340 
#    z 0.024580 -0.002340 1.829910 
# 
# From -- ./inp_files/170526.got.cif
#   From: 2010.05.17/outbox.cif.g08.bks.cpg/sg2_86_cif.got.tgz:170526.got - 2010.06.03 11:33:40.
