data_PCOD9096475
_publ_section_title
;
Structure prediction by ZEFSAII (Michael W. Deem and Ramdas Pophale) SiO2 
 PCOD9096475
Probable space group: P -1
;
_chemical_formula_sum "Si O2"
_cell_formula_units_Z 14
_cell_length_a 14.356350
_cell_length_b 8.843710
_cell_length_c 14.951047
_cell_angle_alpha 125.177573
_cell_angle_beta 30.282605
_cell_angle_gamma 107.591316
_cell_volume 689.017496
_symmetry_space_group_name_H-M "P -1"
_symmetry_group_IT_number 2
_symmetry_cell_setting 'triclinic'
loop_
_space_group_symop_operation_xyz
x,y,z
-x,-y,-z
loop_
_atom_site_type_symbol
_atom_site_label
_atom_site_fract_x
_atom_site_fract_y
_atom_site_fract_z
Si Si1 0.207199 0.056693 0.245180
Si Si2 0.513474 0.218175 0.459899
Si Si3 0.418716 0.427689 0.925384
Si Si4 0.364928 0.343016 0.273023
Si Si5 0.260096 0.496272 0.607662
Si Si6 0.222927 0.265465 0.884988
Si Si7 0.234838 0.839759 0.333608
O O1 0.237286 0.262009 0.288562
O O2 0.985411 0.081080 0.406418
O O3 0.216816 0.996068 0.322266
O O4 0.408501 0.863066 0.969390
O O5 0.396089 0.297308 0.489971
O O6 0.627433 0.357818 0.433550
O O7 0.341849 0.259858 0.693071
O O8 0.680685 0.973828 0.242463
O O9 0.578860 0.493628 0.766973
O O10 0.282515 0.389797 0.952061
O O11 0.565955 0.221735 0.790107
O O12 0.281692 0.621985 0.170481
O O13 0.255210 0.430189 0.487390
O O14 0.025329 0.624942 0.882849
#
# Coordination Sequence:
#
# PCOD9096475 Si02
#       7
#     2   2   2   2   2   2   2
#     4   9  19  36  57  83 117 156 194 239 286 351
#     4  10  24  42  63  90 118 154 208 248 293 365
#     4  10  20  36  56  85 120 152 195 241 290 358
#     4  10  20  36  55  85 122 148 194 244 288 356
#     4  11  22  42  64  89 121 159 195 251 304 347
#     4  11  22  42  64  88 121 159 196 251 300 352
#     4   9  19  36  57  83 116 158 195 234 292 350
#
# _framework density 20.318784999999998
#
# number of rings (size 3 to 8) (size 9 to 14) (size 15 to 20)
#    0.000    2.000    1.429    1.714    2.000    0.571 
#    2.571    1.429    0.000    0.000    0.000    0.000 
#    0.000    0.000    0.000    0.000    0.000    0.000 
#
# Total GULP energy -78207.242223 kJ/mol
# GULP energy per Si atom -5586.231587 kJ/mol
# Density = 2.027254 g / cm^3
# Si number density = 20.318785 Si / 1000 Ang^3
#
#
#
# Elastic Constant Matrix: (Units=GPa)
#
#
# Indices 1 2 3 4 5 6 
#
# 1 9.7997 7.8138 -1.4378 3.3417 -1.6646 -15.6008
# 2 7.8138 72.3095 0.4406 1.5965 -10.7389 -1.3832
# 3 -1.4378 0.4406 35.1116 -15.5592 -12.1271 16.6522
# 4 3.3417 1.5965 -15.5592 17.6719 3.8983 -1.4098
# 5 -1.6646 -10.7389 -12.1271 3.8983 26.0155 3.5003
# 6 -15.6008 -1.3832 16.6522 -1.4098 3.5003 6.8605
#
#
#
# Elastic Compliance Matrix: (Units=1/GPa)
#
#
# Indices 1 2 3 4 5 6 
#
# 1 0.028016 -0.001109 0.043031 0.023424 0.024424 -0.048611
# 2 -0.001109 0.014834 -0.003427 -0.004674 0.004405 0.005578
# 3 0.043031 -0.003427 0.029179 0.017955 0.008815 0.025530
# 4 0.023424 -0.004674 0.017955 0.071951 -0.006451 0.026818
# 5 0.024424 0.004405 0.008815 -0.006451 0.045483 0.010501
# 6 -0.048611 0.005578 0.025530 0.026818 0.010501 -0.025471
#
#
# Mechanical properties :
#
#
# Convention : Reuss Voigt Hill
#
# Bulk Modulus (GPa) = 6.71050 14.53933 10.62492
# Shear Modulus (GPa) = 36.58297 17.46984 27.02640
#
# Velocity S-wave (km/s) = 4.24777 2.93539 3.65104
# Velocity P-wave (km/s) = 5.23143 4.31971 4.79728
#
# Compressibility (1/GPa) = 0.14902017
#
# Stress axis : x y z
#
# Youngs Moduli (GPa) = 35.69369 67.41127 34.27126
#
# Poissons Ratio (x) = 0.07478 -1.47474
# Poissons Ratio (y) = 0.03960 0.11744
# Poissons Ratio (z) = -1.53595 0.23100
#
# Static dielectric constant tensor:
#      x y z
#    x 1.700410 -0.004900 -0.009070 
#    y -0.004900 1.726410 -0.000180 
#    z -0.009070 -0.000180 1.707810 
# 
# From -- ./inp_files/197313.got.cif
#   From: 2010.05.17/outbox.cif.g08.bks.cpg/sg2_99_cif.got.tgz:197313.got - 2010.06.03 11:33:40.
