data_PCOD9096988
_publ_section_title
;
Structure prediction by ZEFSAII (Michael W. Deem and Ramdas Pophale) SiO2 
 PCOD9096988
Probable space group: P -1
;
_chemical_formula_sum "Si O2"
_cell_formula_units_Z 14
_cell_length_a 5.277948
_cell_length_b 18.846866
_cell_length_c 15.931139
_cell_angle_alpha 152.088762
_cell_angle_beta 125.533018
_cell_angle_gamma 47.097430
_cell_volume 542.423152
_symmetry_space_group_name_H-M "P -1"
_symmetry_group_IT_number 2
_symmetry_cell_setting 'triclinic'
loop_
_space_group_symop_operation_xyz
x,y,z
-x,-y,-z
loop_
_atom_site_type_symbol
_atom_site_label
_atom_site_fract_x
_atom_site_fract_y
_atom_site_fract_z
Si Si1 0.565837 0.829997 0.592053
Si Si2 0.172718 0.644077 0.278626
Si Si3 0.091394 0.628330 0.057749
Si Si4 0.274124 0.805105 0.763535
Si Si5 0.959618 0.791473 0.852686
Si Si6 0.996259 0.849575 0.106904
Si Si7 0.419234 0.044947 0.435843
O O1 0.504854 0.664239 0.397432
O O2 0.369374 0.930933 0.574767
O O3 0.962031 0.794756 0.641137
O O4 0.356499 0.973514 0.770905
O O5 0.066481 0.708560 0.229083
O O6 0.881650 0.765710 0.413163
O O7 0.150007 0.468528 0.090156
O O8 0.015801 0.737471 0.073598
O O9 0.500000 0.500000 0.000000
O O10 0.652278 0.734590 0.721049
O O11 0.250424 0.729724 0.771843
O O12 0.174708 0.004327 0.963524
O O13 0.044486 0.757574 0.931699
O O14 0.288714 0.913846 0.238692
O O15 0.500000 0.000000 0.500000
#
# Coordination Sequence:
#
# PCOD9096988 Si02
#       7
#     2   2   2   2   2   2   2
#     4  11  21  36  60  93 121 161 195 262 316 377
#     4  10  23  39  58  84 118 164 209 245 313 372
#     4  11  23  43  60  83 120 172 208 256 299 381
#     4  10  20  36  61  91 136 158 205 252 331 375
#     4  10  20  36  58  97 128 165 198 267 312 383
#     4  11  22  35  60  92 123 155 211 254 318 361
#     4  11  21  35  57  90 121 152 197 262 312 369
#
# _framework density 25.810109000000001
#
# number of rings (size 3 to 8) (size 9 to 14) (size 15 to 20)
#    0.000    1.429    1.429    6.000    2.000    3.429 
#    0.000    0.000    0.000    1.714    0.000    0.000 
#    0.000    0.000    0.000    0.000    0.000    0.000 
#
# Total GULP energy -78228.729677 kJ/mol
# GULP energy per Si atom -5587.766405 kJ/mol
# Density = 2.575136 g / cm^3
# Si number density = 25.810109 Si / 1000 Ang^3
#
#
#
# Elastic Constant Matrix: (Units=GPa)
#
#
# Indices 1 2 3 4 5 6 
#
# 1 104.2862 39.0164 41.0018 -8.5999 14.5591 16.8794
# 2 39.0164 98.6908 60.0079 -22.9702 -5.0993 32.4309
# 3 41.0018 60.0079 119.0143 -21.7610 35.0085 1.1695
# 4 -8.5999 -22.9702 -21.7610 26.4994 3.7363 0.4037
# 5 14.5591 -5.0993 35.0085 3.7363 51.6527 -13.7022
# 6 16.8794 32.4309 1.1695 0.4037 -13.7022 44.4737
#
#
#
# Elastic Compliance Matrix: (Units=1/GPa)
#
#
# Indices 1 2 3 4 5 6 
#
# 1 0.012458 -0.002546 -0.001665 0.001061 -0.003772 -0.003999
# 2 -0.002546 0.027372 -0.012516 0.011947 0.006598 -0.016740
# 3 -0.001665 -0.012516 0.020787 0.007601 -0.014134 0.004788
# 4 0.001061 0.011947 0.007601 0.056569 -0.011947 -0.013509
# 5 -0.003772 0.006598 -0.014134 -0.011947 0.033486 0.007418
# 6 -0.003999 -0.016740 0.004788 -0.013509 0.007418 0.038492
#
#
# Mechanical properties :
#
#
# Convention : Reuss Voigt Hill
#
# Bulk Modulus (GPa) = 36.81556 66.89373 51.85464
# Shear Modulus (GPa) = 21.58218 36.65620 29.11919
#
# Velocity S-wave (km/s) = 2.89483 3.77268 3.36253
# Velocity P-wave (km/s) = 5.04662 6.70458 5.93379
#
# Compressibility (1/GPa) = 0.02716243
#
# Stress axis : x y z
#
# Youngs Moduli (GPa) = 80.27163 36.53369 48.10718
#
# Poissons Ratio (x) = 0.09302 0.08011
# Poissons Ratio (y) = 0.20439 0.60209
# Poissons Ratio (z) = 0.13367 0.45724
#
# Static dielectric constant tensor:
#      x y z
#    x 2.130540 -0.004400 -0.039490 
#    y -0.004400 2.196630 -0.004060 
#    z -0.039490 -0.004060 1.983830 
# 
# From -- ./inp_files/485080.got.cif
#   From: 2010.05.17/outbox.cif.g08.bks.cpg/sg2_243_cif.got.tgz:485080.got - 2010.06.03 11:33:40.
