data_PCOD9096218
_publ_section_title
;
Structure prediction by ZEFSAII (Michael W. Deem and Ramdas Pophale) SiO2 
 PCOD9096218
Probable space group: P -1
;
_chemical_formula_sum "Si O2"
_cell_formula_units_Z 15
_cell_length_a 9.089723
_cell_length_b 10.346287
_cell_length_c 14.472633
_cell_angle_alpha 72.323972
_cell_angle_beta 43.360714
_cell_angle_gamma 44.650052
_cell_volume 588.892683
_symmetry_space_group_name_H-M "P -1"
_symmetry_group_IT_number 2
_symmetry_cell_setting 'triclinic'
loop_
_space_group_symop_operation_xyz
x,y,z
-x,-y,-z
loop_
_atom_site_type_symbol
_atom_site_label
_atom_site_fract_x
_atom_site_fract_y
_atom_site_fract_z
Si Si1 0.000000 0.000000 0.000000
Si Si2 0.968605 0.176582 0.810736
Si Si3 0.206158 0.030035 0.225645
Si Si4 0.755021 0.516412 0.974865
Si Si5 0.157479 0.076482 0.547881
Si Si6 0.341054 0.362958 0.650782
Si Si7 0.842280 0.359623 0.472639
Si Si8 0.084826 0.209868 0.047460
O O1 0.856447 0.939529 0.019435
O O2 0.148574 0.991140 0.837619
O O3 0.850718 0.356969 0.888689
O O4 0.620500 0.276347 0.917569
O O5 0.166902 0.112496 0.642747
O O6 0.067290 0.952845 0.340003
O O7 0.107304 0.183020 0.316377
O O8 0.591814 0.852791 0.078512
O O9 0.040225 0.161289 0.178171
O O10 0.023092 0.499563 0.828915
O O11 0.813254 0.425471 0.069474
O O12 0.465460 0.869951 0.397160
O O13 0.989807 0.275404 0.524102
O O14 0.562291 0.378512 0.586433
O O15 0.269671 0.444883 0.560431
#
# Coordination Sequence:
#
# PCOD9096218 Si02
#       8
#     1   2   2   2   2   2   2   2
#     4  10  20  40  58  88 120 170 192 266 308 378
#     4  10  23  40  64  89 123 165 216 254 325 374
#     4  10  20  36  63  97 126 166 212 256 315 382
#     4  10  22  41  61  93 126 163 210 270 310 379
#     4  11  21  41  63  90 127 167 207 262 310 380
#     4  10  22  40  61  90 126 167 206 258 315 373
#     4  10  22  38  61  89 127 166 206 258 316 371
#     4  10  20  35  63  93 125 163 214 256 318 375
#
# _framework density 25.471533999999998
#
# number of rings (size 3 to 8) (size 9 to 14) (size 15 to 20)
#    0.000    1.867    1.333    3.200    1.867    3.733 
#    2.400    2.667    0.000    0.000    0.000    0.000 
#    0.000    0.000    0.000    0.000    0.000    0.000 
#
# Total GULP energy -83645.262683 kJ/mol
# GULP energy per Si atom -5576.350846 kJ/mol
# Density = 2.541356 g / cm^3
# Si number density = 25.471534 Si / 1000 Ang^3
#
#
#
# Elastic Constant Matrix: (Units=GPa)
#
#
# Indices 1 2 3 4 5 6 
#
# 1 52.5051 19.9110 30.8024 -14.7246 20.9427 0.2618
# 2 19.9110 79.8666 23.4412 -25.6679 6.5657 -30.0701
# 3 30.8024 23.4412 127.6310 -7.6681 6.4577 -33.6510
# 4 -14.7246 -25.6679 -7.6681 47.8920 -14.9821 19.4922
# 5 20.9427 6.5657 6.4577 -14.9821 48.6723 -14.1127
# 6 0.2618 -30.0701 -33.6510 19.4922 -14.1127 28.8295
#
#
#
# Elastic Compliance Matrix: (Units=1/GPa)
#
#
# Indices 1 2 3 4 5 6 
#
# 1 -1.295694 0.810470 0.773557 -0.624173 0.916146 2.630533
# 2 0.810470 -0.484330 -0.480765 0.393428 -0.567506 -1.617514
# 3 0.773557 -0.480765 -0.448961 0.368014 -0.543870 -1.547584
# 4 -0.624173 0.393428 0.368014 -0.268833 0.444958 1.245169
# 5 0.916146 -0.567506 -0.543870 0.444958 -0.621538 -1.840178
# 6 2.630533 -1.617514 -1.547584 1.245169 -1.840178 -5.225423
#
#
# Mechanical properties :
#
#
# Convention : Reuss Voigt Hill
#
# Bulk Modulus (GPa) = -44.51946 45.36801 0.42428
# Shear Modulus (GPa) = -0.47354 37.46863 18.49754
#
# Velocity S-wave (km/s) = -0.43164 3.83952 2.69774
# Velocity P-wave (km/s) = 4.21479 6.12420 3.14176
#
# Compressibility (1/GPa) = -0.02246209
#
# Stress axis : x y z
#
# Youngs Moduli (GPa) = -0.77179 -2.06471 -2.22736
#
# Poissons Ratio (x) = 1.67338 1.72299
# Poissons Ratio (y) = 0.62551 -1.07084
# Poissons Ratio (z) = 0.59702 -0.99264
#
# Static dielectric constant tensor:
#      x y z
#    x 2.457930 -0.184680 0.092350 
#    y -0.184680 2.197770 -0.041360 
#    z 0.092350 -0.041360 1.993990 
# 
# From -- ./inp_files/389945.got.cif
#   From: 2010.05.17/outbox.cif.g08.bks.cpg/sg2_195_cif.got.tgz:389945.got - 2010.06.03 11:33:40.
