data_PCOD9096812
_publ_section_title
;
Structure prediction by ZEFSAII (Michael W. Deem and Ramdas Pophale) SiO2 
 PCOD9096812
Probable space group: P -1
;
_chemical_formula_sum "Si O2"
_cell_formula_units_Z 16
_cell_length_a 6.557186
_cell_length_b 20.114168
_cell_length_c 9.311884
_cell_angle_alpha 128.858301
_cell_angle_beta 55.769385
_cell_angle_gamma 102.541520
_cell_volume 772.925470
_symmetry_space_group_name_H-M "P -1"
_symmetry_group_IT_number 2
_symmetry_cell_setting 'triclinic'
loop_
_space_group_symop_operation_xyz
x,y,z
-x,-y,-z
loop_
_atom_site_type_symbol
_atom_site_label
_atom_site_fract_x
_atom_site_fract_y
_atom_site_fract_z
Si Si1 0.883775 0.573892 0.487174
Si Si2 0.660607 0.624156 0.338982
Si Si3 0.612278 0.009848 0.624872
Si Si4 0.847113 0.313829 0.789431
Si Si5 0.606390 0.529235 0.801949
Si Si6 0.977218 0.879638 0.472840
Si Si7 0.868044 0.271816 0.386050
Si Si8 0.872328 0.918447 0.905616
O O1 0.717542 0.607265 0.461227
O O2 0.726766 0.526841 0.592841
O O3 0.141807 0.505257 0.251498
O O4 0.976804 0.656647 0.636189
O O5 0.565723 0.541033 0.204022
O O6 0.420729 0.703391 0.518345
O O7 0.923602 0.640216 0.195653
O O8 0.818409 0.066951 0.588444
O O9 0.500000 0.000000 0.500000
O O10 0.407962 0.056376 0.884653
O O11 0.738753 0.916036 0.515421
O O12 0.898393 0.222194 0.726366
O O13 0.874208 0.290749 0.579183
O O14 0.574179 0.376504 0.990774
O O15 0.897106 0.901040 0.700451
O O16 0.990675 0.170054 0.186321
O O17 0.000000 0.000000 0.000000
#
# Coordination Sequence:
#
# PCOD9096812 Si02
#       8
#     2   2   2   2   2   2   2   2
#     4   9  20  38  57  81 118 151 192 240 289 354
#     4  10  20  37  57  83 116 149 194 240 288 357
#     4  11  23  43  65  92 126 159 211 254 304 369
#     4  10  22  37  59  85 116 151 194 242 295 353
#     4  10  20  36  58  83 114 153 191 238 294 347
#     4  10  24  43  62  94 126 162 206 254 306 367
#     4   9  22  39  56  86 116 150 198 241 291 359
#     4  11  22  41  67  89 124 171 200 252 314 361
#
# _framework density 20.700574
#
# number of rings (size 3 to 8) (size 9 to 14) (size 15 to 20)
#    0.000    2.000    1.250    1.125    3.500    5.500 
#    4.500    0.000    0.000    0.000    0.000    0.000 
#    0.000    0.000    0.000    0.000    0.000    0.000 
#
# Total GULP energy -89270.570928 kJ/mol
# GULP energy per Si atom -5579.410683 kJ/mol
# Density = 2.065346 g / cm^3
# Si number density = 20.700574 Si / 1000 Ang^3
#
#
#
# Elastic Constant Matrix: (Units=GPa)
#
#
# Indices 1 2 3 4 5 6 
#
# 1 77.3572 29.7400 28.2026 8.7339 -20.6255 -18.8342
# 2 29.7400 111.3644 41.1123 15.3107 -19.0687 -17.1941
# 3 28.2026 41.1123 72.4513 17.3770 -24.8780 3.1706
# 4 8.7339 15.3107 17.3770 39.3929 -9.4156 -15.7685
# 5 -20.6255 -19.0687 -24.8780 -9.4156 26.9977 6.1681
# 6 -18.8342 -17.1941 3.1706 -15.7685 6.1681 31.3248
#
#
#
# Elastic Compliance Matrix: (Units=1/GPa)
#
#
# Indices 1 2 3 4 5 6 
#
# 1 0.020671 0.000046 -0.007730 0.006664 0.007576 0.015099
# 2 0.000046 0.013219 -0.008346 0.002315 0.000382 0.009218
# 3 -0.007730 -0.008346 0.032243 -0.014201 0.018267 -0.023238
# 4 0.006664 0.002315 -0.014201 0.040348 0.001610 0.026709
# 5 0.007576 0.000382 0.018267 0.001610 0.062450 -0.008571
# 6 0.015099 0.009218 -0.023238 0.026709 -0.008571 0.063547
#
#
# Mechanical properties :
#
#
# Convention : Reuss Voigt Hill
#
# Bulk Modulus (GPa) = 29.34999 51.03140 40.19069
# Shear Modulus (GPa) = 18.12266 30.35094 24.23680
#
# Velocity S-wave (km/s) = 2.96204 3.83324 3.42545
# Velocity P-wave (km/s) = 5.08993 6.65562 5.92472
#
# Compressibility (1/GPa) = 0.03407156
#
# Stress axis : x y z
#
# Youngs Moduli (GPa) = 48.37589 75.64929 31.01437
#
# Poissons Ratio (x) = -0.00346 0.23975
# Poissons Ratio (y) = -0.00221 0.25886
# Poissons Ratio (z) = 0.37396 0.63140
#
# Static dielectric constant tensor:
#      x y z
#    x 1.762550 0.005070 -0.015580 
#    y 0.005070 1.758160 0.011390 
#    z -0.015580 0.011390 1.742680 
# 
# From -- ./inp_files/52088.got.cif
#   From: 2010.05.17/outbox.cif.g08.bks.cpg/sg2_27_cif.got.tgz:52088.got - 2010.06.03 11:33:40.
