data_PCOD9096521
_publ_section_title
;
Structure prediction by ZEFSAII (Michael W. Deem and Ramdas Pophale) SiO2 
 PCOD9096521
Probable space group: P -1
;
_chemical_formula_sum "Si O2"
_cell_formula_units_Z 10
_cell_length_a 7.395695
_cell_length_b 5.318494
_cell_length_c 13.052700
_cell_angle_alpha 61.767908
_cell_angle_beta 118.502279
_cell_angle_gamma 92.889806
_cell_volume 387.188780
_symmetry_space_group_name_H-M "P -1"
_symmetry_group_IT_number 2
_symmetry_cell_setting 'triclinic'
loop_
_space_group_symop_operation_xyz
x,y,z
-x,-y,-z
loop_
_atom_site_type_symbol
_atom_site_label
_atom_site_fract_x
_atom_site_fract_y
_atom_site_fract_z
Si Si1 0.189176 0.225747 0.577185
Si Si2 0.239218 0.871709 0.862693
Si Si3 0.313880 0.776575 0.271255
Si Si4 0.257623 0.136693 0.384579
Si Si5 0.743636 0.767431 0.014246
O O1 0.427195 0.291268 0.634418
O O2 0.156635 0.134894 0.469445
O O3 0.000000 0.500000 0.500000
O O4 0.200634 0.982747 0.715021
O O5 0.493833 0.792748 0.959544
O O6 0.164422 0.572692 0.918444
O O7 0.167396 0.120539 0.880116
O O8 0.251964 0.472144 0.289767
O O9 0.214733 0.934901 0.318621
O O10 0.248376 0.008385 0.117836
O O11 0.500000 0.000000 0.500000
#
# Coordination Sequence:
#
# PCOD9096521 Si02
#       5
#     2   2   2   2   2
#     4  10  21  36  56  84 116 144 176 224 279 328
#     4   9  18  31  51  79 106 135 176 225 268 309
#     4  10  20  37  60  82 107 143 186 227 267 319
#     4  10  20  36  56  81 111 145 184 221 266 325
#     4   9  17  32  54  77 101 136 184 226 258 306
#
# _framework density 25.827199
#
# number of rings (size 3 to 8) (size 9 to 14) (size 15 to 20)
#    0.000    2.400    0.000    3.600    0.000   11.200 
#    0.000   16.000    0.000    7.200    0.000    0.000 
#    0.000    0.000    0.000    0.000    0.000    0.000 
#
# Total GULP energy -56056.953390 kJ/mol
# GULP energy per Si atom -5605.695339 kJ/mol
# Density = 2.576842 g / cm^3
# Si number density = 25.827199 Si / 1000 Ang^3
#
#
#
# Elastic Constant Matrix: (Units=GPa)
#
#
# Indices 1 2 3 4 5 6 
#
# 1 123.5116 51.1029 37.2133 4.3103 6.7094 -5.6592
# 2 51.1029 163.4312 88.5394 3.0484 -2.1567 0.5242
# 3 37.2133 88.5394 128.2108 -8.0488 -12.3381 22.1791
# 4 4.3103 3.0484 -8.0488 63.9532 4.0489 5.8366
# 5 6.7094 -2.1567 -12.3381 4.0489 49.7054 1.6332
# 6 -5.6592 0.5242 22.1791 5.8366 1.6332 49.1492
#
#
#
# Elastic Compliance Matrix: (Units=1/GPa)
#
#
# Indices 1 2 3 4 5 6 
#
# 1 0.009779 -0.001897 -0.002171 -0.000929 -0.001941 0.002301
# 2 -0.001897 0.010953 -0.007822 -0.001616 -0.001191 0.003426
# 3 -0.002171 -0.007822 0.015730 0.002961 0.003872 -0.007745
# 4 -0.000929 -0.001616 0.002961 0.016484 -0.000442 -0.003369
# 5 -0.001941 -0.001191 0.003872 -0.000442 0.021412 -0.002617
# 6 0.002301 0.003426 -0.007745 -0.003369 -0.002617 0.024557
#
#
# Mechanical properties :
#
#
# Convention : Reuss Voigt Hill
#
# Bulk Modulus (GPa) = 78.85964 85.42942 82.14453
# Shear Modulus (GPa) = 39.39418 48.44809 43.92113
#
# Velocity S-wave (km/s) = 3.90974 4.33581 4.12828
# Velocity P-wave (km/s) = 7.14012 7.62986 7.38905
#
# Compressibility (1/GPa) = 0.01268076
#
# Stress axis : x y z
#
# Youngs Moduli (GPa) = 102.26167 91.29923 63.57314
#
# Poissons Ratio (x) = 0.17319 0.13805
# Poissons Ratio (y) = 0.19399 0.49727
# Poissons Ratio (z) = 0.22206 0.71415
#
# Static dielectric constant tensor:
#      x y z
#    x 2.143480 0.078320 0.080710 
#    y 0.078320 2.003380 0.056710 
#    z 0.080710 0.056710 2.017680 
# 
# From -- ./inp_files/21389.got.cif
#   From: 2010.05.17/outbox.cif.g08.bks.cpg/sg2_11_cif.got.tgz:21389.got - 2010.06.03 11:33:40.
