data_PCOD9096736
_publ_section_title
;
Structure prediction by ZEFSAII (Michael W. Deem and Ramdas Pophale) SiO2 
 PCOD9096736
Probable space group: P -1
;
_chemical_formula_sum "Si O2"
_cell_formula_units_Z 16
_cell_length_a 11.923763
_cell_length_b 8.612598
_cell_length_c 9.446081
_cell_angle_alpha 74.742300
_cell_angle_beta 96.225361
_cell_angle_gamma 55.543700
_cell_volume 730.187428
_symmetry_space_group_name_H-M "P -1"
_symmetry_group_IT_number 2
_symmetry_cell_setting 'triclinic'
loop_
_space_group_symop_operation_xyz
x,y,z
-x,-y,-z
loop_
_atom_site_type_symbol
_atom_site_label
_atom_site_fract_x
_atom_site_fract_y
_atom_site_fract_z
Si Si1 0.240698 0.333291 0.946017
Si Si2 0.472505 0.395911 0.899726
Si Si3 0.202555 0.920265 0.964492
Si Si4 0.565419 0.956085 0.719691
Si Si5 0.584168 0.567090 0.422337
Si Si6 0.753435 0.863198 0.296754
Si Si7 0.777372 0.614624 0.608778
Si Si8 0.069647 0.686145 0.035902
O O1 0.367905 0.350716 0.948034
O O2 0.222655 0.269873 0.806421
O O3 0.311655 0.159807 0.116769
O O4 0.101614 0.543770 0.941026
O O5 0.397645 0.511474 0.715806
O O6 0.500000 0.500000 0.000000
O O7 0.634493 0.199240 0.936320
O O8 0.195810 0.008074 0.785381
O O9 0.162859 0.766740 0.004599
O O10 0.089248 0.111257 0.003105
O O11 0.641708 0.809683 0.629282
O O12 0.511563 0.186107 0.646470
O O13 0.418868 0.988817 0.732393
O O14 0.500000 0.500000 0.500000
O O15 0.725700 0.506186 0.535660
O O16 0.822388 0.713998 0.478859
O O17 0.880409 0.454641 0.782932
#
# Coordination Sequence:
#
# PCOD9096736 Si02
#       8
#     2   2   2   2   2   2   2   2
#     4  11  20  38  63  87 120 155 211 252 298 359
#     4  12  22  36  64  96 113 154 205 259 301 356
#     4  11  23  38  64  88 121 161 211 248 301 364
#     4  10  20  36  57  89 124 159 193 254 306 359
#     4  11  22  34  56  92 124 154 196 253 311 359
#     4  11  20  35  62  92 118 157 206 259 298 355
#     4  10  22  40  60  88 129 162 196 253 313 365
#     4  10  24  43  58  86 125 170 199 247 308 371
#
# _framework density 21.912182999999999
#
# number of rings (size 3 to 8) (size 9 to 14) (size 15 to 20)
#    0.000    1.250    5.000    3.375    1.750    2.000 
#    0.000    0.000    0.000    9.750    0.000    0.000 
#    0.000    0.000    0.000    0.000    0.000    0.000 
#
# Total GULP energy -89335.139965 kJ/mol
# GULP energy per Si atom -5583.446248 kJ/mol
# Density = 2.186231 g / cm^3
# Si number density = 21.912183 Si / 1000 Ang^3
#
#
#
# Elastic Constant Matrix: (Units=GPa)
#
#
# Indices 1 2 3 4 5 6 
#
# 1 92.5631 6.5600 22.0395 0.3385 -20.3174 2.5312
# 2 6.5600 72.1903 21.3104 17.7473 10.3055 -26.3419
# 3 22.0395 21.3104 113.0697 23.4896 -9.0566 14.0119
# 4 0.3385 17.7473 23.4896 33.2240 11.2501 -1.5246
# 5 -20.3174 10.3055 -9.0566 11.2501 28.8343 1.4152
# 6 2.5312 -26.3419 14.0119 -1.5246 1.4152 28.6071
#
#
#
# Elastic Compliance Matrix: (Units=1/GPa)
#
#
# Indices 1 2 3 4 5 6 
#
# 1 0.014253 -0.005742 0.000982 -0.002839 0.013898 -0.007869
# 2 -0.005742 0.036774 -0.012561 -0.001093 -0.022749 0.041590
# 3 0.000982 -0.012561 0.017621 -0.012384 0.016616 -0.021766
# 4 -0.002839 -0.001093 -0.012384 0.048276 -0.024782 0.009109
# 5 0.013898 -0.022749 0.016616 -0.024782 0.069213 -0.035061
# 6 -0.007869 0.041590 -0.021766 0.009109 -0.035061 0.086830
#
#
# Mechanical properties :
#
#
# Convention : Reuss Voigt Hill
#
# Bulk Modulus (GPa) = 29.40644 41.96033 35.68338
# Shear Modulus (GPa) = 15.67679 33.32731 24.50205
#
# Velocity S-wave (km/s) = 2.67767 3.90417 3.34757
# Velocity P-wave (km/s) = 4.79678 6.28603 5.59121
#
# Compressibility (1/GPa) = 0.03400616
#
# Stress axis : x y z
#
# Youngs Moduli (GPa) = 70.16285 27.19312 56.75149
#
# Poissons Ratio (x) = 0.15615 -0.05574
# Poissons Ratio (y) = 0.40289 0.71283
# Poissons Ratio (z) = -0.06892 0.34156
#
# Static dielectric constant tensor:
#      x y z
#    x 1.710870 0.017390 0.060110 
#    y 0.017390 1.788450 0.011390 
#    z 0.060110 0.011390 1.802100 
# 
# From -- ./inp_files/243541.got.cif
#   From: 2010.05.17/outbox.cif.g08.bks.cpg/sg2_122_cif.got.tgz:243541.got - 2010.06.03 11:33:40.
