data_PCOD9096090
_publ_section_title
;
Structure prediction by ZEFSAII (Michael W. Deem and Ramdas Pophale) SiO2 
 PCOD9096090
Probable space group: P -1
;
_chemical_formula_sum "Si O2"
_cell_formula_units_Z 16
_cell_length_a 12.089055
_cell_length_b 16.528242
_cell_length_c 8.457838
_cell_angle_alpha 95.081521
_cell_angle_beta 115.513492
_cell_angle_gamma 33.836291
_cell_volume 717.113213
_symmetry_space_group_name_H-M "P -1"
_symmetry_group_IT_number 2
_symmetry_cell_setting 'triclinic'
loop_
_space_group_symop_operation_xyz
x,y,z
-x,-y,-z
loop_
_atom_site_type_symbol
_atom_site_label
_atom_site_fract_x
_atom_site_fract_y
_atom_site_fract_z
Si Si1 0.075273 0.328198 0.321740
Si Si2 0.651434 0.703403 0.115229
Si Si3 0.404119 0.475256 0.343029
Si Si4 0.303891 0.774635 0.976213
Si Si5 0.598226 0.075861 0.697761
Si Si6 0.934807 0.631309 0.036268
Si Si7 0.172529 0.675908 0.913417
Si Si8 0.710260 0.173602 0.660401
O O1 0.356732 0.157841 0.540328
O O2 0.891665 0.359498 0.252422
O O3 0.925016 0.500354 0.297323
O O4 0.120293 0.298351 0.155621
O O5 0.468071 0.843892 0.163380
O O6 0.708328 0.743100 0.038703
O O7 0.492654 0.715916 0.968891
O O8 0.500000 0.500000 0.500000
O O9 0.628985 0.279442 0.487745
O O10 0.150738 0.563954 0.238050
O O11 0.329455 0.552263 0.138931
O O12 0.295215 0.684847 0.918468
O O13 0.365214 0.745480 0.198658
O O14 0.016573 0.979102 0.817462
O O15 0.579826 0.160470 0.574027
O O16 0.886058 0.873540 0.830456
O O17 0.000000 0.500000 0.000000
#
# Coordination Sequence:
#
# PCOD9096090 Si02
#       8
#     2   2   2   2   2   2   2   2
#     4  10  20  36  59  85 119 159 194 243 303 356
#     4  10  20  35  62  87 120 150 204 247 286 353
#     4  11  20  33  60  86 116 155 201 244 290 356
#     4   9  18  33  55  86 114 152 192 243 290 346
#     4  10  20  37  64  90 114 155 206 246 288 354
#     4   9  20  38  58  84 117 159 199 236 294 361
#     4  10  21  37  58  88 122 155 194 247 305 355
#     4   9  17  32  56  83 115 153 198 235 288 355
#
# _framework density 22.311679000000002
#
# number of rings (size 3 to 8) (size 9 to 14) (size 15 to 20)
#    0.000    2.250    1.250    3.000    0.000    1.500 
#    0.000    2.500    0.000   23.250    0.000    0.000 
#    0.000    0.000    0.000    0.000    0.000    0.000 
#
# Total GULP energy -89138.875065 kJ/mol
# GULP energy per Si atom -5571.179692 kJ/mol
# Density = 2.226090 g / cm^3
# Si number density = 22.311679 Si / 1000 Ang^3
#
#
#
# Elastic Constant Matrix: (Units=GPa)
#
#
# Indices 1 2 3 4 5 6 
#
# 1 142.8008 -2.4925 16.7040 0.9970 21.3970 13.5237
# 2 -2.4925 22.0304 -28.4877 1.4679 -7.0473 7.8036
# 3 16.7040 -28.4877 41.3767 -0.4383 12.2491 17.1608
# 4 0.9970 1.4679 -0.4383 18.0537 15.3033 5.6051
# 5 21.3970 -7.0473 12.2491 15.3033 35.8800 -6.7866
# 6 13.5237 7.8036 17.1608 5.6051 -6.7866 32.7490
#
#
#
# Elastic Compliance Matrix: (Units=1/GPa)
#
#
# Indices 1 2 3 4 5 6 
#
# 1 0.009145 -0.007858 -0.004769 0.009432 -0.009976 -0.003087
# 2 -0.007858 -0.017887 -0.050110 -0.064981 0.056708 0.056638
# 3 -0.004769 -0.050110 -0.034868 -0.033120 0.027259 0.043498
# 4 0.009432 -0.064981 -0.033120 0.101484 -0.050141 0.001184
# 5 -0.009976 0.056708 0.027259 -0.050141 0.056393 -0.003409
# 6 -0.003087 0.056638 0.043498 0.001184 -0.003409 -0.005389
#
#
# Mechanical properties :
#
#
# Convention : Reuss Voigt Hill
#
# Bulk Modulus (GPa) = -5.91426 19.73947 6.91260
# Shear Modulus (GPa) = 28.09176 32.03551 30.06364
#
# Velocity S-wave (km/s) = 3.55217 3.79333 3.67473
# Velocity P-wave (km/s) = 3.76396 5.29643 4.59454
#
# Compressibility (1/GPa) = -0.16908272
#
# Stress axis : x y z
#
# Youngs Moduli (GPa) = 109.35424 -55.90681 -28.67932
#
# Poissons Ratio (x) = -0.43931 -0.13676
# Poissons Ratio (y) = 0.85929 -1.43711
# Poissons Ratio (z) = 0.52146 -2.80147
#
# Static dielectric constant tensor:
#      x y z
#    x 1.964320 0.025130 0.055220 
#    y 0.025130 1.894980 0.039770 
#    z 0.055220 0.039770 1.848310 
# 
# From -- ./inp_files/277853.got.cif
#   From: 2010.05.17/outbox.cif.g08.bks.cpg/sg2_139_cif.got.tgz:277853.got - 2010.06.03 11:33:40.
