data_PCOD9096051
_publ_section_title
;
Structure prediction by ZEFSAII (Michael W. Deem and Ramdas Pophale) SiO2 
 PCOD9096051
Probable space group: P -1
;
_chemical_formula_sum "Si O2"
_cell_formula_units_Z 16
_cell_length_a 8.465647
_cell_length_b 8.771073
_cell_length_c 11.232304
_cell_angle_alpha 90.378676
_cell_angle_beta 99.459475
_cell_angle_gamma 110.039443
_cell_volume 771.096968
_symmetry_space_group_name_H-M "P -1"
_symmetry_group_IT_number 2
_symmetry_cell_setting 'triclinic'
loop_
_space_group_symop_operation_xyz
x,y,z
-x,-y,-z
loop_
_atom_site_type_symbol
_atom_site_label
_atom_site_fract_x
_atom_site_fract_y
_atom_site_fract_z
Si Si1 0.350746 0.278971 0.876964
Si Si2 0.042003 0.837758 0.257818
Si Si3 0.616078 0.183082 0.755523
Si Si4 0.533679 0.657601 0.846573
Si Si5 0.630862 0.165441 0.321510
Si Si6 0.958429 0.163814 0.472073
Si Si7 0.774002 0.792191 0.655988
Si Si8 0.537857 0.334959 0.517908
O O1 0.482298 0.196461 0.839078
O O2 0.432968 0.467758 0.850078
O O3 0.154078 0.215861 0.809053
O O4 0.361919 0.273180 0.020948
O O5 0.184130 0.790959 0.198448
O O6 0.049935 0.775568 0.394608
O O7 0.115497 0.034019 0.276234
O O8 0.604460 0.306300 0.652360
O O9 0.531730 0.000423 0.691822
O O10 0.401176 0.750141 0.801619
O O11 0.659101 0.691193 0.748280
O O12 0.792728 0.117824 0.369073
O O13 0.648708 0.301234 0.425782
O O14 0.105069 0.279362 0.404687
O O15 0.000000 0.000000 0.500000
O O16 0.644051 0.804340 0.536445
O O17 0.500000 0.500000 0.500000
#
# Coordination Sequence:
#
# PCOD9096051 Si02
#       8
#     2   2   2   2   2   2   2   2
#     4  11  26  46  67  90 133 179 224 277 335 390
#     4  11  21  40  66 103 126 167 222 272 324 394
#     4  12  20  39  68  96 131 173 220 272 330 388
#     4  10  24  49  63  88 133 178 219 275 336 393
#     4  11  21  40  65  97 132 170 221 271 325 403
#     4  10  20  35  62 100 133 159 205 270 335 384
#     4  10  20  40  65  93 129 170 214 270 329 377
#     4  11  21  36  62  93 136 178 205 258 339 400
#
# _framework density 20.749659000000001
#
# number of rings (size 3 to 8) (size 9 to 14) (size 15 to 20)
#    0.000    1.250    3.750    5.625    0.000    1.000 
#    6.750    2.500    0.000    0.000    0.000    0.000 
#    0.000    0.000    0.000    0.000    0.000    0.000 
#
# Total GULP energy -89135.868449 kJ/mol
# GULP energy per Si atom -5570.991778 kJ/mol
# Density = 2.070243 g / cm^3
# Si number density = 20.749659 Si / 1000 Ang^3
#
#
#
# Elastic Constant Matrix: (Units=GPa)
#
#
# Indices 1 2 3 4 5 6 
#
# 1 139.8348 19.3330 48.6527 9.9670 10.5383 8.5301
# 2 19.3330 58.1755 17.5160 3.6899 3.8059 -14.7150
# 3 48.6527 17.5160 86.4319 -3.0669 12.6123 12.1856
# 4 9.9670 3.6899 -3.0669 26.3252 4.9940 5.7698
# 5 10.5383 3.8059 12.6123 4.9940 30.3689 1.4428
# 6 8.5301 -14.7150 12.1856 5.7698 1.4428 29.4896
#
#
#
# Elastic Compliance Matrix: (Units=1/GPa)
#
#
# Indices 1 2 3 4 5 6 
#
# 1 0.009431 -0.001557 -0.004971 -0.003706 -0.000370 -0.000708
# 2 -0.001557 0.024472 -0.006842 -0.007486 0.000742 0.016918
# 3 -0.004971 -0.006842 0.018479 0.008536 -0.005973 -0.010990
# 4 -0.003706 -0.007486 0.008536 0.046245 -0.008220 -0.014836
# 5 -0.000370 0.000742 -0.005973 -0.008220 0.036665 0.002760
# 6 -0.000708 0.016918 -0.010990 -0.014836 0.002760 0.049865
#
#
# Mechanical properties :
#
#
# Convention : Reuss Voigt Hill
#
# Bulk Modulus (GPa) = 38.99918 50.60507 44.80213
# Shear Modulus (GPa) = 22.68134 30.49945 26.59039
#
# Velocity S-wave (km/s) = 3.30979 3.83806 3.58367
# Velocity P-wave (km/s) = 5.78292 6.63945 6.22593
#
# Compressibility (1/GPa) = 0.02564157
#
# Stress axis : x y z
#
# Youngs Moduli (GPa) = 106.02834 40.86244 54.11686
#
# Poissons Ratio (x) = 0.06363 0.26902
# Poissons Ratio (y) = 0.16511 0.37027
# Poissons Ratio (z) = 0.52708 0.27958
#
# Static dielectric constant tensor:
#      x y z
#    x 1.903540 -0.012050 -0.026960 
#    y -0.012050 1.781020 0.004940 
#    z -0.026960 0.004940 1.744340 
# 
# From -- ./inp_files/382065.got.cif
#   From: 2010.05.17/outbox.cif.g08.bks.cpg/sg2_192_cif.got.tgz:382065.got - 2010.06.03 11:33:40.
