data_PCOD9096986
_publ_section_title
;
Structure prediction by ZEFSAII (Michael W. Deem and Ramdas Pophale) SiO2 
 PCOD9096986
Probable space group: P -1
;
_chemical_formula_sum "Si O2"
_cell_formula_units_Z 14
_cell_length_a 14.219736
_cell_length_b 23.927338
_cell_length_c 22.683498
_cell_angle_alpha 11.308405
_cell_angle_beta 19.553987
_cell_angle_gamma 20.473285
_cell_volume 496.792719
_symmetry_space_group_name_H-M "P -1"
_symmetry_group_IT_number 2
_symmetry_cell_setting 'triclinic'
loop_
_space_group_symop_operation_xyz
x,y,z
-x,-y,-z
loop_
_atom_site_type_symbol
_atom_site_label
_atom_site_fract_x
_atom_site_fract_y
_atom_site_fract_z
Si Si1 0.263402 0.685522 0.608832
Si Si2 0.063721 0.520860 0.130546
Si Si3 0.294926 0.888940 0.512617
Si Si4 0.511105 0.791827 0.110978
Si Si5 0.871758 0.741195 0.279779
Si Si6 0.370511 0.883693 0.638333
Si Si7 0.997546 0.715910 0.421211
O O1 0.272090 0.744216 0.611917
O O2 0.435719 0.881926 0.262877
O O3 0.343249 0.356336 0.881805
O O4 0.937046 0.820473 0.645415
O O5 0.228583 0.680283 0.819288
O O6 0.726436 0.620967 0.209746
O O7 0.139857 0.675291 0.986243
O O8 0.206557 0.182496 0.395952
O O9 0.616111 0.931966 0.271735
O O10 0.182941 0.758595 0.327128
O O11 0.825974 0.542085 0.456030
O O12 0.000000 0.500000 0.500000
O O13 0.026810 0.976499 0.915806
O O14 0.500000 0.000000 0.500000
O O15 0.668399 0.682334 0.648920
#
# Coordination Sequence:
#
# PCOD9096986 Si02
#       7
#     2   2   2   2   2   2   2
#     4  10  21  33  59  91 142 176 199 239 303 377
#     4  11  25  42  70  97 128 166 219 265 315 388
#     4  10  20  36  58  96 135 170 208 237 304 375
#     4  11  21  41  62 100 132 169 211 264 311 372
#     4  12  24  37  59  94 136 175 210 249 302 385
#     4  12  27  50  69  90 121 169 220 278 337 385
#     4  12  24  43  65  93 128 172 212 265 325 371
#
# _framework density 28.180769000000002
#
# number of rings (size 3 to 8) (size 9 to 14) (size 15 to 20)
#    0.000    0.857    2.857    5.143    0.000    9.714 
#    0.000    1.429    0.000    0.000    0.000    0.000 
#    0.000    0.000    0.000    0.000    0.000    0.000 
#
# Total GULP energy -78325.594917 kJ/mol
# GULP energy per Si atom -5594.685351 kJ/mol
# Density = 2.811663 g / cm^3
# Si number density = 28.180769 Si / 1000 Ang^3
#
#
#
# Elastic Constant Matrix: (Units=GPa)
#
#
# Indices 1 2 3 4 5 6 
#
# 1 116.3725 29.1067 21.2947 8.5288 -14.1495 -42.6545
# 2 29.1067 111.7198 19.8958 10.1177 7.4131 -27.9631
# 3 21.2947 19.8958 112.1011 -1.9372 -8.1539 -14.3495
# 4 8.5288 10.1177 -1.9372 49.5010 -12.6322 -3.6557
# 5 -14.1495 7.4131 -8.1539 -12.6322 46.4772 -5.2911
# 6 -42.6545 -27.9631 -14.3495 -3.6557 -5.2911 56.4528
#
#
#
# Elastic Compliance Matrix: (Units=1/GPa)
#
#
# Indices 1 2 3 4 5 6 
#
# 1 0.013208 -0.001243 -0.000671 -0.000005 0.005202 0.009681
# 2 -0.001243 0.010845 -0.001453 -0.002456 -0.002614 0.003659
# 3 -0.000671 -0.001453 0.009699 0.001497 0.002313 0.001552
# 4 -0.000005 -0.002456 0.001497 0.022631 0.006949 0.001277
# 5 0.005202 -0.002614 0.002313 0.006949 0.026512 0.006158
# 6 0.009681 0.003659 0.001552 0.001277 0.006158 0.027895
#
#
# Mechanical properties :
#
#
# Convention : Reuss Voigt Hill
#
# Bulk Modulus (GPa) = 37.01252 53.42087 45.21670
# Shear Modulus (GPa) = 39.51617 48.47928 43.99773
#
# Velocity S-wave (km/s) = 3.74871 4.15215 3.95557
# Velocity P-wave (km/s) = 5.64797 6.47956 6.07801
#
# Compressibility (1/GPa) = 0.02701788
#
# Stress axis : x y z
#
# Youngs Moduli (GPa) = 75.71172 92.20440 103.10761
#
# Poissons Ratio (x) = 0.11464 0.06917
# Poissons Ratio (y) = 0.09414 0.14980
# Poissons Ratio (z) = 0.05079 0.13396
#
# Static dielectric constant tensor:
#      x y z
#    x 2.337270 -0.085430 -0.070000 
#    y -0.085430 2.330900 0.149740 
#    z -0.070000 0.149740 2.094200 
# 
# From -- ./inp_files/619966.got.cif
#   From: 2010.05.17/outbox.cif.g08.bks.cpg/sg2_310_cif.got.tgz:619966.got - 2010.06.03 11:33:40.
