data_PCOD9096757
_publ_section_title
;
Structure prediction by ZEFSAII (Michael W. Deem and Ramdas Pophale) SiO2 
 PCOD9096757
Probable space group: P -1
;
_chemical_formula_sum "Si O2"
_cell_formula_units_Z 16
_cell_length_a 10.596650
_cell_length_b 10.917989
_cell_length_c 8.748886
_cell_angle_alpha 86.107219
_cell_angle_beta 122.622518
_cell_angle_gamma 58.094792
_cell_volume 629.471808
_symmetry_space_group_name_H-M "P -1"
_symmetry_group_IT_number 2
_symmetry_cell_setting 'triclinic'
loop_
_space_group_symop_operation_xyz
x,y,z
-x,-y,-z
loop_
_atom_site_type_symbol
_atom_site_label
_atom_site_fract_x
_atom_site_fract_y
_atom_site_fract_z
Si Si1 0.542343 0.497458 0.267070
Si Si2 0.414535 0.908017 0.963063
Si Si3 0.298917 0.486966 0.332257
Si Si4 0.118672 0.195326 0.949723
Si Si5 0.279524 0.010799 0.528863
Si Si6 0.169170 0.688511 0.797776
Si Si7 0.680378 0.787716 0.634626
Si Si8 0.842472 0.581767 0.250685
O O1 0.459168 0.426054 0.311015
O O2 0.597035 0.559846 0.431970
O O3 0.741806 0.357840 0.311805
O O4 0.353491 0.634481 0.024681
O O5 0.234941 0.019890 0.958943
O O6 0.332660 0.929771 0.736541
O O7 0.606864 0.716665 0.137589
O O8 0.500000 0.000000 0.000000
O O9 0.208570 0.401914 0.269572
O O10 0.120187 0.685714 0.188635
O O11 0.134520 0.306238 0.840410
O O12 0.225893 0.176463 0.177584
O O13 0.308821 0.144429 0.522499
O O14 0.041686 0.125822 0.334316
O O15 0.451643 0.880858 0.529929
O O16 0.136073 0.559709 0.812358
O O17 0.000000 0.500000 0.500000
#
# Coordination Sequence:
#
# PCOD9096757 Si02
#       8
#     2   2   2   2   2   2   2   2
#     4  10  24  41  64  84 122 170 229 260 283 361
#     4  10  20  36  57  95 132 156 194 247 315 382
#     4  11  22  41  63  91 125 171 213 252 312 369
#     4  11  21  39  66  97 129 161 199 264 326 380
#     4  11  22  40  64  98 131 160 196 264 329 378
#     4  11  22  42  66  88 121 168 218 261 302 359
#     4  11  23  38  65  98 135 161 195 259 331 392
#     4  11  21  34  64 100 126 157 201 256 328 380
#
# _framework density 25.418134999999999
#
# number of rings (size 3 to 8) (size 9 to 14) (size 15 to 20)
#    0.000    1.250    2.500    5.625    0.000    2.000 
#    0.000    1.250   11.000    0.000    0.000    0.000 
#    0.000    0.000    0.000    0.000    0.000    0.000 
#
# Total GULP energy -89537.555939 kJ/mol
# GULP energy per Si atom -5596.097246 kJ/mol
# Density = 2.536028 g / cm^3
# Si number density = 25.418135 Si / 1000 Ang^3
#
#
#
# Elastic Constant Matrix: (Units=GPa)
#
#
# Indices 1 2 3 4 5 6 
#
# 1 93.6322 7.8650 16.0281 -1.6521 1.1574 -22.0935
# 2 7.8650 74.0533 32.4204 -18.5663 11.6111 -23.2947
# 3 16.0281 32.4204 143.2547 -5.5137 4.9258 -9.5594
# 4 -1.6521 -18.5663 -5.5137 38.8771 -11.1702 11.0699
# 5 1.1574 11.6111 4.9258 -11.1702 39.0473 -5.8773
# 6 -22.0935 -23.2947 -9.5594 11.0699 -5.8773 31.4100
#
#
#
# Elastic Compliance Matrix: (Units=1/GPa)
#
#
# Indices 1 2 3 4 5 6 
#
# 1 0.013352 0.002247 -0.001324 -0.001673 0.000326 0.011306
# 2 0.002247 0.020834 -0.003782 0.004943 -0.002308 0.013707
# 3 -0.001324 -0.003782 0.007892 -0.000440 -0.000139 -0.001205
# 4 -0.001673 0.004943 -0.000440 0.032050 0.006645 -0.007697
# 5 0.000326 -0.002308 -0.000139 0.006645 0.028424 0.001452
# 6 0.011306 0.013707 -0.001205 -0.007697 0.001452 0.052573
#
#
# Mechanical properties :
#
#
# Convention : Reuss Voigt Hill
#
# Bulk Modulus (GPa) = 27.50179 47.06303 37.28241
# Shear Modulus (GPa) = 28.90817 38.84200 33.87509
#
# Velocity S-wave (km/s) = 3.37605 3.91336 3.65460
# Velocity P-wave (km/s) = 5.10296 6.24299 5.70154
#
# Compressibility (1/GPa) = 0.03636127
#
# Stress axis : x y z
#
# Youngs Moduli (GPa) = 74.89416 47.99919 126.70984
#
# Poissons Ratio (x) = -0.10788 0.16772
# Poissons Ratio (y) = -0.16832 0.47923
# Poissons Ratio (z) = 0.09914 0.18154
#
# Static dielectric constant tensor:
#      x y z
#    x 2.068180 -0.040690 0.012940 
#    y -0.040690 2.045320 -0.043360 
#    z 0.012940 -0.043360 1.990500 
# 
# From -- ./inp_files/262554.got.cif
#   From: 2010.05.17/outbox.cif.g08.bks.cpg/sg2_132_cif.got.tgz:262554.got - 2010.06.03 11:33:40.
