data_PCOD9096426
_publ_section_title
;
Structure prediction by ZEFSAII (Michael W. Deem and Ramdas Pophale) SiO2 
 PCOD9096426
Probable space group: P -1
;
_chemical_formula_sum "Si O2"
_cell_formula_units_Z 16
_cell_length_a 16.807934
_cell_length_b 24.099021
_cell_length_c 5.459190
_cell_angle_alpha 77.013104
_cell_angle_beta 85.313280
_cell_angle_gamma 20.862297
_cell_volume 712.980181
_symmetry_space_group_name_H-M "P -1"
_symmetry_group_IT_number 2
_symmetry_cell_setting 'triclinic'
loop_
_space_group_symop_operation_xyz
x,y,z
-x,-y,-z
loop_
_atom_site_type_symbol
_atom_site_label
_atom_site_fract_x
_atom_site_fract_y
_atom_site_fract_z
Si Si1 0.523115 0.730464 0.337943
Si Si2 0.404889 0.219667 0.095016
Si Si3 0.054382 0.527872 0.174031
Si Si4 0.684421 0.427137 0.064828
Si Si5 0.903689 0.716270 0.642184
Si Si6 0.764141 0.979121 0.647844
Si Si7 0.460371 0.974961 0.221059
Si Si8 0.674743 0.505414 0.485145
O O1 0.794486 0.555391 0.547637
O O2 0.500216 0.678375 0.363564
O O3 0.331520 0.892766 0.397415
O O4 0.521528 0.771055 0.060982
O O5 0.208960 0.370351 0.201275
O O6 0.636646 0.045026 0.362417
O O7 0.226554 0.298806 0.905345
O O8 0.066863 0.569416 0.928860
O O9 0.626600 0.499113 0.262590
O O10 0.953323 0.220229 0.224054
O O11 0.500000 0.500000 0.000000
O O12 0.672059 0.475355 0.776867
O O13 0.749011 0.860829 0.711866
O O14 0.059006 0.648964 0.484741
O O15 0.708917 0.806936 0.473920
O O16 0.643695 0.016473 0.838361
O O17 0.500000 0.000000 0.000000
#
# Coordination Sequence:
#
# PCOD9096426 Si02
#       8
#     2   2   2   2   2   2   2   2
#     4  11  25  38  70 103 149 196 241 306 364 446
#     4  10  21  37  59  92 153 194 248 280 354 415
#     4  10  20  36  54  97 141 207 244 279 337 426
#     4  12  29  55  85 108 141 188 250 318 390 459
#     4  11  22  37  62  98 145 193 247 294 353 425
#     4  11  25  44  68 108 147 198 248 312 367 438
#     4  11  24  37  59  99 148 203 250 298 352 425
#     4  12  26  50  78 114 145 193 246 310 382 453
#
# _framework density 22.441016999999999
#
# number of rings (size 3 to 8) (size 9 to 14) (size 15 to 20)
#    0.000    1.000    3.750    2.250    7.000    0.000 
#    0.000    1.250    0.000    0.000    0.000    0.000 
#    0.000    0.000    0.000    0.000    0.000    0.000 
#
# Total GULP energy -89409.570033 kJ/mol
# GULP energy per Si atom -5588.098127 kJ/mol
# Density = 2.238994 g / cm^3
# Si number density = 22.441017 Si / 1000 Ang^3
#
#
#
# Elastic Constant Matrix: (Units=GPa)
#
#
# Indices 1 2 3 4 5 6 
#
# 1 129.0060 60.6897 58.8450 -18.3879 -2.0588 15.9348
# 2 60.6897 62.3504 45.8045 -9.2391 -4.1342 10.2720
# 3 58.8450 45.8045 139.3826 -9.5751 -22.3956 5.2711
# 4 -18.3879 -9.2391 -9.5751 31.7747 1.6467 2.9629
# 5 -2.0588 -4.1342 -22.3956 1.6467 41.4004 1.0512
# 6 15.9348 10.2720 5.2711 2.9629 1.0512 42.3544
#
#
#
# Elastic Compliance Matrix: (Units=1/GPa)
#
#
# Indices 1 2 3 4 5 6 
#
# 1 0.015783 -0.012478 -0.002402 0.005152 -0.001891 -0.002926
# 2 -0.012478 0.032658 -0.005337 0.000923 -0.000216 -0.002621
# 3 -0.002402 -0.005337 0.010737 -0.000041 0.005139 0.000737
# 4 0.005152 0.000923 -0.000041 0.035187 -0.000957 -0.004595
# 5 -0.001891 -0.000216 0.005139 -0.000957 0.026869 -0.000475
# 6 -0.002926 -0.002621 0.000737 -0.004595 -0.000475 0.025588
#
#
# Mechanical properties :
#
#
# Convention : Reuss Voigt Hill
#
# Bulk Modulus (GPa) = 53.34536 73.49083 63.41810
# Shear Modulus (GPa) = 25.83913 34.13257 29.98585
#
# Velocity S-wave (km/s) = 3.39695 3.90422 3.65938
# Velocity P-wave (km/s) = 6.26168 7.28995 6.79529
#
# Compressibility (1/GPa) = 0.01874577
#
# Stress axis : x y z
#
# Youngs Moduli (GPa) = 63.35934 30.61991 93.13244
#
# Poissons Ratio (x) = 0.38207 0.22371
# Poissons Ratio (y) = 0.79058 0.49702
# Poissons Ratio (z) = 0.15219 0.16341
#
# Static dielectric constant tensor:
#      x y z
#    x 1.885620 0.075840 0.017180 
#    y 0.075840 1.873910 0.072470 
#    z 0.017180 0.072470 1.901500 
# 
# From -- ./inp_files/113111.got.cif
#   From: 2010.05.17/outbox.cif.g08.bks.cpg/sg2_57_cif.got.tgz:113111.got - 2010.06.03 11:33:40.
