data_PCOD9096237
_publ_section_title
;
Structure prediction by ZEFSAII (Michael W. Deem and Ramdas Pophale) SiO2 
 PCOD9096237
Probable space group: P -1
;
_chemical_formula_sum "Si O2"
_cell_formula_units_Z 14
_cell_length_a 4.992296
_cell_length_b 17.060491
_cell_length_c 9.913244
_cell_angle_alpha 46.539834
_cell_angle_beta 122.705689
_cell_angle_gamma 121.725055
_cell_volume 498.987942
_symmetry_space_group_name_H-M "P -1"
_symmetry_group_IT_number 2
_symmetry_cell_setting 'triclinic'
loop_
_space_group_symop_operation_xyz
x,y,z
-x,-y,-z
loop_
_atom_site_type_symbol
_atom_site_label
_atom_site_fract_x
_atom_site_fract_y
_atom_site_fract_z
Si Si1 0.982099 0.674258 0.452410
Si Si2 0.305841 0.233872 0.228742
Si Si3 0.201227 0.390417 0.805433
Si Si4 0.265690 0.960254 0.811502
Si Si5 0.731802 0.074416 0.587804
Si Si6 0.430492 0.771313 0.236389
Si Si7 0.226102 0.418743 0.199947
O O1 0.797419 0.597148 0.369994
O O2 0.795115 0.773630 0.290532
O O3 0.891658 0.616435 0.638857
O O4 0.330255 0.727346 0.411783
O O5 0.621527 0.189282 0.408710
O O6 0.215204 0.320303 0.206768
O O7 0.996456 0.127514 0.249998
O O8 0.370413 0.298976 0.026092
O O9 0.818966 0.327936 0.800979
O O10 0.394819 0.506749 0.782026
O O11 0.597791 0.011013 0.763114
O O12 0.326865 0.883519 0.040986
O O13 0.092411 0.059407 0.676624
O O14 0.500000 0.000000 0.500000
O O15 0.000000 0.500000 0.000000
#
# Coordination Sequence:
#
# PCOD9096237 Si02
#       7
#     2   2   2   2   2   2   2
#     4  10  23  45  68  91 133 180 227 260 321 402
#     4  10  22  39  60 100 132 168 215 278 332 379
#     4   9  23  42  66  92 130 182 223 261 315 406
#     4  10  20  38  66  98 125 166 223 273 317 387
#     4  10  20  35  63  97 130 166 213 273 328 383
#     4   9  21  39  73  93 125 171 237 261 311 386
#     4  12  27  41  65 102 140 173 214 283 340 386
#
# _framework density 28.056788000000001
#
# number of rings (size 3 to 8) (size 9 to 14) (size 15 to 20)
#    0.857    1.143    0.000    3.429    6.000    4.000 
#    0.000    0.000    0.000    5.143    0.000    0.000 
#    0.000    0.000    0.000    0.000    0.000    0.000 
#
# Total GULP energy -78455.319276 kJ/mol
# GULP energy per Si atom -5603.951377 kJ/mol
# Density = 2.799293 g / cm^3
# Si number density = 28.056788 Si / 1000 Ang^3
#
#
#
# Elastic Constant Matrix: (Units=GPa)
#
#
# Indices 1 2 3 4 5 6 
#
# 1 126.9800 22.6841 40.4307 -5.6544 -4.0857 -9.5132
# 2 22.6841 159.2293 19.7928 -5.6736 -0.4159 -6.2988
# 3 40.4307 19.7928 187.0924 -0.0556 -4.2897 -13.8198
# 4 -5.6544 -5.6736 -0.0556 42.4794 -2.1360 -2.6092
# 5 -4.0857 -0.4159 -4.2897 -2.1360 45.8776 -11.0634
# 6 -9.5132 -6.2988 -13.8198 -2.6092 -11.0634 48.0037
#
#
#
# Elastic Compliance Matrix: (Units=1/GPa)
#
#
# Indices 1 2 3 4 5 6 
#
# 1 0.008766 -0.000941 -0.001665 0.001178 0.001017 0.001433
# 2 -0.000941 0.006521 -0.000438 0.000789 0.000119 0.000613
# 3 -0.001665 -0.000438 0.005877 -0.000145 0.000744 0.001468
# 4 0.001178 0.000789 -0.000145 0.024010 0.001697 0.001991
# 5 0.001017 0.000119 0.000744 0.001697 0.023468 0.005932
# 6 0.001433 0.000613 0.001468 0.001991 0.005932 0.023094
#
#
# Mechanical properties :
#
#
# Convention : Reuss Voigt Hill
#
# Bulk Modulus (GPa) = 66.33217 71.01298 68.67258
# Shear Modulus (GPa) = 48.61426 53.29842 50.95634
#
# Velocity S-wave (km/s) = 4.16710 4.36324 4.26630
# Velocity P-wave (km/s) = 6.84444 7.12385 6.98554
#
# Compressibility (1/GPa) = 0.01507564
#
# Stress axis : x y z
#
# Youngs Moduli (GPa) = 114.07659 153.34088 170.16432
#
# Poissons Ratio (x) = 0.14422 0.28338
# Poissons Ratio (y) = 0.10729 0.07460
# Poissons Ratio (z) = 0.18998 0.06722
#
# Static dielectric constant tensor:
#      x y z
#    x 2.103670 0.034740 0.091900 
#    y 0.034740 2.291630 0.054620 
#    z 0.091900 0.054620 2.164750 
# 
# From -- ./inp_files/137240.got.cif
#   From: 2010.05.17/outbox.cif.g08.bks.cpg/sg2_69_cif.got.tgz:137240.got - 2010.06.03 11:33:40.
