data_PCOD9096792
_publ_section_title
;
Structure prediction by ZEFSAII (Michael W. Deem and Ramdas Pophale) SiO2 
 PCOD9096792
Probable space group: P -1
;
_chemical_formula_sum "Si O2"
_cell_formula_units_Z 13
_cell_length_a 23.646328
_cell_length_b 6.396147
_cell_length_c 26.145388
_cell_angle_alpha 59.917017
_cell_angle_beta 170.090512
_cell_angle_gamma 120.948009
_cell_volume 583.252809
_symmetry_space_group_name_H-M "P -1"
_symmetry_group_IT_number 2
_symmetry_cell_setting 'triclinic'
loop_
_space_group_symop_operation_xyz
x,y,z
-x,-y,-z
loop_
_atom_site_type_symbol
_atom_site_label
_atom_site_fract_x
_atom_site_fract_y
_atom_site_fract_z
Si Si1 0.300061 0.356806 0.046153
Si Si2 0.500000 0.500000 0.500000
Si Si3 0.632056 0.973333 0.696902
Si Si4 0.693492 0.029141 0.490745
Si Si5 0.163177 0.490264 0.307252
Si Si6 0.524532 0.747891 0.113920
Si Si7 0.260304 0.698760 0.774299
O O1 0.598708 0.202073 0.340456
O O2 0.382027 0.584072 0.053976
O O3 0.003069 0.171254 0.779699
O O4 0.178167 0.449071 0.980766
O O5 0.209454 0.464108 0.291109
O O6 0.528353 0.797014 0.495330
O O7 0.609582 0.007855 0.733826
O O8 0.438463 0.713162 0.541628
O O9 0.000000 0.000000 0.000000
O O10 0.763752 0.761933 0.571567
O O11 0.872837 0.653553 0.420361
O O12 0.604308 0.036099 0.161118
O O13 0.282363 0.726136 0.852201
O O14 0.500000 0.500000 0.000000
#
# Coordination Sequence:
#
# PCOD9096792 Si02
#       7
#     2   1   2   2   2   2   2
#     4  11  23  42  61  90 127 163 203 253 304 361
#     4  10  20  36  58  82 112 156 204 250 304 360
#     4  10  21  36  58  85 115 154 201 257 312 363
#     4  10  24  40  60  87 122 160 205 251 305 368
#     4  10  23  39  59  89 123 161 206 258 309 363
#     4  10  22  38  64  94 125 161 206 247 297 366
#     4  10  21  41  64  94 126 160 201 250 300 356
#
# _framework density 22.288789999999999
#
# number of rings (size 3 to 8) (size 9 to 14) (size 15 to 20)
#    0.000    1.846    0.000    2.769    0.000   13.538 
#    0.000    0.000    0.000    0.000    0.000    0.000 
#    0.000    0.000    0.000    0.000    0.000    0.000 
#
# Total GULP energy -72386.348309 kJ/mol
# GULP energy per Si atom -5568.180639 kJ/mol
# Density = 2.223806 g / cm^3
# Si number density = 22.288790 Si / 1000 Ang^3
#
#
#
# Elastic Constant Matrix: (Units=GPa)
#
#
# Indices 1 2 3 4 5 6 
#
# 1 38.8239 33.6871 0.6491 -0.8808 -2.3988 15.4305
# 2 33.6871 150.2114 35.0583 -32.0218 15.7269 7.8687
# 3 0.6491 35.0583 48.6622 -13.1181 -6.3627 -12.2667
# 4 -0.8808 -32.0218 -13.1181 31.7990 2.0319 -0.1888
# 5 -2.3988 15.7269 -6.3627 2.0319 28.9174 -6.8956
# 6 15.4305 7.8687 -12.2667 -0.1888 -6.8956 33.3444
#
#
#
# Elastic Compliance Matrix: (Units=1/GPa)
#
#
# Indices 1 2 3 4 5 6 
#
# 1 0.042658 -0.012969 0.003523 -0.011074 0.008900 -0.013606
# 2 -0.012969 0.016923 -0.011942 0.012688 -0.015094 -0.005435
# 3 0.003523 -0.011942 0.036945 0.002195 0.019238 0.018770
# 4 -0.011074 0.012688 0.002195 0.045486 -0.010277 0.001070
# 5 0.008900 -0.015094 0.019238 -0.010277 0.052619 0.017344
# 6 -0.013606 -0.005435 0.018770 0.001070 0.017344 0.048067
#
#
# Mechanical properties :
#
#
# Convention : Reuss Voigt Hill
#
# Bulk Modulus (GPa) = 18.60488 41.83182 30.21835
# Shear Modulus (GPa) = 16.48039 30.03236 23.25637
#
# Velocity S-wave (km/s) = 2.72215 3.67470 3.23369
# Velocity P-wave (km/s) = 4.27147 6.06741 5.24685
#
# Compressibility (1/GPa) = 0.05374933
#
# Stress axis : x y z
#
# Youngs Moduli (GPa) = 23.44239 59.09190 27.06718
#
# Poissons Ratio (x) = 0.76635 -0.09535
# Poissons Ratio (y) = 0.30402 0.32324
# Poissons Ratio (z) = -0.08258 0.70569
#
# Static dielectric constant tensor:
#      x y z
#    x 1.833650 0.013050 -0.009780 
#    y 0.013050 1.794940 -0.016870 
#    z -0.009780 -0.016870 1.818940 
# 
# From -- ./inp_files/6109.got.cif
#   From: 2010.05.17/outbox.cif.g08.bks.cpg/sg2_4_cif.got.tgz:6109.got - 2010.06.03 11:33:40.
