data_PCOD9096658
_publ_section_title
;
Structure prediction by ZEFSAII (Michael W. Deem and Ramdas Pophale) SiO2 
 PCOD9096658
Probable space group: P -1
;
_chemical_formula_sum "Si O2"
_cell_formula_units_Z 16
_cell_length_a 13.441744
_cell_length_b 7.296599
_cell_length_c 12.162683
_cell_angle_alpha 50.107166
_cell_angle_beta 124.877183
_cell_angle_gamma 100.043195
_cell_volume 714.934330
_symmetry_space_group_name_H-M "P -1"
_symmetry_group_IT_number 2
_symmetry_cell_setting 'triclinic'
loop_
_space_group_symop_operation_xyz
x,y,z
-x,-y,-z
loop_
_atom_site_type_symbol
_atom_site_label
_atom_site_fract_x
_atom_site_fract_y
_atom_site_fract_z
Si Si1 0.160250 0.307584 0.437903
Si Si2 0.318548 0.045260 0.455466
Si Si3 0.845609 0.566517 0.372716
Si Si4 0.235506 0.863713 0.928514
Si Si5 0.878619 0.328802 0.266979
Si Si6 0.877306 0.191633 0.906331
Si Si7 0.756712 0.837986 0.868503
Si Si8 0.443509 0.357620 0.281083
O O1 0.193601 0.418160 0.530880
O O2 0.135696 0.535940 0.249167
O O3 0.031487 0.232947 0.400033
O O4 0.265256 0.090601 0.525520
O O5 0.407586 0.763643 0.596016
O O6 0.217455 0.127009 0.258807
O O7 0.403697 0.233068 0.412976
O O8 0.000000 0.500000 0.500000
O O9 0.776850 0.847089 0.177819
O O10 0.827714 0.380174 0.339440
O O11 0.189619 0.823408 0.793243
O O12 0.132207 0.813265 0.966700
O O13 0.370106 0.652107 0.116723
O O14 0.848179 0.600203 0.081076
O O15 0.625162 0.769545 0.805515
O O16 0.762104 0.087729 0.835027
O O17 0.000000 0.000000 0.000000
#
# Coordination Sequence:
#
# PCOD9096658 Si02
#       8
#     2   2   2   2   2   2   2   2
#     4  11  21  34  53  81 120 146 183 236 291 324
#     4   9  18  36  55  84 113 144 184 248 280 316
#     4  10  22  40  52  83 117 152 185 234 271 349
#     4  11  21  37  63  79 109 161 189 218 292 339
#     4  10  20  36  57  83 113 153 186 225 283 346
#     4  12  20  31  54  91 118 140 185 238 283 343
#     4   9  17  32  56  82 115 143 178 238 275 333
#     4   8  18  36  58  82 110 145 194 233 279 333
#
# _framework density 22.379678999999999
#
# number of rings (size 3 to 8) (size 9 to 14) (size 15 to 20)
#    0.750    1.250    3.750    0.750    1.750    3.000 
#    2.250    3.125    0.000    3.000    0.000    0.000 
#    0.000    0.000    0.000    0.000    0.000    0.000 
#
# Total GULP energy -89188.251455 kJ/mol
# GULP energy per Si atom -5574.265716 kJ/mol
# Density = 2.232874 g / cm^3
# Si number density = 22.379679 Si / 1000 Ang^3
#
#
#
# Elastic Constant Matrix: (Units=GPa)
#
#
# Indices 1 2 3 4 5 6 
#
# 1 59.0010 31.5290 22.9016 9.4998 -0.4400 -35.2625
# 2 31.5290 91.7060 6.0308 7.8652 0.2179 -28.6956
# 3 22.9016 6.0308 73.7846 -3.6992 4.3472 -26.9588
# 4 9.4998 7.8652 -3.6992 40.8670 -16.3945 -12.2564
# 5 -0.4400 0.2179 4.3472 -16.3945 20.9991 -0.8332
# 6 -35.2625 -28.6956 -26.9588 -12.2564 -0.8332 44.6170
#
#
#
# Elastic Compliance Matrix: (Units=1/GPa)
#
#
# Indices 1 2 3 4 5 6 
#
# 1 0.033540 -0.004318 -0.001801 0.000813 0.002664 0.022916
# 2 -0.004318 0.014667 0.003188 0.001031 0.000229 0.008234
# 3 -0.001801 0.003188 0.019193 0.006315 0.001441 0.013986
# 4 0.000813 0.001031 0.006315 0.043239 0.033156 0.017618
# 5 0.002664 0.000229 0.001441 0.033156 0.073802 0.013610
# 6 0.022916 0.008234 0.013986 0.017618 0.013610 0.059365
#
#
# Mechanical properties :
#
#
# Convention : Reuss Voigt Hill
#
# Bulk Modulus (GPa) = 16.25004 38.37936 27.31470
# Shear Modulus (GPa) = 18.50617 32.23195 25.36906
#
# Velocity S-wave (km/s) = 2.87874 3.79916 3.37051
# Velocity P-wave (km/s) = 4.28093 6.03583 5.23247
#
# Compressibility (1/GPa) = 0.06153833
#
# Stress axis : x y z
#
# Youngs Moduli (GPa) = 29.81482 68.18036 52.10216
#
# Poissons Ratio (x) = 0.29443 0.09383
# Poissons Ratio (y) = 0.12875 -0.16611
# Poissons Ratio (z) = 0.05369 -0.21738
#
# Static dielectric constant tensor:
#      x y z
#    x 1.852990 0.005180 -0.003830 
#    y 0.005180 1.841680 0.005560 
#    z -0.003830 0.005560 1.880500 
# 
# From -- ./inp_files/445561.got.cif
#   From: 2010.05.17/outbox.cif.g08.bks.cpg/sg2_223_cif.got.tgz:445561.got - 2010.06.03 11:33:40.
