data_PCOD9096263
_publ_section_title
;
Structure prediction by ZEFSAII (Michael W. Deem and Ramdas Pophale) SiO2 
 PCOD9096263
Probable space group: P -1
;
_chemical_formula_sum "Si O2"
_cell_formula_units_Z 14
_cell_length_a 8.867750
_cell_length_b 12.606147
_cell_length_c 17.865994
_cell_angle_alpha 36.602911
_cell_angle_beta 141.899786
_cell_angle_gamma 140.829650
_cell_volume 676.587482
_symmetry_space_group_name_H-M "P -1"
_symmetry_group_IT_number 2
_symmetry_cell_setting 'triclinic'
loop_
_space_group_symop_operation_xyz
x,y,z
-x,-y,-z
loop_
_atom_site_type_symbol
_atom_site_label
_atom_site_fract_x
_atom_site_fract_y
_atom_site_fract_z
Si Si1 0.768448 0.065467 0.639339
Si Si2 0.316443 0.332214 0.128684
Si Si3 0.774850 0.318960 0.912519
Si Si4 0.252861 0.092468 0.917876
Si Si5 0.188547 0.968744 0.489558
Si Si6 0.954722 0.267896 0.281354
Si Si7 0.375013 0.259895 0.023254
O O1 0.508306 0.091411 0.553423
O O2 0.016934 0.111218 0.765542
O O3 0.648613 0.831612 0.717099
O O4 0.857836 0.132528 0.552375
O O5 0.261580 0.253502 0.065582
O O6 0.567358 0.527396 0.106833
O O7 0.055668 0.358979 0.040030
O O8 0.524880 0.266015 0.899031
O O9 0.844259 0.509904 0.780525
O O10 0.716595 0.111503 0.967514
O O11 0.223361 0.117924 0.979372
O O12 0.045557 0.118681 0.356239
O O13 0.081727 0.810999 0.603087
O O14 0.663051 0.250873 0.152098
#
# Coordination Sequence:
#
# PCOD9096263 Si02
#       7
#     2   2   2   2   2   2   2
#     4  10  21  40  60  83 118 155 200 237 291 344
#     4   9  19  36  59  92 112 153 191 244 293 347
#     4   9  21  37  58  89 122 146 192 240 306 345
#     4  10  22  38  60  93 119 148 185 254 310 340
#     4  10  22  39  63  79 116 165 206 231 269 356
#     4  10  21  39  61  87 111 158 205 235 282 349
#     4  10  20  35  64  91 117 141 197 249 301 341
#
# _framework density 20.692077000000001
#
# number of rings (size 3 to 8) (size 9 to 14) (size 15 to 20)
#    0.000    2.286    1.429    0.000    8.000    3.429 
#    0.000    1.429    0.000    0.000    0.000    0.000 
#    0.000    0.000    0.000    0.000    0.000    0.000 
#
# Total GULP energy -78028.745557 kJ/mol
# GULP energy per Si atom -5573.481826 kJ/mol
# Density = 2.064498 g / cm^3
# Si number density = 20.692077 Si / 1000 Ang^3
#
#
#
# Elastic Constant Matrix: (Units=GPa)
#
#
# Indices 1 2 3 4 5 6 
#
# 1 123.3901 38.7447 26.5459 4.2072 0.0720 20.6118
# 2 38.7447 55.7289 24.1478 2.3356 -15.1644 4.1176
# 3 26.5459 24.1478 66.9585 -6.8919 3.2979 11.2338
# 4 4.2072 2.3356 -6.8919 18.3004 5.8939 -4.1991
# 5 0.0720 -15.1644 3.2979 5.8939 34.0492 0.4693
# 6 20.6118 4.1176 11.2338 -4.1991 0.4693 32.9033
#
#
#
# Elastic Compliance Matrix: (Units=1/GPa)
#
#
# Indices 1 2 3 4 5 6 
#
# 1 0.012058 -0.008301 -0.000797 -0.002503 -0.003122 -0.006518
# 2 -0.008301 0.034019 -0.011640 -0.012004 0.018331 0.003123
# 3 -0.000797 -0.011640 0.021783 0.011997 -0.009316 -0.003817
# 4 -0.002503 -0.012004 0.011997 0.069100 -0.018575 0.008058
# 5 -0.003122 0.018331 -0.009316 -0.018575 0.041659 -0.000122
# 6 -0.006518 0.003123 -0.003817 0.008058 -0.000122 0.036417
#
#
# Mechanical properties :
#
#
# Convention : Reuss Voigt Hill
#
# Bulk Modulus (GPa) = 37.90263 47.21713 42.55988
# Shear Modulus (GPa) = 18.84600 27.49319 23.16959
#
# Velocity S-wave (km/s) = 3.02119 3.64906 3.34987
# Velocity P-wave (km/s) = 5.52516 6.37359 5.96448
#
# Compressibility (1/GPa) = 0.02638340
#
# Stress axis : x y z
#
# Youngs Moduli (GPa) = 82.93016 29.39514 45.90818
#
# Poissons Ratio (x) = 0.24401 0.03660
# Poissons Ratio (y) = 0.68840 0.53438
# Poissons Ratio (z) = 0.06612 0.34216
#
# Static dielectric constant tensor:
#      x y z
#    x 1.773280 0.000740 0.008560 
#    y 0.000740 1.768840 -0.005350 
#    z 0.008560 -0.005350 1.739800 
# 
# From -- ./inp_files/182447.got.cif
#   From: 2010.05.17/outbox.cif.g08.bks.cpg/sg2_92_cif.got.tgz:182447.got - 2010.06.03 11:33:40.
