data_PCOD9096354
_publ_section_title
;
Structure prediction by ZEFSAII (Michael W. Deem and Ramdas Pophale) SiO2 
 PCOD9096354
Probable space group: P -1
;
_chemical_formula_sum "Si O2"
_cell_formula_units_Z 16
_cell_length_a 14.861265
_cell_length_b 8.895650
_cell_length_c 11.671016
_cell_angle_alpha 94.510918
_cell_angle_beta 28.987480
_cell_angle_gamma 83.708654
_cell_volume 692.737650
_symmetry_space_group_name_H-M "P -1"
_symmetry_group_IT_number 2
_symmetry_cell_setting 'triclinic'
loop_
_space_group_symop_operation_xyz
x,y,z
-x,-y,-z
loop_
_atom_site_type_symbol
_atom_site_label
_atom_site_fract_x
_atom_site_fract_y
_atom_site_fract_z
Si Si1 0.348572 0.294561 0.049771
Si Si2 0.777866 0.665219 0.561226
Si Si3 0.947296 0.414727 0.165530
Si Si4 0.359772 0.186261 0.663081
Si Si5 0.242139 0.980618 0.347832
Si Si6 0.503638 0.416565 0.672433
Si Si7 0.138217 0.073554 0.203687
Si Si8 0.445384 0.752482 0.762250
O O1 0.534289 0.135399 0.877365
O O2 0.440544 0.391160 0.869944
O O3 0.232710 0.382391 0.297571
O O4 0.205481 0.225533 0.133960
O O5 0.929228 0.528780 0.303859
O O6 0.557340 0.703790 0.755858
O O7 0.807810 0.837438 0.537905
O O8 0.734688 0.393750 0.397773
O O9 0.000000 0.500000 0.000000
O O10 0.129408 0.241753 0.957074
O O11 0.450457 0.290954 0.646678
O O12 0.382501 0.237626 0.511372
O O13 0.500000 0.000000 0.500000
O O14 0.091245 0.898783 0.557157
O O15 0.198645 0.006865 0.262586
O O16 0.384110 0.604102 0.783404
O O17 0.270794 0.924758 0.969441
#
# Coordination Sequence:
#
# PCOD9096354 Si02
#       8
#     2   2   2   2   2   2   2   2
#     4  11  21  42  64 101 143 170 221 276 330 407
#     4  10  20  40  71  98 134 181 216 279 333 397
#     4  11  25  46  70 101 132 177 233 274 336 406
#     4  12  27  47  71  98 134 173 231 289 328 400
#     4  10  20  35  68  96 135 179 222 269 332 396
#     4  11  27  42  70 100 134 182 217 278 348 394
#     4  10  20  37  64 100 129 179 226 268 330 397
#     4  11  21  42  67  95 132 175 223 274 336 394
#
# _framework density 23.096767
#
# number of rings (size 3 to 8) (size 9 to 14) (size 15 to 20)
#    0.000    1.250    5.000    1.875    1.750    4.500 
#    0.000    0.625    0.000    0.000    0.000    0.000 
#    0.000    0.000    0.000    0.000    0.000    0.000 
#
# Total GULP energy -89478.164337 kJ/mol
# GULP energy per Si atom -5592.385271 kJ/mol
# Density = 2.304420 g / cm^3
# Si number density = 23.096767 Si / 1000 Ang^3
#
#
#
# Elastic Constant Matrix: (Units=GPa)
#
#
# Indices 1 2 3 4 5 6 
#
# 1 54.4028 27.0358 34.6978 -0.8034 9.5210 10.3599
# 2 27.0358 79.2308 49.2682 -0.5882 8.5844 10.7428
# 3 34.6978 49.2682 143.6959 -3.8820 10.1898 12.7556
# 4 -0.8034 -0.5882 -3.8820 51.0865 8.0387 2.2976
# 5 9.5210 8.5844 10.1898 8.0387 33.6865 -4.0718
# 6 10.3599 10.7428 12.7556 2.2976 -4.0718 36.7724
#
#
#
# Elastic Compliance Matrix: (Units=1/GPa)
#
#
# Indices 1 2 3 4 5 6 
#
# 1 0.025081 -0.005124 -0.003415 0.001194 -0.005649 -0.005084
# 2 -0.005124 0.017698 -0.004464 0.000216 -0.002055 -0.002419
# 3 -0.003415 -0.004464 0.009525 0.000851 -0.001128 -0.001216
# 4 0.001194 0.000216 0.000851 0.020710 -0.005911 -0.002643
# 5 -0.005649 -0.002055 -0.001128 -0.005911 0.034375 0.006759
# 6 -0.005084 -0.002419 -0.001216 -0.002643 0.006759 0.030669
#
#
# Mechanical properties :
#
#
# Convention : Reuss Voigt Hill
#
# Bulk Modulus (GPa) = 38.02742 55.48146 46.75444
# Shear Modulus (GPa) = 28.93002 35.39759 32.16381
#
# Velocity S-wave (km/s) = 3.54299 3.91906 3.73576
# Velocity P-wave (km/s) = 5.76517 6.67474 6.23656
#
# Compressibility (1/GPa) = 0.02629682
#
# Stress axis : x y z
#
# Youngs Moduli (GPa) = 39.87151 56.50241 104.98256
#
# Poissons Ratio (x) = 0.28954 0.35852
# Poissons Ratio (y) = 0.20431 0.46869
# Poissons Ratio (z) = 0.13616 0.25225
#
# Static dielectric constant tensor:
#      x y z
#    x 1.898920 -0.027520 0.026960 
#    y -0.027520 1.892530 -0.003790 
#    z 0.026960 -0.003790 1.867530 
# 
# From -- ./inp_files/447596.got.cif
#   From: 2010.05.17/outbox.cif.g08.bks.cpg/sg2_224_cif.got.tgz:447596.got - 2010.06.03 11:33:40.
