data_PCOD9096845
_publ_section_title
;
Structure prediction by ZEFSAII (Michael W. Deem and Ramdas Pophale) SiO2 
 PCOD9096845
Probable space group: P -1
;
_chemical_formula_sum "Si O2"
_cell_formula_units_Z 16
_cell_length_a 8.167715
_cell_length_b 8.161056
_cell_length_c 13.162539
_cell_angle_alpha 117.529835
_cell_angle_beta 66.327478
_cell_angle_gamma 128.098051
_cell_volume 603.711767
_symmetry_space_group_name_H-M "P -1"
_symmetry_group_IT_number 2
_symmetry_cell_setting 'triclinic'
loop_
_space_group_symop_operation_xyz
x,y,z
-x,-y,-z
loop_
_atom_site_type_symbol
_atom_site_label
_atom_site_fract_x
_atom_site_fract_y
_atom_site_fract_z
Si Si1 0.126685 0.282955 0.033313
Si Si2 0.691515 0.229535 0.113940
Si Si3 0.146619 0.200066 0.663786
Si Si4 0.759183 0.013658 0.590941
Si Si5 0.027251 0.141533 0.238048
Si Si6 0.627171 0.563936 0.613367
Si Si7 0.460573 0.728743 0.044209
Si Si8 0.314891 0.746837 0.640423
O O1 0.255332 0.543717 0.099533
O O2 0.908941 0.247578 0.029650
O O3 0.043803 0.138014 0.113532
O O4 0.337775 0.269952 0.957838
O O5 0.717821 0.311953 0.247374
O O6 0.516272 0.974587 0.102160
O O7 0.608897 0.324663 0.074698
O O8 0.149958 0.008205 0.543983
O O9 0.385666 0.392097 0.651550
O O10 0.062624 0.099312 0.765616
O O11 0.954741 0.202561 0.657746
O O12 0.675855 0.778292 0.599716
O O13 0.532618 0.982674 0.632406
O O14 0.870131 0.216711 0.327015
O O15 0.244113 0.324849 0.285889
O O16 0.694789 0.432240 0.485361
#
# Coordination Sequence:
#
# PCOD9096845 Si02
#       8
#     2   2   2   2   2   2   2   2
#     4  10  22  42  66  91 125 157 203 256 310 368
#     4  10  22  40  66  93 123 153 209 251 312 369
#     4   9  18  34  53  77 111 157 192 238 281 342
#     4   9  19  35  55  78 117 154 201 240 284 344
#     4  10  22  35  57  87 120 154 199 241 295 364
#     4  10  20  37  57  82 123 158 200 237 290 353
#     4  10  22  42  68  89 119 163 197 262 317 361
#     4  10  20  36  58  84 121 157 187 250 292 352
#
# _framework density 26.502711999999999
#
# number of rings (size 3 to 8) (size 9 to 14) (size 15 to 20)
#    0.000    2.250    0.000    2.625    3.500    4.000 
#    0.000   17.500    0.000    0.000    0.000    0.000 
#    0.000    0.000    0.000    0.000    0.000    0.000 
#
# Total GULP energy -89310.706984 kJ/mol
# GULP energy per Si atom -5581.919186 kJ/mol
# Density = 2.644239 g / cm^3
# Si number density = 26.502712 Si / 1000 Ang^3
#
#
#
# Elastic Constant Matrix: (Units=GPa)
#
#
# Indices 1 2 3 4 5 6 
#
# 1 97.1223 9.6584 34.3967 -3.7436 9.6455 15.5569
# 2 9.6584 69.8031 17.6257 -12.5580 -2.2512 26.5116
# 3 34.3967 17.6257 87.3251 -2.6174 4.6910 -1.6797
# 4 -3.7436 -12.5580 -2.6174 29.5570 2.8628 -4.5687
# 5 9.6455 -2.2512 4.6910 2.8628 41.2436 -1.8299
# 6 15.5569 26.5116 -1.6797 -4.5687 -1.8299 40.2405
#
#
#
# Elastic Compliance Matrix: (Units=1/GPa)
#
#
# Indices 1 2 3 4 5 6 
#
# 1 0.013561 0.002422 -0.005773 0.001417 -0.002793 -0.007046
# 2 0.002422 0.022402 -0.005565 0.006981 0.000133 -0.015129
# 3 -0.005773 -0.005565 0.014967 -0.000746 -0.000319 0.006424
# 4 0.001417 0.006981 -0.000746 0.036984 -0.002481 -0.001092
# 5 -0.002793 0.000133 -0.000319 -0.002481 0.025197 0.001843
# 6 -0.007046 -0.015129 0.006424 -0.001092 0.001843 0.037770
#
#
# Mechanical properties :
#
#
# Convention : Reuss Voigt Hill
#
# Bulk Modulus (GPa) = 30.21291 41.95691 36.08491
# Shear Modulus (GPa) = 27.81710 35.04622 31.43166
#
# Velocity S-wave (km/s) = 3.24326 3.64038 3.44754
# Velocity P-wave (km/s) = 5.04476 5.79097 5.43070
#
# Compressibility (1/GPa) = 0.03309843
#
# Stress axis : x y z
#
# Youngs Moduli (GPa) = 73.74259 44.63803 66.81342
#
# Poissons Ratio (x) = -0.10812 0.38574
# Poissons Ratio (y) = -0.17862 0.37180
# Poissons Ratio (z) = 0.42574 0.24840
#
# Static dielectric constant tensor:
#      x y z
#    x 2.186500 0.019100 0.014820 
#    y 0.019100 2.123870 0.028460 
#    z 0.014820 0.028460 2.139540 
# 
# From -- ./inp_files/493365.got.cif
#   From: 2010.05.17/outbox.cif.g08.bks.cpg/sg2_247_cif.got.tgz:493365.got - 2010.06.03 11:33:40.
