data_PCOD9096973
_publ_section_title
;
Structure prediction by ZEFSAII (Michael W. Deem and Ramdas Pophale) SiO2 
 PCOD9096973
Probable space group: P -1
;
_chemical_formula_sum "Si O2"
_cell_formula_units_Z 13
_cell_length_a 12.174646
_cell_length_b 14.988741
_cell_length_c 15.532129
_cell_angle_alpha 161.328299
_cell_angle_beta 134.381974
_cell_angle_gamma 54.912793
_cell_volume 598.861707
_symmetry_space_group_name_H-M "P -1"
_symmetry_group_IT_number 2
_symmetry_cell_setting 'triclinic'
loop_
_space_group_symop_operation_xyz
x,y,z
-x,-y,-z
loop_
_atom_site_type_symbol
_atom_site_label
_atom_site_fract_x
_atom_site_fract_y
_atom_site_fract_z
Si Si1 0.819426 0.373474 0.560833
Si Si2 0.145347 0.543059 0.805525
Si Si3 0.402307 0.888197 0.643835
Si Si4 0.347373 0.201499 0.175460
Si Si5 0.490215 0.539686 0.237521
Si Si6 0.132833 0.148997 0.283185
Si Si7 0.500000 0.500000 0.000000
O O1 0.747798 0.326903 0.575568
O O2 0.793329 0.660209 0.765328
O O3 0.009465 0.422190 0.695609
O O4 0.709834 0.067220 0.170406
O O5 0.076755 0.341177 0.497445
O O6 0.319823 0.527242 0.908338
O O7 0.167836 0.882821 0.107653
O O8 0.573880 0.907879 0.801748
O O9 0.415258 0.764723 0.443967
O O10 0.397210 0.214489 0.931948
O O11 0.500000 0.500000 0.500000
O O12 0.685663 0.637705 0.457058
O O13 0.476872 0.528828 0.118305
O O14 0.000000 0.000000 0.000000
#
# Coordination Sequence:
#
# PCOD9096973 Si02
#       7
#     2   2   2   2   2   2   1
#     4  11  22  39  62  99 133 169 209 256 334 394
#     4  11  25  44  69  90 130 180 214 279 314 395
#     4  11  22  38  63 100 128 169 212 259 335 389
#     4  10  20  36  58  92 141 173 195 242 321 415
#     4  11  24  41  69  89 128 176 218 278 307 396
#     4  11  25  42  63 100 130 167 222 269 334 378
#     4  10  26  52  64  90 124 184 240 256 338 354
#
# _framework density 21.707850000000001
#
# number of rings (size 3 to 8) (size 9 to 14) (size 15 to 20)
#    0.000    1.231    0.000    7.846    6.462    5.538 
#    0.000    1.538    0.000    0.000    0.000    0.000 
#    0.000    0.000    0.000    0.000    0.000    0.000 
#
# Total GULP energy -72440.728367 kJ/mol
# GULP energy per Si atom -5572.363721 kJ/mol
# Density = 2.165844 g / cm^3
# Si number density = 21.707850 Si / 1000 Ang^3
#
#
#
# Elastic Constant Matrix: (Units=GPa)
#
#
# Indices 1 2 3 4 5 6 
#
# 1 124.2431 8.7522 1.2409 -3.7646 1.5582 0.3531
# 2 8.7522 39.9017 16.5187 -17.2514 4.0183 6.0578
# 3 1.2409 16.5187 36.8948 29.1380 -8.7512 0.8557
# 4 -3.7646 -17.2514 29.1380 12.7013 -2.1719 -5.2511
# 5 1.5582 4.0183 -8.7512 -2.1719 29.4956 -0.8622
# 6 0.3531 6.0578 0.8557 -5.2511 -0.8622 28.7384
#
#
#
# Elastic Compliance Matrix: (Units=1/GPa)
#
#
# Indices 1 2 3 4 5 6 
#
# 1 0.008177 -0.001561 -0.000062 0.000550 -0.000188 0.000325
# 2 -0.001561 0.009867 0.014878 -0.023805 0.001200 -0.006817
# 3 -0.000062 0.014878 -0.004296 0.030968 -0.000941 0.002623
# 4 0.000550 -0.023805 0.030968 -0.022519 0.010752 0.000297
# 5 -0.000188 0.001200 -0.000941 0.010752 0.034343 0.002772
# 6 0.000325 -0.006817 0.002623 0.000297 0.002772 0.036289
#
#
# Mechanical properties :
#
#
# Convention : Reuss Voigt Hill
#
# Bulk Modulus (GPa) = 24.84015 28.22925 26.53470
# Shear Modulus (GPa) = 102.51895 25.82224 64.17059
#
# Velocity S-wave (km/s) = 6.87962 3.45270 5.44290
# Velocity P-wave (km/s) = 8.63559 5.37841 7.19377
#
# Compressibility (1/GPa) = 0.04025740
#
# Stress axis : x y z
#
# Youngs Moduli (GPa) = 122.28846 101.34808 -232.77245
#
# Poissons Ratio (x) = 0.15817 -0.01454
# Poissons Ratio (y) = 0.19085 3.46310
# Poissons Ratio (z) = 0.00764 -1.50782
#
# Static dielectric constant tensor:
#      x y z
#    x 1.826290 -0.000470 0.013410 
#    y -0.000470 1.756680 0.008920 
#    z 0.013410 0.008920 1.794850 
# 
# From -- ./inp_files/424768.got.cif
#   From: 2010.05.17/outbox.cif.g08.bks.cpg/sg2_213_cif.got.tgz:424768.got - 2010.06.03 11:33:40.
