data_PCOD9096391
_publ_section_title
;
Structure prediction by ZEFSAII (Michael W. Deem and Ramdas Pophale) SiO2 
 PCOD9096391
Probable space group: P -1
;
_chemical_formula_sum "Si O2"
_cell_formula_units_Z 16
_cell_length_a 10.885472
_cell_length_b 17.404421
_cell_length_c 17.699336
_cell_angle_alpha 158.744240
_cell_angle_beta 143.328276
_cell_angle_gamma 40.264499
_cell_volume 724.146268
_symmetry_space_group_name_H-M "P -1"
_symmetry_group_IT_number 2
_symmetry_cell_setting 'triclinic'
loop_
_space_group_symop_operation_xyz
x,y,z
-x,-y,-z
loop_
_atom_site_type_symbol
_atom_site_label
_atom_site_fract_x
_atom_site_fract_y
_atom_site_fract_z
Si Si1 0.622127 0.891498 0.728758
Si Si2 0.769415 0.288653 0.640510
Si Si3 0.376961 0.630652 0.623657
Si Si4 0.958023 0.976181 0.565617
Si Si5 0.646193 0.750596 0.009612
Si Si6 0.852944 0.619550 0.472127
Si Si7 0.014572 0.947220 0.730844
Si Si8 0.960624 0.706258 0.825505
O O1 0.438399 0.759448 0.551212
O O2 0.675655 0.754913 0.554718
O O3 0.836460 0.879319 0.869208
O O4 0.514912 0.127848 0.900946
O O5 0.740703 0.521757 0.872944
O O6 0.798652 0.111061 0.557404
O O7 0.962008 0.241245 0.636173
O O8 0.500000 0.500000 0.500000
O O9 0.519315 0.703284 0.828105
O O10 0.243085 0.845225 0.729669
O O11 0.201992 0.473930 0.417096
O O12 0.892543 0.943965 0.589247
O O13 0.160274 0.113543 0.788857
O O14 0.000000 0.500000 0.500000
O O15 0.934493 0.801849 0.625208
O O16 0.836331 0.416182 0.222187
O O17 0.013296 0.181825 0.979661
#
# Coordination Sequence:
#
# PCOD9096391 Si02
#       8
#     2   2   2   2   2   2   2   2
#     4  10  20  36  59  84 107 151 200 237 284 338
#     4  10  21  40  59  83 117 154 198 234 279 339
#     4  11  21  31  53  85 120 150 177 233 293 344
#     4  10  23  38  58  85 118 157 191 234 285 343
#     4  11  20  34  59  85 113 151 195 233 282 344
#     4   9  22  39  59  84 115 155 191 236 294 341
#     4  11  22  37  56  87 121 148 190 237 291 347
#     4  10  20  36  53  86 116 149 187 231 295 336
#
# _framework density 22.094985999999999
#
# number of rings (size 3 to 8) (size 9 to 14) (size 15 to 20)
#    0.000    1.750    2.500    1.875    1.750    5.000 
#    0.000    0.625    0.000    1.500    0.000    0.000 
#    0.000    0.000    0.000    0.000    0.000    0.000 
#
# Total GULP energy -89160.323285 kJ/mol
# GULP energy per Si atom -5572.520205 kJ/mol
# Density = 2.204470 g / cm^3
# Si number density = 22.094986 Si / 1000 Ang^3
#
#
#
# Elastic Constant Matrix: (Units=GPa)
#
#
# Indices 1 2 3 4 5 6 
#
# 1 86.5963 28.7265 36.2098 13.4850 -31.3884 -3.4213
# 2 28.7265 68.3003 37.1614 10.0168 -23.9054 0.7429
# 3 36.2098 37.1614 101.9399 18.9092 -42.8100 -10.1432
# 4 13.4850 10.0168 18.9092 34.1187 -13.3584 -17.6719
# 5 -31.3884 -23.9054 -42.8100 -13.3584 50.4376 13.3467
# 6 -3.4213 0.7429 -10.1432 -17.6719 13.3467 29.3958
#
#
#
# Elastic Compliance Matrix: (Units=1/GPa)
#
#
# Indices 1 2 3 4 5 6 
#
# 1 0.016309 -0.002796 -0.001082 -0.004283 0.007991 -0.004608
# 2 -0.002796 0.020686 -0.004280 -0.004335 0.005215 -0.007299
# 3 -0.001082 -0.004280 0.017035 -0.004341 0.011078 -0.001779
# 4 -0.004283 -0.004335 -0.004341 0.048220 -0.003188 0.028549
# 5 0.007991 0.005215 0.011078 -0.003188 0.039908 -0.015416
# 6 -0.004608 -0.007299 -0.001779 0.028549 -0.015416 0.057215
#
#
# Mechanical properties :
#
#
# Convention : Reuss Voigt Hill
#
# Bulk Modulus (GPa) = 26.51499 51.22577 38.87038
# Shear Modulus (GPa) = 21.90489 33.10635 27.50562
#
# Velocity S-wave (km/s) = 3.15206 3.87507 3.53211
# Velocity P-wave (km/s) = 5.02731 6.57695 5.85363
#
# Compressibility (1/GPa) = 0.03771452
#
# Stress axis : x y z
#
# Youngs Moduli (GPa) = 61.31536 48.34149 58.70413
#
# Poissons Ratio (x) = 0.13514 0.06353
# Poissons Ratio (y) = 0.17141 0.25125
# Poissons Ratio (z) = 0.06635 0.20690
#
# Static dielectric constant tensor:
#      x y z
#    x 1.900340 -0.002490 0.013610 
#    y -0.002490 1.860710 0.045770 
#    z 0.013610 0.045770 1.863450 
# 
# From -- ./inp_files/69880.got.cif
#   From: 2010.05.17/outbox.cif.g08.bks.cpg/sg2_35_cif.got.tgz:69880.got - 2010.06.03 11:33:40.
