data_PCOD9096119
_publ_section_title
;
Structure prediction by ZEFSAII (Michael W. Deem and Ramdas Pophale) SiO2 
 PCOD9096119
Probable space group: P -1
;
_chemical_formula_sum "Si O2"
_cell_formula_units_Z 16
_cell_length_a 20.160871
_cell_length_b 8.856134
_cell_length_c 16.294203
_cell_angle_alpha 117.304886
_cell_angle_beta 19.034390
_cell_angle_gamma 106.593913
_cell_volume 724.765240
_symmetry_space_group_name_H-M "P -1"
_symmetry_group_IT_number 2
_symmetry_cell_setting 'triclinic'
loop_
_space_group_symop_operation_xyz
x,y,z
-x,-y,-z
loop_
_atom_site_type_symbol
_atom_site_label
_atom_site_fract_x
_atom_site_fract_y
_atom_site_fract_z
Si Si1 0.760921 0.637993 0.261659
Si Si2 0.688023 0.606532 0.604290
Si Si3 0.352497 0.866571 0.931099
Si Si4 0.848035 0.104983 0.391561
Si Si5 0.162550 0.559057 0.434648
Si Si6 0.320555 0.269326 0.025807
Si Si7 0.984382 0.819233 0.937173
Si Si8 0.928240 0.285436 0.871996
O O1 0.555446 0.752845 0.595886
O O2 0.799002 0.785768 0.195703
O O3 0.737732 0.487468 0.189961
O O4 0.000000 0.500000 0.000000
O O5 0.451472 0.774625 0.881399
O O6 0.699688 0.560153 0.674945
O O7 0.781500 0.400330 0.393786
O O8 0.882720 0.667277 0.374957
O O9 0.161383 0.810319 0.113313
O O10 0.291345 0.091331 0.052204
O O11 0.812103 0.247829 0.545219
O O12 0.037457 0.126200 0.119848
O O13 0.595784 0.182890 0.661907
O O14 0.947904 0.882812 0.245745
O O15 0.260959 0.430058 0.206298
O O16 0.882709 0.629499 0.779938
O O17 0.000000 0.000000 0.000000
#
# Coordination Sequence:
#
# PCOD9096119 Si02
#       8
#     2   2   2   2   2   2   2   2
#     4  11  20  40  61  91 130 167 208 254 310 367
#     4  10  23  41  61  91 130 160 208 264 305 372
#     4  12  22  39  66  91 125 175 206 253 316 369
#     4  11  21  40  66  91 125 167 206 259 315 371
#     4  10  24  43  64  96 124 158 215 267 312 378
#     4  11  22  42  70  90 124 166 209 262 322 368
#     4  10  20  35  62  90 123 164 203 251 305 369
#     4  11  22  39  62  93 129 168 208 253 310 376
#
# _framework density 22.076115999999999
#
# number of rings (size 3 to 8) (size 9 to 14) (size 15 to 20)
#    0.000    1.250    5.000    2.250    0.000    2.500 
#    0.000    1.250    0.000    0.000    0.000    0.000 
#    0.000    0.000    0.000    0.000    0.000    0.000 
#
# Total GULP energy -89317.305863 kJ/mol
# GULP energy per Si atom -5582.331616 kJ/mol
# Density = 2.202587 g / cm^3
# Si number density = 22.076116 Si / 1000 Ang^3
#
#
#
# Elastic Constant Matrix: (Units=GPa)
#
#
# Indices 1 2 3 4 5 6 
#
# 1 80.8634 28.2691 17.6969 0.1916 -7.6193 5.9739
# 2 28.2691 154.0363 23.2491 13.0816 3.7504 7.1260
# 3 17.6969 23.2491 34.4089 -3.2170 -8.8048 2.2336
# 4 0.1916 13.0816 -3.2170 30.4146 11.9072 3.1525
# 5 -7.6193 3.7504 -8.8048 11.9072 23.2440 3.4643
# 6 5.9739 7.1260 2.2336 3.1525 3.4643 44.1002
#
#
#
# Elastic Compliance Matrix: (Units=1/GPa)
#
#
# Indices 1 2 3 4 5 6 
#
# 1 0.014659 -0.001801 -0.005317 -0.001266 0.003976 -0.001647
# 2 -0.001801 0.007951 -0.005284 -0.003044 -0.002259 -0.000378
# 3 -0.005317 -0.005284 0.039033 0.001332 0.013444 -0.001554
# 4 -0.001266 -0.003044 0.001332 0.042711 -0.021181 -0.000794
# 5 0.003976 -0.002259 0.013444 -0.021181 0.061251 -0.004152
# 6 -0.001647 -0.000378 -0.001554 -0.000794 -0.004152 0.023422
#
#
# Mechanical properties :
#
#
# Convention : Reuss Voigt Hill
#
# Bulk Modulus (GPa) = 27.14480 45.30429 36.22455
# Shear Modulus (GPa) = 22.11313 32.89133 27.50223
#
# Velocity S-wave (km/s) = 3.16836 3.86412 3.53341
# Velocity P-wave (km/s) = 5.07024 6.36199 5.75249
#
# Compressibility (1/GPa) = 0.03683946
#
# Stress axis : x y z
#
# Youngs Moduli (GPa) = 68.21777 125.76992 25.61954
#
# Poissons Ratio (x) = 0.22650 0.13621
# Poissons Ratio (y) = 0.12285 0.13538
# Poissons Ratio (z) = 0.36268 0.66459
#
# Static dielectric constant tensor:
#      x y z
#    x 1.840170 0.024110 0.009950 
#    y 0.024110 1.810670 0.004770 
#    z 0.009950 0.004770 1.876530 
# 
# From -- ./inp_files/577403.got.cif
#   From: 2010.05.17/outbox.cif.g08.bks.cpg/sg2_289_cif.got.tgz:577403.got - 2010.06.03 11:33:40.
