data_PCOD9096041
_publ_section_title
;
Structure prediction by ZEFSAII (Michael W. Deem and Ramdas Pophale) SiO2 
 PCOD9096041
Probable space group: P -1
;
_chemical_formula_sum "Si O2"
_cell_formula_units_Z 16
_cell_length_a 8.642456
_cell_length_b 15.103496
_cell_length_c 9.141503
_cell_angle_alpha 89.054402
_cell_angle_beta 113.133996
_cell_angle_gamma 141.172386
_cell_volume 594.924529
_symmetry_space_group_name_H-M "P -1"
_symmetry_group_IT_number 2
_symmetry_cell_setting 'triclinic'
loop_
_space_group_symop_operation_xyz
x,y,z
-x,-y,-z
loop_
_atom_site_type_symbol
_atom_site_label
_atom_site_fract_x
_atom_site_fract_y
_atom_site_fract_z
Si Si1 0.625406 0.780233 0.006430
Si Si2 0.636622 0.355399 0.634448
Si Si3 0.288577 0.322752 0.745230
Si Si4 0.531170 0.443313 0.380197
Si Si5 0.878156 0.182459 0.150018
Si Si6 0.640909 0.875995 0.711501
Si Si7 0.325410 0.926878 0.609983
Si Si8 0.266135 0.737630 0.112126
O O1 0.582694 0.662476 0.058414
O O2 0.492806 0.788558 0.080627
O O3 0.510638 0.761637 0.805626
O O4 0.994100 0.954397 0.136663
O O5 0.433684 0.322967 0.673351
O O6 0.746820 0.466082 0.538634
O O7 0.422062 0.194772 0.466813
O O8 0.854158 0.389631 0.815079
O O9 0.357480 0.453677 0.721065
O O10 0.915383 0.153630 0.602675
O O11 0.500000 0.500000 0.500000
O O12 0.175238 0.252727 0.218374
O O13 0.892600 0.186081 0.328112
O O14 0.949144 0.301246 0.076600
O O15 0.500000 0.000000 0.000000
O O16 0.485463 0.903377 0.655640
O O17 0.558214 0.108771 0.733940
#
# Coordination Sequence:
#
# PCOD9096041 Si02
#       8
#     2   2   2   2   2   2   2   2
#     4  10  22  37  57  92 120 165 199 257 302 369
#     4  10  21  38  59  90 114 164 204 255 298 367
#     4  10  21  41  66  82 114 164 220 241 296 375
#     4  10  20  40  66  88 117 167 212 251 303 370
#     4  10  20  35  61  97 117 153 206 265 297 349
#     4  11  23  35  57  89 135 153 198 255 324 353
#     4  11  20  36  60  89 122 162 196 253 309 364
#     4  10  21  37  61  90 121 155 212 254 294 361
#
# _framework density 26.894168000000001
#
# number of rings (size 3 to 8) (size 9 to 14) (size 15 to 20)
#    0.000    1.750    3.750    1.500    1.750    5.000 
#    0.000    8.125    0.000    0.000    0.000    0.000 
#    0.000    0.000    0.000    0.000    0.000    0.000 
#
# Total GULP energy -89357.400031 kJ/mol
# GULP energy per Si atom -5584.837502 kJ/mol
# Density = 2.683296 g / cm^3
# Si number density = 26.894168 Si / 1000 Ang^3
#
#
#
# Elastic Constant Matrix: (Units=GPa)
#
#
# Indices 1 2 3 4 5 6 
#
# 1 73.8602 21.7615 63.0357 -15.0619 13.0228 -19.5231
# 2 21.7615 91.0154 65.5013 -34.0224 14.1698 -13.2213
# 3 63.0357 65.5013 161.0971 -30.1849 24.4451 -14.1002
# 4 -15.0619 -34.0224 -30.1849 68.5714 -15.5325 18.8010
# 5 13.0228 14.1698 24.4451 -15.5325 53.5924 -5.1499
# 6 -19.5231 -13.2213 -14.1002 18.8010 -5.1499 28.7796
#
#
#
# Elastic Compliance Matrix: (Units=1/GPa)
#
#
# Indices 1 2 3 4 5 6 
#
# 1 0.024511 0.002632 -0.009530 -0.001671 -0.001444 0.014001
# 2 0.002632 0.017917 -0.006976 0.005521 -0.000313 0.002936
# 3 -0.009530 -0.006976 0.012840 0.000845 -0.001862 -0.004264
# 4 -0.001671 0.005521 0.000845 0.021287 0.003631 -0.011439
# 5 -0.001444 -0.000313 -0.001862 0.003631 0.020931 -0.000662
# 6 0.014001 0.002936 -0.004264 -0.011439 -0.000662 0.050859
#
#
# Mechanical properties :
#
#
# Convention : Reuss Voigt Hill
#
# Bulk Modulus (GPa) = 36.33550 69.61886 52.97718
# Shear Modulus (GPa) = 26.98798 41.90028 34.44413
#
# Velocity S-wave (km/s) = 3.17122 3.95139 3.58261
# Velocity P-wave (km/s) = 5.19122 6.83816 6.07080
#
# Compressibility (1/GPa) = 0.02752130
#
# Stress axis : x y z
#
# Youngs Moduli (GPa) = 40.79723 55.81164 77.87971
#
# Poissons Ratio (x) = -0.14687 0.74216
# Poissons Ratio (y) = -0.10736 0.54328
# Poissons Ratio (z) = 0.38878 0.38934
#
# Static dielectric constant tensor:
#      x y z
#    x 2.054170 -0.084210 -0.002320 
#    y -0.084210 2.187910 0.004520 
#    z -0.002320 0.004520 2.107710 
# 
# From -- ./inp_files/281873.got.cif
#   From: 2010.05.17/outbox.cif.g08.bks.cpg/sg2_141_cif.got.tgz:281873.got - 2010.06.03 11:33:40.
