data_PCOD9096167
_publ_section_title
;
Structure prediction by ZEFSAII (Michael W. Deem and Ramdas Pophale) SiO2 
 PCOD9096167
Probable space group: P -1
;
_chemical_formula_sum "Si O2"
_cell_formula_units_Z 10
_cell_length_a 9.699900
_cell_length_b 9.213148
_cell_length_c 8.767490
_cell_angle_alpha 83.457757
_cell_angle_beta 124.673288
_cell_angle_gamma 136.310081
_cell_volume 379.224345
_symmetry_space_group_name_H-M "P -1"
_symmetry_group_IT_number 2
_symmetry_cell_setting 'triclinic'
loop_
_space_group_symop_operation_xyz
x,y,z
-x,-y,-z
loop_
_atom_site_type_symbol
_atom_site_label
_atom_site_fract_x
_atom_site_fract_y
_atom_site_fract_z
Si Si1 0.542136 0.248611 0.363962
Si Si2 0.989018 0.229881 0.369979
Si Si3 0.711994 0.852436 0.483767
Si Si4 0.248933 0.291073 0.983023
Si Si5 0.902017 0.264719 0.970601
O O1 0.857700 0.522587 0.487956
O O2 0.528797 0.278882 0.531664
O O3 0.334203 0.211710 0.145935
O O4 0.396494 0.991546 0.267163
O O5 0.881055 0.195347 0.139670
O O6 0.746099 0.980616 0.344813
O O7 0.238921 0.281603 0.513473
O O8 0.987741 0.076919 0.733659
O O9 0.500000 0.500000 0.000000
O O10 0.147249 0.348315 0.023836
O O11 0.000000 0.500000 0.000000
#
# Coordination Sequence:
#
# PCOD9096167 Si02
#       5
#     2   2   2   2   2
#     4  11  21  40  64  91 125 163 214 258 303 367
#     4  11  21  36  66  95 120 162 212 260 308 362
#     4  10  20  35  63 100 121 153 215 270 298 358
#     4  11  20  40  68  94 122 165 212 258 308 367
#     4  11  25  43  61  92 134 166 201 257 318 374
#
# _framework density 26.369615
#
# number of rings (size 3 to 8) (size 9 to 14) (size 15 to 20)
#    0.000    1.200    6.000    1.800    0.000    0.800 
#    0.000    5.000    0.000    0.000    0.000    0.000 
#    0.000    0.000    0.000    0.000    0.000    0.000 
#
# Total GULP energy -56052.405982 kJ/mol
# GULP energy per Si atom -5605.240598 kJ/mol
# Density = 2.630960 g / cm^3
# Si number density = 26.369615 Si / 1000 Ang^3
#
#
#
# Elastic Constant Matrix: (Units=GPa)
#
#
# Indices 1 2 3 4 5 6 
#
# 1 89.5938 61.5997 28.4480 -18.3802 -17.9980 -39.0809
# 2 61.5997 194.0380 42.3992 -14.9107 -30.9517 -10.5562
# 3 28.4480 42.3992 102.5640 -21.4361 -29.4649 0.2467
# 4 -18.3802 -14.9107 -21.4361 58.5140 10.8854 -13.8493
# 5 -17.9980 -30.9517 -29.4649 10.8854 24.9032 3.7190
# 6 -39.0809 -10.5562 0.2467 -13.8493 3.7190 39.8125
#
#
#
# Elastic Compliance Matrix: (Units=1/GPa)
#
#
# Indices 1 2 3 4 5 6 
#
# 1 0.044151 -0.008917 -0.004502 0.021700 -0.001254 0.048669
# 2 -0.008917 0.008301 0.000325 -0.003958 0.007272 -0.008611
# 3 -0.004502 0.000325 0.015617 -0.000119 0.016578 -0.006020
# 4 0.021700 -0.003958 -0.000119 0.031977 -0.008154 0.032138
# 5 -0.001254 0.007272 0.016578 -0.008154 0.072818 -0.009044
# 6 0.048669 -0.008611 -0.006020 0.032138 -0.009044 0.082671
#
#
# Mechanical properties :
#
#
# Convention : Reuss Voigt Hill
#
# Bulk Modulus (GPa) = 23.87799 72.34330 48.11065
# Shear Modulus (GPa) = 16.90992 41.56253 29.23622
#
# Velocity S-wave (km/s) = 2.53507 3.97439 3.33334
# Velocity P-wave (km/s) = 4.20042 6.96813 5.75319
#
# Compressibility (1/GPa) = 0.04187958
#
# Stress axis : x y z
#
# Youngs Moduli (GPa) = 22.64940 120.46544 64.03409
#
# Poissons Ratio (x) = 1.07425 0.28827
# Poissons Ratio (y) = 0.20198 -0.02078
# Poissons Ratio (z) = 0.10196 -0.03910
#
# Static dielectric constant tensor:
#      x y z
#    x 2.128760 0.010670 0.010840 
#    y 0.010670 2.096430 0.040560 
#    z 0.010840 0.040560 2.051910 
# 
# From -- ./inp_files/144126.got.cif
#   From: 2010.05.17/outbox.cif.g08.bks.cpg/sg2_73_cif.got.tgz:144126.got - 2010.06.03 11:33:40.
