data_PCOD9096170
_publ_section_title
;
Structure prediction by ZEFSAII (Michael W. Deem and Ramdas Pophale) SiO2 
 PCOD9096170
Probable space group: P -1
;
_chemical_formula_sum "Si O2"
_cell_formula_units_Z 12
_cell_length_a 10.908958
_cell_length_b 13.619856
_cell_length_c 11.624865
_cell_angle_alpha 22.849941
_cell_angle_beta 72.958785
_cell_angle_gamma 61.147456
_cell_volume 525.838687
_symmetry_space_group_name_H-M "P -1"
_symmetry_group_IT_number 2
_symmetry_cell_setting 'triclinic'
loop_
_space_group_symop_operation_xyz
x,y,z
-x,-y,-z
loop_
_atom_site_type_symbol
_atom_site_label
_atom_site_fract_x
_atom_site_fract_y
_atom_site_fract_z
Si Si1 0.089276 0.335642 0.272670
Si Si2 0.821440 0.238866 0.240737
Si Si3 0.638501 0.359529 0.388831
Si Si4 0.916242 0.175651 0.657072
Si Si5 0.863581 0.453314 0.611020
Si Si6 0.475710 0.017360 0.849265
O O1 0.967629 0.362589 0.368626
O O2 0.203243 0.975172 0.601370
O O3 0.173580 0.498095 0.107108
O O4 0.000000 0.500000 0.000000
O O5 0.698214 0.377161 0.228333
O O6 0.000000 0.000000 0.500000
O O7 0.798819 0.142438 0.650651
O O8 0.548798 0.196130 0.588701
O O9 0.549423 0.686854 0.126044
O O10 0.833114 0.353199 0.605124
O O11 0.066690 0.842631 0.008241
O O12 0.709041 0.765256 0.357548
O O13 0.000000 0.500000 0.500000
O O14 0.500000 0.000000 0.000000
#
# Coordination Sequence:
#
# PCOD9096170 Si02
#       6
#     2   2   2   2   2   2
#     4  10  20  35  63 101 124 162 218 279 315 373
#     4  10  20  35  63  99 128 160 220 272 324 377
#     4  12  24  41  69 101 131 169 219 281 331 384
#     4  11  24  40  69 100 131 172 226 275 326 395
#     4  11  27  44  66  95 138 180 222 265 335 404
#     4  12  26  42  66  95 138 174 220 273 334 389
#
# _framework density 22.820685999999998
#
# number of rings (size 3 to 8) (size 9 to 14) (size 15 to 20)
#    0.000    1.000    5.000    2.500    9.333    0.000 
#    0.000    0.000    0.000    6.000    0.000    0.000 
#    0.000    0.000    0.000    0.000    0.000    0.000 
#
# Total GULP energy -67146.671322 kJ/mol
# GULP energy per Si atom -5595.555943 kJ/mol
# Density = 2.276874 g / cm^3
# Si number density = 22.820686 Si / 1000 Ang^3
#
#
#
# Elastic Constant Matrix: (Units=GPa)
#
#
# Indices 1 2 3 4 5 6 
#
# 1 65.7018 15.9309 35.5774 4.7915 -22.2029 -19.3388
# 2 15.9309 110.8252 47.8415 -12.9915 -1.8462 -9.4853
# 3 35.5774 47.8415 116.6155 -5.9988 -23.7392 -9.7646
# 4 4.7915 -12.9915 -5.9988 38.4298 -0.5462 -12.7795
# 5 -22.2029 -1.8462 -23.7392 -0.5462 42.8505 -5.5786
# 6 -19.3388 -9.4853 -9.7646 -12.7795 -5.5786 35.2316
#
#
#
# Elastic Compliance Matrix: (Units=1/GPa)
#
#
# Indices 1 2 3 4 5 6 
#
# 1 0.026709 -0.000436 -0.003692 0.001561 0.013915 0.016289
# 2 -0.000436 0.011798 -0.004619 0.004264 -0.001844 0.002911
# 3 -0.003692 -0.004619 0.012892 0.001551 0.005271 0.001700
# 4 0.001561 0.004264 0.001551 0.032524 0.004206 0.014898
# 5 0.013915 -0.001844 0.005271 0.004206 0.035492 0.015748
# 6 0.016289 0.002911 0.001700 0.014898 0.015748 0.046477
#
#
# Mechanical properties :
#
#
# Convention : Reuss Voigt Hill
#
# Bulk Modulus (GPa) = 29.49630 54.64913 42.07271
# Shear Modulus (GPa) = 25.68195 36.22188 30.95192
#
# Velocity S-wave (km/s) = 3.35831 3.98834 3.68681
# Velocity P-wave (km/s) = 5.29065 6.72371 6.04976
#
# Compressibility (1/GPa) = 0.03390256
#
# Stress axis : x y z
#
# Youngs Moduli (GPa) = 37.44100 84.75781 77.56815
#
# Poissons Ratio (x) = 0.03700 0.28641
# Poissons Ratio (y) = 0.01634 0.35831
# Poissons Ratio (z) = 0.13825 0.39152
#
# Static dielectric constant tensor:
#      x y z
#    x 1.818920 0.021800 -0.021700 
#    y 0.021800 1.893510 -0.042340 
#    z -0.021700 -0.042340 1.905640 
# 
# From -- ./inp_files/25246.got.cif
#   From: 2010.05.17/outbox.cif.g08.bks.cpg/sg2_13_cif.got.tgz:25246.got - 2010.06.03 11:33:40.
