data_PCOD9096083
_publ_section_title
;
Structure prediction by ZEFSAII (Michael W. Deem and Ramdas Pophale) SiO2 
 PCOD9096083
Probable space group: P -1
;
_chemical_formula_sum "Si O2"
_cell_formula_units_Z 16
_cell_length_a 8.330873
_cell_length_b 8.078884
_cell_length_c 13.205507
_cell_angle_alpha 135.690715
_cell_angle_beta 103.372586
_cell_angle_gamma 73.969853
_cell_volume 595.952555
_symmetry_space_group_name_H-M "P -1"
_symmetry_group_IT_number 2
_symmetry_cell_setting 'triclinic'
loop_
_space_group_symop_operation_xyz
x,y,z
-x,-y,-z
loop_
_atom_site_type_symbol
_atom_site_label
_atom_site_fract_x
_atom_site_fract_y
_atom_site_fract_z
Si Si1 0.424228 0.074884 0.676575
Si Si2 0.389797 0.572601 0.416393
Si Si3 0.334689 0.677753 0.100781
Si Si4 0.785860 0.147008 0.124943
Si Si5 0.885365 0.301884 0.409980
Si Si6 0.957300 0.850728 0.333626
Si Si7 0.014751 0.646836 0.934486
Si Si8 0.417630 0.046288 0.143704
O O1 0.232733 0.193529 0.691416
O O2 0.445718 0.826553 0.508760
O O3 0.436639 0.016643 0.776984
O O4 0.570449 0.232866 0.749387
O O5 0.500000 0.500000 0.500000
O O6 0.211666 0.640269 0.474348
O O7 0.389225 0.329738 0.247993
O O8 0.284056 0.939670 0.150660
O O9 0.500000 0.500000 0.000000
O O10 0.165163 0.576506 0.008554
O O11 0.772727 0.297671 0.291627
O O12 0.897614 0.271228 0.118610
O O13 0.614625 0.112297 0.028153
O O14 0.875947 0.874373 0.038876
O O15 0.000000 0.500000 0.500000
O O16 0.974124 0.029217 0.321082
O O17 0.057848 0.591573 0.210261
O O18 0.000000 0.000000 0.500000
#
# Coordination Sequence:
#
# PCOD9096083 Si02
#       8
#     2   2   2   2   2   2   2   2
#     4   8  17  31  53  86 111 147 205 246 297 348
#     4   9  18  36  58  83 116 158 207 245 301 374
#     4   9  15  29  53  86 109 148 201 252 280 359
#     4  10  22  35  58  94 123 162 205 257 312 369
#     4  11  25  39  59  93 130 158 207 267 317 364
#     4  11  22  37  59  87 120 166 209 255 306 378
#     4  10  20  35  62  86 125 165 209 242 313 385
#     4   8  17  32  58  84 113 156 202 244 299 373
#
# _framework density 26.847774999999999
#
# number of rings (size 3 to 8) (size 9 to 14) (size 15 to 20)
#    0.750    1.750    1.250    0.750    8.750    0.500 
#    0.000    5.625    0.000    0.000    6.500   20.125 
#    0.000    0.000    0.000    0.000    0.000    0.000 
#
# Total GULP energy -89114.417276 kJ/mol
# GULP energy per Si atom -5569.651080 kJ/mol
# Density = 2.678667 g / cm^3
# Si number density = 26.847775 Si / 1000 Ang^3
#
#
#
# Elastic Constant Matrix: (Units=GPa)
#
#
# Indices 1 2 3 4 5 6 
#
# 1 36.2288 7.6055 18.5740 -11.6950 6.1695 -1.6829
# 2 7.6055 83.6411 46.4676 11.8810 -3.6193 -11.6257
# 3 18.5740 46.4676 214.9489 -2.1756 4.5101 7.5540
# 4 -11.6950 11.8810 -2.1756 58.1604 -1.5468 9.8057
# 5 6.1695 -3.6193 4.5101 -1.5468 31.5893 5.7999
# 6 -1.6829 -11.6257 7.5540 9.8057 5.7999 27.9831
#
#
#
# Elastic Compliance Matrix: (Units=1/GPa)
#
#
# Indices 1 2 3 4 5 6 
#
# 1 0.032533 -0.003132 -0.001936 0.006946 -0.006098 0.000008
# 2 -0.003132 0.016459 -0.003698 -0.005694 0.001015 0.009433
# 3 -0.001936 -0.003698 0.005760 0.001183 -0.000151 -0.003591
# 4 0.006946 -0.005694 0.001183 0.021493 0.000700 -0.009944
# 5 -0.006098 0.001015 -0.000151 0.000700 0.034354 -0.007270
# 6 0.000008 0.009433 -0.003591 -0.009944 -0.007270 0.045616
#
#
# Mechanical properties :
#
#
# Convention : Reuss Voigt Hill
#
# Bulk Modulus (GPa) = 26.86694 53.34589 40.10641
# Shear Modulus (GPa) = 26.85946 41.02467 33.94207
#
# Velocity S-wave (km/s) = 3.16640 3.91327 3.55947
# Velocity P-wave (km/s) = 4.83704 6.35068 5.64482
#
# Compressibility (1/GPa) = 0.03722047
#
# Stress axis : x y z
#
# Youngs Moduli (GPa) = 30.73764 60.75796 173.60180
#
# Poissons Ratio (x) = 0.19029 0.33613
# Poissons Ratio (y) = 0.09627 0.64195
# Poissons Ratio (z) = 0.05952 0.22467
#
# Static dielectric constant tensor:
#      x y z
#    x 2.386970 -0.148360 0.022400 
#    y -0.148360 2.454860 -0.014290 
#    z 0.022400 -0.014290 2.167560 
# 
# From -- ./inp_files/516414.got.cif
#   From: 2010.05.17/outbox.cif.g08.bks.cpg/sg2_259_cif.got.tgz:516414.got - 2010.06.03 11:33:40.
