data_PCOD9096460
_publ_section_title
;
Structure prediction by ZEFSAII (Michael W. Deem and Ramdas Pophale) SiO2 
 PCOD9096460
Probable space group: P -1
;
_chemical_formula_sum "Si O2"
_cell_formula_units_Z 14
_cell_length_a 11.620753
_cell_length_b 9.138781
_cell_length_c 9.320611
_cell_angle_alpha 86.108651
_cell_angle_beta 82.925117
_cell_angle_gamma 141.626360
_cell_volume 587.683459
_symmetry_space_group_name_H-M "P -1"
_symmetry_group_IT_number 2
_symmetry_cell_setting 'triclinic'
loop_
_space_group_symop_operation_xyz
x,y,z
-x,-y,-z
loop_
_atom_site_type_symbol
_atom_site_label
_atom_site_fract_x
_atom_site_fract_y
_atom_site_fract_z
Si Si1 0.963251 0.793298 0.032791
Si Si2 0.555025 0.464793 0.132481
Si Si3 0.838083 0.505753 0.334555
Si Si4 0.420795 0.291726 0.633511
Si Si5 0.734134 0.361093 0.653319
Si Si6 0.617898 0.913395 0.608829
Si Si7 0.023116 0.616570 0.842608
O O1 0.733063 0.539676 0.057342
O O2 0.974556 0.739729 0.195194
O O3 0.082261 0.829069 0.890384
O O4 0.000000 0.000000 0.000000
O O5 0.630091 0.655298 0.228400
O O6 0.381631 0.196109 0.248176
O O7 0.500000 0.500000 0.000000
O O8 0.887573 0.560062 0.490826
O O9 0.613733 0.322165 0.374281
O O10 0.845036 0.350400 0.278917
O O11 0.500000 0.500000 0.500000
O O12 0.569624 0.320112 0.674345
O O13 0.294877 0.070355 0.550969
O O14 0.834371 0.448957 0.785312
O O15 0.668394 0.130589 0.630246
O O16 0.000000 0.500000 0.000000
#
# Coordination Sequence:
#
# PCOD9096460 Si02
#       7
#     2   2   2   2   2   2   2
#     4  10  22  38  54  76 112 153 190 229 277 338
#     4  10  20  36  55  82 117 150 186 231 281 338
#     4   9  19  38  58  82 114 147 186 236 286 338
#     4   9  18  34  57  85 117 146 180 237 292 334
#     4  11  20  37  62  88 113 146 192 243 287 345
#     4   9  20  36  59  88 113 143 190 240 290 341
#     4  10  22  39  56  81 117 153 189 236 286 338
#
# _framework density 23.822347000000001
#
# number of rings (size 3 to 8) (size 9 to 14) (size 15 to 20)
#    0.000    2.286    0.000    3.857    0.000    4.571 
#    0.000   12.143    0.000    0.000    0.000    0.000 
#    0.000    0.000    0.000    0.000    0.000    0.000 
#
# Total GULP energy -78028.003441 kJ/mol
# GULP energy per Si atom -5573.428817 kJ/mol
# Density = 2.376813 g / cm^3
# Si number density = 23.822347 Si / 1000 Ang^3
#
#
#
# Elastic Constant Matrix: (Units=GPa)
#
#
# Indices 1 2 3 4 5 6 
#
# 1 84.2591 26.9600 39.6390 7.5278 4.2486 -25.1655
# 2 26.9600 104.3070 41.1433 2.8312 13.1932 -38.1692
# 3 39.6390 41.1433 153.5111 12.1869 14.5394 -10.0774
# 4 7.5278 2.8312 12.1869 26.2349 -9.9472 5.8928
# 5 4.2486 13.1932 14.5394 -9.9472 53.1950 7.4274
# 6 -25.1655 -38.1692 -10.0774 5.8928 7.4274 47.7785
#
#
#
# Elastic Compliance Matrix: (Units=1/GPa)
#
#
# Indices 1 2 3 4 5 6 
#
# 1 0.017018 0.001595 -0.003125 -0.007566 -0.003867 0.011113
# 2 0.001595 0.017267 -0.002695 -0.007467 -0.007321 0.016125
# 3 -0.003125 -0.002695 0.008359 -0.003043 -0.001742 -0.001390
# 4 -0.007566 -0.007467 -0.003043 0.052948 0.015926 -0.019599
# 5 -0.003867 -0.007321 -0.001742 0.015926 0.026377 -0.014318
# 6 0.011113 0.016125 -0.001390 -0.019599 -0.014318 0.044015
#
#
# Mechanical properties :
#
#
# Convention : Reuss Voigt Hill
#
# Bulk Modulus (GPa) = 29.24488 61.95130 45.59809
# Shear Modulus (GPa) = 26.90589 41.06403 33.98496
#
# Velocity S-wave (km/s) = 3.36436 4.15632 3.78113
# Velocity P-wave (km/s) = 5.23400 7.00681 6.18426
#
# Compressibility (1/GPa) = 0.03419402
#
# Stress axis : x y z
#
# Youngs Moduli (GPa) = 58.76067 57.91297 119.63356
#
# Poissons Ratio (x) = -0.09239 0.37391
# Poissons Ratio (y) = -0.09375 0.32242
# Poissons Ratio (z) = 0.18366 0.15608
#
# Static dielectric constant tensor:
#      x y z
#    x 1.940940 0.014600 0.017830 
#    y 0.014600 1.955830 -0.047480 
#    z 0.017830 -0.047480 2.006510 
# 
# From -- ./inp_files/154336.got.cif
#   From: 2010.05.17/outbox.cif.g08.bks.cpg/sg2_78_cif.got.tgz:154336.got - 2010.06.03 11:33:40.
