data_PCOD9096926
_publ_section_title
;
Structure prediction by ZEFSAII (Michael W. Deem and Ramdas Pophale) SiO2 
 PCOD9096926
Probable space group: P -1
;
_chemical_formula_sum "Si O2"
_cell_formula_units_Z 16
_cell_length_a 14.580697
_cell_length_b 6.210547
_cell_length_c 8.052709
_cell_angle_alpha 80.757354
_cell_angle_beta 123.725205
_cell_angle_gamma 86.659245
_cell_volume 588.878244
_symmetry_space_group_name_H-M "P -1"
_symmetry_group_IT_number 2
_symmetry_cell_setting 'triclinic'
loop_
_space_group_symop_operation_xyz
x,y,z
-x,-y,-z
loop_
_atom_site_type_symbol
_atom_site_label
_atom_site_fract_x
_atom_site_fract_y
_atom_site_fract_z
Si Si1 0.884240 0.320218 0.941795
Si Si2 0.335481 0.941164 0.532608
Si Si3 0.632272 0.764356 0.153642
Si Si4 0.499616 0.516302 0.249211
Si Si5 0.777938 0.999560 0.081518
Si Si6 0.023258 0.377952 0.765162
Si Si7 0.807733 0.306177 0.387829
Si Si8 0.662597 0.641750 0.681033
O O1 0.975086 0.271497 0.894488
O O2 0.788888 0.533205 0.773536
O O3 0.948294 0.395491 0.158791
O O4 0.810596 0.141219 0.943578
O O5 0.339436 0.101932 0.673311
O O6 0.341320 0.095408 0.360102
O O7 0.438336 0.738223 0.670341
O O8 0.228163 0.828487 0.472567
O O9 0.516377 0.681550 0.095117
O O10 0.659972 0.920239 0.012397
O O11 0.715650 0.529081 0.255746
O O12 0.569847 0.602346 0.458103
O O13 0.375601 0.489290 0.182810
O O14 0.866021 0.772302 0.175667
O O15 0.804074 0.143737 0.249277
O O16 0.924970 0.378268 0.534370
#
# Coordination Sequence:
#
# PCOD9096926 Si02
#       8
#     2   2   2   2   2   2   2   2
#     4  11  25  40  57  88 129 159 193 246 303 358
#     4   9  17  32  59  89 116 148 192 247 296 344
#     4   9  19  36  59  89 117 146 194 250 294 344
#     4   9  18  35  62  90 117 152 200 247 294 353
#     4  11  23  39  61  86 121 164 202 243 294 352
#     4  11  24  41  60  85 120 162 204 247 297 350
#     4  10  21  39  63  88 118 158 207 249 287 347
#     4  10  20  36  58  88 122 157 196 245 298 354
#
# _framework density 27.170300999999998
#
# number of rings (size 3 to 8) (size 9 to 14) (size 15 to 20)
#    0.000    2.000    0.000    4.125    0.000    8.000 
#    0.000    0.625    0.000   10.500    0.000    0.000 
#    0.000    0.000    0.000    0.000    0.000    0.000 
#
# Total GULP energy -89547.469573 kJ/mol
# GULP energy per Si atom -5596.716848 kJ/mol
# Density = 2.710846 g / cm^3
# Si number density = 27.170301 Si / 1000 Ang^3
#
#
#
# Elastic Constant Matrix: (Units=GPa)
#
#
# Indices 1 2 3 4 5 6 
#
# 1 173.4040 61.8969 26.1042 -15.9148 -28.6545 27.1105
# 2 61.8969 126.4141 36.4649 15.3235 -20.3799 27.4809
# 3 26.1042 36.4649 73.4114 9.7532 -20.5569 22.9430
# 4 -15.9148 15.3235 9.7532 53.2562 15.6211 -8.8389
# 5 -28.6545 -20.3799 -20.5569 15.6211 42.2961 -13.2599
# 6 27.1105 27.4809 22.9430 -8.8389 -13.2599 67.2032
#
#
#
# Elastic Compliance Matrix: (Units=1/GPa)
#
#
# Indices 1 2 3 4 5 6 
#
# 1 0.007810 -0.003480 -0.000583 0.002702 0.002095 -0.000760
# 2 -0.003480 0.012126 -0.002109 -0.005693 0.003666 -0.002860
# 3 -0.000583 -0.002109 0.019822 -0.006684 0.009208 -0.004732
# 4 0.002702 -0.005693 -0.006684 0.026921 -0.012674 0.004560
# 5 0.002095 0.003666 0.009208 -0.012674 0.035966 -0.000058
# 6 -0.000760 -0.002860 -0.004732 0.004560 -0.000058 0.018560
#
#
# Mechanical properties :
#
#
# Convention : Reuss Voigt Hill
#
# Bulk Modulus (GPa) = 36.48005 69.12904 52.80455
# Shear Modulus (GPa) = 35.04172 49.13533 42.08852
#
# Velocity S-wave (km/s) = 3.59514 4.25717 3.94008
# Velocity P-wave (km/s) = 5.53977 7.04718 6.33844
#
# Compressibility (1/GPa) = 0.02741224
#
# Stress axis : x y z
#
# Youngs Moduli (GPa) = 128.04319 82.46956 50.44903
#
# Poissons Ratio (x) = 0.28703 0.02943
# Poissons Ratio (y) = 0.44564 0.10639
# Poissons Ratio (z) = 0.07469 0.17392
#
# Static dielectric constant tensor:
#      x y z
#    x 2.115210 0.020410 -0.104280 
#    y 0.020410 2.078850 0.004800 
#    z -0.104280 0.004800 2.143320 
# 
# From -- ./inp_files/93201.got.cif
#   From: 2010.05.17/outbox.cif.g08.bks.cpg/sg2_47_cif.got.tgz:93201.got - 2010.06.03 11:33:40.
