data_PCOD9096050
_publ_section_title
;
Structure prediction by ZEFSAII (Michael W. Deem and Ramdas Pophale) SiO2 
 PCOD9096050
Probable space group: P -1
;
_chemical_formula_sum "Si O2"
_cell_formula_units_Z 16
_cell_length_a 17.713678
_cell_length_b 8.361567
_cell_length_c 13.891199
_cell_angle_alpha 25.575748
_cell_angle_beta 44.283446
_cell_angle_gamma 45.276252
_cell_volume 608.599129
_symmetry_space_group_name_H-M "P -1"
_symmetry_group_IT_number 2
_symmetry_cell_setting 'triclinic'
loop_
_space_group_symop_operation_xyz
x,y,z
-x,-y,-z
loop_
_atom_site_type_symbol
_atom_site_label
_atom_site_fract_x
_atom_site_fract_y
_atom_site_fract_z
Si Si1 0.498816 0.120936 0.134218
Si Si2 0.768137 0.289154 0.387521
Si Si3 0.005190 0.715664 0.738975
Si Si4 0.263890 0.554094 0.087866
Si Si5 0.896452 0.301579 0.674993
Si Si6 0.796164 0.471819 0.046643
Si Si7 0.557543 0.590903 0.526977
Si Si8 0.308917 0.663907 0.273196
O O1 0.481093 0.938031 0.354663
O O2 0.487871 0.791856 0.244442
O O3 0.395084 0.463326 0.031815
O O4 0.610614 0.248294 0.932130
O O5 0.869791 0.414863 0.277430
O O6 0.660553 0.552585 0.381743
O O7 0.766343 0.864674 0.651551
O O8 0.772623 0.307451 0.259369
O O9 0.927787 0.426015 0.941654
O O10 0.000000 0.000000 0.500000
O O11 0.952274 0.934266 0.764034
O O12 0.175921 0.762401 0.131441
O O13 0.246362 0.696276 0.918160
O O14 0.796452 0.485965 0.592558
O O15 0.000000 0.500000 0.500000
O O16 0.743126 0.924171 0.855696
O O17 0.610665 0.580592 0.589184
#
# Coordination Sequence:
#
# PCOD9096050 Si02
#       8
#     2   2   2   2   2   2   2   2
#     4  10  21  36  62  93 129 156 209 252 310 361
#     4  11  19  35  61  90 122 154 207 254 311 358
#     4  11  20  39  67  88 118 160 209 260 309 360
#     4  11  23  40  60  87 131 166 193 253 315 364
#     4  11  23  42  65  86 127 170 202 250 317 371
#     4  11  21  35  61  95 117 160 210 256 304 363
#     4  10  20  35  62 100 124 154 200 268 308 354
#     4  11  21  38  65  93 122 165 209 255 304 364
#
# _framework density 26.289885000000002
#
# number of rings (size 3 to 8) (size 9 to 14) (size 15 to 20)
#    0.000    1.250    6.250    1.500    0.000    0.500 
#    0.000    2.500    2.750    0.000    0.000    0.000 
#    0.000    0.000    0.000    0.000    0.000    0.000 
#
# Total GULP energy -89563.005175 kJ/mol
# GULP energy per Si atom -5597.687823 kJ/mol
# Density = 2.623005 g / cm^3
# Si number density = 26.289885 Si / 1000 Ang^3
#
#
#
# Elastic Constant Matrix: (Units=GPa)
#
#
# Indices 1 2 3 4 5 6 
#
# 1 155.4426 17.9464 43.1235 1.7452 9.4555 -6.6430
# 2 17.9464 51.5657 11.7700 4.9182 -9.3768 0.2883
# 3 43.1235 11.7700 106.4798 13.5248 18.9477 3.7215
# 4 1.7452 4.9182 13.5248 31.2337 -1.9547 -3.6227
# 5 9.4555 -9.3768 18.9477 -1.9547 51.0597 19.9079
# 6 -6.6430 0.2883 3.7215 -3.6227 19.9079 37.4624
#
#
#
# Elastic Compliance Matrix: (Units=1/GPa)
#
#
# Indices 1 2 3 4 5 6 
#
# 1 0.007719 -0.002547 -0.002778 0.001379 -0.001910 0.002813
# 2 -0.002547 0.022318 -0.002213 -0.002482 0.006997 -0.004362
# 3 -0.002778 -0.002213 0.012239 -0.005053 -0.004764 0.000352
# 4 0.001379 -0.002482 -0.005053 0.035001 0.001117 0.003557
# 5 -0.001910 0.006997 -0.004764 0.001117 0.028961 -0.015202
# 6 0.002813 -0.004362 0.000352 0.003557 -0.015202 0.035613
#
#
# Mechanical properties :
#
#
# Convention : Reuss Voigt Hill
#
# Bulk Modulus (GPa) = 36.76593 51.01865 43.89229
# Shear Modulus (GPa) = 30.12183 39.99437 35.05810
#
# Velocity S-wave (km/s) = 3.38858 3.90460 3.65570
# Velocity P-wave (km/s) = 5.41527 6.30683 5.87798
#
# Compressibility (1/GPa) = 0.02719909
#
# Stress axis : x y z
#
# Youngs Moduli (GPa) = 129.55134 44.80763 81.70934
#
# Poissons Ratio (x) = 0.11412 0.22701
# Poissons Ratio (y) = 0.32996 0.18081
# Poissons Ratio (z) = 0.35992 0.09915
#
# Static dielectric constant tensor:
#      x y z
#    x 2.220790 -0.000700 -0.002540 
#    y -0.000700 2.065430 -0.046470 
#    z -0.002540 -0.046470 2.032770 
# 
# From -- ./inp_files/446609.got.cif
#   From: 2010.05.17/outbox.cif.g08.bks.cpg/sg2_224_cif.got.tgz:446609.got - 2010.06.03 11:33:40.
