data_PCOD9096432
_publ_section_title
;
Structure prediction by ZEFSAII (Michael W. Deem and Ramdas Pophale) SiO2 
 PCOD9096432
Probable space group: P -1
;
_chemical_formula_sum "Si O2"
_cell_formula_units_Z 16
_cell_length_a 10.473867
_cell_length_b 7.684519
_cell_length_c 12.309789
_cell_angle_alpha 101.570419
_cell_angle_beta 130.087860
_cell_angle_gamma 61.622362
_cell_volume 658.672646
_symmetry_space_group_name_H-M "P -1"
_symmetry_group_IT_number 2
_symmetry_cell_setting 'triclinic'
loop_
_space_group_symop_operation_xyz
x,y,z
-x,-y,-z
loop_
_atom_site_type_symbol
_atom_site_label
_atom_site_fract_x
_atom_site_fract_y
_atom_site_fract_z
Si Si1 0.145950 0.285090 0.687493
Si Si2 0.307160 0.693346 0.308049
Si Si3 0.976416 0.302870 0.990387
Si Si4 0.914576 0.839988 0.725460
Si Si5 0.330135 0.556627 0.824383
Si Si6 0.260245 0.447547 0.452064
Si Si7 0.740253 0.878797 0.042353
Si Si8 0.393686 0.858033 0.795829
O O1 0.283863 0.377112 0.741841
O O2 0.167770 0.284022 0.831952
O O3 0.924200 0.399147 0.560937
O O4 0.237249 0.052508 0.675358
O O5 0.261694 0.558000 0.352530
O O6 0.525047 0.631117 0.407626
O O7 0.197453 0.922020 0.319396
O O8 0.229012 0.664856 0.146344
O O9 0.045326 0.220633 0.134927
O O10 0.102470 0.131633 0.951933
O O11 0.000000 0.500000 0.000000
O O12 0.786531 0.737991 0.604939
O O13 0.121868 0.724901 0.770727
O O14 0.377300 0.659087 0.761505
O O15 0.500000 0.500000 0.000000
O O16 0.635979 0.075670 0.083021
O O17 0.597028 0.838641 0.885203
#
# Coordination Sequence:
#
# PCOD9096432 Si02
#       8
#     2   2   2   2   2   2   2   2
#     4   9  16  30  46  74 101 129 168 222 261 298
#     4  11  21  36  54  77 106 154 183 213 270 323
#     4  12  21  35  54  80 119 143 173 219 280 330
#     4  11  23  35  54  83 114 142 175 230 273 323
#     4  11  17  27  49  75 103 134 169 215 272 308
#     4  10  20  36  55  76 110 143 188 222 259 324
#     4   9  16  31  47  73 108 137 165 220 270 307
#     4   9  17  29  50  72 107 129 179 220 262 311
#
# _framework density 24.291276
#
# number of rings (size 3 to 8) (size 9 to 14) (size 15 to 20)
#    0.750    1.000    3.750    3.000    0.000    0.000 
#    0.000    0.000    0.000    0.000    0.000   10.500 
#    0.000    0.000    0.000    0.000    0.000    0.000 
#
# Total GULP energy -89342.509515 kJ/mol
# GULP energy per Si atom -5583.906845 kJ/mol
# Density = 2.423599 g / cm^3
# Si number density = 24.291276 Si / 1000 Ang^3
#
#
#
# Elastic Constant Matrix: (Units=GPa)
#
#
# Indices 1 2 3 4 5 6 
#
# 1 65.8045 25.3324 23.1108 6.2598 39.2163 -0.3283
# 2 25.3324 104.3944 20.3544 -1.5039 21.6168 4.3150
# 3 23.1108 20.3544 96.1605 -4.6110 49.8583 -0.7433
# 4 6.2598 -1.5039 -4.6110 19.3331 1.7038 11.8096
# 5 39.2163 21.6168 49.8583 1.7038 49.7538 5.5815
# 6 -0.3283 4.3150 -0.7433 11.8096 5.5815 31.9842
#
#
#
# Elastic Compliance Matrix: (Units=1/GPa)
#
#
# Indices 1 2 3 4 5 6 
#
# 1 0.040152 -0.003959 0.013919 -0.014973 -0.045008 0.014653
# 2 -0.003959 0.011001 -0.000960 0.003673 -0.000508 -0.002815
# 3 0.013919 -0.000960 0.027639 0.000942 -0.039113 0.007393
# 4 -0.014973 0.003673 0.000942 0.074443 0.010064 -0.029870
# 5 -0.045008 -0.000508 -0.039113 0.010064 0.097110 -0.021965
# 6 0.014653 -0.002815 0.007393 -0.029870 -0.021965 0.046830
#
#
# Mechanical properties :
#
#
# Convention : Reuss Voigt Hill
#
# Bulk Modulus (GPa) = 10.33119 44.88383 27.60751
# Shear Modulus (GPa) = 16.05459 33.38499 24.71979
#
# Velocity S-wave (km/s) = 2.57363 3.71126 3.19351
# Velocity P-wave (km/s) = 3.61852 6.07306 4.99879
#
# Compressibility (1/GPa) = 0.09679426
#
# Stress axis : x y z
#
# Youngs Moduli (GPa) = 24.90542 90.89902 36.18041
#
# Poissons Ratio (x) = 0.35986 -0.50361
# Poissons Ratio (y) = 0.09860 0.03472
# Poissons Ratio (z) = -0.34667 0.08722
#
# Static dielectric constant tensor:
#      x y z
#    x 1.913530 -0.004910 -0.003700 
#    y -0.004910 2.020240 0.006540 
#    z -0.003700 0.006540 2.032620 
# 
# From -- ./inp_files/513385.got.cif
#   From: 2010.05.17/outbox.cif.g08.bks.cpg/sg2_257_cif.got.tgz:513385.got - 2010.06.03 11:33:40.
