data_PCOD9096513
_publ_section_title
;
Structure prediction by ZEFSAII (Michael W. Deem and Ramdas Pophale) SiO2 
 PCOD9096513
Probable space group: P -1
;
_chemical_formula_sum "Si O2"
_cell_formula_units_Z 14
_cell_length_a 7.418106
_cell_length_b 19.499866
_cell_length_c 12.189758
_cell_angle_alpha 143.570701
_cell_angle_beta 36.435992
_cell_angle_gamma 138.575671
_cell_volume 595.036381
_symmetry_space_group_name_H-M "P -1"
_symmetry_group_IT_number 2
_symmetry_cell_setting 'triclinic'
loop_
_space_group_symop_operation_xyz
x,y,z
-x,-y,-z
loop_
_atom_site_type_symbol
_atom_site_label
_atom_site_fract_x
_atom_site_fract_y
_atom_site_fract_z
Si Si1 0.249836 0.749992 0.931592
Si Si2 0.425875 0.412168 0.527790
Si Si3 0.120688 0.062252 0.182128
Si Si4 0.232017 0.789626 0.384079
Si Si5 0.126119 0.830853 0.781006
Si Si6 0.245186 0.125712 0.582999
Si Si7 0.509230 0.647827 0.887300
O O1 0.301558 0.656126 0.693615
O O2 0.507109 0.873445 0.928121
O O3 0.367811 0.695731 0.911701
O O4 0.943318 0.781971 0.165911
O O5 0.500000 0.500000 0.500000
O O6 0.416707 0.503050 0.748363
O O7 0.081444 0.315305 0.554970
O O8 0.947692 0.109853 0.427081
O O9 0.982958 0.110808 0.201337
O O10 0.070845 0.921460 0.017192
O O11 0.519320 0.864554 0.416190
O O12 0.385183 0.716073 0.131759
O O13 0.486694 0.832494 0.589406
O O14 0.885439 0.702136 0.757160
O O15 0.000000 0.000000 0.500000
#
# Coordination Sequence:
#
# PCOD9096513 Si02
#       7
#     2   2   2   2   2   2   2
#     4   9  18  34  57  79 103 142 186 216 263 318
#     4   9  18  38  60  79 102 143 188 219 254 324
#     4   8  15  31  51  74  99 143 181 213 246 322
#     4  10  21  34  56  83 109 136 181 224 272 310
#     4   9  17  31  52  74 106 140 180 209 262 316
#     4  11  20  35  55  80 110 144 179 219 267 322
#     4  10  20  36  56  80 109 141 179 227 264 311
#
# _framework density 23.527971999999998
#
# number of rings (size 3 to 8) (size 9 to 14) (size 15 to 20)
#    0.000    2.571    1.429    3.000    2.000    0.571 
#    0.000   10.714    0.000    0.000    0.000    0.000 
#    0.000    0.000    0.000    0.000    0.000    0.000 
#
# Total GULP energy -77969.979952 kJ/mol
# GULP energy per Si atom -5569.284282 kJ/mol
# Density = 2.347442 g / cm^3
# Si number density = 23.527972 Si / 1000 Ang^3
#
#
#
# Elastic Constant Matrix: (Units=GPa)
#
#
# Indices 1 2 3 4 5 6 
#
# 1 65.7484 20.8705 17.6247 -7.3181 -3.6807 12.2341
# 2 20.8705 120.4625 51.7386 -7.1707 -2.9102 22.4525
# 3 17.6247 51.7386 184.9921 -22.6472 8.7569 21.2466
# 4 -7.3181 -7.1707 -22.6472 34.2312 19.4041 -1.5858
# 5 -3.6807 -2.9102 8.7569 19.4041 31.3140 -2.7365
# 6 12.2341 22.4525 21.2466 -1.5858 -2.7365 14.6186
#
#
#
# Elastic Compliance Matrix: (Units=1/GPa)
#
#
# Indices 1 2 3 4 5 6 
#
# 1 0.018551 -0.000330 0.001036 0.005520 -0.003001 -0.016487
# 2 -0.000330 0.012001 -0.001243 0.001335 -0.000833 -0.016361
# 3 0.001036 -0.001243 0.009038 0.011424 -0.010724 -0.012862
# 4 0.005520 0.001335 0.011424 0.061168 -0.042474 -0.024589
# 5 -0.003001 -0.000833 -0.010724 -0.042474 0.063147 0.026591
# 6 -0.016487 -0.016361 -0.012862 -0.024589 0.026591 0.128336
#
#
# Mechanical properties :
#
#
# Convention : Reuss Voigt Hill
#
# Bulk Modulus (GPa) = 25.96311 61.29674 43.62993
# Shear Modulus (GPa) = 16.33172 34.76404 25.54788
#
# Velocity S-wave (km/s) = 2.63751 3.84808 3.29880
# Velocity P-wave (km/s) = 4.50935 6.77147 5.75270
#
# Compressibility (1/GPa) = 0.03851618
#
# Stress axis : x y z
#
# Youngs Moduli (GPa) = 53.90639 83.32525 110.64464
#
# Poissons Ratio (x) = 0.02750 -0.11466
# Poissons Ratio (y) = 0.01779 0.13754
# Poissons Ratio (z) = -0.05586 0.10358
#
# Static dielectric constant tensor:
#      x y z
#    x 2.008040 0.005380 0.101700 
#    y 0.005380 1.854350 0.002630 
#    z 0.101700 0.002630 2.022890 
# 
# From -- ./inp_files/169985.got.cif
#   From: 2010.05.17/outbox.cif.g08.bks.cpg/sg2_85_cif.got.tgz:169985.got - 2010.06.03 11:33:40.
