data_PCOD9096810
_publ_section_title
;
Structure prediction by ZEFSAII (Michael W. Deem and Ramdas Pophale) SiO2 
 PCOD9096810
Probable space group: P -1
;
_chemical_formula_sum "Si O2"
_cell_formula_units_Z 16
_cell_length_a 23.399118
_cell_length_b 9.222907
_cell_length_c 7.912711
_cell_angle_alpha 148.085842
_cell_angle_beta 122.380735
_cell_angle_gamma 59.195218
_cell_volume 756.010463
_symmetry_space_group_name_H-M "P -1"
_symmetry_group_IT_number 2
_symmetry_cell_setting 'triclinic'
loop_
_space_group_symop_operation_xyz
x,y,z
-x,-y,-z
loop_
_atom_site_type_symbol
_atom_site_label
_atom_site_fract_x
_atom_site_fract_y
_atom_site_fract_z
Si Si1 0.915565 0.498007 0.548473
Si Si2 0.856690 0.302598 0.771313
Si Si3 0.067366 0.245727 0.539043
Si Si4 0.292811 0.141970 0.181733
Si Si5 0.442256 0.950837 0.228092
Si Si6 0.558602 0.545476 0.507432
Si Si7 0.291473 0.652208 0.454279
Si Si8 0.845135 0.039458 0.122638
O O1 0.920677 0.630896 0.504011
O O2 0.988261 0.323955 0.534698
O O3 0.860781 0.282299 0.262046
O O4 0.896866 0.762458 0.899895
O O5 0.778651 0.349741 0.759064
O O6 0.906704 0.077745 0.731666
O O7 0.853639 0.173051 0.451959
O O8 0.886707 0.590195 0.104209
O O9 0.285268 0.456451 0.416348
O O10 0.367285 0.048974 0.283560
O O11 0.229341 0.061189 0.106042
O O12 0.293086 0.960514 0.830500
O O13 0.500000 0.000000 0.500000
O O14 0.447808 0.144443 0.264791
O O15 0.446084 0.644338 0.854996
O O16 0.500000 0.500000 0.500000
O O17 0.634993 0.457896 0.614437
#
# Coordination Sequence:
#
# PCOD9096810 Si02
#       8
#     2   2   2   2   2   2   2   2
#     4  11  24  40  56  79 115 150 176 219 288 341
#     4  11  21  37  61  84 106 141 192 234 264 319
#     4  11  24  40  56  79 115 150 176 219 288 341
#     4   9  18  34  56  81 111 146 179 223 280 325
#     4  10  20  36  58  83 114 149 185 224 272 326
#     4  10  20  36  58  83 114 149 185 224 272 326
#     4   9  18  34  56  81 111 146 179 223 280 325
#     4  11  21  37  61  84 106 141 192 234 264 319
#
# _framework density 21.163727999999999
#
# number of rings (size 3 to 8) (size 9 to 14) (size 15 to 20)
#    0.000    1.750    0.000    6.000    0.000    5.000 
#    0.000    3.750    0.000    0.000    0.000    0.000 
#    0.000    0.000    0.000    0.000    0.000    0.000 
#
# Total GULP energy -89384.755277 kJ/mol
# GULP energy per Si atom -5586.547205 kJ/mol
# Density = 2.111556 g / cm^3
# Si number density = 21.163728 Si / 1000 Ang^3
#
#
#
# Elastic Constant Matrix: (Units=GPa)
#
#
# Indices 1 2 3 4 5 6 
#
# 1 113.9250 13.0724 1.9532 -3.5924 10.9737 -13.3046
# 2 13.0724 27.8462 -6.4957 -0.7357 -8.9496 -13.8116
# 3 1.9532 -6.4957 61.4203 5.3738 3.7991 2.6474
# 4 -3.5924 -0.7357 5.3738 31.2537 -2.9391 7.9798
# 5 10.9737 -8.9496 3.7991 -2.9391 25.5433 4.4485
# 6 -13.3046 -13.8116 2.6474 7.9798 4.4485 22.8892
#
#
#
# Elastic Compliance Matrix: (Units=1/GPa)
#
#
# Indices 1 2 3 4 5 6 
#
# 1 0.010595 -0.005031 -0.000573 -0.000707 -0.007151 0.004825
# 2 -0.005031 0.060344 0.004734 -0.006639 0.016246 0.032098
# 3 -0.000573 0.004734 0.017109 -0.003554 -0.001407 0.002057
# 4 -0.000707 -0.006639 -0.003554 0.037604 0.006017 -0.018285
# 5 -0.007151 0.016246 -0.001407 0.006017 0.049856 -0.005978
# 6 0.004825 0.032098 0.002057 -0.018285 -0.005978 0.073160
#
#
# Mechanical properties :
#
#
# Convention : Reuss Voigt Hill
#
# Bulk Modulus (GPa) = 11.58629 24.47238 18.02933
# Shear Modulus (GPa) = 17.90974 28.91467 23.41220
#
# Velocity S-wave (km/s) = 2.91219 3.70027 3.32963
# Velocity P-wave (km/s) = 4.09808 5.46301 4.82901
#
# Compressibility (1/GPa) = 0.08630893
#
# Stress axis : x y z
#
# Youngs Moduli (GPa) = 94.38593 16.57166 58.44715
#
# Poissons Ratio (x) = 0.08337 0.03348
# Poissons Ratio (y) = 0.47487 -0.27671
# Poissons Ratio (z) = 0.05407 -0.07846
#
# Static dielectric constant tensor:
#      x y z
#    x 1.790350 -0.016570 0.001660 
#    y -0.016570 1.761920 -0.017090 
#    z 0.001660 -0.017090 1.738460 
# 
# From -- ./inp_files/142265.got.cif
#   From: 2010.05.17/outbox.cif.g08.bks.cpg/sg2_72_cif.got.tgz:142265.got - 2010.06.03 11:33:40.
