data_PCOD9096269
_publ_section_title
;
Structure prediction by ZEFSAII (Michael W. Deem and Ramdas Pophale) SiO2 
 PCOD9096269
Probable space group: P -1
;
_chemical_formula_sum "Si O2"
_cell_formula_units_Z 14
_cell_length_a 9.838032
_cell_length_b 9.300010
_cell_length_c 8.669552
_cell_angle_alpha 111.640521
_cell_angle_beta 75.652896
_cell_angle_gamma 73.507431
_cell_volume 649.327582
_symmetry_space_group_name_H-M "P -1"
_symmetry_group_IT_number 2
_symmetry_cell_setting 'triclinic'
loop_
_space_group_symop_operation_xyz
x,y,z
-x,-y,-z
loop_
_atom_site_type_symbol
_atom_site_label
_atom_site_fract_x
_atom_site_fract_y
_atom_site_fract_z
Si Si1 0.673581 0.919815 0.848207
Si Si2 0.553806 0.703228 0.619976
Si Si3 0.449378 0.474257 0.759056
Si Si4 0.341584 0.015811 0.629064
Si Si5 0.867214 0.711495 0.990077
Si Si6 0.736747 0.151248 0.682019
Si Si7 0.860443 0.359879 0.898941
O O1 0.670290 0.781592 0.671303
O O2 0.704942 0.062762 0.806151
O O3 0.800408 0.823126 0.902129
O O4 0.500000 0.000000 0.000000
O O5 0.522613 0.600276 0.727108
O O6 0.603865 0.587207 0.407805
O O7 0.396144 0.863860 0.678938
O O8 0.581427 0.311209 0.736101
O O9 0.309644 0.563700 0.948868
O O10 0.236222 0.978978 0.518479
O O11 0.500000 0.000000 0.500000
O O12 0.261427 0.195631 0.805763
O O13 0.888392 0.518540 0.886412
O O14 0.019833 0.713540 0.023394
O O15 0.860769 0.224474 0.719061
#
# Coordination Sequence:
#
# PCOD9096269 Si02
#       7
#     2   2   2   2   2   2   2
#     4  12  20  36  63  94 115 155 206 260 293 363
#     4  10  20  35  64  93 121 152 211 251 305 346
#     4  10  21  38  62  94 121 160 201 257 297 369
#     4  11  20  40  65  95 117 159 202 260 295 363
#     4  11  25  41  64  85 127 163 209 242 317 358
#     4  11  23  37  67  90 122 158 208 251 307 346
#     4  11  24  42  59  88 127 169 196 255 302 373
#
# _framework density 21.560766000000001
#
# number of rings (size 3 to 8) (size 9 to 14) (size 15 to 20)
#    0.000    1.143    2.857    4.714    0.000    1.143 
#    0.000    0.714    3.143    0.000    0.000    0.000 
#    0.000    0.000    0.000    0.000    0.000    0.000 
#
# Total GULP energy -78292.483922 kJ/mol
# GULP energy per Si atom -5592.320280 kJ/mol
# Density = 2.151169 g / cm^3
# Si number density = 21.560766 Si / 1000 Ang^3
#
#
#
# Elastic Constant Matrix: (Units=GPa)
#
#
# Indices 1 2 3 4 5 6 
#
# 1 70.3675 36.8049 24.5350 -1.6080 35.7319 -3.9030
# 2 36.8049 127.5904 15.2386 -24.2084 23.4506 -4.6764
# 3 24.5350 15.2386 51.7014 0.6331 35.1516 4.6388
# 4 -1.6080 -24.2084 0.6331 33.2469 1.7818 14.7418
# 5 35.7319 23.4506 35.1516 1.7818 40.2271 4.9911
# 6 -3.9030 -4.6764 4.6388 14.7418 4.9911 33.5563
#
#
#
# Elastic Compliance Matrix: (Units=1/GPa)
#
#
# Indices 1 2 3 4 5 6 
#
# 1 0.030555 -0.004144 0.008433 -0.003615 -0.032963 0.008301
# 2 -0.004144 0.011372 0.001977 0.009458 -0.004770 -0.002616
# 3 0.008433 0.001977 0.050980 0.003458 -0.053422 0.000636
# 4 -0.003615 0.009458 0.003458 0.045301 -0.005006 -0.018737
# 5 -0.032963 -0.004770 -0.053422 -0.005006 0.105132 -0.010552
# 6 0.008301 -0.002616 0.000636 -0.018737 -0.010552 0.040115
#
#
# Mechanical properties :
#
#
# Convention : Reuss Voigt Hill
#
# Bulk Modulus (GPa) = 9.48429 44.75737 27.12083
# Shear Modulus (GPa) = 16.33619 32.94477 24.64048
#
# Velocity S-wave (km/s) = 2.75559 3.91320 3.38426
# Velocity P-wave (km/s) = 3.81219 6.42038 5.27987
#
# Compressibility (1/GPa) = 0.10543746
#
# Stress axis : x y z
#
# Youngs Moduli (GPa) = 32.72831 87.93276 19.61566
#
# Poissons Ratio (x) = 0.36440 -0.16541
# Poissons Ratio (y) = 0.13563 -0.03878
# Poissons Ratio (z) = -0.27598 -0.17384
#
# Static dielectric constant tensor:
#      x y z
#    x 1.767490 0.006950 0.035210 
#    y 0.006950 1.787580 0.023110 
#    z 0.035210 0.023110 1.829880 
# 
# From -- ./inp_files/159520.got.cif
#   From: 2010.05.17/outbox.cif.g08.bks.cpg/sg2_80_cif.got.tgz:159520.got - 2010.06.03 11:33:40.
