data_PCOD9096540
_publ_section_title
;
Structure prediction by ZEFSAII (Michael W. Deem and Ramdas Pophale) SiO2 
 PCOD9096540
Probable space group: P -1
;
_chemical_formula_sum "Si O2"
_cell_formula_units_Z 16
_cell_length_a 8.372078
_cell_length_b 9.196887
_cell_length_c 15.324690
_cell_angle_alpha 142.093317
_cell_angle_beta 103.196547
_cell_angle_gamma 85.592468
_cell_volume 695.194819
_symmetry_space_group_name_H-M "P -1"
_symmetry_group_IT_number 2
_symmetry_cell_setting 'triclinic'
loop_
_space_group_symop_operation_xyz
x,y,z
-x,-y,-z
loop_
_atom_site_type_symbol
_atom_site_label
_atom_site_fract_x
_atom_site_fract_y
_atom_site_fract_z
Si Si1 0.697456 0.122474 0.794453
Si Si2 0.228925 0.348768 0.371201
Si Si3 0.656092 0.499186 0.198466
Si Si4 0.451651 0.539290 0.654193
Si Si5 0.859424 0.111995 0.643883
Si Si6 0.996984 0.633221 0.382730
Si Si7 0.576225 0.942243 0.131524
Si Si8 0.196929 0.329056 0.873738
O O1 0.700232 0.096420 0.678319
O O2 0.522969 0.032329 0.778334
O O3 0.811588 0.939894 0.762293
O O4 0.754011 0.398855 0.958103
O O5 0.322690 0.429368 0.511490
O O6 0.366192 0.422010 0.346955
O O7 0.079753 0.486927 0.395252
O O8 0.569878 0.586715 0.314496
O O9 0.697973 0.677966 0.206500
O O10 0.841531 0.468175 0.237406
O O11 0.539781 0.264795 0.035120
O O12 0.407897 0.803771 0.792064
O O13 0.870441 0.248522 0.617934
O O14 0.006211 0.262215 0.792457
O O15 0.919144 0.857687 0.515718
O O16 0.743806 0.850239 0.134890
#
# Coordination Sequence:
#
# PCOD9096540 Si02
#       8
#     2   2   2   2   2   2   2   2
#     4  10  20  36  56  83 113 143 182 227 274 327
#     4  10  22  38  57  83 113 146 185 229 276 327
#     4  10  20  36  56  83 113 143 182 227 274 327
#     4  10  21  38  58  83 113 144 186 231 272 326
#     4  10  21  38  58  83 113 144 186 231 272 326
#     4  10  22  38  57  83 113 146 185 229 276 327
#     4  10  21  38  59  83 112 146 185 227 274 329
#     4  10  21  38  59  83 112 146 185 227 274 329
#
# _framework density 23.015131
#
# number of rings (size 3 to 8) (size 9 to 14) (size 15 to 20)
#    0.000    2.000    0.000    3.750    0.000    5.000 
#    0.000   11.250    0.000   13.500    0.000    0.000 
#    0.000    0.000    0.000    0.000    0.000    0.000 
#
# Total GULP energy -89393.476022 kJ/mol
# GULP energy per Si atom -5587.092251 kJ/mol
# Density = 2.296275 g / cm^3
# Si number density = 23.015131 Si / 1000 Ang^3
#
#
#
# Elastic Constant Matrix: (Units=GPa)
#
#
# Indices 1 2 3 4 5 6 
#
# 1 34.6052 31.8148 9.4560 -12.7028 -13.8633 18.7568
# 2 31.8148 74.8636 8.0660 -10.2641 -13.8796 -4.2812
# 3 9.4560 8.0660 31.8521 -12.5693 -8.1950 -3.2624
# 4 -12.7028 -10.2641 -12.5693 24.5336 16.6892 -16.5744
# 5 -13.8633 -13.8796 -8.1950 16.6892 19.1365 -11.8295
# 6 18.7568 -4.2812 -3.2624 -16.5744 -11.8295 43.3044
#
#
#
# Elastic Compliance Matrix: (Units=1/GPa)
#
#
# Indices 1 2 3 4 5 6 
#
# 1 0.121021 -0.051983 -0.041684 -0.050298 0.031960 -0.071219
# 2 -0.051983 0.038962 0.018818 0.023051 0.001426 0.036998
# 3 -0.041684 0.018818 0.061787 0.054017 -0.011105 0.042211
# 4 -0.050298 0.023051 0.054017 0.161801 -0.098688 0.063104
# 5 0.031960 0.001426 -0.011105 -0.098688 0.150901 -0.011089
# 6 -0.071219 0.036998 0.042211 0.063104 -0.011089 0.081901
#
#
# Mechanical properties :
#
#
# Convention : Reuss Voigt Hill
#
# Bulk Modulus (GPa) = 13.87485 26.66606 20.27046
# Shear Modulus (GPa) = 6.32837 23.52718 14.92777
#
# Velocity S-wave (km/s) = 1.66001 3.20073 2.54954
# Velocity P-wave (km/s) = 3.11702 5.02703 4.18252
#
# Compressibility (1/GPa) = 0.07207283
#
# Stress axis : x y z
#
# Youngs Moduli (GPa) = 8.26301 25.66614 16.18476
#
# Poissons Ratio (x) = 1.33420 0.67465
# Poissons Ratio (y) = 0.42953 -0.30457
# Poissons Ratio (z) = 0.34444 -0.48300
#
# Static dielectric constant tensor:
#      x y z
#    x 1.900120 0.039020 -0.020720 
#    y 0.039020 1.843220 -0.001200 
#    z -0.020720 -0.001200 1.872650 
# 
# From -- ./inp_files/495920.got.cif
#   From: 2010.05.17/outbox.cif.g08.bks.cpg/sg2_248_cif.got.tgz:495920.got - 2010.06.03 11:33:40.
