data_PCOD9096779
_publ_section_title
;
Structure prediction by ZEFSAII (Michael W. Deem and Ramdas Pophale) SiO2 
 PCOD9096779
Probable space group: P -1
;
_chemical_formula_sum "Si O2"
_cell_formula_units_Z 16
_cell_length_a 13.687132
_cell_length_b 13.580165
_cell_length_c 13.813898
_cell_angle_alpha 135.173955
_cell_angle_beta 158.769130
_cell_angle_gamma 44.785665
_cell_volume 643.471172
_symmetry_space_group_name_H-M "P -1"
_symmetry_group_IT_number 2
_symmetry_cell_setting 'triclinic'
loop_
_space_group_symop_operation_xyz
x,y,z
-x,-y,-z
loop_
_atom_site_type_symbol
_atom_site_label
_atom_site_fract_x
_atom_site_fract_y
_atom_site_fract_z
Si Si1 0.757472 0.615353 0.739386
Si Si2 0.230675 0.602973 0.901813
Si Si3 0.895338 0.840137 0.894268
Si Si4 0.655443 0.554662 0.826102
Si Si5 0.773127 0.672513 0.375577
Si Si6 0.676457 0.987333 0.298852
Si Si7 0.321690 0.994590 0.473962
Si Si8 0.269149 0.835418 0.720735
O O1 0.834974 0.763027 0.883772
O O2 0.683436 0.606631 0.777399
O O3 0.503245 0.577668 0.418119
O O4 0.030821 0.496183 0.887870
O O5 0.219873 0.435793 0.783441
O O6 0.064207 0.712299 0.899091
O O7 0.069376 0.645670 0.681474
O O8 0.541869 0.624475 0.197195
O O9 0.602881 0.910675 0.629641
O O10 0.067533 0.961669 0.156964
O O11 0.453445 0.679465 0.781318
O O12 0.680089 0.839986 0.395670
O O13 0.943236 0.859711 0.449997
O O14 0.694858 0.059768 0.469148
O O15 0.693901 0.092862 0.299430
O O16 0.400833 0.925839 0.984907
#
# Coordination Sequence:
#
# PCOD9096779 Si02
#       8
#     2   2   2   2   2   2   2   2
#     4  10  22  37  55  86 120 157 203 253 307 357
#     4  10  23  44  67  93 127 164 202 252 313 373
#     4  12  25  41  65  95 127 163 206 258 312 370
#     4  10  20  36  58  81 116 163 209 253 300 359
#     4  10  23  44  67  93 127 164 202 252 313 373
#     4  10  22  37  55  86 120 157 203 253 307 357
#     4  12  25  41  65  95 127 163 206 258 312 370
#     4  10  20  36  58  81 116 163 209 253 300 359
#
# _framework density 24.865138000000002
#
# number of rings (size 3 to 8) (size 9 to 14) (size 15 to 20)
#    0.000    1.500    0.000    4.500    0.000    9.000 
#    0.000    2.500    0.000    0.000    0.000    0.000 
#    0.000    0.000    0.000    0.000    0.000    0.000 
#
# Total GULP energy -89578.063362 kJ/mol
# GULP energy per Si atom -5598.628960 kJ/mol
# Density = 2.480854 g / cm^3
# Si number density = 24.865138 Si / 1000 Ang^3
#
#
#
# Elastic Constant Matrix: (Units=GPa)
#
#
# Indices 1 2 3 4 5 6 
#
# 1 45.8364 24.2531 17.2181 3.9522 0.9733 -11.1097
# 2 24.2531 120.4291 16.4986 2.8038 16.0198 -26.8586
# 3 17.2181 16.4986 101.0152 -4.5201 14.7293 -0.9730
# 4 3.9522 2.8038 -4.5201 45.6718 -5.4720 5.6757
# 5 0.9733 16.0198 14.7293 -5.4720 22.3366 -1.7526
# 6 -11.1097 -26.8586 -0.9730 5.6757 -1.7526 31.8416
#
#
#
# Elastic Compliance Matrix: (Units=1/GPa)
#
#
# Indices 1 2 3 4 5 6 
#
# 1 0.027505 -0.003869 -0.004785 -0.002935 0.004559 0.006961
# 2 -0.003869 0.012300 -0.000141 -0.002571 -0.008483 0.009012
# 3 -0.004785 -0.000141 0.011844 0.000955 -0.007424 -0.002005
# 4 -0.002935 -0.002571 0.000955 0.024083 0.006686 -0.007088
# 5 0.004559 -0.008483 -0.007424 0.006686 0.056886 -0.003852
# 6 0.006961 0.009012 -0.002005 -0.007088 -0.003852 0.042426
#
#
# Mechanical properties :
#
#
# Convention : Reuss Voigt Hill
#
# Bulk Modulus (GPa) = 29.36114 42.58004 35.97059
# Shear Modulus (GPa) = 24.51103 33.92406 29.21755
#
# Velocity S-wave (km/s) = 3.14309 3.69768 3.43161
# Velocity P-wave (km/s) = 5.00058 5.94912 5.49535
#
# Compressibility (1/GPa) = 0.03405863
#
# Stress axis : x y z
#
# Youngs Moduli (GPa) = 36.35690 81.29779 84.43018
#
# Poissons Ratio (x) = 0.31457 0.40403
# Poissons Ratio (y) = 0.14068 0.01188
# Poissons Ratio (z) = 0.17398 0.01144
#
# Static dielectric constant tensor:
#      x y z
#    x 1.996450 0.017190 -0.007650 
#    y 0.017190 1.979040 0.003690 
#    z -0.007650 0.003690 1.880110 
# 
# From -- ./inp_files/534269.got.cif
#   From: 2010.05.17/outbox.cif.g08.bks.cpg/sg2_268_cif.got.tgz:534269.got - 2010.06.03 11:33:40.
