data_PCOD9096555
_publ_section_title
;
Structure prediction by ZEFSAII (Michael W. Deem and Ramdas Pophale) SiO2 
 PCOD9096555
Probable space group: P -1
;
_chemical_formula_sum "Si O2"
_cell_formula_units_Z 16
_cell_length_a 23.671602
_cell_length_b 9.988027
_cell_length_c 14.790441
_cell_angle_alpha 134.174747
_cell_angle_beta 160.606907
_cell_angle_gamma 43.604077
_cell_volume 799.354374
_symmetry_space_group_name_H-M "P -1"
_symmetry_group_IT_number 2
_symmetry_cell_setting 'triclinic'
loop_
_space_group_symop_operation_xyz
x,y,z
-x,-y,-z
loop_
_atom_site_type_symbol
_atom_site_label
_atom_site_fract_x
_atom_site_fract_y
_atom_site_fract_z
Si Si1 0.514348 0.831408 0.016032
Si Si2 0.181180 0.773110 0.420161
Si Si3 0.138898 0.118617 0.381848
Si Si4 0.181848 0.502025 0.132140
Si Si5 0.464762 0.098214 0.396580
Si Si6 0.757835 0.204978 0.771342
Si Si7 0.962099 0.272050 0.622432
Si Si8 0.703800 0.076374 0.088855
O O1 0.719965 0.762629 0.324626
O O2 0.393028 0.703599 0.730550
O O3 0.404370 0.919611 0.980935
O O4 0.500000 0.000000 0.000000
O O5 0.131528 0.630852 0.206077
O O6 0.074962 0.791496 0.361635
O O7 0.142102 0.977743 0.406066
O O8 0.206630 0.976439 0.330710
O O9 0.935733 0.215448 0.096069
O O10 0.298578 0.289686 0.236518
O O11 0.288595 0.607912 0.276608
O O12 0.013552 0.470190 0.809117
O O13 0.620441 0.171286 0.620808
O O14 0.500000 0.000000 0.500000
O O15 0.418909 0.941494 0.187279
O O16 0.787720 0.257550 0.299753
O O17 0.128440 0.116339 0.754308
#
# Coordination Sequence:
#
# PCOD9096555 Si02
#       8
#     2   2   2   2   2   2   2   2
#     4   9  16  32  55  85 115 152 190 236 280 335
#     4   9  18  32  57  87 116 149 191 231 285 342
#     4   9  18  32  56  82 113 149 192 235 274 341
#     4  10  21  37  57  86 118 152 187 237 290 344
#     4  11  23  38  61  84 115 152 191 241 285 343
#     4  10  20  36  56  84 113 150 190 237 287 330
#     4   9  18  33  56  84 113 150 187 238 279 337
#     4   9  18  34  55  83 112 150 198 231 278 338
#
# _framework density 20.016152999999999
#
# number of rings (size 3 to 8) (size 9 to 14) (size 15 to 20)
#    0.000    2.500    1.250    0.750    3.500    0.000 
#    2.250    1.250    0.000    4.500    0.000    0.000 
#    0.000    0.000    0.000    0.000    0.000    0.000 
#
# Total GULP energy -89108.402528 kJ/mol
# GULP energy per Si atom -5569.275158 kJ/mol
# Density = 1.997060 g / cm^3
# Si number density = 20.016153 Si / 1000 Ang^3
#
#
#
# Elastic Constant Matrix: (Units=GPa)
#
#
# Indices 1 2 3 4 5 6 
#
# 1 87.4330 16.2496 29.0273 9.5499 -1.0494 17.0234
# 2 16.2496 31.2594 22.4905 8.0489 -7.2781 7.5737
# 3 29.0273 22.4905 129.5711 16.5297 -9.0366 4.7875
# 4 9.5499 8.0489 16.5297 25.3311 -1.7669 -7.3588
# 5 -1.0494 -7.2781 -9.0366 -1.7669 32.2661 1.5254
# 6 17.0234 7.5737 4.7875 -7.3588 1.5254 19.5139
#
#
#
# Elastic Compliance Matrix: (Units=1/GPa)
#
#
# Indices 1 2 3 4 5 6 
#
# 1 0.016665 -0.000453 -0.001677 -0.010203 0.000254 -0.017818
# 2 -0.000453 0.048750 -0.004268 -0.019253 0.009938 -0.025516
# 3 -0.001677 -0.004268 0.009538 -0.004425 0.001459 -0.001003
# 4 -0.010203 -0.019253 -0.004425 0.064231 -0.004383 0.042023
# 5 0.000254 0.009938 0.001459 -0.004383 0.033824 -0.008733
# 6 -0.017818 -0.025516 -0.001003 0.042023 -0.008733 0.093468
#
#
# Mechanical properties :
#
#
# Convention : Reuss Voigt Hill
#
# Bulk Modulus (GPa) = 16.08851 42.64424 29.36638
# Shear Modulus (GPa) = 16.66713 27.45531 22.06122
#
# Velocity S-wave (km/s) = 2.88876 3.70761 3.32350
# Velocity P-wave (km/s) = 4.37970 6.29918 5.42501
#
# Compressibility (1/GPa) = 0.06215614
#
# Stress axis : x y z
#
# Youngs Moduli (GPa) = 60.00586 20.51267 104.84756
#
# Poissons Ratio (x) = 0.00929 0.17584
# Poissons Ratio (y) = 0.02719 0.44752
# Poissons Ratio (z) = 0.10064 0.08755
#
# Static dielectric constant tensor:
#      x y z
#    x 1.671000 -0.004820 -0.003680 
#    y -0.004820 1.703130 0.011710 
#    z -0.003680 0.011710 1.812470 
# 
# From -- ./inp_files/182711.got.cif
#   From: 2010.05.17/outbox.cif.g08.bks.cpg/sg2_92_cif.got.tgz:182711.got - 2010.06.03 11:33:40.
