data_PCOD9096120
_publ_section_title
;
Structure prediction by ZEFSAII (Michael W. Deem and Ramdas Pophale) SiO2 
 PCOD9096120
Probable space group: P -1
;
_chemical_formula_sum "Si O2"
_cell_formula_units_Z 16
_cell_length_a 7.978720
_cell_length_b 8.165435
_cell_length_c 20.895480
_cell_angle_alpha 32.522721
_cell_angle_beta 84.085502
_cell_angle_gamma 81.981924
_cell_volume 724.473503
_symmetry_space_group_name_H-M "P -1"
_symmetry_group_IT_number 2
_symmetry_cell_setting 'triclinic'
loop_
_space_group_symop_operation_xyz
x,y,z
-x,-y,-z
loop_
_atom_site_type_symbol
_atom_site_label
_atom_site_fract_x
_atom_site_fract_y
_atom_site_fract_z
Si Si1 0.071368 0.010221 0.421120
Si Si2 0.865853 0.476294 0.849946
Si Si3 0.333730 0.669225 0.983560
Si Si4 0.739652 0.044855 0.350038
Si Si5 0.449795 0.776664 0.516287
Si Si6 0.330610 0.959489 0.059856
Si Si7 0.420795 0.357831 0.763613
Si Si8 0.172877 0.608382 0.885107
O O1 0.102801 0.323975 0.279406
O O2 0.919282 0.900735 0.419411
O O3 0.261851 0.850504 0.471673
O O4 0.000000 0.000000 0.500000
O O5 0.832632 0.141980 0.936049
O O6 0.008847 0.547974 0.870642
O O7 0.700311 0.518595 0.888762
O O8 0.177200 0.686991 0.933462
O O9 0.352899 0.026385 0.878206
O O10 0.500000 0.500000 0.000000
O O11 0.691491 0.371513 0.282804
O O12 0.749548 0.136423 0.245556
O O13 0.593136 0.830524 0.441819
O O14 0.447211 0.456601 0.657658
O O15 0.500000 0.000000 0.500000
O O16 0.395862 0.690391 0.194357
O O17 0.500000 0.000000 0.000000
O O18 0.282971 0.283728 0.985528
#
# Coordination Sequence:
#
# PCOD9096120 Si02
#       8
#     2   2   2   2   2   2   2   2
#     4  11  21  37  62  97 122 157 199 261 322 366
#     4  11  24  39  63  91 126 158 211 264 320 363
#     4  12  24  42  61  86 127 174 210 249 309 385
#     4  10  21  39  64  95 124 157 209 265 313 367
#     4  10  20  35  62  90 127 156 200 257 322 358
#     4  12  20  36  62  96 121 156 211 263 313 373
#     4  11  21  36  62  94 124 160 210 259 310 370
#     4  11  23  40  61  87 129 167 205 257 314 373
#
# _framework density 22.085004000000001
#
# number of rings (size 3 to 8) (size 9 to 14) (size 15 to 20)
#    0.000    1.000    6.250    2.250    1.750    1.000 
#    0.000    0.625    0.000    1.500    0.000    0.000 
#    0.000    0.000    0.000    0.000    0.000    0.000 
#
# Total GULP energy -89115.372258 kJ/mol
# GULP energy per Si atom -5569.710766 kJ/mol
# Density = 2.203474 g / cm^3
# Si number density = 22.085004 Si / 1000 Ang^3
#
#
#
# Elastic Constant Matrix: (Units=GPa)
#
#
# Indices 1 2 3 4 5 6 
#
# 1 126.4332 8.7762 48.3146 3.3347 -1.3034 21.0389
# 2 8.7762 41.0335 26.0491 14.1628 -7.4311 17.8901
# 3 48.3146 26.0491 127.0659 31.2086 -21.6698 1.0948
# 4 3.3347 14.1628 31.2086 25.9320 -4.1667 -1.3349
# 5 -1.3034 -7.4311 -21.6698 -4.1667 42.3359 9.9059
# 6 21.0389 17.8901 1.0948 -1.3349 9.9059 30.1936
#
#
#
# Elastic Compliance Matrix: (Units=1/GPa)
#
#
# Indices 1 2 3 4 5 6 
#
# 1 0.011614 0.005922 -0.005729 0.001785 0.001395 -0.011772
# 2 0.005922 0.057060 -0.004429 -0.026349 0.015650 -0.044074
# 3 -0.005729 -0.004429 0.015169 -0.014174 0.004487 0.003968
# 4 0.001785 -0.026349 -0.014174 0.069272 -0.009972 0.021216
# 5 0.001395 0.015650 0.004487 -0.009972 0.032781 -0.021603
# 6 -0.011772 -0.044074 0.003968 0.021216 -0.021603 0.075319
#
#
# Mechanical properties :
#
#
# Convention : Reuss Voigt Hill
#
# Bulk Modulus (GPa) = 13.26791 51.20139 32.23465
# Shear Modulus (GPa) = 16.96015 33.78514 25.37265
#
# Velocity S-wave (km/s) = 2.77420 3.91548 3.39317
# Velocity P-wave (km/s) = 4.03513 6.60874 5.47529
#
# Compressibility (1/GPa) = 0.07536981
#
# Stress axis : x y z
#
# Youngs Moduli (GPa) = 86.10434 17.52554 65.92520
#
# Poissons Ratio (x) = -0.10379 0.37770
# Poissons Ratio (y) = -0.50992 0.29199
# Poissons Ratio (z) = 0.49331 0.07762
#
# Static dielectric constant tensor:
#      x y z
#    x 1.878440 0.038450 0.000660 
#    y 0.038450 1.837170 0.054680 
#    z 0.000660 0.054680 1.827130 
# 
# From -- ./inp_files/587711.got.cif
#   From: 2010.05.17/outbox.cif.g08.bks.cpg/sg2_294_cif.got.tgz:587711.got - 2010.06.03 11:33:40.
