data_PCOD9096416
_publ_section_title
;
Structure prediction by ZEFSAII (Michael W. Deem and Ramdas Pophale) SiO2 
 PCOD9096416
Probable space group: P -1
;
_chemical_formula_sum "Si O2"
_cell_formula_units_Z 16
_cell_length_a 7.611949
_cell_length_b 12.375355
_cell_length_c 16.270409
_cell_angle_alpha 24.586516
_cell_angle_beta 76.949675
_cell_angle_gamma 79.896444
_cell_volume 619.534334
_symmetry_space_group_name_H-M "P -1"
_symmetry_group_IT_number 2
_symmetry_cell_setting 'triclinic'
loop_
_space_group_symop_operation_xyz
x,y,z
-x,-y,-z
loop_
_atom_site_type_symbol
_atom_site_label
_atom_site_fract_x
_atom_site_fract_y
_atom_site_fract_z
Si Si1 0.304970 0.981783 0.579037
Si Si2 0.572943 0.803574 0.196157
Si Si3 0.232504 0.974501 0.306663
Si Si4 0.339592 0.698698 0.076619
Si Si5 0.837815 0.550840 0.100827
Si Si6 0.925003 0.537507 0.284079
Si Si7 0.207562 0.364682 0.190666
Si Si8 0.431299 0.327441 0.465070
O O1 0.248363 0.679480 0.786479
O O2 0.500000 0.000000 0.500000
O O3 0.182186 0.156163 0.413749
O O4 0.309859 0.098910 0.589062
O O5 0.774553 0.713362 0.217357
O O6 0.426764 0.551569 0.381952
O O7 0.500000 0.000000 0.000000
O O8 0.603068 0.997415 0.135671
O O9 0.078577 0.737604 0.478012
O O10 0.402770 0.822663 0.417687
O O11 0.219536 0.180342 0.239547
O O12 0.233226 0.166933 0.096567
O O13 0.356631 0.567467 0.076303
O O14 0.449145 0.523248 0.248401
O O15 0.129585 0.659220 0.160648
O O16 0.839943 0.467057 0.252835
O O17 0.049380 0.549565 0.060633
#
# Coordination Sequence:
#
# PCOD9096416 Si02
#       8
#     2   2   2   2   2   2   2   2
#     4  11  18  34  56  78 112 149 181 228 280 325
#     4   9  17  35  58  85 106 145 194 230 284 337
#     4  11  21  37  55  85 120 152 183 227 285 335
#     4   9  19  31  61  84 107 153 192 229 282 331
#     4  11  23  35  57  85 119 151 186 226 283 346
#     4  10  20  37  60  84 114 145 186 239 279 335
#     4  10  20  36  54  85 118 148 187 230 277 336
#     4   9  19  32  53  80 112 144 186 233 273 326
#
# _framework density 25.825851
#
# number of rings (size 3 to 8) (size 9 to 14) (size 15 to 20)
#    0.000    2.000    2.500    1.875    3.500    0.500 
#    0.000    0.000    0.000   25.500    0.000    0.000 
#    0.000    0.000    0.000    0.000    0.000    0.000 
#
# Total GULP energy -89234.023027 kJ/mol
# GULP energy per Si atom -5577.126439 kJ/mol
# Density = 2.576707 g / cm^3
# Si number density = 25.825851 Si / 1000 Ang^3
#
#
#
# Elastic Constant Matrix: (Units=GPa)
#
#
# Indices 1 2 3 4 5 6 
#
# 1 116.3248 13.8353 41.3788 3.6164 20.5275 1.7424
# 2 13.8353 60.6434 24.5625 -31.6808 -14.7510 -0.6411
# 3 41.3788 24.5625 155.6414 -23.1578 6.3425 0.6345
# 4 3.6164 -31.6808 -23.1578 49.9375 -0.6785 -4.3251
# 5 20.5275 -14.7510 6.3425 -0.6785 39.9983 -9.8773
# 6 1.7424 -0.6411 0.6345 -4.3251 -9.8773 29.5455
#
#
#
# Elastic Compliance Matrix: (Units=1/GPa)
#
#
# Indices 1 2 3 4 5 6 
#
# 1 0.013054 -0.009220 -0.002838 -0.008781 -0.011271 -0.005962
# 2 -0.009220 0.037929 -0.000656 0.025825 0.022384 0.012645
# 3 -0.002838 -0.000656 0.007787 0.003451 0.000174 0.000549
# 4 -0.008781 0.025825 0.003451 0.039974 0.017281 0.012633
# 5 -0.011271 0.022384 0.000174 0.017281 0.043833 0.018330
# 6 -0.005962 0.012645 0.000549 0.012633 0.018330 0.042438
#
#
# Mechanical properties :
#
#
# Convention : Reuss Voigt Hill
#
# Bulk Modulus (GPa) = 29.99243 54.68477 42.33860
# Shear Modulus (GPa) = 22.56760 40.75180 31.65970
#
# Velocity S-wave (km/s) = 2.95928 3.97665 3.50507
# Velocity P-wave (km/s) = 4.82856 6.50426 5.72802
#
# Compressibility (1/GPa) = 0.03334175
#
# Stress axis : x y z
#
# Youngs Moduli (GPa) = 76.60391 26.36515 128.41619
#
# Poissons Ratio (x) = 0.24309 0.36449
# Poissons Ratio (y) = 0.70631 0.08419
# Poissons Ratio (z) = 0.21743 0.01729
#
# Static dielectric constant tensor:
#      x y z
#    x 2.147350 -0.018190 -0.081070 
#    y -0.018190 2.117810 -0.012640 
#    z -0.081070 -0.012640 2.040030 
# 
# From -- ./inp_files/345607.got.cif
#   From: 2010.05.17/outbox.cif.g08.bks.cpg/sg2_173_cif.got.tgz:345607.got - 2010.06.03 11:33:40.
