data_PCOD9097399
_publ_section_title
;
Structure prediction by ZEFSAII (Michael W. Deem and Ramdas Pophale) SiO2 
 PCOD9097399
Probable space group: P -1
;
_chemical_formula_sum "Si O2"
_cell_formula_units_Z 13
_cell_length_a 19.873033
_cell_length_b 15.325691
_cell_length_c 15.936201
_cell_angle_alpha 27.981824
_cell_angle_beta 159.830219
_cell_angle_gamma 161.822150
_cell_volume 520.372347
_symmetry_space_group_name_H-M "P -1"
_symmetry_group_IT_number 2
_symmetry_cell_setting 'triclinic'
loop_
_space_group_symop_operation_xyz
x,y,z
-x,-y,-z
loop_
_atom_site_type_symbol
_atom_site_label
_atom_site_fract_x
_atom_site_fract_y
_atom_site_fract_z
Si Si1 0.264419 0.419285 0.191057
Si Si2 0.164651 0.803143 0.258304
Si Si3 0.000000 0.500000 0.500000
Si Si4 0.257335 0.048600 0.592557
Si Si5 0.656464 0.647837 0.301974
Si Si6 0.632571 0.187139 0.214821
Si Si7 0.287230 0.310233 0.990137
O O1 0.149428 0.164032 0.325863
O O2 0.451315 0.691915 0.235455
O O3 0.492785 0.489658 0.331711
O O4 0.011041 0.346980 0.906418
O O5 0.970431 0.526393 0.326167
O O6 0.500000 0.000000 0.500000
O O7 0.133527 0.000350 0.069522
O O8 0.624764 0.185083 0.307127
O O9 0.937852 0.683202 0.285790
O O10 0.329239 0.953004 0.685101
O O11 0.986889 0.811048 0.539931
O O12 0.601189 0.832721 0.076543
O O13 0.478491 0.450795 0.179799
O O14 0.500000 0.500000 0.000000
#
# Coordination Sequence:
#
# PCOD9097399 Si02
#       7
#     2   2   1   2   2   2   2
#     4  10  24  41  67  98 128 179 234 276 335 407
#     4  11  22  38  61  96 134 173 220 272 335 402
#     4  10  20  36  60  90 124 164 214 272 324 388
#     4  11  22  46  68  91 137 178 223 288 337 390
#     4  10  22  40  64  95 129 171 221 279 340 402
#     4  10  23  38  62  97 130 175 224 271 337 409
#     4  11  22  39  64  94 132 175 220 274 341 398
#
# _framework density 24.982111
#
# number of rings (size 3 to 8) (size 9 to 14) (size 15 to 20)
#    0.000    1.538    0.000    5.077    0.000   10.462 
#    0.000   13.846    0.000    0.000    0.000    0.000 
#    0.000    0.000    0.000    0.000    0.000    0.000 
#
# Total GULP energy -72554.623005 kJ/mol
# GULP energy per Si atom -5581.124847 kJ/mol
# Density = 2.492525 g / cm^3
# Si number density = 24.982111 Si / 1000 Ang^3
#
#
#
# Elastic Constant Matrix: (Units=GPa)
#
#
# Indices 1 2 3 4 5 6 
#
# 1 106.6672 53.4523 12.1322 6.6227 -10.4009 -13.8806
# 2 53.4523 115.7236 41.6323 -16.4486 2.3788 -22.0179
# 3 12.1322 41.6323 112.5883 -10.3995 -4.1312 -8.8667
# 4 6.6227 -16.4486 -10.3995 20.3903 -3.0852 2.2725
# 5 -10.4009 2.3788 -4.1312 -3.0852 34.7728 -1.3401
# 6 -13.8806 -22.0179 -8.8667 2.2725 -1.3401 47.7006
#
#
#
# Elastic Compliance Matrix: (Units=1/GPa)
#
#
# Indices 1 2 3 4 5 6 
#
# 1 0.014771 -0.008507 0.000806 -0.010744 0.004187 0.001151
# 2 -0.008507 0.016614 -0.003796 0.013385 -0.002799 0.003771
# 3 0.000806 -0.003796 0.010513 0.002293 0.001968 0.000382
# 4 -0.010744 0.013385 0.002293 0.064738 0.001904 0.000448
# 5 0.004187 -0.002799 0.001968 0.001904 0.030646 0.001062
# 6 0.001151 0.003771 0.000382 0.000448 0.001062 0.023119
#
#
# Mechanical properties :
#
#
# Convention : Reuss Voigt Hill
#
# Bulk Modulus (GPa) = 52.89932 61.04585 56.97258
# Shear Modulus (GPa) = 26.35787 35.75689 31.05738
#
# Velocity S-wave (km/s) = 3.25171 3.78736 3.52971
# Velocity P-wave (km/s) = 5.94298 6.60411 6.28225
#
# Compressibility (1/GPa) = 0.01890384
#
# Stress axis : x y z
#
# Youngs Moduli (GPa) = 67.69874 60.19073 95.12123
#
# Poissons Ratio (x) = 0.51204 -0.07665
# Poissons Ratio (y) = 0.57591 0.36108
# Poissons Ratio (z) = -0.05455 0.22849
#
# Static dielectric constant tensor:
#      x y z
#    x 2.120860 0.063980 -0.079420 
#    y 0.063980 2.011810 0.016140 
#    z -0.079420 0.016140 2.040230 
# 
# From -- ./inp_files/170982.got.cif
#   From: 2010.05.17/outbox.cif.g08.bks.cpg/sg2_86_cif.got.tgz:170982.got - 2010.06.03 11:33:40.
