data_PCOD9097331
_publ_section_title
;
Structure prediction by ZEFSAII (Michael W. Deem and Ramdas Pophale) SiO2 
 PCOD9097331
Probable space group: P -1
;
_chemical_formula_sum "Si O2"
_cell_formula_units_Z 14
_cell_length_a 17.967707
_cell_length_b 7.534719
_cell_length_c 12.985910
_cell_angle_alpha 131.068770
_cell_angle_beta 36.086985
_cell_angle_gamma 144.800886
_cell_volume 596.861963
_symmetry_space_group_name_H-M "P -1"
_symmetry_group_IT_number 2
_symmetry_cell_setting 'triclinic'
loop_
_space_group_symop_operation_xyz
x,y,z
-x,-y,-z
loop_
_atom_site_type_symbol
_atom_site_label
_atom_site_fract_x
_atom_site_fract_y
_atom_site_fract_z
Si Si1 0.261335 0.203271 0.054645
Si Si2 0.904075 0.486458 0.975645
Si Si3 0.921025 0.208347 0.557872
Si Si4 0.359339 0.905359 0.041220
Si Si5 0.576894 0.347308 0.772454
Si Si6 0.824578 0.303018 0.391413
Si Si7 0.937439 0.977797 0.260760
O O1 0.290804 0.346550 0.190605
O O2 0.164535 0.841798 0.031423
O O3 0.445003 0.360729 0.869215
O O4 0.139338 0.225480 0.136766
O O5 0.092586 0.665392 0.797128
O O6 0.788964 0.404946 0.974176
O O7 0.890691 0.684819 0.143770
O O8 0.000000 0.500000 0.500000
O O9 0.049285 0.365604 0.567301
O O10 0.895146 0.949774 0.417952
O O11 0.751544 0.069540 0.748805
O O12 0.468380 0.111926 0.898393
O O13 0.500000 0.000000 0.000000
O O14 0.653373 0.233854 0.573817
O O15 0.845323 0.082874 0.347305
#
# Coordination Sequence:
#
# PCOD9097331 Si02
#       7
#     2   2   2   2   2   2   2
#     4  10  22  39  61  83 127 162 193 248 307 357
#     4  10  23  38  59  91 122 158 201 246 308 356
#     4   9  18  33  59  88 111 150 201 241 285 343
#     4  10  20  36  60  87 119 154 199 248 296 352
#     4  10  21  40  61  88 121 158 202 249 299 352
#     4  10  20  38  64  89 116 157 211 249 283 358
#     4  11  20  38  65  89 120 156 202 255 296 353
#
# _framework density 23.456009000000002
#
# number of rings (size 3 to 8) (size 9 to 14) (size 15 to 20)
#    0.000    2.000    1.429    2.571    4.000    0.571 
#    5.143    7.143    0.000    0.000    0.000    0.000 
#    0.000    0.000    0.000    0.000    0.000    0.000 
#
# Total GULP energy -77987.597629 kJ/mol
# GULP energy per Si atom -5570.542688 kJ/mol
# Density = 2.340262 g / cm^3
# Si number density = 23.456009 Si / 1000 Ang^3
#
#
#
# Elastic Constant Matrix: (Units=GPa)
#
#
# Indices 1 2 3 4 5 6 
#
# 1 72.7536 15.6133 16.1000 -0.3648 -8.1399 10.1441
# 2 15.6133 52.6089 54.6314 11.8521 8.1328 0.1430
# 3 16.1000 54.6314 177.9053 16.1102 -2.0238 11.4830
# 4 -0.3648 11.8521 16.1102 46.1510 11.3916 4.9792
# 5 -8.1399 8.1328 -2.0238 11.3916 46.9716 -3.1826
# 6 10.1441 0.1430 11.4830 4.9792 -3.1826 24.7967
#
#
#
# Elastic Compliance Matrix: (Units=1/GPa)
#
#
# Indices 1 2 3 4 5 6 
#
# 1 0.016283 -0.006559 0.000891 0.001466 0.003171 -0.006923
# 2 -0.006559 0.032779 -0.009589 -0.004495 -0.005653 0.007112
# 3 0.000891 -0.009589 0.008829 -0.000699 0.002094 -0.003989
# 4 0.001466 -0.004495 -0.000699 0.025078 -0.005486 -0.005990
# 5 0.003171 -0.005653 0.002094 -0.005486 0.024374 0.001995
# 6 -0.006923 0.007112 -0.003989 -0.005990 0.001995 0.046425
#
#
# Mechanical properties :
#
#
# Convention : Reuss Voigt Hill
#
# Bulk Modulus (GPa) = 36.52636 52.88416 44.70526
# Shear Modulus (GPa) = 25.85191 38.04538 31.94865
#
# Velocity S-wave (km/s) = 3.32346 4.03176 3.69462
# Velocity P-wave (km/s) = 5.50756 6.65346 6.10744
#
# Compressibility (1/GPa) = 0.02737749
#
# Stress axis : x y z
#
# Youngs Moduli (GPa) = 61.41359 30.50700 113.25734
#
# Poissons Ratio (x) = 0.20011 -0.10089
# Poissons Ratio (y) = 0.40283 1.08599
# Poissons Ratio (z) = -0.05471 0.29252
#
# Static dielectric constant tensor:
#      x y z
#    x 1.996900 -0.053240 -0.058870 
#    y -0.053240 1.994070 -0.008940 
#    z -0.058870 -0.008940 1.927220 
# 
# From -- ./inp_files/540317.got.cif
#   From: 2010.05.17/outbox.cif.g08.bks.cpg/sg2_271_cif.got.tgz:540317.got - 2010.06.03 11:33:40.
