data_PCOD9097732
_publ_section_title
;
Structure prediction by ZEFSAII (Michael W. Deem and Ramdas Pophale) SiO2 
 PCOD9097732
Probable space group: P -1
;
_chemical_formula_sum "Si O2"
_cell_formula_units_Z 14
_cell_length_a 10.056614
_cell_length_b 13.375540
_cell_length_c 7.085338
_cell_angle_alpha 39.566376
_cell_angle_beta 65.567583
_cell_angle_gamma 62.099610
_cell_volume 534.138286
_symmetry_space_group_name_H-M "P -1"
_symmetry_group_IT_number 2
_symmetry_cell_setting 'triclinic'
loop_
_space_group_symop_operation_xyz
x,y,z
-x,-y,-z
loop_
_atom_site_type_symbol
_atom_site_label
_atom_site_fract_x
_atom_site_fract_y
_atom_site_fract_z
Si Si1 0.033888 0.470806 0.746584
Si Si2 0.383265 0.220573 0.581868
Si Si3 0.742526 0.404509 0.020299
Si Si4 0.644910 0.541964 0.260253
Si Si5 0.088685 0.191131 0.616997
Si Si6 0.207675 0.858891 0.929308
Si Si7 0.496360 0.125796 0.076150
O O1 0.925981 0.353164 0.012502
O O2 0.944843 0.625555 0.698697
O O3 0.000000 0.500000 0.500000
O O4 0.207153 0.463185 0.692947
O O5 0.343432 0.413360 0.274083
O O6 0.220439 0.182096 0.706116
O O7 0.440262 0.184571 0.814139
O O8 0.494699 0.065424 0.631468
O O9 0.316991 0.582339 0.753306
O O10 0.721058 0.268651 0.087453
O O11 0.500000 0.500000 0.500000
O O12 0.604438 0.731459 0.942528
O O13 0.936311 0.179332 0.828126
O O14 0.145611 0.049527 0.638697
O O15 0.337005 0.854758 0.011580
#
# Coordination Sequence:
#
# PCOD9097732 Si02
#       7
#     2   2   2   2   2   2   2
#     4  11  21  43  71  99 130 182 231 279 343 413
#     4   9  21  41  67  96 132 180 224 280 336 416
#     4  11  24  42  70 102 135 181 238 278 337 407
#     4  12  27  43  69  99 140 182 232 288 343 402
#     4   9  18  36  65  92 130 179 223 265 347 401
#     4  10  20  36  62 100 134 177 221 280 334 414
#     4  10  22  40  63  98 136 177 222 275 349 405
#
# _framework density 26.210439999999998
#
# number of rings (size 3 to 8) (size 9 to 14) (size 15 to 20)
#    0.000    1.714    1.429    3.000    2.000    1.143 
#    0.000    0.714    6.286    0.000    0.000    0.000 
#    0.000    0.143    0.000    0.000    0.000    0.000 
#
# Total GULP energy -78148.064502 kJ/mol
# GULP energy per Si atom -5582.004607 kJ/mol
# Density = 2.615078 g / cm^3
# Si number density = 26.210440 Si / 1000 Ang^3
#
#
#
# Elastic Constant Matrix: (Units=GPa)
#
#
# Indices 1 2 3 4 5 6 
#
# 1 207.2166 52.5773 62.7553 -1.0028 -8.4571 -4.7376
# 2 52.5773 182.3928 54.1240 -36.2025 -6.8621 10.7278
# 3 62.7553 54.1240 95.6552 -28.1469 -5.9853 3.2375
# 4 -1.0028 -36.2025 -28.1469 61.7124 -4.2706 -6.9679
# 5 -8.4571 -6.8621 -5.9853 -4.2706 35.0634 -0.8592
# 6 -4.7376 10.7278 3.2375 -6.9679 -0.8592 42.2582
#
#
#
# Elastic Compliance Matrix: (Units=1/GPa)
#
#
# Indices 1 2 3 4 5 6 
#
# 1 0.006432 -0.001088 -0.004313 -0.002371 0.000337 0.000944
# 2 -0.001088 0.007221 -0.002356 0.003079 0.001093 -0.001245
# 3 -0.004313 -0.002356 0.016589 0.006249 0.002090 -0.000083
# 4 -0.002371 0.003079 0.006249 0.021314 0.003744 0.002064
# 5 0.000337 0.001093 0.002090 0.003744 0.029648 0.000820
# 6 0.000944 -0.001245 -0.000083 0.002064 0.000820 0.024449
#
#
# Mechanical properties :
#
#
# Convention : Reuss Voigt Hill
#
# Bulk Modulus (GPa) = 67.89035 91.57533 79.73284
# Shear Modulus (GPa) = 39.65914 48.86066 44.25990
#
# Velocity S-wave (km/s) = 3.89408 4.32228 4.11376
# Velocity P-wave (km/s) = 6.79535 7.74105 7.28357
#
# Compressibility (1/GPa) = 0.01472963
#
# Stress axis : x y z
#
# Youngs Moduli (GPa) = 155.47848 138.49129 60.28143
#
# Poissons Ratio (x) = 0.15063 0.25997
# Poissons Ratio (y) = 0.16911 0.14199
# Poissons Ratio (z) = 0.67052 0.32622
#
# Static dielectric constant tensor:
#      x y z
#    x 2.078740 -0.017370 0.040100 
#    y -0.017370 2.144750 -0.050070 
#    z 0.040100 -0.050070 2.191360 
# 
# From -- ./inp_files/335869.got.cif
#   From: 2010.05.17/outbox.cif.g08.bks.cpg/sg2_168_cif.got.tgz:335869.got - 2010.06.03 11:33:40.
