data_PCOD9097109
_publ_section_title
;
Structure prediction by ZEFSAII (Michael W. Deem and Ramdas Pophale) SiO2 
 PCOD9097109
Probable space group: P -1
;
_chemical_formula_sum "Si O2"
_cell_formula_units_Z 14
_cell_length_a 13.832153
_cell_length_b 5.995261
_cell_length_c 9.235767
_cell_angle_alpha 63.407942
_cell_angle_beta 69.674063
_cell_angle_gamma 72.480564
_cell_volume 632.484871
_symmetry_space_group_name_H-M "P -1"
_symmetry_group_IT_number 2
_symmetry_cell_setting 'triclinic'
loop_
_space_group_symop_operation_xyz
x,y,z
-x,-y,-z
loop_
_atom_site_type_symbol
_atom_site_label
_atom_site_fract_x
_atom_site_fract_y
_atom_site_fract_z
Si Si1 0.672858 0.869733 0.301997
Si Si2 0.582869 0.427085 0.104055
Si Si3 0.943615 0.283593 0.919877
Si Si4 0.137879 0.530450 0.776238
Si Si5 0.246586 0.478530 0.209152
Si Si6 0.595240 0.440882 0.634344
Si Si7 0.249101 0.955699 0.487160
O O1 0.763364 0.698401 0.212801
O O2 0.600419 0.684179 0.461045
O O3 0.613748 0.123583 0.185551
O O4 0.729683 0.968441 0.382493
O O5 0.520389 0.537104 0.246876
O O6 0.500000 0.500000 0.000000
O O7 0.682799 0.538591 0.967284
O O8 0.855555 0.317234 0.832309
O O9 0.035229 0.441356 0.792649
O O10 0.889965 0.382294 0.071071
O O11 0.000000 0.000000 0.000000
O O12 0.172180 0.753422 0.598113
O O13 0.320747 0.543591 0.282792
O O14 0.213957 0.211298 0.342355
O O15 0.642639 0.189592 0.596068
#
# Coordination Sequence:
#
# PCOD9097109 Si02
#       7
#     2   2   2   2   2   2   2
#     4  10  20  40  61  84 120 154 192 239 285 343
#     4  10  20  36  59  87 119 155 193 238 286 337
#     4  11  23  40  62  89 115 148 193 239 293 349
#     4  10  22  39  63  86 113 154 191 235 294 347
#     4  10  22  38  58  86 120 151 190 244 288 340
#     4   9  21  38  60  86 116 157 196 237 287 335
#     4  10  21  39  59  85 118 154 195 235 285 343
#
# _framework density 22.134913999999998
#
# number of rings (size 3 to 8) (size 9 to 14) (size 15 to 20)
#    0.000    2.000    0.000    3.000    0.000    6.286 
#    0.000   15.714    0.000    0.000    0.000    0.000 
#    0.000    0.000    0.000    0.000    0.000    0.000 
#
# Total GULP energy -78289.611709 kJ/mol
# GULP energy per Si atom -5592.115122 kJ/mol
# Density = 2.208453 g / cm^3
# Si number density = 22.134914 Si / 1000 Ang^3
#
#
#
# Elastic Constant Matrix: (Units=GPa)
#
#
# Indices 1 2 3 4 5 6 
#
# 1 94.2701 30.5055 53.8447 -10.5663 12.2905 -18.9858
# 2 30.5055 122.2531 58.8258 -0.5592 7.7730 -24.3276
# 3 53.8447 58.8258 105.2931 -14.4567 3.5502 -24.3139
# 4 -10.5663 -0.5592 -14.4567 42.9190 -12.4853 6.3700
# 5 12.2905 7.7730 3.5502 -12.4853 21.0547 -0.5277
# 6 -18.9858 -24.3276 -24.3139 6.3700 -0.5277 29.3170
#
#
#
# Elastic Compliance Matrix: (Units=1/GPa)
#
#
# Indices 1 2 3 4 5 6 
#
# 1 0.017071 0.001503 -0.008204 -0.002445 -0.010440 0.005842
# 2 0.001503 0.012896 -0.006790 -0.004883 -0.007214 0.006975
# 3 -0.008204 -0.006790 0.018862 0.005974 0.007747 0.003537
# 4 -0.002445 -0.004883 0.005974 0.031796 0.020897 -0.007214
# 5 -0.010440 -0.007214 0.007747 0.020897 0.067097 -0.009656
# 6 0.005842 0.006975 0.003537 -0.007214 -0.009656 0.048007
#
#
# Mechanical properties :
#
#
# Convention : Reuss Voigt Hill
#
# Bulk Modulus (GPa) = 45.77367 67.57424 56.67395
# Shear Modulus (GPa) = 21.73963 30.56751 26.15357
#
# Velocity S-wave (km/s) = 3.13731 3.72016 3.44110
# Velocity P-wave (km/s) = 5.81790 7.00339 6.43799
#
# Compressibility (1/GPa) = 0.02184662
#
# Stress axis : x y z
#
# Youngs Moduli (GPa) = 58.57850 77.54165 53.01599
#
# Poissons Ratio (x) = -0.11656 0.43496
# Poissons Ratio (y) = -0.08805 0.36000
# Poissons Ratio (z) = 0.48060 0.52653
#
# Static dielectric constant tensor:
#      x y z
#    x 1.814170 0.017670 -0.012030 
#    y 0.017670 1.800100 0.021640 
#    z -0.012030 0.021640 1.818110 
# 
# From -- ./inp_files/27095.got.cif
#   From: 2010.05.17/outbox.cif.g08.bks.cpg/sg2_14_cif.got.tgz:27095.got - 2010.06.03 11:33:40.
