data_PCOD9097657
_publ_section_title
;
Structure prediction by ZEFSAII (Michael W. Deem and Ramdas Pophale) SiO2 
 PCOD9097657
Probable space group: P -1
;
_chemical_formula_sum "Si O2"
_cell_formula_units_Z 14
_cell_length_a 14.156193
_cell_length_b 10.920552
_cell_length_c 15.084384
_cell_angle_alpha 29.217725
_cell_angle_beta 29.024452
_cell_angle_gamma 43.694612
_cell_volume 544.293792
_symmetry_space_group_name_H-M "P -1"
_symmetry_group_IT_number 2
_symmetry_cell_setting 'triclinic'
loop_
_space_group_symop_operation_xyz
x,y,z
-x,-y,-z
loop_
_atom_site_type_symbol
_atom_site_label
_atom_site_fract_x
_atom_site_fract_y
_atom_site_fract_z
Si Si1 0.997423 0.532568 0.144549
Si Si2 0.925784 0.055050 0.929788
Si Si3 0.517229 0.110499 0.577619
Si Si4 0.309817 0.371979 0.114007
Si Si5 0.726136 0.706292 0.604029
Si Si6 0.335345 0.325091 0.933823
Si Si7 0.579775 0.247646 0.632895
O O1 0.148406 0.529270 0.104976
O O2 0.791716 0.344142 0.441677
O O3 0.124830 0.420654 0.033882
O O4 0.940622 0.810839 0.009100
O O5 0.078633 0.284110 0.619208
O O6 0.696388 0.059542 0.127593
O O7 0.000000 0.000000 0.000000
O O8 0.517811 0.398422 0.362359
O O9 0.601255 0.110932 0.608274
O O10 0.645680 0.974895 0.491027
O O11 0.233216 0.307407 0.316229
O O12 0.536368 0.504482 0.859542
O O13 0.324246 0.205295 0.117084
O O14 0.409884 0.160082 0.900470
O O15 0.500000 0.500000 0.500000
#
# Coordination Sequence:
#
# PCOD9097657 Si02
#       7
#     2   2   2   2   2   2   2
#     4  10  20  38  61  87 115 155 196 239 299 338
#     4  12  23  35  63  93 116 150 197 250 297 342
#     4  11  22  37  60  94 115 152 195 248 293 341
#     4   9  22  41  61  82 115 170 189 236 301 348
#     4  11  22  43  57  84 128 152 197 241 293 355
#     4   9  19  37  61  85 117 151 196 239 288 344
#     4  10  20  36  61  92 118 150 198 244 289 347
#
# _framework density 25.721401
#
# number of rings (size 3 to 8) (size 9 to 14) (size 15 to 20)
#    0.857    0.857    4.286    1.714    0.000    5.143 
#    2.571    3.571    0.000    0.000    0.000    0.000 
#    0.000    0.000    0.000    0.000    0.000    0.000 
#
# Total GULP energy -78136.109389 kJ/mol
# GULP energy per Si atom -5581.150671 kJ/mol
# Density = 2.566286 g / cm^3
# Si number density = 25.721401 Si / 1000 Ang^3
#
#
#
# Elastic Constant Matrix: (Units=GPa)
#
#
# Indices 1 2 3 4 5 6 
#
# 1 107.0709 -12.9713 38.7930 11.2689 8.3834 -1.3372
# 2 -12.9713 83.4375 6.8086 20.3991 -9.9496 0.9993
# 3 38.7930 6.8086 137.6623 29.4148 -0.5033 -1.4664
# 4 11.2689 20.3991 29.4148 31.9186 3.8195 4.7125
# 5 8.3834 -9.9496 -0.5033 3.8195 39.5643 9.4230
# 6 -1.3372 0.9993 -1.4664 4.7125 9.4230 20.2361
#
#
#
# Elastic Compliance Matrix: (Units=1/GPa)
#
#
# Indices 1 2 3 4 5 6 
#
# 1 0.011074 0.002458 -0.002541 -0.003214 -0.001946 0.002081
# 2 0.002458 0.015960 0.001285 -0.012853 0.004683 0.000280
# 3 -0.002541 0.001285 0.009998 -0.009613 0.001424 0.002069
# 4 -0.003214 -0.012853 -0.009613 0.051624 -0.005319 -0.009820
# 5 -0.001946 0.004683 0.001424 -0.005319 0.030552 -0.013245
# 6 0.002081 0.000280 0.002069 -0.009820 -0.013245 0.058144
#
#
# Mechanical properties :
#
#
# Convention : Reuss Voigt Hill
#
# Bulk Modulus (GPa) = 25.35808 43.71460 34.53634
# Shear Modulus (GPa) = 26.58247 38.04650 32.31449
#
# Velocity S-wave (km/s) = 3.21826 3.85018 3.54832
# Velocity P-wave (km/s) = 4.86721 6.06609 5.49942
#
# Compressibility (1/GPa) = 0.03943517
#
# Stress axis : x y z
#
# Youngs Moduli (GPa) = 90.29812 62.65772 100.02056
#
# Poissons Ratio (x) = -0.15399 0.25411
# Poissons Ratio (y) = -0.22192 -0.12848
# Poissons Ratio (z) = 0.22941 -0.08049
#
# Static dielectric constant tensor:
#      x y z
#    x 2.014190 -0.048420 0.069140 
#    y -0.048420 2.266190 -0.093210 
#    z 0.069140 -0.093210 2.049220 
# 
# From -- ./inp_files/432450.got.cif
#   From: 2010.05.17/outbox.cif.g08.bks.cpg/sg2_217_cif.got.tgz:432450.got - 2010.06.03 11:33:40.
