data_PCOD9097143
_publ_section_title
;
Structure prediction by ZEFSAII (Michael W. Deem and Ramdas Pophale) SiO2 
 PCOD9097143
Probable space group: P -1
;
_chemical_formula_sum "Si O2"
_cell_formula_units_Z 12
_cell_length_a 11.263298
_cell_length_b 14.156700
_cell_length_c 7.709855
_cell_angle_alpha 29.127738
_cell_angle_beta 122.435581
_cell_angle_gamma 125.418200
_cell_volume 486.251357
_symmetry_space_group_name_H-M "P -1"
_symmetry_group_IT_number 2
_symmetry_cell_setting 'triclinic'
loop_
_space_group_symop_operation_xyz
x,y,z
-x,-y,-z
loop_
_atom_site_type_symbol
_atom_site_label
_atom_site_fract_x
_atom_site_fract_y
_atom_site_fract_z
Si Si1 0.212897 0.126528 0.250003
Si Si2 0.140979 0.489301 0.427116
Si Si3 0.911762 0.163108 0.926322
Si Si4 0.341265 0.967490 0.287833
Si Si5 0.500584 0.721687 0.589692
Si Si6 0.579603 0.331804 0.785250
O O1 0.254775 0.986402 0.362794
O O2 0.332515 0.145158 0.462577
O O3 0.229786 0.352813 0.820974
O O4 0.040165 0.067628 0.241711
O O5 0.119621 0.682340 0.204233
O O6 0.246459 0.575568 0.211460
O O7 0.985799 0.320131 0.574365
O O8 0.772963 0.003354 0.997068
O O9 0.390180 0.783150 0.538956
O O10 0.491763 0.143492 0.129103
O O11 0.451958 0.735653 0.331997
O O12 0.500000 0.500000 0.000000
O O13 0.500000 0.500000 0.500000
#
# Coordination Sequence:
#
# PCOD9097143 Si02
#       6
#     2   2   2   2   2   2
#     4  10  20  36  59  89 115 150 195 239 287 340
#     4   9  18  36  60  84 116 156 196 231 286 348
#     4   9  18  36  59  86 114 158 196 232 279 360
#     4  12  22  36  64  90 116 153 201 239 286 350
#     4  12  22  38  58  89 119 154 193 247 292 339
#     4  12  22  39  60  89 118 154 196 244 289 348
#
# _framework density 24.678594
#
# number of rings (size 3 to 8) (size 9 to 14) (size 15 to 20)
#    1.000    0.333    5.000    1.500    0.000    0.000 
#    0.000    0.833    0.000    1.000    0.000    0.000 
#    0.000    0.000    0.000    0.000    0.000    0.000 
#
# Total GULP energy -66957.137304 kJ/mol
# GULP energy per Si atom -5579.761442 kJ/mol
# Density = 2.462242 g / cm^3
# Si number density = 24.678594 Si / 1000 Ang^3
#
#
#
# Elastic Constant Matrix: (Units=GPa)
#
#
# Indices 1 2 3 4 5 6 
#
# 1 155.3742 24.9736 44.0797 -9.0291 30.8717 -7.6097
# 2 24.9736 70.6223 6.2336 7.6695 16.2368 -13.1546
# 3 44.0797 6.2336 76.6599 -6.4649 14.7980 -19.8974
# 4 -9.0291 7.6695 -6.4649 25.0251 -0.8368 9.1514
# 5 30.8717 16.2368 14.7980 -0.8368 51.2286 -3.8721
# 6 -7.6097 -13.1546 -19.8974 9.1514 -3.8721 39.0944
#
#
#
# Elastic Compliance Matrix: (Units=1/GPa)
#
#
# Indices 1 2 3 4 5 6 
#
# 1 0.008984 -0.002967 -0.004715 0.003877 -0.003266 -0.002880
# 2 -0.002967 0.018648 0.002501 -0.009489 -0.004338 0.008762
# 3 -0.004715 0.002501 0.018360 -0.001210 -0.002572 0.009297
# 4 0.003877 -0.009489 -0.001210 0.049288 0.000728 -0.014520
# 5 -0.003266 -0.004338 -0.002572 0.000728 0.023524 -0.001245
# 6 -0.002880 0.008762 0.009297 -0.014520 -0.001245 0.035974
#
#
# Mechanical properties :
#
#
# Convention : Reuss Voigt Hill
#
# Bulk Modulus (GPa) = 28.06650 50.35892 39.21271
# Shear Modulus (GPa) = 28.24610 38.22756 33.23683
#
# Velocity S-wave (km/s) = 3.38680 3.94003 3.67384
# Velocity P-wave (km/s) = 5.16637 6.41472 5.82409
#
# Compressibility (1/GPa) = 0.03562967
#
# Stress axis : x y z
#
# Youngs Moduli (GPa) = 111.31295 53.62465 54.46743
#
# Poissons Ratio (x) = 0.15912 0.25679
# Poissons Ratio (y) = 0.33031 -0.13623
# Poissons Ratio (z) = 0.52480 -0.13412
#
# Static dielectric constant tensor:
#      x y z
#    x 2.019160 0.055730 -0.072260 
#    y 0.055730 1.923710 0.012400 
#    z -0.072260 0.012400 1.991310 
# 
# From -- ./inp_files/269410.got.cif
#   From: 2010.05.17/outbox.cif.g08.bks.cpg/sg2_135_cif.got.tgz:269410.got - 2010.06.03 11:33:40.
