data_PCOD9097555
_publ_section_title
;
Structure prediction by ZEFSAII (Michael W. Deem and Ramdas Pophale) SiO2 
 PCOD9097555
Probable space group: P -1
;
_chemical_formula_sum "Si O2"
_cell_formula_units_Z 16
_cell_length_a 16.387806
_cell_length_b 8.424867
_cell_length_c 12.144189
_cell_angle_alpha 95.195978
_cell_angle_beta 154.223714
_cell_angle_gamma 94.618657
_cell_volume 673.358158
_symmetry_space_group_name_H-M "P -1"
_symmetry_group_IT_number 2
_symmetry_cell_setting 'triclinic'
loop_
_space_group_symop_operation_xyz
x,y,z
-x,-y,-z
loop_
_atom_site_type_symbol
_atom_site_label
_atom_site_fract_x
_atom_site_fract_y
_atom_site_fract_z
Si Si1 0.897211 0.132359 0.916068
Si Si2 0.486756 0.523035 0.831001
Si Si3 0.547339 0.678732 0.682926
Si Si4 0.237945 0.679980 0.827751
Si Si5 0.856274 0.568786 0.930984
Si Si6 0.354982 0.822412 0.760481
Si Si7 0.546540 0.023665 0.329690
Si Si8 0.975963 0.640903 0.717159
O O1 0.672532 0.033923 0.592370
O O2 0.913150 0.187419 0.065909
O O3 0.009662 0.312696 0.996423
O O4 0.000000 0.000000 0.000000
O O5 0.511122 0.546595 0.731271
O O6 0.663758 0.462314 0.078295
O O7 0.479626 0.698551 0.883627
O O8 0.260223 0.390631 0.570989
O O9 0.738198 0.679546 0.847958
O O10 0.336119 0.600144 0.354014
O O11 0.581686 0.860981 0.789713
O O12 0.416378 0.839208 0.113029
O O13 0.195926 0.737357 0.658905
O O14 0.061676 0.639833 0.699779
O O15 0.982024 0.507192 0.169608
O O16 0.301941 0.872609 0.578736
O O17 0.500000 0.000000 0.000000
#
# Coordination Sequence:
#
# PCOD9097555 Si02
#       8
#     2   2   2   2   2   2   2   2
#     4  12  25  39  61  96 135 168 209 264 315 381
#     4  11  21  41  66  94 125 164 214 262 322 377
#     4  10  20  36  61  87 123 174 207 253 312 385
#     4  11  24  42  65  97 126 166 222 266 315 373
#     4  11  21  38  59  89 129 169 213 246 318 388
#     4   9  21  43  69  89 125 172 211 267 323 369
#     4  10  22  40  65  87 129 174 208 259 324 372
#     4  12  24  40  66  97 133 168 208 264 319 383
#
# _framework density 23.761500000000002
#
# number of rings (size 3 to 8) (size 9 to 14) (size 15 to 20)
#    0.000    1.250    3.750    3.000    1.750    1.000 
#    0.000    0.000    0.000    3.750    0.000    0.000 
#    0.000    0.000    0.000    0.000    0.000    0.000 
#
# Total GULP energy -89469.992443 kJ/mol
# GULP energy per Si atom -5591.874528 kJ/mol
# Density = 2.370742 g / cm^3
# Si number density = 23.761500 Si / 1000 Ang^3
#
#
#
# Elastic Constant Matrix: (Units=GPa)
#
#
# Indices 1 2 3 4 5 6 
#
# 1 133.4623 4.7141 28.4742 -4.6745 11.6211 2.7372
# 2 4.7141 58.1485 12.6792 14.3598 -5.1154 -11.2319
# 3 28.4742 12.6792 74.9481 8.4045 -2.5418 -3.2990
# 4 -4.6745 14.3598 8.4045 34.3727 -8.8750 -3.2611
# 5 11.6211 -5.1154 -2.5418 -8.8750 33.1035 9.0072
# 6 2.7372 -11.2319 -3.2990 -3.2611 9.0072 31.2237
#
#
#
# Elastic Compliance Matrix: (Units=1/GPa)
#
#
# Indices 1 2 3 4 5 6 
#
# 1 0.008555 -0.000637 -0.003423 0.001492 -0.002867 -0.000358
# 2 -0.000637 0.020886 -0.002141 -0.007816 -0.000634 0.006710
# 3 -0.003423 -0.002141 0.015402 -0.003002 0.001106 0.000525
# 4 0.001492 -0.007816 -0.003002 0.035177 0.007983 -0.001888
# 5 -0.002867 -0.000634 0.001106 0.007983 0.035894 -0.009381
# 6 -0.000358 0.006710 0.000525 -0.001888 -0.009381 0.037036
#
#
# Mechanical properties :
#
#
# Convention : Reuss Voigt Hill
#
# Bulk Modulus (GPa) = 30.82453 39.81041 35.31747
# Shear Modulus (GPa) = 28.38233 34.45275 31.41754
#
# Velocity S-wave (km/s) = 3.45986 3.81194 3.64016
# Velocity P-wave (km/s) = 5.38158 6.01374 5.70642
#
# Compressibility (1/GPa) = 0.03244170
#
# Stress axis : x y z
#
# Youngs Moduli (GPa) = 116.89453 47.87849 64.92533
#
# Poissons Ratio (x) = 0.03050 0.22222
# Poissons Ratio (y) = 0.07447 0.13901
# Poissons Ratio (z) = 0.40009 0.10251
#
# Static dielectric constant tensor:
#      x y z
#    x 1.918400 0.034210 -0.009880 
#    y 0.034210 1.941580 0.010400 
#    z -0.009880 0.010400 1.907200 
# 
# From -- ./inp_files/188383.got.cif
#   From: 2010.05.17/outbox.cif.g08.bks.cpg/sg2_95_cif.got.tgz:188383.got - 2010.06.03 11:33:40.
