data_PCOD9097531
_publ_section_title
;
Structure prediction by ZEFSAII (Michael W. Deem and Ramdas Pophale) SiO2 
 PCOD9097531
Probable space group: P -1
;
_chemical_formula_sum "Si O2"
_cell_formula_units_Z 16
_cell_length_a 12.241269
_cell_length_b 21.284485
_cell_length_c 14.730876
_cell_angle_alpha 150.574772
_cell_angle_beta 129.300698
_cell_angle_gamma 30.140077
_cell_volume 827.546603
_symmetry_space_group_name_H-M "P -1"
_symmetry_group_IT_number 2
_symmetry_cell_setting 'triclinic'
loop_
_space_group_symop_operation_xyz
x,y,z
-x,-y,-z
loop_
_atom_site_type_symbol
_atom_site_label
_atom_site_fract_x
_atom_site_fract_y
_atom_site_fract_z
Si Si1 0.491852 0.853517 0.026282
Si Si2 0.814956 0.808014 0.859091
Si Si3 0.776447 0.190848 0.500938
Si Si4 0.308564 0.574273 0.423864
Si Si5 0.056041 0.353010 0.079075
Si Si6 0.946052 0.711532 0.536514
Si Si7 0.749455 0.328715 0.856596
Si Si8 0.284842 0.405144 0.501973
O O1 0.348920 0.966149 0.994865
O O2 0.299406 0.050742 0.246525
O O3 0.570855 0.649395 0.826818
O O4 0.736296 0.759263 0.025566
O O5 0.795139 0.805521 0.952223
O O6 0.741725 0.727583 0.672600
O O7 0.107776 0.602706 0.732638
O O8 0.751747 0.292598 0.525672
O O9 0.720873 0.313240 0.716488
O O10 0.563601 0.242163 0.450443
O O11 0.042725 0.924460 0.314386
O O12 0.500000 0.500000 0.500000
O O13 0.061324 0.717253 0.528504
O O14 0.918382 0.587825 0.329509
O O15 0.868066 0.381711 0.990587
O O16 0.157738 0.540761 0.511054
O O17 0.500000 0.500000 0.000000
#
# Coordination Sequence:
#
# PCOD9097531 Si02
#       8
#     2   2   2   2   2   2   2   2
#     4  10  21  35  59  92 123 161 199 245 311 362
#     4   9  17  29  57  91 120 152 196 242 305 361
#     4  11  24  42  61  87 128 162 203 251 302 362
#     4  11  23  39  61  91 130 164 199 243 305 375
#     4  10  20  36  61  86 119 156 209 256 301 353
#     4   9  20  38  58  93 124 157 200 249 304 365
#     4  11  26  43  64  90 118 164 211 254 304 354
#     4   9  16  33  57  87 122 155 191 250 304 357
#
# _framework density 19.334257999999998
#
# number of rings (size 3 to 8) (size 9 to 14) (size 15 to 20)
#    0.000    2.000    1.250    2.625    1.750    3.500 
#    0.000    2.500    0.000    4.500    0.000    0.000 
#    0.000    0.000    0.000    0.000    0.000    0.000 
#
# Total GULP energy -89390.053537 kJ/mol
# GULP energy per Si atom -5586.878346 kJ/mol
# Density = 1.929025 g / cm^3
# Si number density = 19.334258 Si / 1000 Ang^3
#
#
#
# Elastic Constant Matrix: (Units=GPa)
#
#
# Indices 1 2 3 4 5 6 
#
# 1 125.9180 57.0891 72.0661 -0.2832 -7.4715 -1.9723
# 2 57.0891 70.6620 47.2437 -6.4201 -3.7290 -6.3566
# 3 72.0661 47.2437 113.5677 -3.6675 -23.5889 -19.0838
# 4 -0.2832 -6.4201 -3.6675 24.9516 -8.3008 3.3196
# 5 -7.4715 -3.7290 -23.5889 -8.3008 30.7756 4.6938
# 6 -1.9723 -6.3566 -19.0838 3.3196 4.6938 33.5396
#
#
#
# Elastic Compliance Matrix: (Units=1/GPa)
#
#
# Indices 1 2 3 4 5 6 
#
# 1 0.016393 -0.008473 -0.008613 -0.003989 -0.004025 -0.004584
# 2 -0.008473 0.024738 -0.004919 0.004826 -0.001704 0.001152
# 3 -0.008613 -0.004919 0.020551 0.004998 0.013206 0.007912
# 4 -0.003989 0.004826 0.004998 0.048140 0.016983 -0.003618
# 5 -0.004025 -0.001704 0.013206 0.016983 0.046194 -0.001191
# 6 -0.004584 0.001152 0.007912 -0.003618 -0.001191 0.034791
#
#
# Mechanical properties :
#
#
# Convention : Reuss Voigt Hill
#
# Bulk Modulus (GPa) = 56.58434 73.66061 65.12248
# Shear Modulus (GPa) = 20.77214 26.76996 23.77105
#
# Velocity S-wave (km/s) = 3.28131 3.72504 3.51020
# Velocity P-wave (km/s) = 6.60953 7.52877 7.08408
#
# Compressibility (1/GPa) = 0.01767273
#
# Stress axis : x y z
#
# Youngs Moduli (GPa) = 61.00191 40.42350 48.65966
#
# Poissons Ratio (x) = 0.34250 0.41910
# Poissons Ratio (y) = 0.51686 0.23934
# Poissons Ratio (z) = 0.52541 0.19883
#
# Static dielectric constant tensor:
#      x y z
#    x 1.681200 -0.001650 -0.020520 
#    y -0.001650 1.667080 -0.006780 
#    z -0.020520 -0.006780 1.698900 
# 
# From -- ./inp_files/472713.got.cif
#   From: 2010.05.17/outbox.cif.g08.bks.cpg/sg2_237_cif.got.tgz:472713.got - 2010.06.03 11:33:40.
