data_PCOD9097421
_publ_section_title
;
Structure prediction by ZEFSAII (Michael W. Deem and Ramdas Pophale) SiO2 
 PCOD9097421
Probable space group: P -1
;
_chemical_formula_sum "Si O2"
_cell_formula_units_Z 12
_cell_length_a 9.734515
_cell_length_b 7.961654
_cell_length_c 12.175066
_cell_angle_alpha 95.800248
_cell_angle_beta 143.293393
_cell_angle_gamma 103.177680
_cell_volume 479.421499
_symmetry_space_group_name_H-M "P -1"
_symmetry_group_IT_number 2
_symmetry_cell_setting 'triclinic'
loop_
_space_group_symop_operation_xyz
x,y,z
-x,-y,-z
loop_
_atom_site_type_symbol
_atom_site_label
_atom_site_fract_x
_atom_site_fract_y
_atom_site_fract_z
Si Si1 0.950768 0.599106 0.333814
Si Si2 0.447134 0.513314 0.135323
Si Si3 0.243042 0.056606 0.313818
Si Si4 0.731250 0.450371 0.620037
Si Si5 0.056976 0.275466 0.054356
Si Si6 0.766816 0.961687 0.433019
O O1 0.717310 0.518797 0.269310
O O2 0.094264 0.484739 0.373973
O O3 0.775430 0.587084 0.111555
O O4 0.191709 0.819577 0.534384
O O5 0.320584 0.381343 0.153286
O O6 0.532156 0.741319 0.230779
O O7 0.550786 0.216472 0.495465
O O8 0.067715 0.134927 0.145735
O O9 0.192744 0.050633 0.410941
O O10 0.172042 0.865452 0.184737
O O11 0.500000 0.500000 0.500000
O O12 0.934956 0.552012 0.858163
O O13 0.000000 0.000000 0.500000
#
# Coordination Sequence:
#
# PCOD9097421 Si02
#       6
#     2   2   2   2   2   2
#     4  10  22  38  60  91 125 157 202 251 302 362
#     4  10  20  38  61  92 121 160 200 249 306 360
#     4  10  20  37  60  85 124 158 204 245 299 361
#     4  10  22  40  60  86 121 166 203 247 300 360
#     4  10  20  37  63  85 121 165 198 251 298 359
#     4  10  20  36  60  91 125 159 196 250 307 362
#
# _framework density 25.030169000000001
#
# number of rings (size 3 to 8) (size 9 to 14) (size 15 to 20)
#    0.000    2.000    3.333    0.000    0.000    2.667 
#    0.000    3.333    0.000    5.000    0.000    0.000 
#    0.000    0.000    0.000    0.000    0.000    0.000 
#
# Total GULP energy -66898.725682 kJ/mol
# GULP energy per Si atom -5574.893807 kJ/mol
# Density = 2.497320 g / cm^3
# Si number density = 25.030169 Si / 1000 Ang^3
#
#
#
# Elastic Constant Matrix: (Units=GPa)
#
#
# Indices 1 2 3 4 5 6 
#
# 1 175.7636 27.1622 38.1320 -0.2779 -18.8620 -4.1190
# 2 27.1622 43.7259 30.1489 16.1602 2.2935 -1.7890
# 3 38.1320 30.1489 138.2364 37.8285 -14.6291 -7.9889
# 4 -0.2779 16.1602 37.8285 60.3849 -3.5444 -11.6138
# 5 -18.8620 2.2935 -14.6291 -3.5444 46.1334 -0.5539
# 6 -4.1190 -1.7890 -7.9889 -11.6138 -0.5539 40.6301
#
#
#
# Elastic Compliance Matrix: (Units=1/GPa)
#
#
# Indices 1 2 3 4 5 6 
#
# 1 0.006984 -0.004469 -0.001236 0.002361 0.002879 0.000982
# 2 -0.004469 0.031288 -0.004564 -0.006197 -0.005328 -0.001817
# 3 -0.001236 -0.004564 0.010224 -0.004981 0.002584 0.000296
# 4 0.002361 -0.006197 -0.004981 0.022482 0.001486 0.005434
# 5 0.002879 -0.005328 0.002584 0.001486 0.024068 0.001318
# 6 0.000982 -0.001817 0.000296 0.005434 0.001318 0.026261
#
#
# Mechanical properties :
#
#
# Convention : Reuss Voigt Hill
#
# Bulk Modulus (GPa) = 35.76931 60.95691 48.36311
# Shear Modulus (GPa) = 33.07631 46.91520 39.99575
#
# Velocity S-wave (km/s) = 3.63913 4.33407 4.00171
# Velocity P-wave (km/s) = 5.65501 7.03220 6.38087
#
# Compressibility (1/GPa) = 0.02795693
#
# Stress axis : x y z
#
# Youngs Moduli (GPa) = 143.18376 31.96083 97.80939
#
# Poissons Ratio (x) = 0.14284 0.12093
# Poissons Ratio (y) = 0.63991 0.44641
# Poissons Ratio (z) = 0.17703 0.14587
#
# Static dielectric constant tensor:
#      x y z
#    x 1.986780 -0.134050 -0.003390 
#    y -0.134050 2.263400 0.002230 
#    z -0.003390 0.002230 2.100860 
# 
# From -- ./inp_files/145814.got.cif
#   From: 2010.05.17/outbox.cif.g08.bks.cpg/sg2_73_cif.got.tgz:145814.got - 2010.06.03 11:33:40.
