data_PCOD9097308
_publ_section_title
;
Structure prediction by ZEFSAII (Michael W. Deem and Ramdas Pophale) SiO2 
 PCOD9097308
Probable space group: P -1
;
_chemical_formula_sum "Si O2"
_cell_formula_units_Z 16
_cell_length_a 17.538070
_cell_length_b 9.078754
_cell_length_c 9.704881
_cell_angle_alpha 56.099039
_cell_angle_beta 68.054009
_cell_angle_gamma 30.163219
_cell_volume 622.248484
_symmetry_space_group_name_H-M "P -1"
_symmetry_group_IT_number 2
_symmetry_cell_setting 'triclinic'
loop_
_space_group_symop_operation_xyz
x,y,z
-x,-y,-z
loop_
_atom_site_type_symbol
_atom_site_label
_atom_site_fract_x
_atom_site_fract_y
_atom_site_fract_z
Si Si1 0.363020 0.283858 0.331941
Si Si2 0.314604 0.729800 0.725344
Si Si3 0.421155 0.549842 0.178502
Si Si4 0.102410 0.221902 0.385711
Si Si5 0.867022 0.666487 0.100499
Si Si6 0.736647 0.396762 0.521538
Si Si7 0.720144 0.594728 0.147336
Si Si8 0.622274 0.028605 0.750742
O O1 0.218971 0.571861 0.388506
O O2 0.350295 0.149202 0.305627
O O3 0.500000 0.000000 0.500000
O O4 0.400947 0.407326 0.176385
O O5 0.256012 0.633798 0.831852
O O6 0.169876 0.096517 0.559876
O O7 0.410179 0.668433 0.804733
O O8 0.541351 0.564773 0.330313
O O9 0.374825 0.544738 0.359295
O O10 0.293281 0.931886 0.027002
O O11 0.225672 0.125857 0.276093
O O12 0.930590 0.577918 0.258619
O O13 0.132161 0.964946 0.448314
O O14 0.855223 0.483278 0.158759
O O15 0.000000 0.500000 0.000000
O O16 0.665320 0.640919 0.315576
O O17 0.622504 0.900225 0.951445
#
# Coordination Sequence:
#
# PCOD9097308 Si02
#       8
#     2   2   2   2   2   2   2   2
#     4  10  20  36  60  86 122 162 194 232 302 371
#     4  11  21  37  60  95 117 153 204 248 292 350
#     4  10  21  40  62  85 123 166 191 237 308 364
#     4  11  21  36  65  84 116 163 204 241 287 366
#     4  12  20  40  59  90 117 159 204 245 300 349
#     4   9  20  38  58  89 119 159 193 238 302 354
#     4  11  23  33  64  94 119 147 203 262 287 337
#     4  12  20  36  64  92 118 152 206 247 294 349
#
# _framework density 25.713198999999999
#
# number of rings (size 3 to 8) (size 9 to 14) (size 15 to 20)
#    0.750    0.500    5.000    3.000    1.750    2.000 
#    0.000    1.250    5.500    0.750    0.000    0.000 
#    0.000    0.000    0.000    0.000    0.000    0.000 
#
# Total GULP energy -89170.235543 kJ/mol
# GULP energy per Si atom -5573.139721 kJ/mol
# Density = 2.565467 g / cm^3
# Si number density = 25.713199 Si / 1000 Ang^3
#
#
#
# Elastic Constant Matrix: (Units=GPa)
#
#
# Indices 1 2 3 4 5 6 
#
# 1 98.4724 27.7995 15.6582 -6.3773 16.4381 13.7695
# 2 27.7995 66.3715 39.3065 4.8902 20.7214 20.2744
# 3 15.6582 39.3065 141.0852 -12.6223 11.1619 -5.1519
# 4 -6.3773 4.8902 -12.6223 50.0382 -2.7425 12.2461
# 5 16.4381 20.7214 11.1619 -2.7425 49.1839 2.9931
# 6 13.7695 20.2744 -5.1519 12.2461 2.9931 33.5086
#
#
#
# Elastic Compliance Matrix: (Units=1/GPa)
#
#
# Indices 1 2 3 4 5 6 
#
# 1 0.012202 -0.003374 -0.000137 0.002647 -0.002249 -0.003760
# 2 -0.003374 0.028504 -0.007640 -0.001768 -0.008294 -0.015648
# 3 -0.000137 -0.007640 0.009525 0.001863 0.000879 0.005384
# 4 0.002647 -0.001768 0.001863 0.023055 0.001226 -0.008267
# 5 -0.002249 -0.008294 0.000879 0.001226 0.024236 0.003465
# 6 -0.003760 -0.015648 0.005384 -0.008267 0.003465 0.044396
#
#
# Mechanical properties :
#
#
# Convention : Reuss Voigt Hill
#
# Bulk Modulus (GPa) = 35.80438 52.38415 44.09427
# Shear Modulus (GPa) = 28.81351 41.42381 35.11866
#
# Velocity S-wave (km/s) = 3.35113 4.01807 3.69966
# Velocity P-wave (km/s) = 5.37849 6.47636 5.95279
#
# Compressibility (1/GPa) = 0.02792954
#
# Stress axis : x y z
#
# Youngs Moduli (GPa) = 81.95302 35.08282 104.98288
#
# Poissons Ratio (x) = 0.11837 0.01436
# Poissons Ratio (y) = 0.27651 0.80209
# Poissons Ratio (z) = 0.01121 0.26804
#
# Static dielectric constant tensor:
#      x y z
#    x 2.122340 0.044190 0.037620 
#    y 0.044190 2.151180 0.016950 
#    z 0.037620 0.016950 2.106570 
# 
# From -- ./inp_files/187375.got.cif
#   From: 2010.05.17/outbox.cif.g08.bks.cpg/sg2_94_cif.got.tgz:187375.got - 2010.06.03 11:33:40.
