data_PCOD9097477
_publ_section_title
;
Structure prediction by ZEFSAII (Michael W. Deem and Ramdas Pophale) SiO2 
 PCOD9097477
Probable space group: P -1
;
_chemical_formula_sum "Si O2"
_cell_formula_units_Z 16
_cell_length_a 14.473982
_cell_length_b 9.044665
_cell_length_c 5.081934
_cell_angle_alpha 93.831898
_cell_angle_beta 103.915118
_cell_angle_gamma 104.312341
_cell_volume 620.055184
_symmetry_space_group_name_H-M "P -1"
_symmetry_group_IT_number 2
_symmetry_cell_setting 'triclinic'
loop_
_space_group_symop_operation_xyz
x,y,z
-x,-y,-z
loop_
_atom_site_type_symbol
_atom_site_label
_atom_site_fract_x
_atom_site_fract_y
_atom_site_fract_z
Si Si1 0.877450 0.199974 0.930812
Si Si2 0.742977 0.861281 0.364056
Si Si3 0.031265 0.377922 0.682406
Si Si4 0.378886 0.622039 0.013532
Si Si5 0.058365 0.132714 0.270245
Si Si6 0.783829 0.627771 0.945382
Si Si7 0.257698 0.821843 0.669919
Si Si8 0.433226 0.377432 0.637320
O O1 0.788767 0.191709 0.657599
O O2 0.960744 0.339771 0.881339
O O3 0.829724 0.213221 0.179127
O O4 0.950557 0.085722 0.033170
O O5 0.854470 0.936381 0.556637
O O6 0.754188 0.757725 0.112434
O O7 0.669268 0.750730 0.509221
O O8 0.696164 0.994717 0.256708
O O9 0.024555 0.213799 0.515947
O O10 0.146439 0.441074 0.827027
O O11 0.000000 0.500000 0.500000
O O12 0.306382 0.523484 0.180074
O O13 0.330250 0.724602 0.807344
O O14 0.399713 0.484784 0.838782
O O15 0.486873 0.706625 0.207856
O O16 0.135661 0.278843 0.195221
O O17 0.500000 0.500000 0.500000
#
# Coordination Sequence:
#
# PCOD9097477 Si02
#       8
#     2   2   2   2   2   2   2   2
#     4  11  25  43  62  99 142 189 228 277 337 396
#     4  10  24  43  65  99 133 179 232 281 343 406
#     4  10  20  36  60  95 134 182 232 281 330 391
#     4  10  23  42  69 102 134 173 226 282 352 409
#     4  10  21  40  63  95 136 187 237 281 329 394
#     4   9  20  37  63  91 131 176 227 283 330 399
#     4  12  27  44  68 102 143 183 226 281 338 411
#     4  10  22  46  75 100 130 173 225 286 351 416
#
# _framework density 25.804152999999999
#
# number of rings (size 3 to 8) (size 9 to 14) (size 15 to 20)
#    0.000    1.750    1.250    1.500    5.250    2.500 
#    0.000    0.625    0.000    0.000    0.000    0.000 
#    0.000    0.000    0.000    0.000    0.000    0.000 
#
# Total GULP energy -89223.855265 kJ/mol
# GULP energy per Si atom -5576.490954 kJ/mol
# Density = 2.574542 g / cm^3
# Si number density = 25.804153 Si / 1000 Ang^3
#
#
#
# Elastic Constant Matrix: (Units=GPa)
#
#
# Indices 1 2 3 4 5 6 
#
# 1 123.9293 43.9272 33.1698 3.6883 32.1532 1.5367
# 2 43.9272 110.3174 9.6454 -8.2454 -1.3812 -3.0970
# 3 33.1698 9.6454 88.0611 -4.6256 5.5304 8.1892
# 4 3.6883 -8.2454 -4.6256 39.5893 -0.3159 10.5378
# 5 32.1532 -1.3812 5.5304 -0.3159 58.4125 -15.7239
# 6 1.5367 -3.0970 8.1892 10.5378 -15.7239 46.1881
#
#
#
# Elastic Compliance Matrix: (Units=1/GPa)
#
#
# Indices 1 2 3 4 5 6 
#
# 1 0.012925 -0.005137 -0.003752 -0.002199 -0.007472 -0.002151
# 2 -0.005137 0.011342 0.000475 0.002540 0.003453 0.001443
# 3 -0.003752 0.000475 0.013108 0.002713 0.000110 -0.002749
# 4 -0.002199 0.002540 0.002713 0.028139 -0.000689 -0.006892
# 5 -0.007472 0.003453 0.000110 -0.000689 0.023632 0.008663
# 6 -0.002151 0.001443 -0.002749 -0.006892 0.008663 0.026828
#
#
# Mechanical properties :
#
#
# Convention : Reuss Voigt Hill
#
# Bulk Modulus (GPa) = 48.66806 55.08808 51.87807
# Shear Modulus (GPa) = 35.80366 44.54235 40.17301
#
# Velocity S-wave (km/s) = 3.72898 4.15923 3.94997
# Velocity P-wave (km/s) = 6.11898 6.66787 6.39931
#
# Compressibility (1/GPa) = 0.02054736
#
# Stress axis : x y z
#
# Youngs Moduli (GPa) = 77.37143 88.16626 76.28830
#
# Poissons Ratio (x) = 0.45289 0.28623
# Poissons Ratio (y) = 0.39744 -0.03623
# Poissons Ratio (z) = 0.29029 -0.04187
#
# Static dielectric constant tensor:
#      x y z
#    x 2.065250 0.003870 0.000190 
#    y 0.003870 2.369000 -0.085590 
#    z 0.000190 -0.085590 2.240400 
# 
# From -- ./inp_files/90165.got.cif
#   From: 2010.05.17/outbox.cif.g08.bks.cpg/sg2_46_cif.got.tgz:90165.got - 2010.06.03 11:33:40.
