data_PCOD9097055
_publ_section_title
;
Structure prediction by ZEFSAII (Michael W. Deem and Ramdas Pophale) SiO2 
 PCOD9097055
Probable space group: P -1
;
_chemical_formula_sum "Si O2"
_cell_formula_units_Z 12
_cell_length_a 5.582969
_cell_length_b 9.111031
_cell_length_c 20.187959
_cell_angle_alpha 126.000833
_cell_angle_beta 139.322772
_cell_angle_gamma 67.271341
_cell_volume 538.041994
_symmetry_space_group_name_H-M "P -1"
_symmetry_group_IT_number 2
_symmetry_cell_setting 'triclinic'
loop_
_space_group_symop_operation_xyz
x,y,z
-x,-y,-z
loop_
_atom_site_type_symbol
_atom_site_label
_atom_site_fract_x
_atom_site_fract_y
_atom_site_fract_z
Si Si1 0.813548 0.402904 0.725078
Si Si2 0.366469 0.109531 0.749153
Si Si3 0.421911 0.949414 0.072070
Si Si4 0.747858 0.287647 0.153723
Si Si5 0.181504 0.574080 0.125222
Si Si6 0.817347 0.900584 0.501404
O O1 0.004707 0.445567 0.848113
O O2 0.402516 0.296472 0.614489
O O3 0.070404 0.254475 0.713259
O O4 0.861281 0.593311 0.746538
O O5 0.475552 0.103973 0.846856
O O6 0.704058 0.209630 0.804356
O O7 0.166312 0.919665 0.629671
O O8 0.699209 0.121675 0.150525
O O9 0.410221 0.799138 0.971880
O O10 0.000000 0.000000 0.000000
O O11 0.498517 0.440447 0.165659
O O12 0.000000 0.500000 0.000000
O O13 0.500000 0.000000 0.500000
O O14 0.000000 0.000000 0.500000
#
# Coordination Sequence:
#
# PCOD9097055 Si02
#       6
#     2   2   2   2   2   2
#     4  10  20  36  59  85 117 149 195 254 301 350
#     4  10  21  35  58  88 113 154 201 244 299 360
#     4  11  22  39  56  81 122 160 196 240 300 364
#     4  10  22  36  54  82 117 156 195 241 302 357
#     4  11  19  32  57  85 113 147 194 246 302 353
#     4  10  20  39  61  93 122 157 198 258 307 355
#
# _framework density 22.303090000000001
#
# number of rings (size 3 to 8) (size 9 to 14) (size 15 to 20)
#    0.000    1.667    1.667    4.000    0.000    4.000 
#    0.000    0.833    0.000    4.000    0.000    0.000 
#    0.000    0.000    0.000    0.000    0.000    0.000 
#
# Total GULP energy -66857.924071 kJ/mol
# GULP energy per Si atom -5571.493673 kJ/mol
# Density = 2.225233 g / cm^3
# Si number density = 22.303090 Si / 1000 Ang^3
#
#
#
# Elastic Constant Matrix: (Units=GPa)
#
#
# Indices 1 2 3 4 5 6 
#
# 1 63.5126 28.3313 6.7409 9.7542 -4.7106 17.9526
# 2 28.3313 111.3523 28.6192 27.6142 15.1646 34.3847
# 3 6.7409 28.6192 58.6388 19.9037 3.0921 1.3458
# 4 9.7542 27.6142 19.9037 31.3854 13.3558 10.5565
# 5 -4.7106 15.1646 3.0921 13.3558 30.4758 8.0666
# 6 17.9526 34.3847 1.3458 10.5565 8.0666 36.0830
#
#
#
# Elastic Compliance Matrix: (Units=1/GPa)
#
#
# Indices 1 2 3 4 5 6 
#
# 1 0.020739 -0.002793 0.000543 -0.005471 0.009084 -0.008107
# 2 -0.002793 0.016418 -0.005649 -0.004777 -0.002749 -0.012032
# 3 0.000543 -0.005649 0.024578 -0.015553 0.005210 0.007582
# 4 -0.005471 -0.004777 -0.015553 0.058135 -0.021199 -0.004414
# 5 0.009084 -0.002749 0.005210 -0.021199 0.045980 -0.006171
# 6 -0.008107 -0.012032 0.007582 -0.004414 -0.006171 0.045601
#
#
# Mechanical properties :
#
#
# Convention : Reuss Voigt Hill
#
# Bulk Modulus (GPa) = 21.76892 40.09852 30.93372
# Shear Modulus (GPa) = 20.61337 30.90967 25.76152
#
# Velocity S-wave (km/s) = 3.04343 3.72680 3.40231
# Velocity P-wave (km/s) = 4.70442 6.04455 5.41610
#
# Compressibility (1/GPa) = 0.04593705
#
# Stress axis : x y z
#
# Youngs Moduli (GPa) = 48.21913 60.91005 40.68604
#
# Poissons Ratio (x) = 0.17013 -0.02210
# Poissons Ratio (y) = 0.13468 0.22984
# Poissons Ratio (z) = -0.02619 0.34408
#
# Static dielectric constant tensor:
#      x y z
#    x 1.953160 0.033930 0.080680 
#    y 0.033930 1.861190 0.077620 
#    z 0.080680 0.077620 1.923320 
# 
# From -- ./inp_files/546688.got.cif
#   From: 2010.05.17/outbox.cif.g08.bks.cpg/sg2_274_cif.got.tgz:546688.got - 2010.06.03 11:33:40.
