data_PCOD9097237
_publ_section_title
;
Structure prediction by ZEFSAII (Michael W. Deem and Ramdas Pophale) SiO2 
 PCOD9097237
Probable space group: P -1
;
_chemical_formula_sum "Si O2"
_cell_formula_units_Z 16
_cell_length_a 17.604271
_cell_length_b 18.625906
_cell_length_c 11.723213
_cell_angle_alpha 153.275449
_cell_angle_beta 34.506804
_cell_angle_gamma 144.969824
_cell_volume 926.096415
_symmetry_space_group_name_H-M "P -1"
_symmetry_group_IT_number 2
_symmetry_cell_setting 'triclinic'
loop_
_space_group_symop_operation_xyz
x,y,z
-x,-y,-z
loop_
_atom_site_type_symbol
_atom_site_label
_atom_site_fract_x
_atom_site_fract_y
_atom_site_fract_z
Si Si1 0.264219 0.275462 0.713531
Si Si2 0.216594 0.836247 0.939867
Si Si3 0.954477 0.377369 0.731735
Si Si4 0.089909 0.908141 0.439048
Si Si5 0.762726 0.495937 0.301686
Si Si6 0.454146 0.803439 0.734526
Si Si7 0.761789 0.807281 0.638281
Si Si8 0.046808 0.459747 0.261907
O O1 0.415641 0.264576 0.548150
O O2 0.266061 0.254572 0.544646
O O3 0.154045 0.105363 0.660021
O O4 0.194492 0.419226 0.028080
O O5 0.358698 0.678300 0.770452
O O6 0.353368 0.782220 0.719046
O O7 0.080204 0.702169 0.860785
O O8 0.268928 0.016748 0.067372
O O9 0.902806 0.201910 0.615870
O O10 0.939357 0.392123 0.637142
O O11 0.119811 0.459167 0.679133
O O12 0.860636 0.481780 0.053205
O O13 0.928572 0.862010 0.535361
O O14 0.168437 0.868301 0.173723
O O15 0.699624 0.646894 0.569894
O O16 0.500000 0.000000 0.000000
O O17 0.000000 0.500000 0.500000
#
# Coordination Sequence:
#
# PCOD9097237 Si02
#       8
#     2   2   2   2   2   2   2   2
#     4  11  20  34  50  87 118 136 179 221 278 332
#     4  11  18  35  53  82 109 140 179 218 275 336
#     4  10  17  33  54  81 106 137 185 225 272 317
#     4  10  16  30  61  82 109 134 169 241 290 312
#     4  10  18  30  54  86 113 137 168 227 290 329
#     4  12  21  31  53  90 121 141 162 217 302 345
#     4  10  17  29  56  81 112 135 173 233 278 315
#     4  12  23  38  57  76 106 154 198 223 251 313
#
# _framework density 17.276820000000001
#
# number of rings (size 3 to 8) (size 9 to 14) (size 15 to 20)
#    0.000    1.250    8.750    1.500    0.000    0.500 
#    0.000    1.250    0.000    0.000    0.000    4.375 
#    0.000    0.000    0.000    0.000    0.000    0.000 
#
# Total GULP energy -89114.658758 kJ/mol
# GULP energy per Si atom -5569.666172 kJ/mol
# Density = 1.723750 g / cm^3
# Si number density = 17.276820 Si / 1000 Ang^3
#
#
#
# Elastic Constant Matrix: (Units=GPa)
#
#
# Indices 1 2 3 4 5 6 
#
# 1 65.5789 26.5800 42.2000 -1.2414 -21.1677 -20.7965
# 2 26.5800 90.8513 12.9052 18.1218 -9.3387 -8.8335
# 3 42.2000 12.9052 52.3821 -2.4383 -21.5547 -8.2100
# 4 -1.2414 18.1218 -2.4383 19.1481 -3.9880 -8.5589
# 5 -21.1677 -9.3387 -21.5547 -3.9880 29.5341 -1.6521
# 6 -20.7965 -8.8335 -8.2100 -8.5589 -1.6521 22.7825
#
#
#
# Elastic Compliance Matrix: (Units=1/GPa)
#
#
# Indices 1 2 3 4 5 6 
#
# 1 0.098573 -0.025878 -0.027106 0.088199 0.060619 0.107709
# 2 -0.025878 0.021319 0.001801 -0.038940 -0.017462 -0.030602
# 3 -0.027106 0.001801 0.045859 0.003080 0.014732 -0.005293
# 4 0.088199 -0.038940 0.003080 0.174560 0.084453 0.138224
# 5 0.060619 -0.017462 0.014732 0.084453 0.099131 0.092789
# 6 0.107709 -0.030602 -0.005293 0.138224 0.092789 0.187097
#
#
# Mechanical properties :
#
#
# Convention : Reuss Voigt Hill
#
# Bulk Modulus (GPa) = 15.77614 41.35362 28.56488
# Shear Modulus (GPa) = 6.66638 22.76809 14.71723
#
# Velocity S-wave (km/s) = 1.96646 3.63415 2.92181
# Velocity P-wave (km/s) = 3.78248 6.44959 5.28698
#
# Compressibility (1/GPa) = 0.06338686
#
# Stress axis : x y z
#
# Youngs Moduli (GPa) = 10.14476 46.90661 21.80588
#
# Poissons Ratio (x) = 1.21384 0.59106
# Poissons Ratio (y) = 0.26252 -0.03928
# Poissons Ratio (z) = 0.27498 -0.08449
#
# Static dielectric constant tensor:
#      x y z
#    x 1.602530 -0.002700 -0.055460 
#    y -0.002700 1.635460 0.032220 
#    z -0.055460 0.032220 1.609310 
# 
# From -- ./inp_files/466392.got.cif
#   From: 2010.05.17/outbox.cif.g08.bks.cpg/sg2_234_cif.got.tgz:466392.got - 2010.06.03 11:33:40.
