data_PCOD9097917
_publ_section_title
;
Structure prediction by ZEFSAII (Michael W. Deem and Ramdas Pophale) SiO2 
 PCOD9097917
Probable space group: P -1
;
_chemical_formula_sum "Si O2"
_cell_formula_units_Z 16
_cell_length_a 9.133291
_cell_length_b 18.682787
_cell_length_c 13.310441
_cell_angle_alpha 146.186845
_cell_angle_beta 49.792770
_cell_angle_gamma 106.241840
_cell_volume 769.349053
_symmetry_space_group_name_H-M "P -1"
_symmetry_group_IT_number 2
_symmetry_cell_setting 'triclinic'
loop_
_space_group_symop_operation_xyz
x,y,z
-x,-y,-z
loop_
_atom_site_type_symbol
_atom_site_label
_atom_site_fract_x
_atom_site_fract_y
_atom_site_fract_z
Si Si1 0.888572 0.208519 0.339390
Si Si2 0.337780 0.180429 0.829893
Si Si3 0.829495 0.662741 0.204149
Si Si4 0.369901 0.868464 0.775221
Si Si5 0.128547 0.662255 0.915190
Si Si6 0.493757 0.346575 0.826656
Si Si7 0.505319 0.709504 0.735442
Si Si8 0.856741 0.669095 0.702746
O O1 0.934835 0.339478 0.459368
O O2 0.736067 0.223937 0.328416
O O3 0.745362 0.214609 0.505727
O O4 0.157099 0.046552 0.041690
O O5 0.456062 0.270676 0.851675
O O6 0.500000 0.000000 0.500000
O O7 0.283837 0.195431 0.989716
O O8 0.074921 0.276570 0.007428
O O9 0.614985 0.798484 0.527070
O O10 0.710250 0.624770 0.124745
O O11 0.000000 0.500000 0.000000
O O12 0.985533 0.710353 0.138790
O O13 0.421551 0.838897 0.835560
O O14 0.275497 0.730611 0.907578
O O15 0.322040 0.467995 0.599435
O O16 0.500000 0.500000 0.000000
O O17 0.664029 0.702992 0.746197
O O18 0.000000 0.500000 0.500000
#
# Coordination Sequence:
#
# PCOD9097917 Si02
#       8
#     2   2   2   2   2   2   2   2
#     4  10  24  40  68  95 127 166 222 270 328 402
#     4  11  25  43  70  96 136 176 221 275 337 400
#     4  10  20  36  62  93 124 167 211 262 322 397
#     4  10  22  41  65  94 126 171 217 267 332 390
#     4  10  22  39  64  93 130 173 222 267 331 400
#     4  10  23  41  65  96 126 167 218 274 328 390
#     4  11  23  40  65  95 129 175 221 275 330 391
#     4  12  25  42  66  99 132 171 224 276 331 397
#
# _framework density 20.796803000000001
#
# number of rings (size 3 to 8) (size 9 to 14) (size 15 to 20)
#    0.000    1.500    2.500    1.500   12.250    1.500 
#    0.000    0.625    0.000    0.000    0.000    0.000 
#    0.000    0.000    0.000    0.000    0.000    0.000 
#
# Total GULP energy -89300.025597 kJ/mol
# GULP energy per Si atom -5581.251600 kJ/mol
# Density = 2.074947 g / cm^3
# Si number density = 20.796803 Si / 1000 Ang^3
#
#
#
# Elastic Constant Matrix: (Units=GPa)
#
#
# Indices 1 2 3 4 5 6 
#
# 1 67.1500 51.3260 19.7407 -19.4407 -15.6326 -5.4554
# 2 51.3260 103.4154 26.6292 -32.3022 -14.8701 4.5775
# 3 19.7407 26.6292 88.8613 -14.6073 -19.9304 -1.8697
# 4 -19.4407 -32.3022 -14.6073 28.0058 6.7284 -0.9724
# 5 -15.6326 -14.8701 -19.9304 6.7284 29.4024 -2.6739
# 6 -5.4554 4.5775 -1.8697 -0.9724 -2.6739 37.5629
#
#
#
# Elastic Compliance Matrix: (Units=1/GPa)
#
#
# Indices 1 2 3 4 5 6 
#
# 1 0.027087 -0.011253 0.000016 0.004036 0.008344 0.006005
# 2 -0.011253 0.020389 -0.001303 0.014971 -0.000328 -0.003820
# 3 0.000016 -0.001303 0.014162 0.003984 0.008179 0.001551
# 4 0.004036 0.014971 0.003984 0.058069 -0.000834 0.000404
# 5 0.008344 -0.000328 0.008179 -0.000834 0.044453 0.004802
# 6 0.006005 -0.003820 0.001551 0.000404 0.004802 0.028389
#
#
# Mechanical properties :
#
#
# Convention : Reuss Voigt Hill
#
# Bulk Modulus (GPa) = 27.35384 50.53541 38.94462
# Shear Modulus (GPa) = 21.75662 29.77627 25.76645
#
# Velocity S-wave (km/s) = 3.23794 3.78798 3.52371
# Velocity P-wave (km/s) = 5.21157 6.59425 5.94325
#
# Compressibility (1/GPa) = 0.03655794
#
# Stress axis : x y z
#
# Youngs Moduli (GPa) = 36.91752 49.04720 70.60968
#
# Poissons Ratio (x) = 0.55194 -0.00112
# Poissons Ratio (y) = 0.41544 0.09200
# Poissons Ratio (z) = -0.00059 0.06390
#
# Static dielectric constant tensor:
#      x y z
#    x 1.732400 0.028040 0.059340 
#    y 0.028040 1.781530 0.015820 
#    z 0.059340 0.015820 1.812440 
# 
# From -- ./inp_files/277787.got.cif
#   From: 2010.05.17/outbox.cif.g08.bks.cpg/sg2_139_cif.got.tgz:277787.got - 2010.06.03 11:33:40.
