data_PCOD9097842
_publ_section_title
;
Structure prediction by ZEFSAII (Michael W. Deem and Ramdas Pophale) SiO2 
 PCOD9097842
Probable space group: P -1
;
_chemical_formula_sum "Si O2"
_cell_formula_units_Z 16
_cell_length_a 21.889453
_cell_length_b 12.478541
_cell_length_c 14.014072
_cell_angle_alpha 143.983298
_cell_angle_beta 153.719885
_cell_angle_gamma 30.941668
_cell_volume 858.008614
_symmetry_space_group_name_H-M "P -1"
_symmetry_group_IT_number 2
_symmetry_cell_setting 'triclinic'
loop_
_space_group_symop_operation_xyz
x,y,z
-x,-y,-z
loop_
_atom_site_type_symbol
_atom_site_label
_atom_site_fract_x
_atom_site_fract_y
_atom_site_fract_z
Si Si1 0.268749 0.091998 0.301593
Si Si2 0.417606 0.337780 0.620400
Si Si3 0.328559 0.121867 0.901476
Si Si4 0.040280 0.927667 0.113074
Si Si5 0.976515 0.678914 0.519456
Si Si6 0.366743 0.487121 0.244251
Si Si7 0.680285 0.637736 0.294757
Si Si8 0.463434 0.680056 0.842062
O O1 0.296855 0.245716 0.380812
O O2 0.293572 0.169157 0.496365
O O3 0.410183 0.854899 0.308675
O O4 0.100225 0.107638 0.070114
O O5 0.413273 0.379594 0.757688
O O6 0.385606 0.542037 0.665522
O O7 0.178532 0.246074 0.710033
O O8 0.331858 0.925270 0.816368
O O9 0.337018 0.300230 0.103099
O O10 0.500000 0.000000 0.000000
O O11 0.206106 0.709546 0.188028
O O12 0.045700 0.113169 0.310690
O O13 0.000000 0.000000 0.000000
O O14 0.000000 0.500000 0.500000
O O15 0.143118 0.565648 0.613283
O O16 0.500000 0.500000 0.500000
O O17 0.430853 0.427243 0.182068
O O18 0.582513 0.670587 0.085293
#
# Coordination Sequence:
#
# PCOD9097842 Si02
#       8
#     2   2   2   2   2   2   2   2
#     4   9  20  36  58  92 127 152 202 253 292 353
#     4   9  20  38  60  91 126 158 204 243 300 357
#     4  10  22  39  57  85 117 153 197 246 300 360
#     4  12  22  35  61  90 117 154 201 251 303 349
#     4  12  23  38  60  88 120 157 199 252 304 355
#     4  11  24  41  60  86 124 158 197 250 308 364
#     4  10  20  36  62  90 120 155 204 248 289 354
#     4  11  21  38  63  89 121 164 201 245 304 358
#
# _framework density 18.647832000000001
#
# number of rings (size 3 to 8) (size 9 to 14) (size 15 to 20)
#    0.750    0.750    0.000    7.875    0.000    2.000 
#    0.000    0.625    0.000    3.000    0.000    0.000 
#    0.000    0.000    0.000    0.000    0.000    0.000 
#
# Total GULP energy -89227.603820 kJ/mol
# GULP energy per Si atom -5576.725239 kJ/mol
# Density = 1.860539 g / cm^3
# Si number density = 18.647832 Si / 1000 Ang^3
#
#
#
# Elastic Constant Matrix: (Units=GPa)
#
#
# Indices 1 2 3 4 5 6 
#
# 1 65.4799 58.9136 38.2949 6.3559 1.7798 0.7132
# 2 58.9136 176.4564 73.1749 7.6080 10.7523 3.8665
# 3 38.2949 73.1749 105.4809 4.3759 19.5091 2.9721
# 4 6.3559 7.6080 4.3759 37.0556 -3.4736 3.2672
# 5 1.7798 10.7523 19.5091 -3.4736 21.4083 11.3945
# 6 0.7132 3.8665 2.9721 3.2672 11.3945 41.3076
#
#
#
# Elastic Compliance Matrix: (Units=1/GPa)
#
#
# Indices 1 2 3 4 5 6 
#
# 1 0.023915 -0.005939 -0.005674 -0.001501 0.006523 -0.001129
# 2 -0.005939 0.009502 -0.004383 -0.000391 -0.000133 -0.000404
# 3 -0.005674 -0.004383 0.017422 -0.001960 -0.015480 0.003680
# 4 -0.001501 -0.000391 -0.001960 0.028831 0.009248 -0.004628
# 5 0.006523 -0.000133 -0.015480 0.009248 0.072308 -0.019664
# 6 -0.001129 -0.000404 0.003680 -0.004628 -0.019664 0.029791
#
#
# Mechanical properties :
#
#
# Convention : Reuss Voigt Hill
#
# Bulk Modulus (GPa) = 53.06581 76.46489 64.76535
# Shear Modulus (GPa) = 22.72278 31.75655 27.23967
#
# Velocity S-wave (km/s) = 3.49452 4.13117 3.82611
# Velocity P-wave (km/s) = 6.69334 7.99057 7.37055
#
# Compressibility (1/GPa) = 0.01884452
#
# Stress axis : x y z
#
# Youngs Moduli (GPa) = 41.81476 105.24639 57.39963
#
# Poissons Ratio (x) = 0.62510 0.32571
# Poissons Ratio (y) = 0.24835 0.25158
# Poissons Ratio (z) = 0.23728 0.46129
#
# Static dielectric constant tensor:
#      x y z
#    x 1.678110 0.025380 0.015050 
#    y 0.025380 1.636980 0.035910 
#    z 0.015050 0.035910 1.654410 
# 
# From -- ./inp_files/471241.got.cif
#   From: 2010.05.17/outbox.cif.g08.bks.cpg/sg2_236_cif.got.tgz:471241.got - 2010.06.03 11:33:40.
