data_PCOD9097339
_publ_section_title
;
Structure prediction by ZEFSAII (Michael W. Deem and Ramdas Pophale) SiO2 
 PCOD9097339
Probable space group: P -1
;
_chemical_formula_sum "Si O2"
_cell_formula_units_Z 16
_cell_length_a 8.042043
_cell_length_b 12.485532
_cell_length_c 18.007648
_cell_angle_alpha 148.238579
_cell_angle_beta 50.072939
_cell_angle_gamma 132.231846
_cell_volume 693.151641
_symmetry_space_group_name_H-M "P -1"
_symmetry_group_IT_number 2
_symmetry_cell_setting 'triclinic'
loop_
_space_group_symop_operation_xyz
x,y,z
-x,-y,-z
loop_
_atom_site_type_symbol
_atom_site_label
_atom_site_fract_x
_atom_site_fract_y
_atom_site_fract_z
Si Si1 0.120530 0.916189 0.006154
Si Si2 0.297115 0.510131 0.118228
Si Si3 0.858933 0.023752 0.804358
Si Si4 0.407020 0.188136 0.533881
Si Si5 0.235071 0.857409 0.780376
Si Si6 0.647803 0.837070 0.302103
Si Si7 0.224779 0.477046 0.461144
Si Si8 0.288730 0.898505 0.267949
O O1 0.228469 0.923267 0.060265
O O2 0.272719 0.909827 0.887563
O O3 0.008626 0.109666 0.148224
O O4 0.899251 0.706316 0.936872
O O5 0.430988 0.634051 0.224721
O O6 0.191776 0.672261 0.201718
O O7 0.500000 0.500000 0.000000
O O8 0.804748 0.768663 0.660589
O O9 0.784570 0.102568 0.795863
O O10 0.132093 0.137426 0.795903
O O11 0.282481 0.185130 0.645731
O O12 0.564964 0.412552 0.589013
O O13 0.569907 0.045031 0.428205
O O14 0.257198 0.070733 0.437699
O O15 0.250349 0.627006 0.615437
O O16 0.433822 0.024609 0.774779
O O17 0.000000 0.500000 0.500000
#
# Coordination Sequence:
#
# PCOD9097339 Si02
#       8
#     2   2   2   2   2   2   2   2
#     4  11  22  38  63  91 114 157 202 245 290 349
#     4  11  20  39  62  82 114 156 198 240 288 347
#     4  12  23  38  62  88 123 158 193 240 302 348
#     4   9  20  37  59  85 117 150 198 242 287 342
#     4  10  22  39  61  88 121 151 201 247 290 343
#     4  10  20  36  60  88 114 152 197 244 287 343
#     4  11  20  37  62  87 114 157 199 240 285 354
#     4  10  23  41  58  87 125 153 188 249 296 350
#
# _framework density 23.082971000000001
#
# number of rings (size 3 to 8) (size 9 to 14) (size 15 to 20)
#    0.000    1.500    5.000    0.750    1.750    4.500 
#    0.000    1.250    0.000    0.000    0.000    0.000 
#    0.000    0.000    0.000    0.000    0.000    0.000 
#
# Total GULP energy -89377.471237 kJ/mol
# GULP energy per Si atom -5586.091952 kJ/mol
# Density = 2.303043 g / cm^3
# Si number density = 23.082971 Si / 1000 Ang^3
#
#
#
# Elastic Constant Matrix: (Units=GPa)
#
#
# Indices 1 2 3 4 5 6 
#
# 1 68.6812 8.7008 5.5467 -9.3408 27.4667 -22.7142
# 2 8.7008 90.1762 35.8116 -15.1358 17.5700 -2.9100
# 3 5.5467 35.8116 57.4903 -6.1265 25.7236 -5.7415
# 4 -9.3408 -15.1358 -6.1265 43.3258 -5.2661 14.0771
# 5 27.4667 17.5700 25.7236 -5.2661 21.8132 -19.0923
# 6 -22.7142 -2.9100 -5.7415 14.0771 -19.0923 32.2205
#
#
#
# Elastic Compliance Matrix: (Units=1/GPa)
#
#
# Indices 1 2 3 4 5 6 
#
# 1 -0.007976 -0.004864 -0.040635 -0.014632 0.108650 0.057470
# 2 -0.004864 0.015386 -0.014153 0.003415 0.012357 0.001269
# 3 -0.040635 -0.014153 -0.038837 -0.022036 0.164582 0.070306
# 4 -0.014632 0.003415 -0.022036 0.021720 0.054849 0.009078
# 5 0.108650 0.012357 0.164582 0.054849 -0.434292 -0.174266
# 6 0.057470 0.001269 0.070306 0.009078 -0.174266 -0.023035
#
#
# Mechanical properties :
#
#
# Convention : Reuss Voigt Hill
#
# Bulk Modulus (GPa) = -6.63434 35.16288 14.26427
# Shear Modulus (GPa) = -12.56363 30.55783 8.99710
#
# Velocity S-wave (km/s) = -2.33551 3.64239 1.97641
# Velocity P-wave (km/s) = 3.18641 5.74070 3.37657
#
# Compressibility (1/GPa) = -0.15073096
#
# Stress axis : x y z
#
# Youngs Moduli (GPa) = -125.36880 64.99515 -25.74883
#
# Poissons Ratio (x) = 0.31612 -1.04630
# Poissons Ratio (y) = -0.60976 -0.36443
# Poissons Ratio (z) = -5.09435 0.91988
#
# Static dielectric constant tensor:
#      x y z
#    x 1.915690 -0.007040 0.000220 
#    y -0.007040 1.814770 -0.008120 
#    z 0.000220 -0.008120 1.935470 
# 
# From -- ./inp_files/222764.got.cif
#   From: 2010.05.17/outbox.cif.g08.bks.cpg/sg2_112_cif.got.tgz:222764.got - 2010.06.03 11:33:40.
