data_PCOD9097802
_publ_section_title
;
Structure prediction by ZEFSAII (Michael W. Deem and Ramdas Pophale) SiO2 
 PCOD9097802
Probable space group: P -1
;
_chemical_formula_sum "Si O2"
_cell_formula_units_Z 16
_cell_length_a 12.598323
_cell_length_b 10.301552
_cell_length_c 9.488548
_cell_angle_alpha 112.824011
_cell_angle_beta 96.938911
_cell_angle_gamma 130.489870
_cell_volume 731.100478
_symmetry_space_group_name_H-M "P -1"
_symmetry_group_IT_number 2
_symmetry_cell_setting 'triclinic'
loop_
_space_group_symop_operation_xyz
x,y,z
-x,-y,-z
loop_
_atom_site_type_symbol
_atom_site_label
_atom_site_fract_x
_atom_site_fract_y
_atom_site_fract_z
Si Si1 0.778208 0.143801 0.358781
Si Si2 0.531035 0.866189 0.430933
Si Si3 0.899385 0.567306 0.622883
Si Si4 0.482826 0.816380 0.960863
Si Si5 0.045611 0.680453 0.996199
Si Si6 0.810048 0.764536 0.844181
Si Si7 0.738640 0.529703 0.981164
Si Si8 0.616581 0.829652 0.719311
O O1 0.789272 0.326375 0.449340
O O2 0.958176 0.268466 0.400735
O O3 0.702607 0.017654 0.440407
O O4 0.646598 0.962356 0.144621
O O5 0.379677 0.675922 0.227572
O O6 0.539228 0.781122 0.535436
O O7 0.500000 0.000000 0.500000
O O8 0.821266 0.632536 0.697007
O O9 0.994828 0.608621 0.795855
O O10 0.331799 0.595970 0.933821
O O11 0.492010 0.739981 0.786028
O O12 0.500000 0.000000 0.000000
O O13 0.235299 0.908478 0.133308
O O14 0.000000 0.500000 0.000000
O O15 0.928129 0.679485 0.048129
O O16 0.731913 0.670358 0.951031
O O17 0.704999 0.771497 0.742613
O O18 0.000000 0.000000 0.000000
#
# Coordination Sequence:
#
# PCOD9097802 Si02
#       8
#     2   2   2   2   2   2   2   2
#     4  10  20  38  60  90 124 164 206 265 329 365
#     4  11  22  40  60  92 129 164 208 268 328 378
#     4  10  20  36  62  88 121 168 203 266 319 369
#     4  11  22  39  61  99 129 156 209 276 324 373
#     4  11  19  35  61  95 117 158 217 261 309 371
#     4  11  21  42  62  92 130 170 218 259 312 386
#     4  10  23  38  62  87 131 172 201 262 323 374
#     4  12  23  39  68  92 125 173 211 262 317 386
#
# _framework density 21.884819
#
# number of rings (size 3 to 8) (size 9 to 14) (size 15 to 20)
#    0.000    1.250    3.750    5.250    0.000    1.000 
#    0.000    0.625    0.000    0.000    0.000    0.000 
#    0.000    0.000    0.000    0.000    0.000    0.000 
#
# Total GULP energy -89252.618833 kJ/mol
# GULP energy per Si atom -5578.288677 kJ/mol
# Density = 2.183501 g / cm^3
# Si number density = 21.884819 Si / 1000 Ang^3
#
#
#
# Elastic Constant Matrix: (Units=GPa)
#
#
# Indices 1 2 3 4 5 6 
#
# 1 77.3780 29.7707 11.6797 -27.0681 -3.8043 -8.6175
# 2 29.7707 150.2966 20.8704 -29.6216 -8.2155 19.9717
# 3 11.6797 20.8704 43.4047 -20.8220 -3.1174 9.1872
# 4 -27.0681 -29.6216 -20.8220 41.3377 1.5331 0.5735
# 5 -3.8043 -8.2155 -3.1174 1.5331 23.2481 -4.7270
# 6 -8.6175 19.9717 9.1872 0.5735 -4.7270 41.0807
#
#
#
# Elastic Compliance Matrix: (Units=1/GPa)
#
#
# Indices 1 2 3 4 5 6 
#
# 1 0.017925 -0.002080 0.000219 0.010195 0.002546 0.004873
# 2 -0.002080 0.008721 -0.000298 0.004746 0.001472 -0.004507
# 3 0.000219 -0.000298 0.032626 0.016397 0.001774 -0.007130
# 4 0.010195 0.004746 0.016397 0.042515 0.001884 -0.004212
# 5 0.002546 0.001472 0.001774 0.001884 0.044995 0.004572
# 6 0.004873 -0.004507 -0.007130 -0.004212 0.004572 0.029735
#
#
# Mechanical properties :
#
#
# Convention : Reuss Voigt Hill
#
# Bulk Modulus (GPa) = 18.19680 43.96900 31.08290
# Shear Modulus (GPa) = 25.10633 35.05055 30.07844
#
# Velocity S-wave (km/s) = 3.39071 4.00633 3.71131
# Velocity P-wave (km/s) = 4.86437 6.44481 5.70954
#
# Compressibility (1/GPa) = 0.05495471
#
# Stress axis : x y z
#
# Youngs Moduli (GPa) = 55.78764 114.65950 30.65062
#
# Poissons Ratio (x) = 0.23850 -0.00671
# Poissons Ratio (y) = 0.11604 0.00912
# Poissons Ratio (z) = -0.01221 0.03413
#
# Static dielectric constant tensor:
#      x y z
#    x 1.976870 0.084000 0.028800 
#    y 0.084000 1.945930 0.000810 
#    z 0.028800 0.000810 1.794600 
# 
# From -- ./inp_files/308046.got.cif
#   From: 2010.05.17/outbox.cif.g08.bks.cpg/sg2_155_cif.got.tgz:308046.got - 2010.06.03 11:33:40.
