data_PCOD9097132
_publ_section_title
;
Structure prediction by ZEFSAII (Michael W. Deem and Ramdas Pophale) SiO2 
 PCOD9097132
Probable space group: P -1
;
_chemical_formula_sum "Si O2"
_cell_formula_units_Z 16
_cell_length_a 12.227062
_cell_length_b 16.089011
_cell_length_c 7.792235
_cell_angle_alpha 77.306311
_cell_angle_beta 110.013864
_cell_angle_gamma 43.964488
_cell_volume 699.532260
_symmetry_space_group_name_H-M "P -1"
_symmetry_group_IT_number 2
_symmetry_cell_setting 'triclinic'
loop_
_space_group_symop_operation_xyz
x,y,z
-x,-y,-z
loop_
_atom_site_type_symbol
_atom_site_label
_atom_site_fract_x
_atom_site_fract_y
_atom_site_fract_z
Si Si1 0.933356 0.353491 0.665708
Si Si2 0.637583 0.822882 0.133697
Si Si3 0.966167 0.150325 0.281360
Si Si4 0.825846 0.965208 0.213635
Si Si5 0.141502 0.200553 0.192190
Si Si6 0.565339 0.378290 0.707912
Si Si7 0.712702 0.127246 0.715390
Si Si8 0.618257 0.800849 0.521193
O O1 0.662390 0.531272 0.397668
O O2 0.117017 0.314106 0.762541
O O3 0.041890 0.206286 0.684400
O O4 0.949703 0.317808 0.889524
O O5 0.691006 0.758879 0.382581
O O6 0.436478 0.889002 0.921222
O O7 0.500000 0.000000 0.000000
O O8 0.060762 0.188249 0.303514
O O9 0.023157 0.085804 0.534267
O O10 0.117042 0.003560 0.288299
O O11 0.710274 0.308271 0.988687
O O12 0.784374 0.036667 0.975697
O O13 0.195992 0.262519 0.244945
O O14 0.378436 0.008627 0.326307
O O15 0.500000 0.500000 0.500000
O O16 0.702066 0.231182 0.715189
O O17 0.465168 0.242110 0.471964
#
# Coordination Sequence:
#
# PCOD9097132 Si02
#       8
#     2   2   2   2   2   2   2   2
#     4  11  20  35  59  93 132 163 197 252 310 374
#     4   9  15  30  54  88 122 154 194 252 296 361
#     4  11  22  39  69  91 122 169 210 257 294 369
#     4  10  20  39  65  98 121 155 213 258 310 356
#     4  10  16  30  58  95 123 156 202 246 306 364
#     4  12  25  44  62  86 128 173 208 252 316 368
#     4  10  22  43  65  92 122 162 212 263 304 362
#     4   9  17  30  58  92 121 151 203 257 302 356
#
# _framework density 22.872426999999998
#
# number of rings (size 3 to 8) (size 9 to 14) (size 15 to 20)
#    0.000    1.750    6.250    1.875    3.500    1.000 
#    0.000    4.375    0.000    0.000    0.000    0.000 
#    0.000    0.000    0.000    0.000    0.000    0.000 
#
# Total GULP energy -89301.481910 kJ/mol
# GULP energy per Si atom -5581.342619 kJ/mol
# Density = 2.282037 g / cm^3
# Si number density = 22.872427 Si / 1000 Ang^3
#
#
#
# Elastic Constant Matrix: (Units=GPa)
#
#
# Indices 1 2 3 4 5 6 
#
# 1 52.0230 14.5318 28.9279 2.9460 15.7846 -0.1037
# 2 14.5318 37.6223 39.8187 18.8718 1.8042 10.8759
# 3 28.9279 39.8187 124.6618 31.5707 26.0848 -1.6424
# 4 2.9460 18.8718 31.5707 31.0814 -3.7388 10.5272
# 5 15.7846 1.8042 26.0848 -3.7388 32.1649 2.5046
# 6 -0.1037 10.8759 -1.6424 10.5272 2.5046 32.0601
#
#
#
# Elastic Compliance Matrix: (Units=1/GPa)
#
#
# Indices 1 2 3 4 5 6 
#
# 1 0.026121 -0.011289 -0.000365 0.001877 -0.012000 0.004216
# 2 -0.011289 0.058916 -0.018438 -0.007022 0.017933 -0.020063
# 3 -0.000365 -0.018438 0.024442 -0.021863 -0.022430 0.016437
# 4 0.001877 -0.007022 -0.021863 0.069785 0.027166 -0.023768
# 5 -0.012000 0.017933 -0.022430 0.027166 0.058940 -0.020796
# 6 0.004216 -0.020063 0.016437 -0.023768 -0.020796 0.048282
#
#
# Mechanical properties :
#
#
# Convention : Reuss Voigt Hill
#
# Bulk Modulus (GPa) = 20.28455 42.31821 31.30138
# Shear Modulus (GPa) = 13.77025 27.79653 20.78339
#
# Velocity S-wave (km/s) = 2.45632 3.48988 3.01768
# Velocity P-wave (km/s) = 4.11491 5.89754 5.08495
#
# Compressibility (1/GPa) = 0.04929861
#
# Stress axis : x y z
#
# Youngs Moduli (GPa) = 38.28270 16.97321 40.91277
#
# Poissons Ratio (x) = 0.19160 0.01492
# Poissons Ratio (y) = 0.43216 0.75433
# Poissons Ratio (z) = 0.01396 0.31294
#
# Static dielectric constant tensor:
#      x y z
#    x 1.972820 0.020670 0.048010 
#    y 0.020670 1.823240 -0.035050 
#    z 0.048010 -0.035050 1.860840 
# 
# From -- ./inp_files/317165.got.cif
#   From: 2010.05.17/outbox.cif.g08.bks.cpg/sg2_159_cif.got.tgz:317165.got - 2010.06.03 11:33:40.
