data_PCOD9097605
_publ_section_title
;
Structure prediction by ZEFSAII (Michael W. Deem and Ramdas Pophale) SiO2 
 PCOD9097605
Probable space group: P -1
;
_chemical_formula_sum "Si O2"
_cell_formula_units_Z 15
_cell_length_a 5.070026
_cell_length_b 27.462567
_cell_length_c 9.833892
_cell_angle_alpha 28.616005
_cell_angle_beta 87.776124
_cell_angle_gamma 88.028984
_cell_volume 655.281494
_symmetry_space_group_name_H-M "P -1"
_symmetry_group_IT_number 2
_symmetry_cell_setting 'triclinic'
loop_
_space_group_symop_operation_xyz
x,y,z
-x,-y,-z
loop_
_atom_site_type_symbol
_atom_site_label
_atom_site_fract_x
_atom_site_fract_y
_atom_site_fract_z
Si Si1 0.464281 0.265687 0.684890
Si Si2 0.456368 0.861708 0.444632
Si Si3 0.577391 0.734271 0.004894
Si Si4 0.093566 0.597757 0.342393
Si Si5 0.000000 0.000000 0.000000
Si Si6 0.227865 0.685101 0.700759
Si Si7 0.111205 0.466063 0.225352
Si Si8 0.152554 0.161229 0.723550
O O1 0.506856 0.236806 0.910490
O O2 0.702178 0.293582 0.510778
O O3 0.297119 0.369866 0.439431
O O4 0.304940 0.181884 0.806398
O O5 0.391886 0.759143 0.611962
O O6 0.710464 0.902656 0.250383
O O7 0.548504 0.826916 0.675077
O O8 0.201169 0.931151 0.273468
O O9 0.371756 0.646246 0.179587
O O10 0.868068 0.684585 0.120579
O O11 0.000000 0.500000 0.500000
O O12 0.100098 0.563785 0.583401
O O13 0.912648 0.083285 0.924172
O O14 0.933307 0.730289 0.602010
O O15 0.256353 0.568278 0.022657
O O16 0.000000 0.500000 0.000000
#
# Coordination Sequence:
#
# PCOD9097605 Si02
#       8
#     2   2   2   2   1   2   2   2
#     4  10  22  38  59  92 132 174 210 264 318 382
#     4  10  23  40  67  91 124 161 214 269 328 391
#     4  11  25  41  63  93 134 176 211 265 331 382
#     4  11  25  40  59  91 137 178 224 261 310 376
#     4  10  22  42  70  96 118 154 216 280 330 390
#     4  10  20  36  61  89 126 169 218 260 307 369
#     4  11  20  34  59  90 127 171 221 254 302 366
#     4  10  21  40  64  95 121 159 210 274 322 384
#
# _framework density 22.890923999999998
#
# number of rings (size 3 to 8) (size 9 to 14) (size 15 to 20)
#    0.000    1.600    1.333    2.800    7.467    2.133 
#    0.000    0.667    0.000    8.000    0.000    0.000 
#    0.000    0.000    0.000    0.000    0.000    0.000 
#
# Total GULP energy -83616.776846 kJ/mol
# GULP energy per Si atom -5574.451790 kJ/mol
# Density = 2.283882 g / cm^3
# Si number density = 22.890924 Si / 1000 Ang^3
#
#
#
# Elastic Constant Matrix: (Units=GPa)
#
#
# Indices 1 2 3 4 5 6 
#
# 1 50.6526 14.3216 13.5083 3.6230 10.0065 7.5017
# 2 14.3216 97.4071 60.9468 -0.1226 6.4793 11.2722
# 3 13.5083 60.9468 119.0901 15.9795 12.2549 6.5993
# 4 3.6230 -0.1226 15.9795 47.2291 9.7614 -2.1540
# 5 10.0065 6.4793 12.2549 9.7614 27.0570 -5.6263
# 6 7.5017 11.2722 6.5993 -2.1540 -5.6263 33.8056
#
#
#
# Elastic Compliance Matrix: (Units=1/GPa)
#
#
# Indices 1 2 3 4 5 6 
#
# 1 0.023057 -0.001845 -0.000399 -0.000022 -0.009133 -0.005945
# 2 -0.001845 0.016099 -0.008116 0.003043 -0.001301 -0.003397
# 3 -0.000399 -0.008116 0.013437 -0.004011 -0.002657 -0.000526
# 4 -0.000022 0.003043 -0.004011 0.024112 -0.007593 0.000046
# 5 -0.009133 -0.001301 -0.002657 -0.007593 0.046727 0.010272
# 6 -0.005945 -0.003397 -0.000526 0.000046 0.010272 0.033848
#
#
# Mechanical properties :
#
#
# Convention : Reuss Voigt Hill
#
# Bulk Modulus (GPa) = 31.37506 49.41150 40.39328
# Shear Modulus (GPa) = 26.50801 33.50989 30.00895
#
# Velocity S-wave (km/s) = 3.40665 3.83024 3.62464
# Velocity P-wave (km/s) = 5.40461 6.41821 5.93310
#
# Compressibility (1/GPa) = 0.03187244
#
# Stress axis : x y z
#
# Youngs Moduli (GPa) = 43.37170 62.11560 74.42375
#
# Poissons Ratio (x) = 0.11460 0.02969
# Poissons Ratio (y) = 0.08002 0.60402
# Poissons Ratio (z) = 0.01730 0.50413
#
# Static dielectric constant tensor:
#      x y z
#    x 2.149170 0.055750 -0.164890 
#    y 0.055750 1.940080 -0.054280 
#    z -0.164890 -0.054280 1.933680 
# 
# From -- ./inp_files/39376.got.cif
#   From: 2010.05.17/outbox.cif.g08.bks.cpg/sg2_20_cif.got.tgz:39376.got - 2010.06.03 11:33:40.
