data_PCOD9097816
_publ_section_title
;
Structure prediction by ZEFSAII (Michael W. Deem and Ramdas Pophale) SiO2 
 PCOD9097816
Probable space group: P -1
;
_chemical_formula_sum "Si O2"
_cell_formula_units_Z 14
_cell_length_a 9.751281
_cell_length_b 13.036190
_cell_length_c 9.996144
_cell_angle_alpha 35.096436
_cell_angle_beta 98.447106
_cell_angle_gamma 73.355083
_cell_volume 505.243897
_symmetry_space_group_name_H-M "P -1"
_symmetry_group_IT_number 2
_symmetry_cell_setting 'triclinic'
loop_
_space_group_symop_operation_xyz
x,y,z
-x,-y,-z
loop_
_atom_site_type_symbol
_atom_site_label
_atom_site_fract_x
_atom_site_fract_y
_atom_site_fract_z
Si Si1 0.062316 0.817173 0.909728
Si Si2 0.277516 0.952216 0.917272
Si Si3 0.561414 0.642654 0.842985
Si Si4 0.693568 0.726092 0.531234
Si Si5 0.215126 0.805833 0.309188
Si Si6 0.185716 0.179770 0.294186
Si Si7 0.837890 0.486597 0.259137
O O1 0.189934 0.522346 0.279445
O O2 0.967968 0.839041 0.732696
O O3 0.208590 0.853312 0.913265
O O4 0.863839 0.034073 0.736764
O O5 0.402352 0.010709 0.828806
O O6 0.063849 0.250168 0.588151
O O7 0.341994 0.800935 0.226694
O O8 0.563492 0.716120 0.615929
O O9 0.408340 0.898663 0.634216
O O10 0.500000 0.500000 0.000000
O O11 0.774605 0.458144 0.139300
O O12 0.829414 0.695167 0.702709
O O13 0.278954 0.542767 0.626766
O O14 0.000000 0.000000 0.000000
O O15 0.190244 0.286746 0.039271
#
# Coordination Sequence:
#
# PCOD9097816 Si02
#       7
#     2   2   2   2   2   2   2
#     4  10  20  36  62  89 117 160 188 245 290 344
#     4  10  21  38  60  93 122 150 196 252 288 341
#     4  11  24  39  59  83 118 165 194 234 304 362
#     4  11  23  37  59  92 123 148 198 247 294 345
#     4   8  18  37  57  91 119 153 195 240 296 338
#     4  11  22  38  57  89 121 158 195 237 298 360
#     4   9  17  36  58  82 118 152 191 241 280 346
#
# _framework density 27.709389999999999
#
# number of rings (size 3 to 8) (size 9 to 14) (size 15 to 20)
#    0.000    2.286    1.429    3.857    4.000    1.143 
#    2.571    0.000    0.000    6.857    7.429    1.000 
#    0.000    0.000    0.000    0.000    0.000    0.000 
#
# Total GULP energy -78007.373880 kJ/mol
# GULP energy per Si atom -5571.955277 kJ/mol
# Density = 2.764632 g / cm^3
# Si number density = 27.709390 Si / 1000 Ang^3
#
#
#
# Elastic Constant Matrix: (Units=GPa)
#
#
# Indices 1 2 3 4 5 6 
#
# 1 111.6515 21.6478 42.7653 1.6913 -51.6094 0.0469
# 2 21.6478 55.1337 37.6038 1.2494 -16.5345 -2.6263
# 3 42.7653 37.6038 145.9147 1.5016 -49.1079 -19.8648
# 4 1.6913 1.2494 1.5016 47.6168 -2.2565 -16.9172
# 5 -51.6094 -16.5345 -49.1079 -2.2565 68.7334 15.2811
# 6 0.0469 -2.6263 -19.8648 -16.9172 15.2811 39.1121
#
#
#
# Elastic Compliance Matrix: (Units=1/GPa)
#
#
# Indices 1 2 3 4 5 6 
#
# 1 0.014984 -0.002168 -0.000769 -0.001999 0.011422 -0.005881
# 2 -0.002168 0.022659 -0.005298 -0.000946 0.000391 -0.001729
# 3 -0.000769 -0.005298 0.010596 0.001378 0.004943 0.003691
# 4 -0.001999 -0.000946 0.001378 0.025440 -0.002735 0.012711
# 5 0.011422 0.000391 0.004943 -0.002735 0.028871 -0.009940
# 6 -0.005881 -0.001729 0.003691 0.012711 -0.009940 0.036715
#
#
# Mechanical properties :
#
#
# Convention : Reuss Voigt Hill
#
# Bulk Modulus (GPa) = 31.47804 57.41485 44.44645
# Shear Modulus (GPa) = 30.06192 45.13798 37.59995
#
# Velocity S-wave (km/s) = 3.29736 4.04044 3.68766
# Velocity P-wave (km/s) = 5.08738 6.52167 5.84866
#
# Compressibility (1/GPa) = 0.03176818
#
# Stress axis : x y z
#
# Youngs Moduli (GPa) = 66.73972 44.13283 94.37455
#
# Poissons Ratio (x) = 0.09570 0.07255
# Poissons Ratio (y) = 0.14472 0.50000
# Poissons Ratio (z) = 0.05131 0.23382
#
# Static dielectric constant tensor:
#      x y z
#    x 2.410110 -0.089130 -0.058820 
#    y -0.089130 2.295230 0.067810 
#    z -0.058820 0.067810 2.234490 
# 
# From -- ./inp_files/429399.got.cif
#   From: 2010.05.17/outbox.cif.g08.bks.cpg/sg2_215_cif.got.tgz:429399.got - 2010.06.03 11:33:40.
