data_PCOD9097006
_publ_section_title
;
Structure prediction by ZEFSAII (Michael W. Deem and Ramdas Pophale) SiO2 
 PCOD9097006
Probable space group: P -1
;
_chemical_formula_sum "Si O2"
_cell_formula_units_Z 16
_cell_length_a 14.697137
_cell_length_b 13.941568
_cell_length_c 12.123637
_cell_angle_alpha 31.434431
_cell_angle_beta 32.987877
_cell_angle_gamma 47.180580
_cell_volume 699.680907
_symmetry_space_group_name_H-M "P -1"
_symmetry_group_IT_number 2
_symmetry_cell_setting 'triclinic'
loop_
_space_group_symop_operation_xyz
x,y,z
-x,-y,-z
loop_
_atom_site_type_symbol
_atom_site_label
_atom_site_fract_x
_atom_site_fract_y
_atom_site_fract_z
Si Si1 0.855370 0.984609 0.903895
Si Si2 0.486354 0.523773 0.860309
Si Si3 0.798407 0.994927 0.714499
Si Si4 0.835877 0.482037 0.926453
Si Si5 0.302803 0.438011 0.771333
Si Si6 0.197612 0.471319 0.607496
Si Si7 0.228851 0.943954 0.561352
Si Si8 0.536874 0.965379 0.370082
O O1 0.833271 0.756764 0.141854
O O2 0.730950 0.033675 0.077428
O O3 0.775618 0.057801 0.800804
O O4 0.057182 0.039951 0.652071
O O5 0.301105 0.443682 0.085395
O O6 0.636088 0.457589 0.700550
O O7 0.512786 0.743964 0.594377
O O8 0.500000 0.500000 0.000000
O O9 0.740557 0.083407 0.574231
O O10 0.719803 0.783209 0.994331
O O11 0.000000 0.000000 0.500000
O O12 0.777028 0.509927 0.084085
O O13 0.817801 0.261006 0.141056
O O14 0.033189 0.547934 0.651868
O O15 0.500000 0.500000 0.500000
O O16 0.215764 0.511753 0.679551
O O17 0.395917 0.034054 0.365585
O O18 0.500000 0.000000 0.500000
#
# Coordination Sequence:
#
# PCOD9097006 Si02
#       8
#     2   2   2   2   2   2   2   2
#     4   8  17  35  55  76 110 143 177 225 280 331
#     4  10  21  38  55  76 111 145 191 244 284 331
#     4   9  19  36  58  85 119 151 184 228 287 343
#     4  10  20  36  59  82 111 151 191 228 288 349
#     4  11  20  35  59  89 120 152 187 234 287 341
#     4   9  18  35  56  79 111 150 181 226 287 340
#     4   9  19  36  57  80 108 147 184 227 281 336
#     4  10  21  36  53  78 105 143 190 231 280 333
#
# _framework density 22.867567000000001
#
# number of rings (size 3 to 8) (size 9 to 14) (size 15 to 20)
#    0.000    2.500    1.250    1.125    1.750    2.500 
#    0.000    2.500    0.000    0.000    0.000    0.000 
#    0.000    0.000    0.000    0.000    0.000    0.000 
#
# Total GULP energy -89346.678089 kJ/mol
# GULP energy per Si atom -5584.167381 kJ/mol
# Density = 2.281552 g / cm^3
# Si number density = 22.867567 Si / 1000 Ang^3
#
#
#
# Elastic Constant Matrix: (Units=GPa)
#
#
# Indices 1 2 3 4 5 6 
#
# 1 168.9816 25.6222 53.9603 46.0162 -6.8181 -15.0008
# 2 25.6222 58.9898 15.2903 14.4949 -5.0540 -8.1807
# 3 53.9603 15.2903 80.3513 25.4033 -14.7060 -9.8421
# 4 46.0162 14.4949 25.4033 50.8925 2.0450 9.1733
# 5 -6.8181 -5.0540 -14.7060 2.0450 37.9527 6.5774
# 6 -15.0008 -8.1807 -9.8421 9.1733 6.5774 26.5607
#
#
#
# Elastic Compliance Matrix: (Units=1/GPa)
#
#
# Indices 1 2 3 4 5 6 
#
# 1 0.009967 -0.000388 -0.002978 -0.008755 -0.000241 0.007489
# 2 -0.000388 0.020042 -0.000182 -0.006741 0.001534 0.007835
# 3 -0.002978 -0.000182 0.018988 -0.008169 0.006093 0.006610
# 4 -0.008755 -0.006741 -0.008169 0.037704 -0.003834 -0.022120
# 5 -0.000241 0.001534 0.006093 -0.003834 0.029671 -0.003430
# 6 0.007489 0.007835 0.006610 -0.022120 -0.003430 0.055231
#
#
# Mechanical properties :
#
#
# Convention : Reuss Voigt Hill
#
# Bulk Modulus (GPa) = 23.86626 55.34092 39.60359
# Shear Modulus (GPa) = 25.95159 37.31115 31.63137
#
# Velocity S-wave (km/s) = 3.37243 4.04371 3.72323
# Velocity P-wave (km/s) = 5.06199 6.78641 5.98661
#
# Compressibility (1/GPa) = 0.04190016
#
# Stress axis : x y z
#
# Youngs Moduli (GPa) = 100.33166 49.89541 52.66569
#
# Poissons Ratio (x) = 0.01935 0.15686
# Poissons Ratio (y) = 0.03892 0.00958
# Poissons Ratio (z) = 0.29883 0.00907
#
# Static dielectric constant tensor:
#      x y z
#    x 1.850940 -0.027260 -0.003210 
#    y -0.027260 1.895700 -0.031720 
#    z -0.003210 -0.031720 1.837650 
# 
# From -- ./inp_files/315910.got.cif
#   From: 2010.05.17/outbox.cif.g08.bks.cpg/sg2_158_cif.got.tgz:315910.got - 2010.06.03 11:33:40.
