data_PCOD9097632
_publ_section_title
;
Structure prediction by ZEFSAII (Michael W. Deem and Ramdas Pophale) SiO2 
 PCOD9097632
Probable space group: P -1
;
_chemical_formula_sum "Si O2"
_cell_formula_units_Z 14
_cell_length_a 9.153910
_cell_length_b 9.185144
_cell_length_c 10.345215
_cell_angle_alpha 60.432105
_cell_angle_beta 55.450535
_cell_angle_gamma 44.596340
_cell_volume 496.926032
_symmetry_space_group_name_H-M "P -1"
_symmetry_group_IT_number 2
_symmetry_cell_setting 'triclinic'
loop_
_space_group_symop_operation_xyz
x,y,z
-x,-y,-z
loop_
_atom_site_type_symbol
_atom_site_label
_atom_site_fract_x
_atom_site_fract_y
_atom_site_fract_z
Si Si1 0.309753 0.841090 0.029958
Si Si2 0.836976 0.408392 0.669919
Si Si3 0.686216 0.012524 0.451314
Si Si4 0.617840 0.700221 0.126719
Si Si5 0.826310 0.969608 0.663364
Si Si6 0.082422 0.506730 0.691169
Si Si7 0.806710 0.243871 0.147536
O O1 0.317827 0.645747 0.169242
O O2 0.516384 0.835233 0.982056
O O3 0.287543 0.808254 0.904727
O O4 0.073722 0.062518 0.088851
O O5 0.795345 0.500507 0.503082
O O6 0.890523 0.507619 0.715617
O O7 0.076984 0.183708 0.633761
O O8 0.681535 0.981862 0.615777
O O9 0.690633 0.206269 0.336936
O O10 0.500000 0.000000 0.500000
O O11 0.363456 0.825764 0.253228
O O12 0.764131 0.663463 0.197900
O O13 0.749197 0.468964 0.099253
O O14 0.000000 0.000000 0.500000
O O15 0.977502 0.723411 0.726480
#
# Coordination Sequence:
#
# PCOD9097632 Si02
#       7
#     2   2   2   2   2   2   2
#     4  10  22  42  64  86 118 159 208 244 288 362
#     4   9  20  39  60  87 121 159 195 241 306 356
#     4  10  20  36  61  91 116 149 198 245 295 357
#     4  12  22  37  61  91 119 157 204 245 295 354
#     4  11  23  36  55  90 123 151 194 247 300 354
#     4  10  21  37  59  90 124 153 191 253 307 342
#     4  10  23  41  63  88 121 160 197 250 299 346
#
# _framework density 28.173207000000001
#
# number of rings (size 3 to 8) (size 9 to 14) (size 15 to 20)
#    0.000    1.714    0.000    5.571    0.000    9.714 
#    0.000    0.714    0.000   18.000    0.000    0.000 
#    0.000    0.000    0.000    0.000    0.000    0.000 
#
# Total GULP energy -78053.138846 kJ/mol
# GULP energy per Si atom -5575.224203 kJ/mol
# Density = 2.810908 g / cm^3
# Si number density = 28.173207 Si / 1000 Ang^3
#
#
#
# Elastic Constant Matrix: (Units=GPa)
#
#
# Indices 1 2 3 4 5 6 
#
# 1 168.2279 29.1105 46.8920 -8.5660 49.8081 -12.8944
# 2 29.1105 129.5015 21.3028 32.3253 -4.6825 -0.4302
# 3 46.8920 21.3028 94.1640 -7.4963 14.6742 -19.3190
# 4 -8.5660 32.3253 -7.4963 36.1469 -7.0005 3.2946
# 5 49.8081 -4.6825 14.6742 -7.0005 50.0939 -3.7850
# 6 -12.8944 -0.4302 -19.3190 3.2946 -3.7850 41.8628
#
#
#
# Elastic Compliance Matrix: (Units=1/GPa)
#
#
# Indices 1 2 3 4 5 6 
#
# 1 0.010013 -0.002772 -0.002576 0.002488 -0.009049 0.000853
# 2 -0.002772 0.011653 -0.002787 -0.010983 0.003061 -0.000879
# 3 -0.002576 -0.002787 0.014077 0.004158 -0.000844 0.005271
# 4 0.002488 -0.010983 0.004158 0.039117 0.000715 -0.000442
# 5 -0.009049 0.003061 -0.000844 0.000715 0.029553 -0.000529
# 6 0.000853 -0.000879 0.005271 -0.000442 -0.000529 0.026561
#
#
# Mechanical properties :
#
#
# Convention : Reuss Voigt Hill
#
# Bulk Modulus (GPa) = 51.35753 65.16711 58.26232
# Shear Modulus (GPa) = 32.52333 45.25992 38.89162
#
# Velocity S-wave (km/s) = 3.40134 4.01245 3.71947
# Velocity P-wave (km/s) = 5.80468 6.68187 6.25866
#
# Compressibility (1/GPa) = 0.01947134
#
# Stress axis : x y z
#
# Youngs Moduli (GPa) = 99.86799 85.81531 71.03782
#
# Poissons Ratio (x) = 0.23792 0.18300
# Poissons Ratio (y) = 0.27688 0.19801
# Poissons Ratio (z) = 0.25726 0.23920
#
# Static dielectric constant tensor:
#      x y z
#    x 2.541100 0.474350 0.266630 
#    y 0.474350 3.659360 0.624950 
#    z 0.266630 0.624950 2.622050 
# 
# From -- ./inp_files/378208.got.cif
#   From: 2010.05.17/outbox.cif.g08.bks.cpg/sg2_190_cif.got.tgz:378208.got - 2010.06.03 11:33:40.
