data_PCOD9097848
_publ_section_title
;
Structure prediction by ZEFSAII (Michael W. Deem and Ramdas Pophale) SiO2 
 PCOD9097848
Probable space group: P -1
;
_chemical_formula_sum "Si O2"
_cell_formula_units_Z 16
_cell_length_a 16.497984
_cell_length_b 13.141352
_cell_length_c 24.442456
_cell_angle_alpha 21.122651
_cell_angle_beta 156.151292
_cell_angle_gamma 147.199199
_cell_volume 769.229960
_symmetry_space_group_name_H-M "P -1"
_symmetry_group_IT_number 2
_symmetry_cell_setting 'triclinic'
loop_
_space_group_symop_operation_xyz
x,y,z
-x,-y,-z
loop_
_atom_site_type_symbol
_atom_site_label
_atom_site_fract_x
_atom_site_fract_y
_atom_site_fract_z
Si Si1 0.049323 0.156718 0.584349
Si Si2 0.886030 0.216853 0.571712
Si Si3 0.461543 0.122426 0.816019
Si Si4 0.977270 0.463502 0.160162
Si Si5 0.340342 0.309718 0.524126
Si Si6 0.355275 0.713270 0.769113
Si Si7 0.479277 0.435840 0.171923
Si Si8 0.104985 0.691070 0.012988
O O1 0.277987 0.232011 0.687766
O O2 0.960076 0.092169 0.620795
O O3 0.876225 0.359300 0.346155
O O4 0.062716 0.864950 0.705593
O O5 0.647395 0.293177 0.388180
O O6 0.000000 0.500000 0.500000
O O7 0.974118 0.993258 0.782227
O O8 0.392776 0.225334 0.661077
O O9 0.669996 0.250254 0.894460
O O10 0.496644 0.777675 0.011786
O O11 0.118480 0.472115 0.296100
O O12 0.102917 0.552425 0.140889
O O13 0.754147 0.616785 0.940628
O O14 0.500000 0.500000 0.500000
O O15 0.348283 0.018445 0.640291
O O16 0.449343 0.695189 0.776249
O O17 0.500000 0.500000 0.000000
O O18 0.000000 0.500000 0.000000
#
# Coordination Sequence:
#
# PCOD9097848 Si02
#       8
#     2   2   2   2   2   2   2   2
#     4   9  22  38  61  93 121 157 213 247 300 372
#     4  11  22  40  63  89 122 162 207 260 301 356
#     4  11  22  39  66  93 121 165 207 250 306 372
#     4  10  22  40  63  93 123 163 206 250 303 370
#     4  11  22  39  64  90 130 163 198 248 310 372
#     4  10  20  36  62  90 122 158 199 251 300 355
#     4  10  22  39  62  93 124 156 209 256 305 356
#     4  12  24  41  65  89 124 164 205 255 312 359
#
# _framework density 20.800022999999999
#
# number of rings (size 3 to 8) (size 9 to 14) (size 15 to 20)
#    0.000    1.500    5.000    0.000    1.750    3.500 
#    0.000    1.875    0.000    0.000    0.000    0.000 
#    0.000    0.000    0.000    0.000    0.000    0.000 
#
# Total GULP energy -89240.853270 kJ/mol
# GULP energy per Si atom -5577.553329 kJ/mol
# Density = 2.075268 g / cm^3
# Si number density = 20.800023 Si / 1000 Ang^3
#
#
#
# Elastic Constant Matrix: (Units=GPa)
#
#
# Indices 1 2 3 4 5 6 
#
# 1 26.0368 3.2800 8.9072 7.8140 10.0726 8.8438
# 2 3.2800 75.2706 34.8705 21.9380 6.1763 11.7434
# 3 8.9072 34.8705 128.6324 31.4006 4.0957 18.8625
# 4 7.8140 21.9380 31.4006 35.8897 9.8627 6.3452
# 5 10.0726 6.1763 4.0957 9.8627 32.7154 6.3404
# 6 8.8438 11.7434 18.8625 6.3452 6.3404 29.1439
#
#
#
# Elastic Compliance Matrix: (Units=1/GPa)
#
#
# Indices 1 2 3 4 5 6 
#
# 1 0.048493 0.002783 -0.000382 -0.006810 -0.011088 -0.011694
# 2 0.002783 0.017358 -0.002175 -0.008391 -0.000459 -0.004504
# 3 -0.000382 -0.002175 0.010991 -0.008028 0.002526 -0.004923
# 4 -0.006810 -0.008391 -0.008028 0.043419 -0.009014 0.003151
# 5 -0.011088 -0.000459 0.002526 -0.009014 0.037289 -0.004235
# 6 -0.011694 -0.004504 -0.004923 0.003151 -0.004235 0.043098
#
#
# Mechanical properties :
#
#
# Convention : Reuss Voigt Hill
#
# Bulk Modulus (GPa) = 12.93751 36.00613 24.47182
# Shear Modulus (GPa) = 22.12782 31.74193 26.93488
#
# Velocity S-wave (km/s) = 3.26519 3.91071 3.60244
# Velocity P-wave (km/s) = 4.52203 6.14327 5.39391
#
# Compressibility (1/GPa) = 0.07729465
#
# Stress axis : x y z
#
# Youngs Moduli (GPa) = 20.62153 57.61176 90.98132
#
# Poissons Ratio (x) = -0.16034 0.03476
# Poissons Ratio (y) = -0.05739 0.19786
# Poissons Ratio (z) = 0.00788 0.12529
#
# Static dielectric constant tensor:
#      x y z
#    x 1.687050 0.033800 0.008280 
#    y 0.033800 1.743510 0.049140 
#    z 0.008280 0.049140 1.803480 
# 
# From -- ./inp_files/177707.got.cif
#   From: 2010.05.17/outbox.cif.g08.bks.cpg/sg2_89_cif.got.tgz:177707.got - 2010.06.03 11:33:40.
