data_PCOD9097751
_publ_section_title
;
Structure prediction by ZEFSAII (Michael W. Deem and Ramdas Pophale) SiO2 
 PCOD9097751
Probable space group: P -1
;
_chemical_formula_sum "Si O2"
_cell_formula_units_Z 16
_cell_length_a 19.607804
_cell_length_b 19.868600
_cell_length_c 9.937627
_cell_angle_alpha 25.755814
_cell_angle_beta 33.778083
_cell_angle_gamma 24.812685
_cell_volume 703.993884
_symmetry_space_group_name_H-M "P -1"
_symmetry_group_IT_number 2
_symmetry_cell_setting 'triclinic'
loop_
_space_group_symop_operation_xyz
x,y,z
-x,-y,-z
loop_
_atom_site_type_symbol
_atom_site_label
_atom_site_fract_x
_atom_site_fract_y
_atom_site_fract_z
Si Si1 0.645374 0.310465 0.692546
Si Si2 0.693847 0.006465 0.583684
Si Si3 0.204436 0.266266 0.860517
Si Si4 0.151986 0.823162 0.833343
Si Si5 0.481345 0.402127 0.078942
Si Si6 0.028227 0.791357 0.728722
Si Si7 0.813195 0.846324 0.189482
Si Si8 0.044621 0.279550 0.545785
O O1 0.500000 0.500000 0.500000
O O2 0.797137 0.296464 0.440513
O O3 0.596926 0.347530 0.862362
O O4 0.697499 0.090981 0.962890
O O5 0.534478 0.190938 0.429600
O O6 0.827176 0.820380 0.603146
O O7 0.775911 0.099609 0.330902
O O8 0.671721 0.915193 0.912951
O O9 0.250019 0.204427 0.739862
O O10 0.126829 0.495183 0.607925
O O11 0.042838 0.289367 0.098914
O O12 0.299293 0.582511 0.999747
O O13 0.004210 0.855575 0.088826
O O14 0.094349 0.964934 0.541733
O O15 0.500000 0.500000 0.000000
O O16 0.985962 0.765122 0.992921
O O17 0.863381 0.727833 0.460290
#
# Coordination Sequence:
#
# PCOD9097751 Si02
#       8
#     2   2   2   2   2   2   2   2
#     4  12  22  34  62  91 115 147 190 240 295 329
#     4  10  20  39  57  84 116 148 196 244 283 335
#     4   9  23  36  61  80 119 153 191 235 287 340
#     4  10  20  36  62  84 114 144 195 238 285 332
#     4  10  22  36  54  88 118 149 181 242 293 333
#     4   9  20  38  58  87 113 146 189 239 281 339
#     4  10  21  37  58  86 118 145 195 233 284 338
#     4  12  20  36  62  86 110 154 198 234 287 338
#
# _framework density 22.727471999999999
#
# number of rings (size 3 to 8) (size 9 to 14) (size 15 to 20)
#    0.750    1.000    2.500    2.250    3.500    3.000 
#    0.000    0.625    2.750    1.500    0.000    0.000 
#    0.000    0.000    0.000    0.000    0.000    0.000 
#
# Total GULP energy -89268.453517 kJ/mol
# GULP energy per Si atom -5579.278345 kJ/mol
# Density = 2.267574 g / cm^3
# Si number density = 22.727472 Si / 1000 Ang^3
#
#
#
# Elastic Constant Matrix: (Units=GPa)
#
#
# Indices 1 2 3 4 5 6 
#
# 1 72.9770 30.3065 20.2506 2.4979 26.5652 4.3521
# 2 30.3065 94.9667 11.9677 -9.2592 13.7170 5.3706
# 3 20.2506 11.9677 61.3824 -13.2983 15.0668 4.3300
# 4 2.4979 -9.2592 -13.2983 31.6537 -4.1889 10.2994
# 5 26.5652 13.7170 15.0668 -4.1889 35.1979 -0.4505
# 6 4.3521 5.3706 4.3300 10.2994 -0.4505 37.1087
#
#
#
# Elastic Compliance Matrix: (Units=1/GPa)
#
#
# Indices 1 2 3 4 5 6 
#
# 1 0.022398 -0.005323 -0.004588 -0.007237 -0.013721 0.000521
# 2 -0.005323 0.012920 0.000780 0.005349 -0.000751 -0.002830
# 3 -0.004588 0.000780 0.021508 0.010643 -0.004846 -0.005097
# 4 -0.007237 0.005349 0.010643 0.042940 0.003765 -0.013039
# 5 -0.013721 -0.000751 -0.004846 0.003765 0.041604 0.001743
# 6 0.000521 -0.002830 -0.005097 -0.013039 0.001743 0.031531
#
#
# Mechanical properties :
#
#
# Convention : Reuss Voigt Hill
#
# Bulk Modulus (GPa) = 25.93118 39.37507 32.65313
# Shear Modulus (GPa) = 24.50747 31.91215 28.20981
#
# Velocity S-wave (km/s) = 3.28734 3.75123 3.52692
# Velocity P-wave (km/s) = 5.08362 6.01039 5.56633
#
# Compressibility (1/GPa) = 0.03856361
#
# Stress axis : x y z
#
# Youngs Moduli (GPa) = 44.64674 77.39646 46.49443
#
# Poissons Ratio (x) = 0.41197 0.21333
# Poissons Ratio (y) = 0.23765 -0.03626
# Poissons Ratio (z) = 0.20486 -0.06035
#
# Static dielectric constant tensor:
#      x y z
#    x 1.933330 -0.017870 -0.022810 
#    y -0.017870 1.834510 -0.033790 
#    z -0.022810 -0.033790 1.870460 
# 
# From -- ./inp_files/336636.got.cif
#   From: 2010.05.17/outbox.cif.g08.bks.cpg/sg2_169_cif.got.tgz:336636.got - 2010.06.03 11:33:40.
