data_PCOD9097416
_publ_section_title
;
Structure prediction by ZEFSAII (Michael W. Deem and Ramdas Pophale) SiO2 
 PCOD9097416
Probable space group: P -1
;
_chemical_formula_sum "Si O2"
_cell_formula_units_Z 14
_cell_length_a 9.121597
_cell_length_b 20.454333
_cell_length_c 11.108653
_cell_angle_alpha 33.672853
_cell_angle_beta 124.004429
_cell_angle_gamma 143.795190
_cell_volume 637.648616
_symmetry_space_group_name_H-M "P -1"
_symmetry_group_IT_number 2
_symmetry_cell_setting 'triclinic'
loop_
_space_group_symop_operation_xyz
x,y,z
-x,-y,-z
loop_
_atom_site_type_symbol
_atom_site_label
_atom_site_fract_x
_atom_site_fract_y
_atom_site_fract_z
Si Si1 0.315594 0.253638 0.033425
Si Si2 0.113085 0.577052 0.565684
Si Si3 0.514810 0.964404 0.223938
Si Si4 0.314067 0.988424 0.514163
Si Si5 0.265945 0.455426 0.392886
Si Si6 0.920848 0.701999 0.956576
Si Si7 0.948726 0.103028 0.867881
O O1 0.263485 0.090068 0.278559
O O2 0.280346 0.306976 0.060047
O O3 0.601892 0.418397 0.853884
O O4 0.110849 0.195050 0.925638
O O5 0.886087 0.527852 0.617130
O O6 0.000000 0.500000 0.500000
O O7 0.362129 0.789222 0.348217
O O8 0.173380 0.478595 0.799967
O O9 0.517262 0.910417 0.441511
O O10 0.347552 0.001497 0.086826
O O11 0.818702 0.149582 0.065953
O O12 0.500000 0.000000 0.500000
O O13 0.043963 0.796654 0.737761
O O14 0.500000 0.500000 0.500000
O O15 0.056046 0.247842 0.595184
O O16 0.000000 0.000000 0.000000
#
# Coordination Sequence:
#
# PCOD9097416 Si02
#       7
#     2   2   2   2   2   2   2
#     4  11  21  40  60  89 123 165 200 249 313 367
#     4  11  21  39  64  90 125 161 204 256 312 358
#     4   9  23  40  60  95 120 157 213 247 307 367
#     4  10  21  41  66  87 122 165 207 253 310 361
#     4   9  20  35  56  89 121 155 205 249 302 367
#     4  10  23  40  64  85 130 161 204 254 311 362
#     4  10  20  36  60  91 123 153 207 257 304 358
#
# _framework density 21.955666000000001
#
# number of rings (size 3 to 8) (size 9 to 14) (size 15 to 20)
#    0.857    1.143    0.000    4.714    4.000    2.286 
#    2.571    8.571    0.000    0.000    0.000    0.000 
#    0.000    0.000    0.000    0.000    0.000    0.000 
#
# Total GULP energy -78070.005619 kJ/mol
# GULP energy per Si atom -5576.428973 kJ/mol
# Density = 2.190569 g / cm^3
# Si number density = 21.955666 Si / 1000 Ang^3
#
#
#
# Elastic Constant Matrix: (Units=GPa)
#
#
# Indices 1 2 3 4 5 6 
#
# 1 116.1046 -10.3074 44.1950 -19.1153 -1.6268 -8.4150
# 2 -10.3074 32.7324 -17.3084 -4.4675 -2.3522 -1.7663
# 3 44.1950 -17.3084 97.6060 0.2004 4.1901 -4.6164
# 4 -19.1153 -4.4675 0.2004 26.3918 -9.0094 7.6180
# 5 -1.6268 -2.3522 4.1901 -9.0094 35.8542 1.0535
# 6 -8.4150 -1.7663 -4.6164 7.6180 1.0535 25.1475
#
#
#
# Elastic Compliance Matrix: (Units=1/GPa)
#
#
# Indices 1 2 3 4 5 6 
#
# 1 0.012913 0.003002 -0.005528 0.011404 0.004298 -0.000118
# 2 0.003002 0.035687 0.004839 0.009189 0.004179 0.001441
# 3 -0.005528 0.004839 0.013869 -0.005058 -0.002904 0.002690
# 4 0.011404 0.009189 -0.005058 0.057641 0.016625 -0.014625
# 5 0.004298 0.004179 -0.002904 0.016625 0.033030 -0.005222
# 6 -0.000118 0.001441 0.002690 -0.014625 -0.005222 0.044970
#
#
# Mechanical properties :
#
#
# Convention : Reuss Voigt Hill
#
# Bulk Modulus (GPa) = 14.90428 31.06681 22.98554
# Shear Modulus (GPa) = 23.16437 32.80295 27.98366
#
# Velocity S-wave (km/s) = 3.25168 3.86949 3.57396
# Velocity P-wave (km/s) = 4.57176 5.84333 5.24621
#
# Compressibility (1/GPa) = 0.06709484
#
# Stress axis : x y z
#
# Youngs Moduli (GPa) = 77.44210 28.02132 72.10519
#
# Poissons Ratio (x) = -0.08412 0.39859
# Poissons Ratio (y) = -0.23249 -0.34891
# Poissons Ratio (z) = 0.42809 -0.13559
#
# Static dielectric constant tensor:
#      x y z
#    x 1.658120 -0.166650 0.062850 
#    y -0.166650 1.644180 0.126730 
#    z 0.062850 0.126730 1.736360 
# 
# From -- ./inp_files/404570.got.cif
#   From: 2010.05.17/outbox.cif.g08.bks.cpg/sg2_203_cif.got.tgz:404570.got - 2010.06.03 11:33:40.
