data_PCOD9097196
_publ_section_title
;
Structure prediction by ZEFSAII (Michael W. Deem and Ramdas Pophale) SiO2 
 PCOD9097196
Probable space group: P -1
;
_chemical_formula_sum "Si O2"
_cell_formula_units_Z 16
_cell_length_a 8.058192
_cell_length_b 8.625005
_cell_length_c 11.001057
_cell_angle_alpha 89.599178
_cell_angle_beta 118.322311
_cell_angle_gamma 69.064432
_cell_volume 613.974145
_symmetry_space_group_name_H-M "P -1"
_symmetry_group_IT_number 2
_symmetry_cell_setting 'triclinic'
loop_
_space_group_symop_operation_xyz
x,y,z
-x,-y,-z
loop_
_atom_site_type_symbol
_atom_site_label
_atom_site_fract_x
_atom_site_fract_y
_atom_site_fract_z
Si Si1 0.514014 0.337435 0.682226
Si Si2 0.383657 0.045995 0.334178
Si Si3 0.034227 0.749994 0.924024
Si Si4 0.351090 0.051038 0.762292
Si Si5 0.184343 0.531593 0.768408
Si Si6 0.030201 0.807287 0.504879
Si Si7 0.213814 0.552795 0.372847
Si Si8 0.779411 0.976956 0.032146
O O1 0.618304 0.132867 0.711846
O O2 0.385240 0.406213 0.762200
O O3 0.365020 0.400204 0.511361
O O4 0.679886 0.418816 0.712512
O O5 0.154721 0.184278 0.239337
O O6 0.522966 0.097921 0.287435
O O7 0.500000 0.000000 0.500000
O O8 0.906015 0.798016 0.006961
O O9 0.196435 0.582266 0.913574
O O10 0.139281 0.880716 0.967738
O O11 0.194880 0.184734 0.612303
O O12 0.205655 0.041277 0.817947
O O13 0.541642 0.053055 0.906329
O O14 0.112325 0.696616 0.653938
O O15 0.003051 0.463365 0.710971
O O16 0.179318 0.712807 0.446908
O O17 0.000000 0.000000 0.500000
#
# Coordination Sequence:
#
# PCOD9097196 Si02
#       8
#     2   2   2   2   2   2   2   2
#     4  10  22  39  57  90 138 175 203 246 332 411
#     4  11  22  36  64 102 128 160 211 274 325 384
#     4  10  21  40  66  89 126 164 221 268 317 376
#     4  10  20  36  59  92 128 159 207 268 322 373
#     4  11  22  43  63  95 136 172 201 262 341 394
#     4  11  22  35  66 103 129 162 212 270 328 385
#     4  10  22  39  59  87 141 180 199 247 331 411
#     4   9  21  40  58  92 122 169 215 272 315 368
#
# _framework density 26.059729000000001
#
# number of rings (size 3 to 8) (size 9 to 14) (size 15 to 20)
#    0.000    1.750    0.000    5.250    5.250    0.000 
#   15.750    0.000    0.000   15.000    0.000    0.000 
#    0.000    0.000    0.000    0.000    0.000    0.000 
#
# Total GULP energy -89267.500345 kJ/mol
# GULP energy per Si atom -5579.218772 kJ/mol
# Density = 2.600042 g / cm^3
# Si number density = 26.059729 Si / 1000 Ang^3
#
#
#
# Elastic Constant Matrix: (Units=GPa)
#
#
# Indices 1 2 3 4 5 6 
#
# 1 139.2404 27.1037 25.3388 19.4361 -34.3451 -7.6631
# 2 27.1037 103.6526 7.4661 19.1024 -27.5554 -1.8360
# 3 25.3388 7.4661 82.9023 12.1808 -9.0901 2.1599
# 4 19.4361 19.1024 12.1808 42.6205 -10.3920 -4.9814
# 5 -34.3451 -27.5554 -9.0901 -10.3920 38.2573 3.8997
# 6 -7.6631 -1.8360 2.1599 -4.9814 3.8997 33.6802
#
#
#
# Elastic Compliance Matrix: (Units=1/GPa)
#
#
# Indices 1 2 3 4 5 6 
#
# 1 0.009746 -0.000005 -0.001890 -0.001897 0.007662 0.001171
# 2 -0.000005 0.012466 0.000349 -0.003806 0.008110 -0.000846
# 3 -0.001890 0.000349 0.013217 -0.003028 0.001059 -0.001829
# 4 -0.001897 -0.003806 -0.003028 0.027797 0.002037 0.003430
# 5 0.007662 0.008110 0.001059 0.002037 0.039888 -0.002200
# 6 0.001171 -0.000846 -0.001829 0.003430 -0.002200 0.030791
#
#
# Mechanical properties :
#
#
# Convention : Reuss Voigt Hill
#
# Bulk Modulus (GPa) = 30.92344 49.51251 40.21797
# Shear Modulus (GPa) = 33.83520 40.63738 37.23629
#
# Velocity S-wave (km/s) = 3.60720 3.95320 3.78416
# Velocity P-wave (km/s) = 5.40752 6.31490 5.87874
#
# Compressibility (1/GPa) = 0.03233793
#
# Stress axis : x y z
#
# Youngs Moduli (GPa) = 102.60772 80.21693 75.65863
#
# Poissons Ratio (x) = 0.00041 0.14299
# Poissons Ratio (y) = 0.00052 -0.02643
# Poissons Ratio (z) = 0.19393 -0.02803
#
# Static dielectric constant tensor:
#      x y z
#    x 2.221840 0.012940 -0.024610 
#    y 0.012940 2.097580 0.005270 
#    z -0.024610 0.005270 2.095440 
# 
# From -- ./inp_files/382694.got.cif
#   From: 2010.05.17/outbox.cif.g08.bks.cpg/sg2_192_cif.got.tgz:382694.got - 2010.06.03 11:33:40.
