data_PCOD9097945
_publ_section_title
;
Structure prediction by ZEFSAII (Michael W. Deem and Ramdas Pophale) SiO2 
 PCOD9097945
Probable space group: P -1
;
_chemical_formula_sum "Si O2"
_cell_formula_units_Z 15
_cell_length_a 7.233265
_cell_length_b 19.714375
_cell_length_c 9.200149
_cell_angle_alpha 148.533257
_cell_angle_beta 67.051879
_cell_angle_gamma 117.410183
_cell_volume 607.939915
_symmetry_space_group_name_H-M "P -1"
_symmetry_group_IT_number 2
_symmetry_cell_setting 'triclinic'
loop_
_space_group_symop_operation_xyz
x,y,z
-x,-y,-z
loop_
_atom_site_type_symbol
_atom_site_label
_atom_site_fract_x
_atom_site_fract_y
_atom_site_fract_z
Si Si1 0.464123 0.767059 0.398053
Si Si2 0.290998 0.475440 0.919763
Si Si3 0.882900 0.685374 0.072657
Si Si4 0.748065 0.026120 0.288004
Si Si5 0.000000 0.500000 0.500000
Si Si6 0.225912 0.776104 0.772552
Si Si7 0.195236 0.939912 0.355752
Si Si8 0.124477 0.202487 0.315036
O O1 0.697622 0.755999 0.283195
O O2 0.408095 0.886752 0.549327
O O3 0.409406 0.782485 0.611576
O O4 0.311761 0.624627 0.131151
O O5 0.113926 0.419199 0.990522
O O6 0.251584 0.352872 0.595810
O O7 0.500000 0.500000 0.000000
O O8 0.101613 0.792729 0.188449
O O9 0.853952 0.598002 0.776299
O O10 0.705742 0.981435 0.386059
O O11 0.977001 0.122274 0.344692
O O12 0.735434 0.892054 0.954579
O O13 0.157980 0.632277 0.610204
O O14 0.035530 0.789735 0.751340
O O15 0.266005 0.895386 0.097184
O O16 0.000000 0.000000 0.500000
#
# Coordination Sequence:
#
# PCOD9097945 Si02
#       8
#     2   2   2   2   1   2   2   2
#     4  10  22  40  65  98 133 168 224 276 327 386
#     4  10  20  37  63  94 131 167 216 273 323 379
#     4  10  21  39  65  91 131 170 215 275 325 394
#     4  10  21  38  66  96 129 175 222 271 327 390
#     4  10  20  36  62  94 128 172 214 258 336 396
#     4  10  21  35  65  95 127 166 222 269 327 390
#     4  11  21  40  66  94 130 173 220 265 329 403
#     4  10  20  38  63  97 130 171 228 269 318 398
#
# _framework density 24.673493000000001
#
# number of rings (size 3 to 8) (size 9 to 14) (size 15 to 20)
#    0.000    1.867    4.000    0.000    0.000    4.267 
#    0.000    6.667   11.733    9.600    0.000    0.000 
#    0.000    0.000    0.000    0.000    0.000    0.000 
#
# Total GULP energy -83509.831103 kJ/mol
# GULP energy per Si atom -5567.322074 kJ/mol
# Density = 2.461734 g / cm^3
# Si number density = 24.673493 Si / 1000 Ang^3
#
#
#
# Elastic Constant Matrix: (Units=GPa)
#
#
# Indices 1 2 3 4 5 6 
#
# 1 77.5815 13.2332 59.6646 -16.8881 -2.3590 -3.1789
# 2 13.2332 73.4841 42.8670 -17.6937 13.3496 -0.2885
# 3 59.6646 42.8670 225.5732 -22.3033 -4.5064 -2.4206
# 4 -16.8881 -17.6937 -22.3033 47.7076 12.7085 -4.1350
# 5 -2.3590 13.3496 -4.5064 12.7085 40.7104 -1.0075
# 6 -3.1789 -0.2885 -2.4206 -4.1350 -1.0075 21.5319
#
#
#
# Elastic Compliance Matrix: (Units=1/GPa)
#
#
# Indices 1 2 3 4 5 6 
#
# 1 0.017143 0.000784 -0.004183 0.004983 -0.001209 0.002972
# 2 0.000784 0.018986 -0.003157 0.008375 -0.009114 0.001197
# 3 -0.004183 -0.003157 0.006153 -0.000176 0.001531 0.000070
# 4 0.004983 0.008375 -0.000176 0.029321 -0.011484 0.005922
# 5 -0.001209 -0.009114 0.001531 -0.011484 0.031215 -0.000873
# 6 0.002972 0.001197 0.000070 0.005922 -0.000873 0.048002
#
#
# Mechanical properties :
#
#
# Convention : Reuss Voigt Hill
#
# Bulk Modulus (GPa) = 34.28073 67.57429 50.92751
# Shear Modulus (GPa) = 28.79308 39.38158 34.08733
#
# Velocity S-wave (km/s) = 3.41979 3.99947 3.72093
# Velocity P-wave (km/s) = 5.43297 6.98387 6.25667
#
# Compressibility (1/GPa) = 0.02917091
#
# Stress axis : x y z
#
# Youngs Moduli (GPa) = 58.33452 52.67167 162.51594
#
# Poissons Ratio (x) = -0.04130 0.67977
# Poissons Ratio (y) = -0.04574 0.51298
# Poissons Ratio (z) = 0.24400 0.16626
#
# Static dielectric constant tensor:
#      x y z
#    x 2.046110 0.077910 0.051100 
#    y 0.077910 2.142140 0.020300 
#    z 0.051100 0.020300 2.040610 
# 
# From -- ./inp_files/221464.got.cif
#   From: 2010.05.17/outbox.cif.g08.bks.cpg/sg2_111_cif.got.tgz:221464.got - 2010.06.03 11:33:40.
