data_PCOD9097807
_publ_section_title
;
Structure prediction by ZEFSAII (Michael W. Deem and Ramdas Pophale) SiO2 
 PCOD9097807
Probable space group: P -1
;
_chemical_formula_sum "Si O2"
_cell_formula_units_Z 16
_cell_length_a 6.255654
_cell_length_b 27.101989
_cell_length_c 11.295571
_cell_angle_alpha 143.975110
_cell_angle_beta 120.445637
_cell_angle_gamma 86.240376
_cell_volume 712.914653
_symmetry_space_group_name_H-M "P -1"
_symmetry_group_IT_number 2
_symmetry_cell_setting 'triclinic'
loop_
_space_group_symop_operation_xyz
x,y,z
-x,-y,-z
loop_
_atom_site_type_symbol
_atom_site_label
_atom_site_fract_x
_atom_site_fract_y
_atom_site_fract_z
Si Si1 0.842153 0.456133 0.739426
Si Si2 0.857337 0.285147 0.313024
Si Si3 0.245434 0.066711 0.085934
Si Si4 0.669316 0.982819 0.407449
Si Si5 0.871886 0.787899 0.605329
Si Si6 0.271361 0.618689 0.955546
Si Si7 0.212675 0.431173 0.463765
Si Si8 0.370387 0.971292 0.754631
O O1 0.730231 0.334489 0.449033
O O2 0.529415 0.443727 0.594883
O O3 0.117523 0.546350 0.893488
O O4 0.000000 0.500000 0.000000
O O5 0.138153 0.303203 0.508062
O O6 0.974005 0.350099 0.348052
O O7 0.609853 0.152553 0.956661
O O8 0.248186 0.164884 0.249772
O O9 0.585146 0.102928 0.302880
O O10 0.144842 0.986959 0.791359
O O11 0.000000 0.000000 0.000000
O O12 0.711885 0.060960 0.466164
O O13 0.500000 0.000000 0.500000
O O14 0.000000 0.000000 0.500000
O O15 0.627502 0.737717 0.326920
O O16 0.258004 0.898165 0.892704
O O17 0.326784 0.553296 0.755857
O O18 0.003563 0.617533 0.812410
#
# Coordination Sequence:
#
# PCOD9097807 Si02
#       8
#     2   2   2   2   2   2   2   2
#     4  11  22  39  67  97 129 173 218 275 337 412
#     4  10  24  42  64  96 127 174 223 282 338 411
#     4   9  19  37  62  88 122 166 212 287 337 395
#     4  11  27  44  69 100 139 188 233 288 351 418
#     4  10  20  36  62  88 125 161 226 272 340 402
#     4  10  22  39  59  95 122 172 209 272 332 411
#     4  10  22  41  62  85 137 163 213 270 339 404
#     4   9  21  40  61  91 126 168 223 283 339 408
#
# _framework density 22.443079999999998
#
# number of rings (size 3 to 8) (size 9 to 14) (size 15 to 20)
#    0.000    2.000    0.000    1.875    7.000    7.000 
#    4.500    0.000    0.000    0.000    0.000    0.000 
#    0.000    0.000    0.000    0.000    0.000    0.000 
#
# Total GULP energy -89071.595422 kJ/mol
# GULP energy per Si atom -5566.974714 kJ/mol
# Density = 2.239200 g / cm^3
# Si number density = 22.443080 Si / 1000 Ang^3
#
#
#
# Elastic Constant Matrix: (Units=GPa)
#
#
# Indices 1 2 3 4 5 6 
#
# 1 123.9621 41.9693 39.8945 -15.4144 -26.6048 -15.6148
# 2 41.9693 105.5181 8.9622 -22.3595 -10.5241 -14.1744
# 3 39.8945 8.9622 67.1745 -12.3591 -0.1899 -14.3907
# 4 -15.4144 -22.3595 -12.3591 31.7516 -3.0029 -5.1089
# 5 -26.6048 -10.5241 -0.1899 -3.0029 27.7673 1.8641
# 6 -15.6148 -14.1744 -14.3907 -5.1089 1.8641 41.7187
#
#
#
# Elastic Compliance Matrix: (Units=1/GPa)
#
#
# Indices 1 2 3 4 5 6 
#
# 1 0.015096 -0.002896 -0.007368 0.004033 0.013617 0.002010
# 2 -0.002896 0.013742 0.003118 0.010728 0.003224 0.005831
# 3 -0.007368 0.003118 0.021744 0.007699 -0.005365 0.006985
# 4 0.004033 0.010728 0.007699 0.047260 0.012217 0.013052
# 5 0.013617 0.003224 -0.005365 0.012217 0.051329 0.003544
# 6 0.002010 0.005831 0.006985 0.013052 0.003544 0.030553
#
#
# Mechanical properties :
#
#
# Convention : Reuss Voigt Hill
#
# Bulk Modulus (GPa) = 27.55474 53.14518 40.34996
# Shear Modulus (GPa) = 24.25879 33.96941 29.11410
#
# Velocity S-wave (km/s) = 3.29128 3.89470 3.60563
# Velocity P-wave (km/s) = 5.17181 6.62995 5.94575
#
# Compressibility (1/GPa) = 0.03629140
#
# Stress axis : x y z
#
# Youngs Moduli (GPa) = 66.24393 72.76920 45.98968
#
# Poissons Ratio (x) = 0.21072 0.33884
# Poissons Ratio (y) = 0.19183 -0.14341
# Poissons Ratio (z) = 0.48807 -0.22692
#
# Static dielectric constant tensor:
#      x y z
#    x 1.986210 0.008920 -0.027300 
#    y 0.008920 1.931950 -0.062360 
#    z -0.027300 -0.062360 1.926810 
# 
# From -- ./inp_files/371610.got.cif
#   From: 2010.05.17/outbox.cif.g08.bks.cpg/sg2_186_cif.got.tgz:371610.got - 2010.06.03 11:33:40.
