data_PCOD9097819
_publ_section_title
;
Structure prediction by ZEFSAII (Michael W. Deem and Ramdas Pophale) SiO2 
 PCOD9097819
Probable space group: P -1
;
_chemical_formula_sum "Si O2"
_cell_formula_units_Z 16
_cell_length_a 11.999392
_cell_length_b 16.479869
_cell_length_c 13.265840
_cell_angle_alpha 33.640462
_cell_angle_beta 130.329260
_cell_angle_gamma 150.802393
_cell_volume 677.503185
_symmetry_space_group_name_H-M "P -1"
_symmetry_group_IT_number 2
_symmetry_cell_setting 'triclinic'
loop_
_space_group_symop_operation_xyz
x,y,z
-x,-y,-z
loop_
_atom_site_type_symbol
_atom_site_label
_atom_site_fract_x
_atom_site_fract_y
_atom_site_fract_z
Si Si1 0.114641 0.598365 0.699937
Si Si2 0.142303 0.110681 0.363758
Si Si3 0.227874 0.158401 0.765058
Si Si4 0.456112 0.058128 0.277931
Si Si5 0.345508 0.572760 0.403994
Si Si6 0.544337 0.611715 0.019835
Si Si7 0.445236 0.777983 0.448866
Si Si8 0.943572 0.702780 0.175966
O O1 0.263347 0.714615 0.768679
O O2 0.083512 0.415011 0.820380
O O3 0.871657 0.492288 0.678743
O O4 0.295136 0.828540 0.493655
O O5 0.306469 0.385289 0.175139
O O6 0.342553 0.135106 0.451850
O O7 0.000000 0.000000 0.500000
O O8 0.969256 0.982722 0.296335
O O9 0.248976 0.340703 0.628149
O O10 0.483475 0.323372 0.696243
O O11 0.169092 0.985078 0.990473
O O12 0.433262 0.943301 0.282771
O O13 0.383552 0.164020 0.156350
O O14 0.498656 0.770985 0.375174
O O15 0.759580 0.686528 0.106333
O O16 0.500000 0.500000 0.000000
O O17 0.174072 0.504766 0.597894
#
# Coordination Sequence:
#
# PCOD9097819 Si02
#       8
#     2   2   2   2   2   2   2   2
#     4  10  20  36  62  89 120 157 195 242 298 356
#     4  11  21  39  65  89 121 155 196 252 296 347
#     4  11  22  40  63  86 118 164 201 241 293 358
#     4  10  20  36  63  92 116 152 201 248 295 347
#     4  11  24  39  59  86 123 165 197 237 301 357
#     4  11  19  35  66  94 113 145 207 252 290 347
#     4  10  23  39  61  91 123 155 196 249 297 346
#     4  10  21  37  64  89 118 152 203 248 292 348
#
# _framework density 23.616123999999999
#
# number of rings (size 3 to 8) (size 9 to 14) (size 15 to 20)
#    0.000    1.500    3.750    1.500    1.750    3.000 
#    0.000    3.125    2.750    0.000    0.000    0.000 
#    0.000    0.000    0.000    0.000    0.000    0.000 
#
# Total GULP energy -89184.239059 kJ/mol
# GULP energy per Si atom -5574.014941 kJ/mol
# Density = 2.356237 g / cm^3
# Si number density = 23.616124 Si / 1000 Ang^3
#
#
#
# Elastic Constant Matrix: (Units=GPa)
#
#
# Indices 1 2 3 4 5 6 
#
# 1 94.1486 25.5498 46.9481 -2.8078 23.4711 1.7967
# 2 25.5498 79.2367 4.3007 8.8089 10.5673 24.6747
# 3 46.9481 4.3007 101.8160 -11.6353 30.9697 3.9056
# 4 -2.8078 8.8089 -11.6353 24.3360 4.9661 4.9265
# 5 23.4711 10.5673 30.9697 4.9661 53.0202 -5.6509
# 6 1.7967 24.6747 3.9056 4.9265 -5.6509 36.4481
#
#
#
# Elastic Compliance Matrix: (Units=1/GPa)
#
#
# Indices 1 2 3 4 5 6 
#
# 1 0.015821 -0.005626 -0.006646 0.000328 -0.001665 0.003438
# 2 -0.005626 0.019353 0.003433 -0.002322 -0.004603 -0.013592
# 3 -0.006646 0.003433 0.016810 0.009193 -0.009110 -0.006453
# 4 0.000328 -0.002322 0.009193 0.050112 -0.010582 -0.007843
# 5 -0.001665 -0.004603 -0.009110 -0.010582 0.027886 0.009928
# 6 0.003438 -0.013592 -0.006453 -0.007843 0.009928 0.039759
#
#
# Mechanical properties :
#
#
# Convention : Reuss Voigt Hill
#
# Bulk Modulus (GPa) = 29.14910 47.64427 38.39668
# Shear Modulus (GPa) = 25.14397 35.98769 30.56583
#
# Velocity S-wave (km/s) = 3.26651 3.90790 3.60151
# Velocity P-wave (km/s) = 5.15717 6.37028 5.79556
#
# Compressibility (1/GPa) = 0.03430638
#
# Stress axis : x y z
#
# Youngs Moduli (GPa) = 63.20521 51.67222 59.48799
#
# Poissons Ratio (x) = 0.29071 0.39534
# Poissons Ratio (y) = 0.35560 -0.20421
# Poissons Ratio (z) = 0.42004 -0.17738
#
# Static dielectric constant tensor:
#      x y z
#    x 1.865480 -0.013020 0.004700 
#    y -0.013020 2.031130 0.043830 
#    z 0.004700 0.043830 1.957880 
# 
# From -- ./inp_files/404596.got.cif
#   From: 2010.05.17/outbox.cif.g08.bks.cpg/sg2_203_cif.got.tgz:404596.got - 2010.06.03 11:33:40.
