data_PCOD9097620
_publ_section_title
;
Structure prediction by ZEFSAII (Michael W. Deem and Ramdas Pophale) SiO2 
 PCOD9097620
Probable space group: P -1
;
_chemical_formula_sum "Si O2"
_cell_formula_units_Z 14
_cell_length_a 10.497633
_cell_length_b 11.166671
_cell_length_c 8.702359
_cell_angle_alpha 37.473426
_cell_angle_beta 85.939831
_cell_angle_gamma 97.792341
_cell_volume 587.353775
_symmetry_space_group_name_H-M "P -1"
_symmetry_group_IT_number 2
_symmetry_cell_setting 'triclinic'
loop_
_space_group_symop_operation_xyz
x,y,z
-x,-y,-z
loop_
_atom_site_type_symbol
_atom_site_label
_atom_site_fract_x
_atom_site_fract_y
_atom_site_fract_z
Si Si1 0.037811 0.714116 0.684935
Si Si2 0.496421 0.278447 0.863382
Si Si3 0.196402 0.134706 0.313321
Si Si4 0.760963 0.593191 0.253056
Si Si5 0.353822 0.317283 0.387456
Si Si6 0.074517 0.215939 0.686082
Si Si7 0.405174 0.820004 0.366074
O O1 0.922214 0.813095 0.640565
O O2 0.017150 0.714977 0.500999
O O3 0.170050 0.889593 0.558345
O O4 0.000000 0.500000 0.000000
O O5 0.381465 0.374922 0.716038
O O6 0.589235 0.442516 0.807524
O O7 0.580779 0.216828 0.781844
O O8 0.412397 0.052207 0.165412
O O9 0.326552 0.272426 0.254974
O O10 0.183924 0.219978 0.059310
O O11 0.863698 0.615156 0.358944
O O12 0.722970 0.377564 0.383538
O O13 0.213005 0.209837 0.597612
O O14 0.465067 0.216137 0.532986
O O15 0.000000 0.000000 0.000000
#
# Coordination Sequence:
#
# PCOD9097620 Si02
#       7
#     2   2   2   2   2   2   2
#     4  10  23  43  60  86 126 169 209 252 302 364
#     4  10  20  36  61  90 122 155 202 258 304 361
#     4  10  23  39  61  86 128 164 201 251 317 360
#     4  11  20  40  61  92 122 157 203 257 299 368
#     4  10  20  39  61  86 122 164 198 248 311 369
#     4  11  20  38  68  87 119 166 205 252 304 356
#     4  10  20  36  61  91 119 156 206 251 309 359
#
# _framework density 23.835719999999998
#
# number of rings (size 3 to 8) (size 9 to 14) (size 15 to 20)
#    0.000    1.714    4.286    0.857    0.000    5.714 
#    0.000    2.143    0.000    0.000    0.000    0.000 
#    0.000    0.000    0.000    0.000    0.000    0.000 
#
# Total GULP energy -78138.217448 kJ/mol
# GULP energy per Si atom -5581.301246 kJ/mol
# Density = 2.378147 g / cm^3
# Si number density = 23.835720 Si / 1000 Ang^3
#
#
#
# Elastic Constant Matrix: (Units=GPa)
#
#
# Indices 1 2 3 4 5 6 
#
# 1 59.6409 41.2159 13.4945 -12.0868 8.8687 15.2050
# 2 41.2159 153.8399 63.9085 -20.8484 22.3643 32.2082
# 3 13.4945 63.9085 141.1556 -34.7797 11.2250 14.1611
# 4 -12.0868 -20.8484 -34.7797 51.8890 -5.6730 1.8547
# 5 8.8687 22.3643 11.2250 -5.6730 34.9426 3.7150
# 6 15.2050 32.2082 14.1611 1.8547 3.7150 41.1351
#
#
#
# Elastic Compliance Matrix: (Units=1/GPa)
#
#
# Indices 1 2 3 4 5 6 
#
# 1 0.022106 -0.004712 0.001774 0.004420 -0.001903 -0.005120
# 2 -0.004712 0.011026 -0.003502 0.000734 -0.004048 -0.005354
# 3 0.001774 -0.003502 0.010123 0.005812 -0.000344 -0.001630
# 4 0.004420 0.000734 0.005812 0.024812 0.001147 -0.005432
# 5 -0.001903 -0.004048 -0.000344 0.001147 0.031876 0.001061
# 6 -0.005120 -0.005354 -0.001630 -0.005432 0.001061 0.031105
#
#
# Mechanical properties :
#
#
# Convention : Reuss Voigt Hill
#
# Bulk Modulus (GPa) = 32.92072 65.76380 49.34226
# Shear Modulus (GPa) = 32.45650 41.32785 36.89218
#
# Velocity S-wave (km/s) = 3.69409 4.16848 3.93844
# Velocity P-wave (km/s) = 5.66009 7.12872 6.43643
#
# Compressibility (1/GPa) = 0.03037601
#
# Stress axis : x y z
#
# Youngs Moduli (GPa) = 45.23682 90.69313 98.78340
#
# Poissons Ratio (x) = 0.42734 -0.17525
# Poissons Ratio (y) = 0.21315 0.34591
# Poissons Ratio (z) = -0.08025 0.31758
#
# Static dielectric constant tensor:
#      x y z
#    x 1.936590 -0.043690 -0.134950 
#    y -0.043690 2.003590 0.038800 
#    z -0.134950 0.038800 2.035930 
# 
# From -- ./inp_files/255959.got.cif
#   From: 2010.05.17/outbox.cif.g08.bks.cpg/sg2_128_cif.got.tgz:255959.got - 2010.06.03 11:33:40.
