data_PCOD9097372
_publ_section_title
;
Structure prediction by ZEFSAII (Michael W. Deem and Ramdas Pophale) SiO2 
 PCOD9097372
Probable space group: P -1
;
_chemical_formula_sum "Si O2"
_cell_formula_units_Z 14
_cell_length_a 9.301444
_cell_length_b 9.143255
_cell_length_c 23.534287
_cell_angle_alpha 144.392184
_cell_angle_beta 147.457533
_cell_angle_gamma 47.683850
_cell_volume 626.388910
_symmetry_space_group_name_H-M "P -1"
_symmetry_group_IT_number 2
_symmetry_cell_setting 'triclinic'
loop_
_space_group_symop_operation_xyz
x,y,z
-x,-y,-z
loop_
_atom_site_type_symbol
_atom_site_label
_atom_site_fract_x
_atom_site_fract_y
_atom_site_fract_z
Si Si1 0.082204 0.651854 0.132634
Si Si2 0.251691 0.367064 0.806234
Si Si3 0.213776 0.306503 0.280933
Si Si4 0.211805 0.647699 0.490160
Si Si5 0.100129 0.126433 0.015401
Si Si6 0.627634 0.859448 0.109343
Si Si7 0.327289 0.167645 0.640489
O O1 0.383972 0.757099 0.262844
O O2 0.876403 0.856664 0.148775
O O3 0.000000 0.500000 0.000000
O O4 0.059716 0.420217 0.096176
O O5 0.281340 0.166614 0.803067
O O6 0.309283 0.260639 0.729416
O O7 0.969095 0.501094 0.752529
O O8 0.463786 0.597336 0.959407
O O9 0.198484 0.393499 0.368958
O O10 0.526062 0.333093 0.377424
O O11 0.082832 0.028733 0.140395
O O12 0.920492 0.709663 0.435597
O O13 0.272337 0.870454 0.534251
O O14 0.411532 0.069138 0.092920
O O15 0.000000 0.000000 0.000000
#
# Coordination Sequence:
#
# PCOD9097372 Si02
#       7
#     2   2   2   2   2   2   2
#     4  12  23  38  61  98 132 158 200 269 320 361
#     4   9  17  35  58  83 119 158 202 247 300 385
#     4   9  18  34  58  89 113 155 217 247 295 367
#     4   9  19  36  57  87 120 166 205 260 297 367
#     4  11  24  40  66  95 128 168 203 251 324 386
#     4  10  21  37  56  90 128 164 193 242 326 377
#     4  10  20  36  60  89 122 158 213 255 310 361
#
# _framework density 22.350332000000002
#
# number of rings (size 3 to 8) (size 9 to 14) (size 15 to 20)
#    0.000    2.000    1.429    3.429    2.000    0.571 
#    7.714    0.000    0.000   17.143    0.000    0.000 
#    0.000    0.000    0.000    0.000    0.000    0.000 
#
# Total GULP energy -78228.205232 kJ/mol
# GULP energy per Si atom -5587.728945 kJ/mol
# Density = 2.229946 g / cm^3
# Si number density = 22.350332 Si / 1000 Ang^3
#
#
#
# Elastic Constant Matrix: (Units=GPa)
#
#
# Indices 1 2 3 4 5 6 
#
# 1 67.3092 16.0080 27.7889 -19.5355 13.2470 -17.7324
# 2 16.0080 56.8275 33.8266 -23.6475 7.2071 -25.0834
# 3 27.7889 33.8266 106.5454 -27.9807 24.6210 -15.1051
# 4 -19.5355 -23.6475 -27.9807 46.4652 -17.8729 12.5158
# 5 13.2470 7.2071 24.6210 -17.8729 29.7411 -9.6247
# 6 -17.7324 -25.0834 -15.1051 12.5158 -9.6247 34.2198
#
#
#
# Elastic Compliance Matrix: (Units=1/GPa)
#
#
# Indices 1 2 3 4 5 6 
#
# 1 0.019368 0.002076 -0.003052 0.004733 -0.001116 0.008166
# 2 0.002076 0.035329 -0.008062 0.012625 0.011945 0.022156
# 3 -0.003052 -0.008062 0.014596 0.000800 -0.009597 -0.004040
# 4 0.004733 0.012625 0.000800 0.035953 0.016968 0.003683
# 5 -0.001116 0.011945 -0.009597 0.016968 0.053505 0.012784
# 6 0.008166 0.022156 -0.004040 0.003683 0.012784 0.050160
#
#
# Mechanical properties :
#
#
# Convention : Reuss Voigt Hill
#
# Bulk Modulus (GPa) = 19.52422 42.88103 31.20263
# Shear Modulus (GPa) = 20.48680 32.28913 26.38797
#
# Velocity S-wave (km/s) = 3.03086 3.80502 3.43979
# Velocity P-wave (km/s) = 4.58287 6.20740 5.45593
#
# Compressibility (1/GPa) = 0.05121843
#
# Stress axis : x y z
#
# Youngs Moduli (GPa) = 51.63252 28.30511 68.51038
#
# Poissons Ratio (x) = -0.05877 0.20910
# Poissons Ratio (y) = -0.10721 0.55231
# Poissons Ratio (z) = 0.15759 0.22819
#
# Static dielectric constant tensor:
#      x y z
#    x 1.861840 -0.001820 -0.025520 
#    y -0.001820 1.886450 -0.063030 
#    z -0.025520 -0.063030 1.861730 
# 
# From -- ./inp_files/392148.got.cif
#   From: 2010.05.17/outbox.cif.g08.bks.cpg/sg2_197_cif.got.tgz:392148.got - 2010.06.03 11:33:40.
