data_PCOD9097560
_publ_section_title
;
Structure prediction by ZEFSAII (Michael W. Deem and Ramdas Pophale) SiO2 
 PCOD9097560
Probable space group: P -1
;
_chemical_formula_sum "Si O2"
_cell_formula_units_Z 16
_cell_length_a 8.588990
_cell_length_b 10.466710
_cell_length_c 13.575928
_cell_angle_alpha 147.187895
_cell_angle_beta 79.732622
_cell_angle_gamma 89.462071
_cell_volume 621.077351
_symmetry_space_group_name_H-M "P -1"
_symmetry_group_IT_number 2
_symmetry_cell_setting 'triclinic'
loop_
_space_group_symop_operation_xyz
x,y,z
-x,-y,-z
loop_
_atom_site_type_symbol
_atom_site_label
_atom_site_fract_x
_atom_site_fract_y
_atom_site_fract_z
Si Si1 0.730319 0.296442 0.380919
Si Si2 0.790721 0.498080 0.297304
Si Si3 0.371003 0.172264 0.199932
Si Si4 0.924037 0.987011 0.893864
Si Si5 0.690590 0.796671 0.122425
Si Si6 0.332487 0.969903 0.291723
Si Si7 0.968089 0.874898 0.285334
Si Si8 0.897562 0.387458 0.701211
O O1 0.720909 0.392127 0.331615
O O2 0.639050 0.542020 0.609007
O O3 0.926943 0.160554 0.288507
O O4 0.657757 0.072437 0.260958
O O5 0.688342 0.783644 0.479573
O O6 0.970203 0.527302 0.321734
O O7 0.829256 0.276437 0.069424
O O8 0.196861 0.169823 0.176900
O O9 0.353874 0.056175 0.233627
O O10 0.500000 0.000000 0.000000
O O11 0.000000 0.000000 0.000000
O O12 0.851089 0.768371 0.157628
O O13 0.514680 0.786340 0.178767
O O14 0.747753 0.604515 0.901943
O O15 0.161591 0.888561 0.257513
O O16 0.994416 0.723738 0.285680
O O17 0.859832 0.156913 0.505129
#
# Coordination Sequence:
#
# PCOD9097560 Si02
#       8
#     2   2   2   2   2   2   2   2
#     4  10  22  38  64  93 134 173 219 265 331 407
#     4   9  20  40  64  94 134 173 214 276 335 397
#     4  11  25  38  58  94 138 178 217 276 333 400
#     4  10  20  36  61  87 125 174 218 263 323 395
#     4  12  24  41  70 101 133 183 225 276 342 409
#     4  10  25  42  64  98 139 171 227 280 336 406
#     4  10  24  49  69  97 135 178 225 293 338 396
#     4  10  22  45  73  97 131 177 234 280 342 405
#
# _framework density 25.761686999999998
#
# number of rings (size 3 to 8) (size 9 to 14) (size 15 to 20)
#    0.000    1.750    1.250    1.500    5.250    6.500 
#    0.000    5.625    0.000    0.000    0.000    0.000 
#    0.000    0.000    0.000    0.000    0.000    0.000 
#
# Total GULP energy -89301.365220 kJ/mol
# GULP energy per Si atom -5581.335326 kJ/mol
# Density = 2.570305 g / cm^3
# Si number density = 25.761687 Si / 1000 Ang^3
#
#
#
# Elastic Constant Matrix: (Units=GPa)
#
#
# Indices 1 2 3 4 5 6 
#
# 1 149.6723 26.1812 46.0618 -5.3341 -21.4280 18.5322
# 2 26.1812 62.1536 5.1147 -5.1062 2.1596 2.9695
# 3 46.0618 5.1147 195.6882 -0.5187 -19.4478 13.4981
# 4 -5.3341 -5.1062 -0.5187 24.3853 5.9240 4.7753
# 5 -21.4280 2.1596 -19.4478 5.9240 38.0741 -9.2167
# 6 18.5322 2.9695 13.4981 4.7753 -9.2167 18.7787
#
#
#
# Elastic Compliance Matrix: (Units=1/GPa)
#
#
# Indices 1 2 3 4 5 6 
#
# 1 0.008906 -0.003275 -0.001291 0.001858 0.002675 -0.006502
# 2 -0.003275 0.018141 0.000090 0.004714 -0.004287 -0.003004
# 3 -0.001291 0.000090 0.005719 -0.000185 0.001747 -0.001946
# 4 0.001858 0.004714 -0.000185 0.049434 -0.012078 -0.020945
# 5 0.002675 -0.004287 0.001747 -0.012078 0.034895 0.016980
# 6 -0.006502 -0.003004 -0.001946 -0.020945 0.016980 0.075203
#
#
# Mechanical properties :
#
#
# Convention : Reuss Voigt Hill
#
# Bulk Modulus (GPa) = 41.99142 62.46996 52.23069
# Shear Modulus (GPa) = 23.90202 38.25804 31.08003
#
# Velocity S-wave (km/s) = 3.04931 3.85785 3.47716
# Velocity P-wave (km/s) = 5.36032 6.64423 6.03651
#
# Compressibility (1/GPa) = 0.02381439
#
# Stress axis : x y z
#
# Youngs Moduli (GPa) = 112.28538 55.12396 174.85091
#
# Poissons Ratio (x) = 0.18052 0.22580
# Poissons Ratio (y) = 0.36771 -0.01581
# Poissons Ratio (z) = 0.14501 -0.00498
#
# Static dielectric constant tensor:
#      x y z
#    x 2.144640 -0.145330 0.052200 
#    y -0.145330 2.209280 -0.102550 
#    z 0.052200 -0.102550 2.204000 
# 
# From -- ./inp_files/501110.got.cif
#   From: 2010.05.17/outbox.cif.g08.bks.cpg/sg2_251_cif.got.tgz:501110.got - 2010.06.03 11:33:40.
