data_PCOD9097728
_publ_section_title
;
Structure prediction by ZEFSAII (Michael W. Deem and Ramdas Pophale) SiO2 
 PCOD9097728
Probable space group: P -1
;
_chemical_formula_sum "Si O2"
_cell_formula_units_Z 16
_cell_length_a 18.158765
_cell_length_b 21.378440
_cell_length_c 12.056040
_cell_angle_alpha 38.375109
_cell_angle_beta 151.757911
_cell_angle_gamma 160.409824
_cell_volume 710.665590
_symmetry_space_group_name_H-M "P -1"
_symmetry_group_IT_number 2
_symmetry_cell_setting 'triclinic'
loop_
_space_group_symop_operation_xyz
x,y,z
-x,-y,-z
loop_
_atom_site_type_symbol
_atom_site_label
_atom_site_fract_x
_atom_site_fract_y
_atom_site_fract_z
Si Si1 0.516856 0.111695 0.663753
Si Si2 0.049055 0.001863 0.823104
Si Si3 0.447478 0.082088 0.081877
Si Si4 0.087411 0.247728 0.546502
Si Si5 0.110052 0.708081 0.427236
Si Si6 0.345489 0.382624 0.076978
Si Si7 0.446363 0.746184 0.684825
Si Si8 0.213521 0.714568 0.979301
O O1 0.568031 0.238718 0.484081
O O2 0.678059 0.100794 0.846995
O O3 0.605518 0.174256 0.821283
O O4 0.158985 0.894151 0.484491
O O5 0.746149 0.779182 0.774059
O O6 0.041741 0.113353 0.616084
O O7 0.218763 0.028826 0.916962
O O8 0.255487 0.123135 0.039743
O O9 0.744896 0.237802 0.337627
O O10 0.566595 0.176312 0.986587
O O11 0.420574 0.445672 0.760863
O O12 0.981058 0.290229 0.284600
O O13 0.361893 0.807298 0.540639
O O14 0.815008 0.478311 0.328645
O O15 0.982811 0.747723 0.184868
O O16 0.500000 0.500000 0.000000
O O17 0.000000 0.500000 0.000000
#
# Coordination Sequence:
#
# PCOD9097728 Si02
#       8
#     2   2   2   2   2   2   2   2
#     4  11  23  42  70  90 131 175 232 275 324 398
#     4  11  24  42  68 101 144 175 213 281 347 397
#     4  10  21  43  67  97 132 182 227 272 331 403
#     4  11  25  43  65 102 133 169 227 278 340 401
#     4  10  20  36  61  99 135 169 222 261 327 411
#     4  12  24  37  63 100 145 176 217 271 344 401
#     4  10  20  37  65  96 131 177 215 269 328 397
#     4  11  25  48  74  96 124 178 239 281 328 399
#
# _framework density 22.514104
#
# number of rings (size 3 to 8) (size 9 to 14) (size 15 to 20)
#    0.000    1.250    1.250    6.000    3.500    3.000 
#    2.250    3.125    0.000    0.000    0.000    0.000 
#    0.000    0.000    0.000    0.000    0.000    0.000 
#
# Total GULP energy -89298.329266 kJ/mol
# GULP energy per Si atom -5581.145579 kJ/mol
# Density = 2.246286 g / cm^3
# Si number density = 22.514104 Si / 1000 Ang^3
#
#
#
# Elastic Constant Matrix: (Units=GPa)
#
#
# Indices 1 2 3 4 5 6 
#
# 1 123.3159 29.3031 52.7049 -15.8260 6.3901 -15.2508
# 2 29.3031 128.1991 37.0194 -7.8185 5.1356 -7.7527
# 3 52.7049 37.0194 95.5070 -5.5085 5.1337 -3.3881
# 4 -15.8260 -7.8185 -5.5085 35.1372 -6.9359 -5.0954
# 5 6.3901 5.1356 5.1337 -6.9359 45.4292 -9.3244
# 6 -15.2508 -7.7527 -3.3881 -5.0954 -9.3244 25.8330
#
#
#
# Elastic Compliance Matrix: (Units=1/GPa)
#
#
# Indices 1 2 3 4 5 6 
#
# 1 0.012594 -0.000247 -0.006290 0.006159 0.001618 0.008335
# 2 -0.000247 0.009033 -0.003179 0.001807 0.000176 0.002568
# 3 -0.006290 -0.003179 0.015009 -0.002012 -0.001506 -0.003639
# 4 0.006159 0.001807 -0.002012 0.034676 0.007191 0.013350
# 5 0.001618 0.000176 -0.001506 0.007191 0.025370 0.011386
# 6 0.008335 0.002568 -0.003639 0.013350 0.011386 0.050667
#
#
# Mechanical properties :
#
#
# Convention : Reuss Voigt Hill
#
# Bulk Modulus (GPa) = 58.12656 65.00854 61.56755
# Shear Modulus (GPa) = 28.98269 36.47951 32.73110
#
# Velocity S-wave (km/s) = 3.59181 4.02966 3.81702
# Velocity P-wave (km/s) = 6.56318 7.11253 6.84337
#
# Compressibility (1/GPa) = 0.01720384
#
# Stress axis : x y z
#
# Youngs Moduli (GPa) = 79.40467 110.70056 66.62463
#
# Poissons Ratio (x) = 0.02740 0.41906
# Poissons Ratio (y) = 0.01965 0.21180
# Poissons Ratio (z) = 0.49945 0.35191
#
# Static dielectric constant tensor:
#      x y z
#    x 1.912830 -0.024390 0.050580 
#    y -0.024390 1.867410 -0.048480 
#    z 0.050580 -0.048480 1.873800 
# 
# From -- ./inp_files/467104.got.cif
#   From: 2010.05.17/outbox.cif.g08.bks.cpg/sg2_234_cif.got.tgz:467104.got - 2010.06.03 11:33:40.
