data_PCOD9097960
_publ_section_title
;
Structure prediction by ZEFSAII (Michael W. Deem and Ramdas Pophale) SiO2 
 PCOD9097960
Probable space group: P -1
;
_chemical_formula_sum "Si O2"
_cell_formula_units_Z 16
_cell_length_a 12.159574
_cell_length_b 14.334441
_cell_length_c 8.127821
_cell_angle_alpha 84.042661
_cell_angle_beta 58.627502
_cell_angle_gamma 133.371398
_cell_volume 588.227614
_symmetry_space_group_name_H-M "P -1"
_symmetry_group_IT_number 2
_symmetry_cell_setting 'triclinic'
loop_
_space_group_symop_operation_xyz
x,y,z
-x,-y,-z
loop_
_atom_site_type_symbol
_atom_site_label
_atom_site_fract_x
_atom_site_fract_y
_atom_site_fract_z
Si Si1 0.081752 0.177088 0.500919
Si Si2 0.424356 0.090594 0.158225
Si Si3 0.472855 0.666856 0.794934
Si Si4 0.304285 0.811977 0.364719
Si Si5 0.092108 0.388482 0.590395
Si Si6 0.294741 0.183437 0.942510
Si Si7 0.937995 0.296833 0.098573
Si Si8 0.132543 0.962634 0.802665
O O1 0.371826 0.318074 0.236831
O O2 0.096570 0.277707 0.589220
O O3 0.889763 0.095742 0.524212
O O4 0.882951 0.966084 0.741796
O O5 0.594666 0.284626 0.053718
O O6 0.460159 0.009650 0.214488
O O7 0.495882 0.126514 0.902911
O O8 0.679761 0.849107 0.481445
O O9 0.227920 0.474691 0.920115
O O10 0.070878 0.677769 0.431712
O O11 0.211049 0.734869 0.638830
O O12 0.397282 0.611320 0.308818
O O13 0.982171 0.350889 0.862315
O O14 0.204122 0.048907 0.907205
O O15 0.167989 0.200606 0.975691
O O16 0.816859 0.115501 0.228144
#
# Coordination Sequence:
#
# PCOD9097960 Si02
#       8
#     2   2   2   2   2   2   2   2
#     4  10  22  39  66  98 132 171 214 270 332 388
#     4  10  22  47  66  90 136 174 218 275 323 383
#     4  11  22  38  67 100 129 172 217 266 333 395
#     4  10  25  46  68  94 132 176 222 274 315 380
#     4  11  23  42  65 101 132 171 221 265 324 390
#     4  10  20  36  62  95 137 174 210 269 329 389
#     4  12  23  41  68  99 132 175 215 268 329 383
#     4  10  20  37  60  97 137 171 214 267 328 392
#
# _framework density 27.200358999999999
#
# number of rings (size 3 to 8) (size 9 to 14) (size 15 to 20)
#    0.000    1.500    3.750    1.125    1.750    1.500 
#    0.000    9.375    0.000    0.000    0.000    0.000 
#    0.000    0.000    0.000    0.000    0.000    0.000 
#
# Total GULP energy -89394.630014 kJ/mol
# GULP energy per Si atom -5587.164376 kJ/mol
# Density = 2.713845 g / cm^3
# Si number density = 27.200359 Si / 1000 Ang^3
#
#
#
# Elastic Constant Matrix: (Units=GPa)
#
#
# Indices 1 2 3 4 5 6 
#
# 1 74.9419 36.0203 31.7374 -7.1322 -14.5912 7.0057
# 2 36.0203 136.9645 54.0229 8.2310 -12.2749 5.7203
# 3 31.7374 54.0229 126.8314 6.2407 1.3440 18.0396
# 4 -7.1322 8.2310 6.2407 64.8875 13.5724 -4.4276
# 5 -14.5912 -12.2749 1.3440 13.5724 43.6960 -6.2686
# 6 7.0057 5.7203 18.0396 -4.4276 -6.2686 34.6793
#
#
#
# Elastic Compliance Matrix: (Units=1/GPa)
#
#
# Indices 1 2 3 4 5 6 
#
# 1 0.017131 -0.002968 -0.003098 0.001606 0.004433 -0.000353
# 2 -0.002968 0.009747 -0.003503 -0.001683 0.002529 0.001056
# 3 -0.003098 -0.003503 0.010941 -0.000696 -0.002870 -0.005095
# 4 0.001606 -0.001683 -0.000696 0.017017 -0.004973 0.001589
# 5 0.004433 0.002529 -0.002870 -0.004973 0.027353 0.004490
# 6 -0.000353 0.001056 -0.005095 0.001589 0.004490 0.032398
#
#
# Mechanical properties :
#
#
# Convention : Reuss Voigt Hill
#
# Bulk Modulus (GPa) = 53.53142 64.69987 59.11565
# Shear Modulus (GPa) = 35.72625 43.11637 39.42131
#
# Velocity S-wave (km/s) = 3.62808 3.98570 3.81109
# Velocity P-wave (km/s) = 6.10523 6.70963 6.41455
#
# Compressibility (1/GPa) = 0.01868062
#
# Stress axis : x y z
#
# Youngs Moduli (GPa) = 58.37309 102.59438 91.39560
#
# Poissons Ratio (x) = 0.30447 0.28319
# Poissons Ratio (y) = 0.17323 0.32019
# Poissons Ratio (z) = 0.18087 0.35943
#
# Static dielectric constant tensor:
#      x y z
#    x 2.242790 0.044490 -0.033340 
#    y 0.044490 2.127850 0.156160 
#    z -0.033340 0.156160 2.290760 
# 
# From -- ./inp_files/315394.got.cif
#   From: 2010.05.17/outbox.cif.g08.bks.cpg/sg2_158_cif.got.tgz:315394.got - 2010.06.03 11:33:40.
