data_PCOD9097127
_publ_section_title
;
Structure prediction by ZEFSAII (Michael W. Deem and Ramdas Pophale) SiO2 
 PCOD9097127
Probable space group: P -1
;
_chemical_formula_sum "Si O2"
_cell_formula_units_Z 14
_cell_length_a 14.651832
_cell_length_b 10.167947
_cell_length_c 11.553458
_cell_angle_alpha 29.043522
_cell_angle_beta 43.761113
_cell_angle_gamma 48.762816
_cell_volume 575.971945
_symmetry_space_group_name_H-M "P -1"
_symmetry_group_IT_number 2
_symmetry_cell_setting 'triclinic'
loop_
_space_group_symop_operation_xyz
x,y,z
-x,-y,-z
loop_
_atom_site_type_symbol
_atom_site_label
_atom_site_fract_x
_atom_site_fract_y
_atom_site_fract_z
Si Si1 0.749763 0.624480 0.935997
Si Si2 0.727902 0.217159 0.905784
Si Si3 0.021385 0.666240 0.734939
Si Si4 0.432654 0.202472 0.223097
Si Si5 0.489535 0.635616 0.549194
Si Si6 0.707158 0.775113 0.435148
Si Si7 0.705284 0.187864 0.681283
O O1 0.907197 0.564762 0.835469
O O2 0.680607 0.624011 0.875709
O O3 0.728144 0.915519 0.796107
O O4 0.659737 0.435424 0.236942
O O5 0.790819 0.502664 0.611714
O O6 0.717898 0.109389 0.866213
O O7 0.578556 0.303452 0.024820
O O8 0.777733 0.987580 0.128145
O O9 0.174629 0.621646 0.596004
O O10 0.000000 0.000000 0.500000
O O11 0.000000 0.500000 0.000000
O O12 0.367385 0.102025 0.477410
O O13 0.470511 0.950762 0.294229
O O14 0.589819 0.669201 0.542679
O O15 0.571059 0.368384 0.628874
#
# Coordination Sequence:
#
# PCOD9097127 Si02
#       7
#     2   2   2   2   2   2   2
#     4  11  23  38  61  93 124 158 206 252 309 361
#     4  10  20  36  59  88 119 166 196 249 302 357
#     4  10  25  45  62  83 123 174 203 240 303 377
#     4  11  22  35  60  95 126 158 204 256 305 362
#     4  10  21  35  62  91 122 161 196 261 299 353
#     4  10  21  37  58  92 126 160 202 246 308 362
#     4  10  22  42  60  90 126 161 205 250 310 372
#
# _framework density 24.306739
#
# number of rings (size 3 to 8) (size 9 to 14) (size 15 to 20)
#    0.000    1.714    2.857    2.571    6.000    7.429 
#    0.000    0.000    0.000    4.286    0.000    1.000 
#    0.000    0.000    0.000    0.000    0.000    0.000 
#
# Total GULP energy -78022.141979 kJ/mol
# GULP energy per Si atom -5573.010141 kJ/mol
# Density = 2.425142 g / cm^3
# Si number density = 24.306739 Si / 1000 Ang^3
#
#
#
# Elastic Constant Matrix: (Units=GPa)
#
#
# Indices 1 2 3 4 5 6 
#
# 1 65.7046 5.4540 29.1005 5.1867 1.1937 -1.5399
# 2 5.4540 36.0649 7.4582 -8.6996 3.9771 16.4209
# 3 29.1005 7.4582 157.2405 -2.4190 15.5024 -15.6249
# 4 5.1867 -8.6996 -2.4190 34.6414 -5.7643 7.5310
# 5 1.1937 3.9771 15.5024 -5.7643 49.1450 5.5704
# 6 -1.5399 16.4209 -15.6249 7.5310 5.5704 29.1796
#
#
#
# Elastic Compliance Matrix: (Units=1/GPa)
#
#
# Indices 1 2 3 4 5 6 
#
# 1 0.017256 -0.004692 -0.002700 -0.004696 -0.000117 0.003339
# 2 -0.004692 0.052827 -0.005731 0.023061 0.004877 -0.039928
# 3 -0.002700 -0.005731 0.008317 -0.002979 -0.003460 0.008966
# 4 -0.004696 0.023061 -0.002979 0.042246 0.007215 -0.027101
# 5 -0.000117 0.004877 -0.003460 0.007215 0.023127 -0.010881
# 6 0.003339 -0.039928 0.008966 -0.027101 -0.010881 0.070789
#
#
# Mechanical properties :
#
#
# Convention : Reuss Voigt Hill
#
# Bulk Modulus (GPa) = 19.17346 38.11504 28.64425
# Shear Modulus (GPa) = 19.36534 37.05967 28.21250
#
# Velocity S-wave (km/s) = 2.82566 3.90893 3.41058
# Velocity P-wave (km/s) = 4.30709 6.00732 5.22680
#
# Compressibility (1/GPa) = 0.05215544
#
# Stress axis : x y z
#
# Youngs Moduli (GPa) = 57.95109 18.92960 120.22956
#
# Poissons Ratio (x) = 0.08881 0.32461
# Poissons Ratio (y) = 0.27188 0.68905
# Poissons Ratio (z) = 0.15646 0.10849
#
# Static dielectric constant tensor:
#      x y z
#    x 2.040480 0.041790 0.080830 
#    y 0.041790 2.126430 -0.046990 
#    z 0.080830 -0.046990 2.043550 
# 
# From -- ./inp_files/450896.got.cif
#   From: 2010.05.17/outbox.cif.g08.bks.cpg/sg2_226_cif.got.tgz:450896.got - 2010.06.03 11:33:40.
