data_PCOD9097701
_publ_section_title
;
Structure prediction by ZEFSAII (Michael W. Deem and Ramdas Pophale) SiO2 
 PCOD9097701
Probable space group: P -1
;
_chemical_formula_sum "Si O2"
_cell_formula_units_Z 16
_cell_length_a 11.137491
_cell_length_b 13.036664
_cell_length_c 9.262277
_cell_angle_alpha 115.055597
_cell_angle_beta 106.704629
_cell_angle_gamma 34.612601
_cell_volume 687.122101
_symmetry_space_group_name_H-M "P -1"
_symmetry_group_IT_number 2
_symmetry_cell_setting 'triclinic'
loop_
_space_group_symop_operation_xyz
x,y,z
-x,-y,-z
loop_
_atom_site_type_symbol
_atom_site_label
_atom_site_fract_x
_atom_site_fract_y
_atom_site_fract_z
Si Si1 0.398240 0.472904 0.631895
Si Si2 0.188247 0.816565 0.590572
Si Si3 0.653621 0.032445 0.947213
Si Si4 0.065905 0.541079 0.425644
Si Si5 0.968744 0.115998 0.933454
Si Si6 0.422044 0.732155 0.153274
Si Si7 0.788638 0.950250 0.497649
Si Si8 0.545250 0.868592 0.754448
O O1 0.314213 0.656188 0.664280
O O2 0.634950 0.290467 0.535035
O O3 0.233124 0.509906 0.523823
O O4 0.396137 0.439130 0.777467
O O5 0.999246 0.874959 0.496333
O O6 0.087823 0.991804 0.752872
O O7 0.547680 0.224754 0.960944
O O8 0.584865 0.972066 0.800024
O O9 0.581520 0.059720 0.100453
O O10 0.907681 0.867601 0.948961
O O11 0.221633 0.354898 0.267089
O O12 0.000000 0.500000 0.500000
O O13 0.874297 0.759277 0.434498
O O14 0.723064 0.274238 0.909909
O O15 0.000000 0.000000 0.000000
O O16 0.298825 0.922170 0.313758
O O17 0.596815 0.079066 0.393104
#
# Coordination Sequence:
#
# PCOD9097701 Si02
#       8
#     2   2   2   2   2   2   2   2
#     4  10  20  36  61  96 120 155 195 265 316 345
#     4   9  20  37  62  95 125 145 208 261 299 367
#     4  10  23  39  59  86 127 166 205 246 299 376
#     4  11  23  38  63  96 126 154 205 265 303 358
#     4   9  19  36  58  83 122 160 196 245 301 363
#     4  10  20  37  66  92 117 159 205 253 315 359
#     4  10  22  38  68  97 117 158 209 254 310 360
#     4  11  23  42  65  86 126 171 202 250 306 360
#
# _framework density 23.285527999999999
#
# number of rings (size 3 to 8) (size 9 to 14) (size 15 to 20)
#    0.000    2.000    1.250    1.500    3.500    3.000 
#    0.000    5.000   13.750    0.000    0.000    0.000 
#    0.000    0.000    0.000    0.000    0.000    0.000 
#
# Total GULP energy -89254.409814 kJ/mol
# GULP energy per Si atom -5578.400613 kJ/mol
# Density = 2.323253 g / cm^3
# Si number density = 23.285528 Si / 1000 Ang^3
#
#
#
# Elastic Constant Matrix: (Units=GPa)
#
#
# Indices 1 2 3 4 5 6 
#
# 1 123.8801 11.1845 27.0007 1.5264 5.8377 0.0112
# 2 11.1845 88.8717 15.4664 -2.7430 -6.6869 8.6488
# 3 27.0007 15.4664 56.6838 -7.5966 5.6973 -2.8601
# 4 1.5264 -2.7430 -7.5966 29.2751 4.5043 -6.6058
# 5 5.8377 -6.6869 5.6973 4.5043 24.6419 -3.7679
# 6 0.0112 8.6488 -2.8601 -6.6058 -3.7679 26.6719
#
#
#
# Elastic Compliance Matrix: (Units=1/GPa)
#
#
# Indices 1 2 3 4 5 6 
#
# 1 0.009143 -0.000431 -0.004401 -0.001696 -0.001095 -0.000911
# 2 -0.000431 0.012703 -0.004087 -0.001457 0.004097 -0.004339
# 3 -0.004401 -0.004087 0.022741 0.007764 -0.006003 0.004840
# 4 -0.001696 -0.001457 0.007764 0.039542 -0.007481 0.010042
# 5 -0.001095 0.004097 -0.006003 -0.007481 0.045097 0.002546
# 6 -0.000911 -0.004339 0.004840 0.010042 0.002546 0.042266
#
#
# Mechanical properties :
#
#
# Convention : Reuss Voigt Hill
#
# Bulk Modulus (GPa) = 37.38296 41.85987 39.62142
# Shear Modulus (GPa) = 25.22108 30.50339 27.86224
#
# Velocity S-wave (km/s) = 3.29465 3.62328 3.46287
# Velocity P-wave (km/s) = 5.52829 5.95987 5.74813
#
# Compressibility (1/GPa) = 0.02675015
#
# Stress axis : x y z
#
# Youngs Moduli (GPa) = 109.37352 78.72004 43.97305
#
# Poissons Ratio (x) = 0.03392 0.19352
# Poissons Ratio (y) = 0.04712 0.17972
# Poissons Ratio (z) = 0.48134 0.32172
#
# Static dielectric constant tensor:
#      x y z
#    x 1.938060 0.031280 0.024790 
#    y 0.031280 1.991000 0.010090 
#    z 0.024790 0.010090 1.926770 
# 
# From -- ./inp_files/273795.got.cif
#   From: 2010.05.17/outbox.cif.g08.bks.cpg/sg2_137_cif.got.tgz:273795.got - 2010.06.03 11:33:40.
