data_PCOD9097144
_publ_section_title
;
Structure prediction by ZEFSAII (Michael W. Deem and Ramdas Pophale) SiO2 
 PCOD9097144
Probable space group: P -1
;
_chemical_formula_sum "Si O2"
_cell_formula_units_Z 15
_cell_length_a 10.926574
_cell_length_b 8.856048
_cell_length_c 16.852227
_cell_angle_alpha 57.798999
_cell_angle_beta 152.539300
_cell_angle_gamma 128.973730
_cell_volume 583.178962
_symmetry_space_group_name_H-M "P -1"
_symmetry_group_IT_number 2
_symmetry_cell_setting 'triclinic'
loop_
_space_group_symop_operation_xyz
x,y,z
-x,-y,-z
loop_
_atom_site_type_symbol
_atom_site_label
_atom_site_fract_x
_atom_site_fract_y
_atom_site_fract_z
Si Si1 0.012276 0.028748 0.405565
Si Si2 0.214005 0.267550 0.965261
Si Si3 0.073490 0.721099 0.967325
Si Si4 0.125559 0.642451 0.847957
Si Si5 0.019621 0.844476 0.310896
Si Si6 0.619035 0.032093 0.779975
Si Si7 0.518153 0.735924 0.600264
Si Si8 0.500000 0.500000 0.500000
O O1 0.353407 0.070212 0.579425
O O2 0.918310 0.205474 0.281707
O O3 0.874584 0.865087 0.304372
O O4 0.000000 0.000000 0.500000
O O5 0.269266 0.492385 0.950804
O O6 0.180329 0.222626 0.863690
O O7 0.895921 0.127444 0.855500
O O8 0.423564 0.186280 0.155646
O O9 0.197221 0.762975 0.937519
O O10 0.756095 0.719672 0.800203
O O11 0.298845 0.857593 0.120054
O O12 0.000000 0.500000 0.000000
O O13 0.791881 0.497035 0.708632
O O14 0.222086 0.726104 0.469840
O O15 0.266640 0.057344 0.371591
O O16 0.431019 0.582667 0.522124
#
# Coordination Sequence:
#
# PCOD9097144 Si02
#       8
#     2   2   2   2   2   2   2   1
#     4  12  27  45  62  83 123 181 228 251 288 374
#     4  11  21  37  66 101 126 151 191 275 345 373
#     4  11  21  33  58 100 134 150 186 251 335 388
#     4  11  21  38  61  92 127 163 207 249 315 383
#     4  11  20  36  60  85 121 163 204 250 313 371
#     4  11  23  38  61 100 132 154 199 261 329 380
#     4  10  19  30  58  94 125 155 187 253 322 383
#     4  10  16  30  58  96 120 154 194 250 320 368
#
# _framework density 25.721091999999999
#
# number of rings (size 3 to 8) (size 9 to 14) (size 15 to 20)
#    0.000    1.067    6.667    2.400    3.733    0.000 
#    0.000    4.000    0.000    0.000    0.000    0.000 
#    0.000    0.000    0.000    0.000    0.000    0.000 
#
# Total GULP energy -83527.694748 kJ/mol
# GULP energy per Si atom -5568.512983 kJ/mol
# Density = 2.566255 g / cm^3
# Si number density = 25.721092 Si / 1000 Ang^3
#
#
#
# Elastic Constant Matrix: (Units=GPa)
#
#
# Indices 1 2 3 4 5 6 
#
# 1 117.4527 63.9957 31.9239 -5.4417 -34.3563 -25.1376
# 2 63.9957 71.4498 -9.6956 -7.5700 -17.1226 -17.0036
# 3 31.9239 -9.6956 -76.1640 48.7493 -36.3543 68.2237
# 4 -5.4417 -7.5700 48.7493 22.2565 5.6314 -31.2562
# 5 -34.3563 -17.1226 -36.3543 5.6314 44.7657 19.9480
# 6 -25.1376 -17.0036 68.2237 -31.2562 19.9480 18.3725
#
#
#
# Elastic Compliance Matrix: (Units=1/GPa)
#
#
# Indices 1 2 3 4 5 6 
#
# 1 0.020344 -0.017562 -0.001502 -0.005930 0.010211 -0.004014
# 2 -0.017562 0.033136 0.004755 0.010456 -0.002469 0.009449
# 3 -0.001502 0.004755 0.003203 0.010168 -0.002840 0.010833
# 4 -0.005930 0.010456 0.010168 0.024393 0.004402 0.000527
# 5 0.010211 -0.002469 -0.002840 0.004402 0.025432 0.002107
# 6 -0.004014 0.009449 0.010833 0.000527 0.002107 0.016062
#
#
# Mechanical properties :
#
#
# Convention : Reuss Voigt Hill
#
# Bulk Modulus (GPa) = 35.63323 31.68737 33.66030
# Shear Modulus (GPa) = 31.14402 18.84659 24.99530
#
# Velocity S-wave (km/s) = 3.48348 2.70983 3.12072
# Velocity P-wave (km/s) = 5.48300 4.70503 5.10884
#
# Compressibility (1/GPa) = 0.02806369
#
# Stress axis : x y z
#
# Youngs Moduli (GPa) = 49.15337 30.17850 312.23851
#
# Poissons Ratio (x) = 0.53001 0.46909
# Poissons Ratio (y) = 0.86326 -1.48470
# Poissons Ratio (z) = 0.07385 -0.14350
#
# Static dielectric constant tensor:
#      x y z
#    x 2.139180 0.040220 0.079270 
#    y 0.040220 2.280280 0.091080 
#    z 0.079270 0.091080 2.412720 
# 
# From -- ./inp_files/565273.got.cif
#   From: 2010.05.17/outbox.cif.g08.bks.cpg/sg2_283_cif.got.tgz:565273.got - 2010.06.03 11:33:40.
