data_PCOD9097053
_publ_section_title
;
Structure prediction by ZEFSAII (Michael W. Deem and Ramdas Pophale) SiO2 
 PCOD9097053
Probable space group: P -1
;
_chemical_formula_sum "Si O2"
_cell_formula_units_Z 14
_cell_length_a 5.895461
_cell_length_b 19.739201
_cell_length_c 21.816298
_cell_angle_alpha 18.513412
_cell_angle_beta 117.194604
_cell_angle_gamma 126.358063
_cell_volume 591.793932
_symmetry_space_group_name_H-M "P -1"
_symmetry_group_IT_number 2
_symmetry_cell_setting 'triclinic'
loop_
_space_group_symop_operation_xyz
x,y,z
-x,-y,-z
loop_
_atom_site_type_symbol
_atom_site_label
_atom_site_fract_x
_atom_site_fract_y
_atom_site_fract_z
Si Si1 0.240569 0.336264 0.177671
Si Si2 0.077220 0.344328 0.022223
Si Si3 0.004768 0.224262 0.383367
Si Si4 0.591600 0.009872 0.156280
Si Si5 0.165386 0.927708 0.998262
Si Si6 0.628376 0.530022 0.421493
Si Si7 0.504415 0.542922 0.267191
O O1 0.583800 0.594329 0.997478
O O2 0.116969 0.279676 0.279487
O O3 0.043654 0.347107 0.089018
O O4 0.233997 0.080768 0.377357
O O5 0.103820 0.584937 0.784625
O O6 0.791530 0.092561 0.171731
O O7 0.288089 0.324071 0.379606
O O8 0.816061 0.066615 0.077895
O O9 0.328713 0.703946 0.381833
O O10 0.494587 0.208498 0.965964
O O11 0.142833 0.160404 0.819942
O O12 0.867012 0.651794 0.217737
O O13 0.500000 0.000000 0.000000
O O14 0.500000 0.500000 0.500000
O O15 0.399668 0.472266 0.385332
#
# Coordination Sequence:
#
# PCOD9097053 Si02
#       7
#     2   2   2   2   2   2   2
#     4  10  20  36  59  85 119 148 190 234 282 346
#     4  10  20  36  59  85 116 154 186 236 286 335
#     4  10  21  36  59  86 115 150 194 231 287 344
#     4  10  22  39  59  86 119 152 198 240 288 345
#     4  11  22  40  61  84 117 154 197 242 291 345
#     4  10  22  39  60  85 115 152 198 238 288 349
#     4  11  22  40  61  84 119 157 191 247 292 337
#
# _framework density 23.656886
#
# number of rings (size 3 to 8) (size 9 to 14) (size 15 to 20)
#    0.000    1.714    1.429    3.000    0.000    0.571 
#    5.143    0.000    6.286    0.000    0.000    0.000 
#    0.000    0.000    0.000    0.000    0.000    0.000 
#
# Total GULP energy -78077.932466 kJ/mol
# GULP energy per Si atom -5576.995176 kJ/mol
# Density = 2.360304 g / cm^3
# Si number density = 23.656886 Si / 1000 Ang^3
#
#
#
# Elastic Constant Matrix: (Units=GPa)
#
#
# Indices 1 2 3 4 5 6 
#
# 1 28.2569 32.3818 10.1113 -5.8793 -3.9029 3.9055
# 2 32.3818 174.3020 25.1608 4.3206 -17.7610 -6.3903
# 3 10.1113 25.1608 82.3097 -0.3444 3.8099 7.3302
# 4 -5.8793 4.3206 -0.3444 43.2502 -3.8505 -7.5630
# 5 -3.9029 -17.7610 3.8099 -3.8505 36.3895 7.1167
# 6 3.9055 -6.3903 7.3302 -7.5630 7.1167 23.5747
#
#
#
# Elastic Compliance Matrix: (Units=1/GPa)
#
#
# Indices 1 2 3 4 5 6 
#
# 1 0.049678 -0.008947 -0.002721 0.006402 0.003656 -0.008859
# 2 -0.008947 0.008042 -0.001749 -0.001283 0.002413 0.003066
# 3 -0.002721 -0.001749 0.013452 -0.000945 -0.001883 -0.003941
# 4 0.006402 -0.001283 -0.000945 0.025399 0.001564 0.006562
# 5 0.003656 0.002413 -0.001883 0.001564 0.031023 -0.008229
# 6 -0.008859 0.003066 -0.003941 0.006562 -0.008229 0.050532
#
#
# Mechanical properties :
#
#
# Convention : Reuss Voigt Hill
#
# Bulk Modulus (GPa) = 22.55447 46.68624 34.62036
# Shear Modulus (GPa) = 22.75416 35.12388 28.93902
#
# Velocity S-wave (km/s) = 3.10472 3.85739 3.50134
# Velocity P-wave (km/s) = 4.73361 6.29419 5.56884
#
# Compressibility (1/GPa) = 0.04433710
#
# Stress axis : x y z
#
# Youngs Moduli (GPa) = 20.12957 124.34655 74.33614
#
# Poissons Ratio (x) = 1.11257 0.20227
# Poissons Ratio (y) = 0.18011 0.13004
# Poissons Ratio (z) = 0.05477 0.21752
#
# Static dielectric constant tensor:
#      x y z
#    x 1.918170 0.025650 0.059630 
#    y 0.025650 1.933860 0.028960 
#    z 0.059630 0.028960 1.923000 
# 
# From -- ./inp_files/87046.got.cif
#   From: 2010.05.17/outbox.cif.g08.bks.cpg/sg2_44_cif.got.tgz:87046.got - 2010.06.03 11:33:40.
