data_PCOD9097646
_publ_section_title
;
Structure prediction by ZEFSAII (Michael W. Deem and Ramdas Pophale) SiO2 
 PCOD9097646
Probable space group: P -1
;
_chemical_formula_sum "Si O2"
_cell_formula_units_Z 16
_cell_length_a 8.497833
_cell_length_b 12.535794
_cell_length_c 13.708384
_cell_angle_alpha 50.470818
_cell_angle_beta 146.795003
_cell_angle_gamma 124.041349
_cell_volume 615.540656
_symmetry_space_group_name_H-M "P -1"
_symmetry_group_IT_number 2
_symmetry_cell_setting 'triclinic'
loop_
_space_group_symop_operation_xyz
x,y,z
-x,-y,-z
loop_
_atom_site_type_symbol
_atom_site_label
_atom_site_fract_x
_atom_site_fract_y
_atom_site_fract_z
Si Si1 0.535303 0.224305 0.331404
Si Si2 0.471007 0.534646 0.200479
Si Si3 0.066823 0.240325 0.723155
Si Si4 0.670439 0.370952 0.131739
Si Si5 0.742015 0.101216 0.790434
Si Si6 0.793046 0.874072 0.608111
Si Si7 0.265360 0.424839 0.353421
Si Si8 0.451353 0.971571 0.880075
O O1 0.522299 0.381789 0.276229
O O2 0.547977 0.246449 0.208852
O O3 0.265718 0.148952 0.293247
O O4 0.839645 0.178737 0.560190
O O5 0.777613 0.620390 0.318722
O O6 0.283788 0.521383 0.209098
O O7 0.324609 0.618843 0.989230
O O8 0.880036 0.237919 0.727875
O O9 0.325130 0.148041 0.944468
O O10 0.001499 0.405371 0.302892
O O11 0.500000 0.500000 0.000000
O O12 0.479984 0.043149 0.617461
O O13 0.575070 0.102309 0.805108
O O14 0.000000 0.000000 0.000000
O O15 0.728462 0.728818 0.601217
O O16 0.113016 0.931500 0.712144
O O17 0.500000 0.500000 0.500000
O O18 0.500000 0.000000 0.000000
#
# Coordination Sequence:
#
# PCOD9097646 Si02
#       8
#     2   2   2   2   2   2   2   2
#     4   9  20  38  60  91 125 163 203 250 316 392
#     4  10  20  36  61  91 129 163 204 255 310 385
#     4  10  20  38  61  86 120 164 205 254 317 375
#     4  10  21  35  54  85 126 169 204 244 296 364
#     4   9  21  42  64  90 123 166 216 269 319 369
#     4  10  22  43  67  92 128 169 209 264 324 378
#     4  11  23  39  62  95 130 168 208 250 311 389
#     4  11  24  41  63  92 122 162 218 272 318 370
#
# _framework density 25.993407999999999
#
# number of rings (size 3 to 8) (size 9 to 14) (size 15 to 20)
#    0.000    2.000    0.000    2.625    0.000   10.000 
#    0.000    9.375    0.000    0.000    0.000    0.000 
#    0.000    0.000    0.000    0.000    0.000    0.000 
#
# Total GULP energy -89255.232047 kJ/mol
# GULP energy per Si atom -5578.452003 kJ/mol
# Density = 2.593425 g / cm^3
# Si number density = 25.993408 Si / 1000 Ang^3
#
#
#
# Elastic Constant Matrix: (Units=GPa)
#
#
# Indices 1 2 3 4 5 6 
#
# 1 174.9828 42.5091 37.7893 -3.5345 -14.4790 47.2718
# 2 42.5091 84.8936 7.2704 -7.5299 6.2901 19.0887
# 3 37.7893 7.2704 111.5547 2.3306 2.9570 5.6127
# 4 -3.5345 -7.5299 2.3306 33.3109 7.1722 -6.7779
# 5 -14.4790 6.2901 2.9570 7.1722 60.4887 -2.7443
# 6 47.2718 19.0887 5.6127 -6.7779 -2.7443 30.6835
#
#
#
# Elastic Compliance Matrix: (Units=1/GPa)
#
#
# Indices 1 2 3 4 5 6 
#
# 1 0.011393 -0.002327 -0.002915 -0.002954 0.002737 -0.015980
# 2 -0.002327 0.014507 0.000117 0.002541 -0.002606 -0.005133
# 3 -0.002915 0.000117 0.009853 -0.000244 -0.001051 0.002468
# 4 -0.002954 0.002541 -0.000244 0.033286 -0.004454 0.009969
# 5 0.002737 -0.002606 -0.001051 -0.004454 0.017957 -0.001781
# 6 -0.015980 -0.005133 0.002468 0.009969 -0.001781 0.061995
#
#
# Mechanical properties :
#
#
# Convention : Reuss Voigt Hill
#
# Bulk Modulus (GPa) = 39.20955 60.72985 49.96970
# Shear Modulus (GPa) = 29.80779 43.82076 36.81427
#
# Velocity S-wave (km/s) = 3.39003 4.11035 3.76745
# Velocity P-wave (km/s) = 5.51727 6.77798 6.17986
#
# Compressibility (1/GPa) = 0.02550399
#
# Stress axis : x y z
#
# Youngs Moduli (GPa) = 87.77005 68.93064 101.49461
#
# Poissons Ratio (x) = 0.16041 0.29583
# Poissons Ratio (y) = 0.20425 -0.01188
# Poissons Ratio (z) = 0.25582 -0.00807
#
# Static dielectric constant tensor:
#      x y z
#    x 1.926460 0.057100 -0.047490 
#    y 0.057100 2.031890 0.009370 
#    z -0.047490 0.009370 1.980770 
# 
# From -- ./inp_files/505397.got.cif
#   From: 2010.05.17/outbox.cif.g08.bks.cpg/sg2_253_cif.got.tgz:505397.got - 2010.06.03 11:33:40.
