data_PCOD9097479
_publ_section_title
;
Structure prediction by ZEFSAII (Michael W. Deem and Ramdas Pophale) SiO2 
 PCOD9097479
Probable space group: P -1
;
_chemical_formula_sum "Si O2"
_cell_formula_units_Z 16
_cell_length_a 14.469002
_cell_length_b 10.273753
_cell_length_c 8.736744
_cell_angle_alpha 119.856395
_cell_angle_beta 46.518073
_cell_angle_gamma 122.396447
_cell_volume 777.799515
_symmetry_space_group_name_H-M "P -1"
_symmetry_group_IT_number 2
_symmetry_cell_setting 'triclinic'
loop_
_space_group_symop_operation_xyz
x,y,z
-x,-y,-z
loop_
_atom_site_type_symbol
_atom_site_label
_atom_site_fract_x
_atom_site_fract_y
_atom_site_fract_z
Si Si1 0.971208 0.823986 0.000400
Si Si2 0.299175 0.250294 0.897632
Si Si3 0.582570 0.329490 0.465403
Si Si4 0.444374 0.739951 0.871133
Si Si5 0.657927 0.633132 0.745991
Si Si6 0.116027 0.102221 0.534536
Si Si7 0.673136 0.054179 0.683055
Si Si8 0.268573 0.890521 0.699623
O O1 0.111986 0.789391 0.803864
O O2 0.833984 0.729591 0.016096
O O3 0.939487 0.825150 0.216516
O O4 0.000000 0.000000 0.000000
O O5 0.425812 0.288848 0.662195
O O6 0.273134 0.064032 0.856220
O O7 0.334284 0.349070 0.070756
O O8 0.603590 0.370041 0.285896
O O9 0.655519 0.467648 0.579871
O O10 0.643849 0.187756 0.343180
O O11 0.524762 0.666724 0.854831
O O12 0.550851 0.899271 0.774765
O O13 0.337476 0.800887 0.118074
O O14 0.780686 0.766952 0.608650
O O15 0.195018 0.991760 0.455104
O O16 0.000000 0.000000 0.500000
O O17 0.670658 0.089307 0.527865
#
# Coordination Sequence:
#
# PCOD9097479 Si02
#       8
#     2   2   2   2   2   2   2   2
#     4  10  20  38  62  93 122 157 206 257 305 357
#     4  11  21  40  65  89 122 168 211 252 302 367
#     4  12  24  40  63  91 128 166 203 258 313 368
#     4  10  22  37  59  89 129 156 202 257 315 359
#     4  11  25  40  61  93 125 163 205 252 318 373
#     4  11  21  38  65  90 125 160 207 254 306 371
#     4  10  20  36  60  96 118 155 207 262 298 355
#     4  11  22  38  64  96 122 157 212 258 301 364
#
# _framework density 20.570854000000001
#
# number of rings (size 3 to 8) (size 9 to 14) (size 15 to 20)
#    0.000    1.250    3.750    4.125    7.000    0.000 
#    0.000    1.250    2.750    0.000    0.000    0.000 
#    0.000    0.000    0.000    0.000    0.000    0.000 
#
# Total GULP energy -89437.152197 kJ/mol
# GULP energy per Si atom -5589.822012 kJ/mol
# Density = 2.052403 g / cm^3
# Si number density = 20.570854 Si / 1000 Ang^3
#
#
#
# Elastic Constant Matrix: (Units=GPa)
#
#
# Indices 1 2 3 4 5 6 
#
# 1 88.9153 16.4448 19.9991 -0.6562 11.5198 20.7599
# 2 16.4448 40.5013 13.5130 8.1114 -2.6135 9.9218
# 3 19.9991 13.5130 90.8042 7.2514 17.6945 10.2331
# 4 -0.6562 8.1114 7.2514 28.7974 9.7152 8.4590
# 5 11.5198 -2.6135 17.6945 9.7152 40.7007 5.1451
# 6 20.7599 9.9218 10.2331 8.4590 5.1451 20.9122
#
#
#
# Elastic Compliance Matrix: (Units=1/GPa)
#
#
# Indices 1 2 3 4 5 6 
#
# 1 0.016705 -0.004407 -0.000974 0.008140 -0.004482 -0.016206
# 2 -0.004407 0.031771 -0.003788 -0.008620 0.007915 -0.007305
# 3 -0.000974 -0.003788 0.013098 0.000290 -0.005424 -0.002428
# 4 0.008140 -0.008620 0.000290 0.047180 -0.011673 -0.020345
# 5 -0.004482 0.007915 -0.005424 -0.011673 0.031449 0.000333
# 6 -0.016206 -0.007305 -0.002428 -0.020345 0.000333 0.076709
#
#
# Mechanical properties :
#
#
# Convention : Reuss Voigt Hill
#
# Bulk Modulus (GPa) = 23.12875 35.57050 29.34963
# Shear Modulus (GPa) = 20.02700 29.43298 24.72999
#
# Velocity S-wave (km/s) = 3.12358 3.78671 3.47102
# Velocity P-wave (km/s) = 4.92716 6.03723 5.51022
#
# Compressibility (1/GPa) = 0.04323623
#
# Stress axis : x y z
#
# Youngs Moduli (GPa) = 59.86111 31.47547 76.34520
#
# Poissons Ratio (x) = 0.13873 0.07433
# Poissons Ratio (y) = 0.26383 0.28920
# Poissons Ratio (z) = 0.05828 0.11923
#
# Static dielectric constant tensor:
#      x y z
#    x 1.716350 0.014140 0.007940 
#    y 0.014140 1.775740 -0.002560 
#    z 0.007940 -0.002560 1.736440 
# 
# From -- ./inp_files/261473.got.cif
#   From: 2010.05.17/outbox.cif.g08.bks.cpg/sg2_131_cif.got.tgz:261473.got - 2010.06.03 11:33:40.
