data_PCOD9097381
_publ_section_title
;
Structure prediction by ZEFSAII (Michael W. Deem and Ramdas Pophale) SiO2 
 PCOD9097381
Probable space group: P -1
;
_chemical_formula_sum "Si O2"
_cell_formula_units_Z 14
_cell_length_a 11.786300
_cell_length_b 12.842061
_cell_length_c 11.832774
_cell_angle_alpha 134.786575
_cell_angle_beta 146.904302
_cell_angle_gamma 37.744709
_cell_volume 593.906901
_symmetry_space_group_name_H-M "P -1"
_symmetry_group_IT_number 2
_symmetry_cell_setting 'triclinic'
loop_
_space_group_symop_operation_xyz
x,y,z
-x,-y,-z
loop_
_atom_site_type_symbol
_atom_site_label
_atom_site_fract_x
_atom_site_fract_y
_atom_site_fract_z
Si Si1 0.882296 0.208078 0.917650
Si Si2 0.321193 0.694859 0.951731
Si Si3 0.381351 0.746186 0.498797
Si Si4 0.191653 0.252020 0.481729
Si Si5 0.218942 0.414560 0.840464
Si Si6 0.408503 0.076857 0.298679
Si Si7 0.891465 0.421696 0.755666
O O1 0.752669 0.193186 0.910157
O O2 0.858634 0.393963 0.043415
O O3 0.169092 0.076231 0.057394
O O4 0.728867 0.216694 0.690304
O O5 0.064947 0.735725 0.724260
O O6 0.500000 0.500000 0.000000
O O7 0.490245 0.700030 0.000672
O O8 0.469556 0.883650 0.675361
O O9 0.637912 0.575406 0.610794
O O10 0.180583 0.716853 0.371181
O O11 0.157494 0.404618 0.650790
O O12 0.291483 0.221767 0.413578
O O13 0.387122 0.088690 0.592517
O O14 0.085128 0.353223 0.764372
O O15 0.000000 0.500000 0.000000
#
# Coordination Sequence:
#
# PCOD9097381 Si02
#       7
#     2   2   2   2   2   2   2
#     4  10  20  36  60  90 117 155 198 245 298 349
#     4   9  21  33  56  90 123 150 191 239 295 354
#     4  11  21  37  64  85 118 157 201 248 297 349
#     4  10  23  38  60  90 126 162 189 238 300 353
#     4  11  21  36  58  88 121 149 198 252 289 347
#     4  10  21  41  60  87 125 161 198 232 293 369
#     4  11  23  38  59  91 115 155 201 255 298 342
#
# _framework density 23.572717000000001
#
# number of rings (size 3 to 8) (size 9 to 14) (size 15 to 20)
#    0.000    1.714    2.857    0.857    4.000    6.286 
#    0.000    5.000    0.000    4.286    0.000    0.000 
#    0.000    0.000    0.000    0.000    0.000    0.000 
#
# Total GULP energy -78062.597442 kJ/mol
# GULP energy per Si atom -5575.899817 kJ/mol
# Density = 2.351906 g / cm^3
# Si number density = 23.572717 Si / 1000 Ang^3
#
#
#
# Elastic Constant Matrix: (Units=GPa)
#
#
# Indices 1 2 3 4 5 6 
#
# 1 150.7960 19.3823 44.6614 -14.1831 59.9852 8.9347
# 2 19.3823 58.1606 18.4490 -22.7137 11.7630 -3.7610
# 3 44.6614 18.4490 141.1333 -39.0062 24.4738 -12.3384
# 4 -14.1831 -22.7137 -39.0062 35.7038 -5.4156 3.1455
# 5 59.9852 11.7630 24.4738 -5.4156 49.3955 -0.5631
# 6 8.9347 -3.7610 -12.3384 3.1455 -0.5631 27.0735
#
#
#
# Elastic Compliance Matrix: (Units=1/GPa)
#
#
# Indices 1 2 3 4 5 6 
#
# 1 0.014088 -0.000798 -0.001759 0.001276 -0.015976 -0.006042
# 2 -0.000798 0.024426 0.002888 0.017469 -0.004331 0.002853
# 3 -0.001759 0.002888 0.011839 0.013209 -0.002915 0.004782
# 4 0.001276 0.017469 0.013209 0.052930 -0.006431 0.001742
# 5 -0.015976 -0.004331 -0.002915 -0.006431 0.041472 0.004952
# 6 -0.006042 0.002853 0.004782 0.001742 0.004952 0.041407
#
#
# Mechanical properties :
#
#
# Convention : Reuss Voigt Hill
#
# Bulk Modulus (GPa) = 19.60223 57.23058 38.41641
# Shear Modulus (GPa) = 24.69066 40.27436 32.48251
#
# Velocity S-wave (km/s) = 3.23991 4.13790 3.71613
# Velocity P-wave (km/s) = 4.72543 6.86736 5.89450
#
# Compressibility (1/GPa) = 0.05101461
#
# Stress axis : x y z
#
# Youngs Moduli (GPa) = 70.98211 40.93942 84.46832
#
# Poissons Ratio (x) = 0.03268 0.14859
# Poissons Ratio (y) = 0.05666 -0.24395
# Poissons Ratio (z) = 0.12486 -0.11824
#
# Static dielectric constant tensor:
#      x y z
#    x 1.956520 0.033920 0.067370 
#    y 0.033920 2.006300 0.068360 
#    z 0.067370 0.068360 1.978740 
# 
# From -- ./inp_files/66582.got.cif
#   From: 2010.05.17/outbox.cif.g08.bks.cpg/sg2_34_cif.got.tgz:66582.got - 2010.06.03 11:33:40.
