data_PCOD9097642
_publ_section_title
;
Structure prediction by ZEFSAII (Michael W. Deem and Ramdas Pophale) SiO2 
 PCOD9097642
Probable space group: P -1
;
_chemical_formula_sum "Si O2"
_cell_formula_units_Z 12
_cell_length_a 9.264067
_cell_length_b 15.035221
_cell_length_c 8.791430
_cell_angle_alpha 38.373845
_cell_angle_beta 112.071550
_cell_angle_gamma 130.399422
_cell_volume 555.765130
_symmetry_space_group_name_H-M "P -1"
_symmetry_group_IT_number 2
_symmetry_cell_setting 'triclinic'
loop_
_space_group_symop_operation_xyz
x,y,z
-x,-y,-z
loop_
_atom_site_type_symbol
_atom_site_label
_atom_site_fract_x
_atom_site_fract_y
_atom_site_fract_z
Si Si1 0.152845 0.458677 0.649192
Si Si2 0.331395 0.512782 0.972344
Si Si3 0.204249 0.895508 0.946140
Si Si4 0.521101 0.217752 0.799292
Si Si5 0.427848 0.110995 0.255380
Si Si6 0.046342 0.877563 0.596835
O O1 0.237048 0.523346 0.766150
O O2 0.337651 0.567505 0.462961
O O3 0.000000 0.500000 0.500000
O O4 0.012821 0.240317 0.885642
O O5 0.440037 0.693941 0.870823
O O6 0.500000 0.500000 0.000000
O O7 0.152576 0.325936 0.234142
O O8 0.171855 0.867138 0.791450
O O9 0.329577 0.102346 0.770934
O O10 0.335855 0.832784 0.127332
O O11 0.458303 0.150508 0.035526
O O12 0.500000 0.000000 0.500000
O O13 0.196106 0.989467 0.369442
O O14 0.000000 0.000000 0.500000
#
# Coordination Sequence:
#
# PCOD9097642 Si02
#       6
#     2   2   2   2   2   2
#     4   9  20  37  63  91 121 170 219 253 315 394
#     4  11  24  43  69  92 131 177 214 264 332 389
#     4   9  19  37  61  89 122 169 205 254 323 379
#     4  10  20  36  61  91 126 160 208 268 313 370
#     4  12  25  40  65 103 130 162 221 277 316 378
#     4  11  22  42  68  91 128 174 215 256 329 397
#
# _framework density 21.591856
#
# number of rings (size 3 to 8) (size 9 to 14) (size 15 to 20)
#    0.000    1.667    3.333    1.000    4.667    2.000 
#    0.000    1.667    0.000    0.000    0.000    0.000 
#    0.000    0.000    0.000    0.000    0.000    0.000 
#
# Total GULP energy -66950.894249 kJ/mol
# GULP energy per Si atom -5579.241187 kJ/mol
# Density = 2.154271 g / cm^3
# Si number density = 21.591856 Si / 1000 Ang^3
#
#
#
# Elastic Constant Matrix: (Units=GPa)
#
#
# Indices 1 2 3 4 5 6 
#
# 1 63.1965 32.7120 44.5730 -25.2011 -36.1857 4.0025
# 2 32.7120 113.1234 48.1998 -33.2188 -26.3236 17.6492
# 3 44.5730 48.1998 116.1920 -32.5339 -59.6052 8.6853
# 4 -25.2011 -33.2188 -32.5339 40.4058 12.1290 -2.3607
# 5 -36.1857 -26.3236 -59.6052 12.1290 57.6407 -8.0185
# 6 4.0025 17.6492 8.6853 -2.3607 -8.0185 22.1705
#
#
#
# Elastic Compliance Matrix: (Units=1/GPa)
#
#
# Indices 1 2 3 4 5 6 
#
# 1 0.031411 -0.001981 0.001807 0.014158 0.018159 0.003273
# 2 -0.001981 0.014151 -0.002134 0.008137 0.000021 -0.009198
# 3 0.001807 -0.002134 0.023124 0.011517 0.021849 0.001442
# 4 0.014158 0.008137 0.011517 0.044966 0.014566 -0.003489
# 5 0.018159 0.000021 0.021849 0.014566 0.049336 0.007540
# 6 0.003273 -0.009198 0.001442 -0.003489 0.007540 0.053627
#
#
# Mechanical properties :
#
#
# Convention : Reuss Voigt Hill
#
# Bulk Modulus (GPa) = 15.60788 60.38684 37.99736
# Shear Modulus (GPa) = 20.61132 35.17855 27.89493
#
# Velocity S-wave (km/s) = 3.09299 4.04078 3.59823
# Velocity P-wave (km/s) = 4.47211 7.05681 5.90755
#
# Compressibility (1/GPa) = 0.06407019
#
# Stress axis : x y z
#
# Youngs Moduli (GPa) = 31.83637 70.66558 43.24590
#
# Poissons Ratio (x) = 0.13996 -0.07815
# Poissons Ratio (y) = 0.06306 0.09229
# Poissons Ratio (z) = -0.05753 0.15080
#
# Static dielectric constant tensor:
#      x y z
#    x 1.800830 0.050950 0.014410 
#    y 0.050950 1.783920 -0.010000 
#    z 0.014410 -0.010000 1.873950 
# 
# From -- ./inp_files/160302.got.cif
#   From: 2010.05.17/outbox.cif.g08.bks.cpg/sg2_81_cif.got.tgz:160302.got - 2010.06.03 11:33:40.
