data_PCOD9097909
_publ_section_title
;
Structure prediction by ZEFSAII (Michael W. Deem and Ramdas Pophale) SiO2 
 PCOD9097909
Probable space group: P -1
;
_chemical_formula_sum "Si O2"
_cell_formula_units_Z 14
_cell_length_a 13.311205
_cell_length_b 8.284318
_cell_length_c 21.119872
_cell_angle_alpha 42.151437
_cell_angle_beta 157.999840
_cell_angle_gamma 140.516732
_cell_volume 551.499277
_symmetry_space_group_name_H-M "P -1"
_symmetry_group_IT_number 2
_symmetry_cell_setting 'triclinic'
loop_
_space_group_symop_operation_xyz
x,y,z
-x,-y,-z
loop_
_atom_site_type_symbol
_atom_site_label
_atom_site_fract_x
_atom_site_fract_y
_atom_site_fract_z
Si Si1 0.715434 0.050231 0.523456
Si Si2 0.171373 0.551308 0.151336
Si Si3 0.916178 0.225224 0.722187
Si Si4 0.631045 0.373239 0.979163
Si Si5 0.750711 0.558523 0.447232
Si Si6 0.182245 0.993569 0.732955
Si Si7 0.252469 0.102010 0.066244
O O1 0.878351 0.064750 0.681669
O O2 0.744834 0.350797 0.449216
O O3 0.865487 0.938479 0.590675
O O4 0.385373 0.889046 0.384647
O O5 0.435975 0.456694 0.323244
O O6 0.929901 0.444466 0.094371
O O7 0.326870 0.851781 0.169117
O O8 0.000000 0.500000 0.000000
O O9 0.949318 0.506203 0.633154
O O10 0.140508 0.179155 0.912849
O O11 0.696435 0.238494 0.119798
O O12 0.388406 0.189734 0.847190
O O13 0.553693 0.627176 0.872603
O O14 0.805394 0.836762 0.370916
O O15 0.000000 0.000000 0.000000
#
# Coordination Sequence:
#
# PCOD9097909 Si02
#       7
#     2   2   2   2   2   2   2
#     4   9  20  35  64  91 123 157 210 257 302 367
#     4  11  20  38  69  91 119 159 216 259 295 370
#     4   9  20  37  63  89 120 156 216 251 306 355
#     4  10  24  38  62  92 131 160 208 252 318 364
#     4  10  20  36  62  93 118 162 214 252 301 364
#     4  11  21  39  61  94 127 169 201 252 313 380
#     4  10  23  41  62  95 126 159 207 265 312 355
#
# _framework density 25.385348
#
# number of rings (size 3 to 8) (size 9 to 14) (size 15 to 20)
#    0.857    1.143    1.429    2.143    4.000    0.000 
#    0.000   10.000    0.000    0.000    0.000    0.000 
#    0.000    0.000    0.000    0.000    0.000    0.000 
#
# Total GULP energy -78189.784787 kJ/mol
# GULP energy per Si atom -5584.984628 kJ/mol
# Density = 2.532757 g / cm^3
# Si number density = 25.385348 Si / 1000 Ang^3
#
#
#
# Elastic Constant Matrix: (Units=GPa)
#
#
# Indices 1 2 3 4 5 6 
#
# 1 71.9375 11.6515 31.1733 -2.6329 4.8447 24.0177
# 2 11.6515 89.5960 1.0715 -25.1011 -4.3149 4.8076
# 3 31.1733 1.0715 46.5889 -7.9519 -6.4653 9.1005
# 4 -2.6329 -25.1011 -7.9519 32.4206 4.9253 -5.1272
# 5 4.8447 -4.3149 -6.4653 4.9253 44.7839 -5.2713
# 6 24.0177 4.8076 9.1005 -5.1272 -5.2713 34.8434
#
#
#
# Elastic Compliance Matrix: (Units=1/GPa)
#
#
# Indices 1 2 3 4 5 6 
#
# 1 0.027983 -0.004976 -0.017709 -0.007390 -0.007151 -0.016146
# 2 -0.004976 0.015279 0.004953 0.012739 0.001576 0.002141
# 3 -0.017709 0.004953 0.035007 0.010732 0.006855 0.004997
# 4 -0.007390 0.012739 0.010732 0.043902 -0.000437 0.006928
# 5 -0.007151 0.001576 0.006855 -0.000437 0.025075 0.006651
# 6 -0.016146 0.002141 0.004997 0.006928 0.006651 0.040254
#
#
# Mechanical properties :
#
#
# Convention : Reuss Voigt Hill
#
# Bulk Modulus (GPa) = 23.36195 32.87945 28.12070
# Shear Modulus (GPa) = 21.07643 33.35799 27.21721
#
# Velocity S-wave (km/s) = 2.88455 3.62894 3.27794
# Velocity P-wave (km/s) = 4.50745 5.52622 5.04263
#
# Compressibility (1/GPa) = 0.04280465
#
# Stress axis : x y z
#
# Youngs Moduli (GPa) = 35.73652 65.44869 28.56598
#
# Poissons Ratio (x) = 0.32566 0.50587
# Poissons Ratio (y) = 0.17782 -0.14148
# Poissons Ratio (z) = 0.63286 -0.32416
#
# Static dielectric constant tensor:
#      x y z
#    x 2.034450 -0.025110 0.005870 
#    y -0.025110 2.082240 -0.053790 
#    z 0.005870 -0.053790 1.985030 
# 
# From -- ./inp_files/611602.got.cif
#   From: 2010.05.17/outbox.cif.g08.bks.cpg/sg2_306_cif.got.tgz:611602.got - 2010.06.03 11:33:40.
