data_PCOD9097708
_publ_section_title
;
Structure prediction by ZEFSAII (Michael W. Deem and Ramdas Pophale) SiO2 
 PCOD9097708
Probable space group: P -1
;
_chemical_formula_sum "Si O2"
_cell_formula_units_Z 16
_cell_length_a 12.004234
_cell_length_b 19.534427
_cell_length_c 5.326559
_cell_angle_alpha 63.288374
_cell_angle_beta 87.159738
_cell_angle_gamma 133.618274
_cell_volume 671.325121
_symmetry_space_group_name_H-M "P -1"
_symmetry_group_IT_number 2
_symmetry_cell_setting 'triclinic'
loop_
_space_group_symop_operation_xyz
x,y,z
-x,-y,-z
loop_
_atom_site_type_symbol
_atom_site_label
_atom_site_fract_x
_atom_site_fract_y
_atom_site_fract_z
Si Si1 0.991983 0.227466 0.362746
Si Si2 0.706019 0.667216 0.456366
Si Si3 0.330838 0.486335 0.690115
Si Si4 0.507464 0.737164 0.072554
Si Si5 0.370259 0.120156 0.684117
Si Si6 0.154885 0.647910 0.286661
Si Si7 0.996891 0.083105 0.240053
Si Si8 0.267219 0.788510 0.532189
O O1 0.136178 0.276864 0.472644
O O2 0.967034 0.139201 0.336548
O O3 0.791371 0.153668 0.570406
O O4 0.122975 0.369297 0.008635
O O5 0.498182 0.569268 0.737379
O O6 0.679756 0.590530 0.369719
O O7 0.800609 0.791483 0.106520
O O8 0.410725 0.602140 0.341123
O O9 0.635286 0.842024 0.107883
O O10 0.337559 0.699509 0.204168
O O11 0.569000 0.787387 0.697996
O O12 0.523179 0.133548 0.640496
O O13 0.161156 0.990406 0.830771
O O14 0.144501 0.686683 0.486118
O O15 0.000000 0.500000 0.500000
O O16 0.196105 0.723337 0.919453
O O17 0.000000 0.000000 0.500000
#
# Coordination Sequence:
#
# PCOD9097708 Si02
#       8
#     2   2   2   2   2   2   2   2
#     4  11  25  40  68  98 129 179 219 280 336 403
#     4  10  24  42  65  95 130 172 227 271 347 390
#     4  10  22  41  64  97 135 173 214 281 332 408
#     4  10  22  38  68  97 133 179 218 269 335 387
#     4  10  24  44  65 101 135 180 225 273 326 391
#     4  10  20  36  61  96 133 178 217 266 321 395
#     4  11  26  45  69  95 127 175 232 284 334 394
#     4  10  23  40  63  95 139 172 223 266 329 398
#
# _framework density 23.833462000000001
#
# number of rings (size 3 to 8) (size 9 to 14) (size 15 to 20)
#    0.000    1.750    0.000    2.250   10.500    2.000 
#    0.000    0.625    0.000    0.000    0.000    0.000 
#    0.000    0.000    0.000    0.000    0.000    0.000 
#
# Total GULP energy -89158.313279 kJ/mol
# GULP energy per Si atom -5572.394580 kJ/mol
# Density = 2.377922 g / cm^3
# Si number density = 23.833462 Si / 1000 Ang^3
#
#
#
# Elastic Constant Matrix: (Units=GPa)
#
#
# Indices 1 2 3 4 5 6 
#
# 1 147.1633 77.1036 20.5795 -3.2024 -3.1727 -14.3305
# 2 77.1036 124.6986 39.4650 -19.9130 22.3793 60.3370
# 3 20.5795 39.4650 125.3991 8.6120 79.2120 24.5518
# 4 -3.2024 -19.9130 8.6120 27.5287 40.1996 42.5509
# 5 -3.1727 22.3793 79.2120 40.1996 93.9150 3.8201
# 6 -14.3305 60.3370 24.5518 42.5509 3.8201 -40.1594
#
#
#
# Elastic Compliance Matrix: (Units=1/GPa)
#
#
# Indices 1 2 3 4 5 6 
#
# 1 0.008125 -0.003064 0.000682 0.004417 -0.001358 -0.002535
# 2 -0.003064 0.007984 -0.005573 -0.006099 0.005154 0.003710
# 3 0.000682 -0.005573 0.018560 0.004832 -0.016627 0.006269
# 4 0.004417 -0.006099 0.004832 0.024638 -0.013711 0.017016
# 5 -0.001358 0.005154 -0.016627 -0.013711 0.029821 -0.013627
# 6 -0.002535 0.003710 0.006269 0.017016 -0.013627 0.002143
#
#
# Mechanical properties :
#
#
# Convention : Reuss Voigt Hill
#
# Bulk Modulus (GPa) = 53.31015 74.61744 63.96379
# Shear Modulus (GPa) = 44.07879 33.59773 38.83826
#
# Velocity S-wave (km/s) = 4.30519 3.75865 4.04117
# Velocity P-wave (km/s) = 6.86507 7.08607 6.97645
#
# Compressibility (1/GPa) = 0.01875815
#
# Stress axis : x y z
#
# Youngs Moduli (GPa) = 123.07492 125.25532 53.87900
#
# Poissons Ratio (x) = 0.38377 -0.03672
# Poissons Ratio (y) = 0.37709 0.30027
# Poissons Ratio (z) = -0.08388 0.69805
#
# Static dielectric constant tensor:
#      x y z
#    x 1.976200 0.005200 -0.084070 
#    y 0.005200 1.727570 -0.274250 
#    z -0.084070 -0.274250 1.269390 
# 
# From -- ./inp_files/69006.got.cif
#   From: 2010.05.17/outbox.cif.g08.bks.cpg/sg2_35_cif.got.tgz:69006.got - 2010.06.03 11:33:40.
