data_PCOD9097778
_publ_section_title
;
Structure prediction by ZEFSAII (Michael W. Deem and Ramdas Pophale) SiO2 
 PCOD9097778
Probable space group: P -1
;
_chemical_formula_sum "Si O2"
_cell_formula_units_Z 16
_cell_length_a 9.097319
_cell_length_b 17.591725
_cell_length_c 9.229710
_cell_angle_alpha 40.341657
_cell_angle_beta 57.666639
_cell_angle_gamma 78.409806
_cell_volume 747.996179
_symmetry_space_group_name_H-M "P -1"
_symmetry_group_IT_number 2
_symmetry_cell_setting 'triclinic'
loop_
_space_group_symop_operation_xyz
x,y,z
-x,-y,-z
loop_
_atom_site_type_symbol
_atom_site_label
_atom_site_fract_x
_atom_site_fract_y
_atom_site_fract_z
Si Si1 0.203502 0.988223 0.607697
Si Si2 0.859681 0.020363 0.688271
Si Si3 0.544892 0.590682 0.483443
Si Si4 0.917647 0.290124 0.331997
Si Si5 0.217488 0.526766 0.320819
Si Si6 0.789135 0.492729 0.980606
Si Si7 0.517571 0.158939 0.881669
Si Si8 0.591327 0.180157 0.140135
O O1 0.181379 0.012944 0.412387
O O2 0.270899 0.872633 0.769030
O O3 0.375035 0.107808 0.409689
O O4 0.992606 0.970191 0.786779
O O5 0.956212 0.172744 0.417905
O O6 0.644784 0.954823 0.948959
O O7 0.500000 0.500000 0.500000
O O8 0.726938 0.577329 0.475104
O O9 0.566117 0.730316 0.222885
O O10 0.378150 0.543094 0.761336
O O11 0.709633 0.222857 0.601868
O O12 0.066898 0.366310 0.263028
O O13 0.903234 0.398922 0.076912
O O14 0.269483 0.521122 0.133983
O O15 0.000000 0.500000 0.500000
O O16 0.336186 0.669066 0.107635
O O17 0.578919 0.134969 0.045089
#
# Coordination Sequence:
#
# PCOD9097778 Si02
#       8
#     2   2   2   2   2   2   2   2
#     4   9  21  36  59  90 115 158 200 260 299 374
#     4  10  20  36  62  87 118 155 207 249 313 366
#     4  11  24  42  65  93 126 170 209 256 319 369
#     4  10  21  39  63  87 121 163 204 249 325 360
#     4  12  25  39  66  96 126 167 208 259 316 369
#     4  10  24  41  64  93 130 162 211 262 301 382
#     4  10  21  39  60  89 120 161 204 259 302 380
#     4  10  20  39  59  84 126 155 207 249 312 361
#
# _framework density 21.390484000000001
#
# number of rings (size 3 to 8) (size 9 to 14) (size 15 to 20)
#    0.000    1.750    1.250    2.250    7.000    1.000 
#    0.000    0.625    0.000    0.000    0.000    0.000 
#    0.000    0.000    0.000    0.000    0.000    0.000 
#
# Total GULP energy -89220.087083 kJ/mol
# GULP energy per Si atom -5576.255443 kJ/mol
# Density = 2.134180 g / cm^3
# Si number density = 21.390484 Si / 1000 Ang^3
#
#
#
# Elastic Constant Matrix: (Units=GPa)
#
#
# Indices 1 2 3 4 5 6 
#
# 1 132.5277 27.2115 18.8111 -6.2530 4.9769 -16.4711
# 2 27.2115 62.9284 13.4690 -13.0228 -2.9161 -1.0543
# 3 18.8111 13.4690 50.8272 -14.5373 -8.2779 -0.5936
# 4 -6.2530 -13.0228 -14.5373 29.8429 6.2405 -4.2031
# 5 4.9769 -2.9161 -8.2779 6.2405 36.4804 -3.6172
# 6 -16.4711 -1.0543 -0.5936 -4.2031 -3.6172 29.8801
#
#
#
# Elastic Compliance Matrix: (Units=1/GPa)
#
#
# Indices 1 2 3 4 5 6 
#
# 1 0.009294 -0.003403 -0.002712 0.000171 -0.001712 0.004766
# 2 -0.003403 0.019143 -0.001858 0.006613 0.000416 -0.000256
# 3 -0.002712 -0.001858 0.024694 0.009886 0.004216 0.000831
# 4 0.000171 0.006613 0.009886 0.042937 -0.003994 0.006080
# 5 -0.001712 0.000416 0.004216 -0.003994 0.029534 0.002168
# 6 0.004766 -0.000256 0.000831 0.006080 0.002168 0.037219
#
#
# Mechanical properties :
#
#
# Convention : Reuss Voigt Hill
#
# Bulk Modulus (GPa) = 26.89116 40.58517 33.73816
# Shear Modulus (GPa) = 26.15573 31.69346 28.92459
#
# Velocity S-wave (km/s) = 3.50061 3.85341 3.68124
# Velocity P-wave (km/s) = 5.37939 6.23001 5.82026
#
# Compressibility (1/GPa) = 0.03718694
#
# Stress axis : x y z
#
# Youngs Moduli (GPa) = 107.59759 52.23714 40.49497
#
# Poissons Ratio (x) = 0.17774 0.10984
# Poissons Ratio (y) = 0.36610 0.07522
# Poissons Ratio (z) = 0.29185 0.09703
#
# Static dielectric constant tensor:
#      x y z
#    x 1.814950 -0.066170 -0.060440 
#    y -0.066170 1.847300 0.073840 
#    z -0.060440 0.073840 1.872660 
# 
# From -- ./inp_files/207601.got.cif
#   From: 2010.05.17/outbox.cif.g08.bks.cpg/sg2_104_cif.got.tgz:207601.got - 2010.06.03 11:33:40.
