data_PCOD9097664
_publ_section_title
;
Structure prediction by ZEFSAII (Michael W. Deem and Ramdas Pophale) SiO2 
 PCOD9097664
Probable space group: P -1
;
_chemical_formula_sum "Si O2"
_cell_formula_units_Z 14
_cell_length_a 12.537128
_cell_length_b 8.832949
_cell_length_c 17.943279
_cell_angle_alpha 110.591202
_cell_angle_beta 161.657256
_cell_angle_gamma 68.648647
_cell_volume 582.276000
_symmetry_space_group_name_H-M "P -1"
_symmetry_group_IT_number 2
_symmetry_cell_setting 'triclinic'
loop_
_space_group_symop_operation_xyz
x,y,z
-x,-y,-z
loop_
_atom_site_type_symbol
_atom_site_label
_atom_site_fract_x
_atom_site_fract_y
_atom_site_fract_z
Si Si1 0.246560 0.350646 0.603266
Si Si2 0.035656 0.361134 0.292782
Si Si3 0.199827 0.953912 0.894359
Si Si4 0.320223 0.748777 0.401349
Si Si5 0.865382 0.059512 0.327562
Si Si6 0.806709 0.301527 0.526627
Si Si7 0.217097 0.459906 0.061997
O O1 0.164534 0.329866 0.457688
O O2 0.633448 0.399101 0.863717
O O3 0.000000 0.500000 0.500000
O O4 0.133184 0.190254 0.540226
O O5 0.356228 0.314846 0.443622
O O6 0.946840 0.556264 0.268001
O O7 0.783939 0.223268 0.088390
O O8 0.220570 0.921827 0.814033
O O9 0.844650 0.066576 0.691741
O O10 0.507642 0.061582 0.133527
O O11 0.392023 0.723746 0.532172
O O12 0.018658 0.639990 0.161814
O O13 0.016173 0.874027 0.404776
O O14 0.555844 0.364943 0.305607
O O15 0.000000 0.500000 0.000000
#
# Coordination Sequence:
#
# PCOD9097664 Si02
#       7
#     2   2   2   2   2   2   2
#     4  10  20  38  62  88 126 169 203 255 316 367
#     4  10  20  36  61  92 125 160 216 257 308 379
#     4   9  19  35  62  90 119 171 207 251 319 370
#     4  11  20  39  66  90 128 165 205 262 316 366
#     4   9  19  38  59  88 127 163 212 255 307 377
#     4  10  22  39  65  92 129 161 206 268 307 368
#     4  11  22  40  65  93 126 164 211 253 312 377
#
# _framework density 24.043581
#
# number of rings (size 3 to 8) (size 9 to 14) (size 15 to 20)
#    0.000    2.000    2.857    1.714    0.000    1.714 
#    0.000   11.429    0.000    0.000    0.000    0.000 
#    0.000    0.000    0.000    0.000    0.000    0.000 
#
# Total GULP energy -78170.262263 kJ/mol
# GULP energy per Si atom -5583.590162 kJ/mol
# Density = 2.398886 g / cm^3
# Si number density = 24.043581 Si / 1000 Ang^3
#
#
#
# Elastic Constant Matrix: (Units=GPa)
#
#
# Indices 1 2 3 4 5 6 
#
# 1 101.1961 26.2448 31.8269 0.6378 6.5142 11.4882
# 2 26.2448 175.2724 49.6567 28.7549 32.2422 22.3890
# 3 31.8269 49.6567 86.0532 32.0254 21.2120 11.1269
# 4 0.6378 28.7549 32.0254 38.1834 5.5780 1.3002
# 5 6.5142 32.2422 21.2120 5.5780 40.5527 1.6145
# 6 11.4882 22.3890 11.1269 1.3002 1.6145 31.9305
#
#
#
# Elastic Compliance Matrix: (Units=1/GPa)
#
#
# Indices 1 2 3 4 5 6 
#
# 1 0.012132 -0.001019 -0.006035 0.005494 0.001336 -0.001839
# 2 -0.001019 0.008453 -0.000814 -0.004729 -0.005289 -0.004816
# 3 -0.006035 -0.000814 0.023408 -0.017599 -0.008036 -0.004292
# 4 0.005494 -0.004729 -0.017599 0.043373 0.005901 0.005407
# 5 0.001336 -0.005289 -0.008036 0.005901 0.031875 0.004176
# 6 -0.001839 -0.004816 -0.004292 0.005407 0.004176 0.036421
#
#
# Mechanical properties :
#
#
# Convention : Reuss Voigt Hill
#
# Bulk Modulus (GPa) = 35.39144 64.21985 49.80564
# Shear Modulus (GPa) = 27.65209 39.11954 33.38581
#
# Velocity S-wave (km/s) = 3.39496 4.03802 3.73037
# Velocity P-wave (km/s) = 5.48811 6.96481 6.27008
#
# Compressibility (1/GPa) = 0.02825542
#
# Stress axis : x y z
#
# Youngs Moduli (GPa) = 82.42395 118.30679 42.72009
#
# Poissons Ratio (x) = 0.12055 0.25783
# Poissons Ratio (y) = 0.08399 0.03479
# Poissons Ratio (z) = 0.49747 0.09635
#
# Static dielectric constant tensor:
#      x y z
#    x 1.910710 0.030230 0.002020 
#    y 0.030230 1.987260 0.017530 
#    z 0.002020 0.017530 1.980530 
# 
# From -- ./inp_files/566834.got.cif
#   From: 2010.05.17/outbox.cif.g08.bks.cpg/sg2_284_cif.got.tgz:566834.got - 2010.06.03 11:33:40.
