data_PCOD9097116
_publ_section_title
;
Structure prediction by ZEFSAII (Michael W. Deem and Ramdas Pophale) SiO2 
 PCOD9097116
Probable space group: P -1
;
_chemical_formula_sum "Si O2"
_cell_formula_units_Z 16
_cell_length_a 15.070835
_cell_length_b 21.366802
_cell_length_c 12.309103
_cell_angle_alpha 151.348238
_cell_angle_beta 44.872691
_cell_angle_gamma 155.408761
_cell_volume 707.308225
_symmetry_space_group_name_H-M "P -1"
_symmetry_group_IT_number 2
_symmetry_cell_setting 'triclinic'
loop_
_space_group_symop_operation_xyz
x,y,z
-x,-y,-z
loop_
_atom_site_type_symbol
_atom_site_label
_atom_site_fract_x
_atom_site_fract_y
_atom_site_fract_z
Si Si1 0.137797 0.591827 0.760522
Si Si2 0.182983 0.177055 0.209429
Si Si3 0.456008 0.613571 0.238190
Si Si4 0.627121 0.046732 0.089412
Si Si5 0.208115 0.042500 0.331461
Si Si6 0.014671 0.753389 0.766820
Si Si7 0.714575 0.634848 0.375762
Si Si8 0.758691 0.475190 0.915142
O O1 0.347093 0.813739 0.001180
O O2 0.077318 0.387631 0.481470
O O3 0.898025 0.462824 0.787748
O O4 0.265744 0.753160 0.782563
O O5 0.443555 0.437585 0.335537
O O6 0.142510 0.235242 0.436853
O O7 0.170193 0.020185 0.030421
O O8 0.000000 0.000000 0.000000
O O9 0.662950 0.838608 0.483607
O O10 0.211528 0.416083 0.218534
O O11 0.500000 0.500000 0.000000
O O12 0.439088 0.684162 0.250101
O O13 0.645945 0.924833 0.824563
O O14 0.810000 0.199327 0.261454
O O15 0.186514 0.165201 0.484398
O O16 0.959095 0.750722 0.114699
O O17 0.694685 0.481705 0.095879
#
# Coordination Sequence:
#
# PCOD9097116 Si02
#       8
#     2   2   2   2   2   2   2   2
#     4  10  22  36  60  91 124 164 202 238 302 369
#     4  11  26  41  65  89 115 165 210 257 302 356
#     4  12  23  32  59  94 127 159 193 242 317 366
#     4  10  20  36  59  87 124 162 199 237 302 365
#     4  11  20  36  61  89 123 161 190 250 313 362
#     4  12  22  40  62  89 127 163 204 250 296 368
#     4  11  23  42  60  88 124 153 207 254 306 362
#     4  11  24  38  59  93 128 159 195 254 307 369
#
# _framework density 22.620971999999998
#
# number of rings (size 3 to 8) (size 9 to 14) (size 15 to 20)
#    0.000    1.000    6.250    1.500    1.750    0.000 
#    0.000    0.625    0.000    1.500    0.000    0.000 
#    0.000    0.000    0.000    0.000    0.000    0.000 
#
# Total GULP energy -89393.953738 kJ/mol
# GULP energy per Si atom -5587.122109 kJ/mol
# Density = 2.256949 g / cm^3
# Si number density = 22.620972 Si / 1000 Ang^3
#
#
#
# Elastic Constant Matrix: (Units=GPa)
#
#
# Indices 1 2 3 4 5 6 
#
# 1 64.8924 16.7941 15.5707 -10.6493 33.6308 14.8215
# 2 16.7941 32.1430 15.5109 -17.8046 6.6009 7.1676
# 3 15.5707 15.5109 97.1875 -18.5362 23.2815 2.6664
# 4 -10.6493 -17.8046 -18.5362 36.2334 3.9836 -2.4862
# 5 33.6308 6.6009 23.2815 3.9836 49.4126 -0.6484
# 6 14.8215 7.1676 2.6664 -2.4862 -0.6484 21.9945
#
#
#
# Elastic Compliance Matrix: (Units=1/GPa)
#
#
# Indices 1 2 3 4 5 6 
#
# 1 0.037915 -0.003205 0.004603 0.013432 -0.028949 -0.024399
# 2 -0.003205 0.049750 -0.001412 0.022628 -0.005774 -0.011494
# 3 0.004603 -0.001412 0.014003 0.008703 -0.010292 -0.003659
# 4 0.013432 0.022628 0.008703 0.048490 -0.020340 -0.012599
# 5 -0.028949 -0.005774 -0.010292 -0.020340 0.047486 0.021738
# 6 -0.024399 -0.011494 -0.003659 -0.012599 0.021738 0.065313
#
#
# Mechanical properties :
#
#
# Convention : Reuss Voigt Hill
#
# Bulk Modulus (GPa) = 9.83867 32.21935 21.02901
# Shear Modulus (GPa) = 16.84260 31.28459 24.06359
#
# Velocity S-wave (km/s) = 2.73162 3.72289 3.26509
# Velocity P-wave (km/s) = 3.78256 5.72311 4.85086
#
# Compressibility (1/GPa) = 0.10163978
#
# Stress axis : x y z
#
# Youngs Moduli (GPa) = 26.37467 20.10045 71.41354
#
# Poissons Ratio (x) = 0.06443 -0.32873
# Poissons Ratio (y) = 0.08454 0.10084
# Poissons Ratio (z) = -0.12141 0.02838
#
# Static dielectric constant tensor:
#      x y z
#    x 1.937190 0.034640 0.031400 
#    y 0.034640 1.868470 -0.017080 
#    z 0.031400 -0.017080 1.858740 
# 
# From -- ./inp_files/433099.got.cif
#   From: 2010.05.17/outbox.cif.g08.bks.cpg/sg2_217_cif.got.tgz:433099.got - 2010.06.03 11:33:40.
