data_PCOD9097170
_publ_section_title
;
Structure prediction by ZEFSAII (Michael W. Deem and Ramdas Pophale) SiO2 
 PCOD9097170
Probable space group: P -1
;
_chemical_formula_sum "Si O2"
_cell_formula_units_Z 14
_cell_length_a 5.154639
_cell_length_b 14.391712
_cell_length_c 13.514897
_cell_angle_alpha 130.787847
_cell_angle_beta 104.840337
_cell_angle_gamma 91.856902
_cell_volume 705.924162
_symmetry_space_group_name_H-M "P -1"
_symmetry_group_IT_number 2
_symmetry_cell_setting 'triclinic'
loop_
_space_group_symop_operation_xyz
x,y,z
-x,-y,-z
loop_
_atom_site_type_symbol
_atom_site_label
_atom_site_fract_x
_atom_site_fract_y
_atom_site_fract_z
Si Si1 0.731409 0.224354 0.900787
Si Si2 0.918970 0.004445 0.826522
Si Si3 0.756005 0.559817 0.803325
Si Si4 0.449365 0.205841 0.069063
Si Si5 0.664606 0.156841 0.255115
Si Si6 0.240270 0.553514 0.481944
Si Si7 0.675288 0.428708 0.900674
O O1 0.622251 0.286269 0.839250
O O2 0.832577 0.098633 0.804425
O O3 0.524692 0.194081 0.953565
O O4 0.987103 0.337222 0.047915
O O5 0.086542 0.905542 0.738550
O O6 0.635323 0.932489 0.803432
O O7 0.147044 0.106040 0.985762
O O8 0.561353 0.649617 0.816024
O O9 0.844354 0.497853 0.672191
O O10 0.621573 0.454174 0.798794
O O11 0.656313 0.174047 0.147147
O O12 0.692621 0.294112 0.400923
O O13 0.500000 0.500000 0.500000
O O14 0.000000 0.500000 0.500000
O O15 0.500000 0.500000 0.000000
O O16 0.000000 0.500000 0.000000
#
# Coordination Sequence:
#
# PCOD9097170 Si02
#       7
#     2   2   2   2   2   2   2
#     4  10  21  37  61  89 121 148 193 249 300 350
#     4  11  24  37  55  85 117 157 195 238 294 344
#     4  10  22  37  61  91 121 154 195 245 301 350
#     4  11  20  35  60  86 120 150 191 246 296 351
#     4  12  24  37  56  83 120 157 198 232 285 357
#     4  12  25  42  61  85 121 163 199 238 286 353
#     4  10  20  36  59  90 119 150 190 246 307 349
#
# _framework density 19.832159000000001
#
# number of rings (size 3 to 8) (size 9 to 14) (size 15 to 20)
#    0.000    1.143    4.286    2.571    4.000    0.000 
#    0.000    0.000    0.000    1.714    0.000    0.000 
#    0.000    0.000    0.000    0.000    0.000    0.000 
#
# Total GULP energy -78159.116445 kJ/mol
# GULP energy per Si atom -5582.794032 kJ/mol
# Density = 1.978702 g / cm^3
# Si number density = 19.832159 Si / 1000 Ang^3
#
#
#
# Elastic Constant Matrix: (Units=GPa)
#
#
# Indices 1 2 3 4 5 6 
#
# 1 130.2391 69.1531 20.0055 1.8134 -22.6626 -5.7360
# 2 69.1531 161.5578 48.4651 9.5177 -20.0730 -18.4369
# 3 20.0055 48.4651 46.8440 4.1272 -21.7991 -6.6904
# 4 1.8134 9.5177 4.1272 20.5286 -0.0340 -10.8802
# 5 -22.6626 -20.0730 -21.7991 -0.0340 24.3637 7.9363
# 6 -5.7360 -18.4369 -6.6904 -10.8802 7.9363 39.8168
#
#
#
# Elastic Compliance Matrix: (Units=1/GPa)
#
#
# Indices 1 2 3 4 5 6 
#
# 1 0.011868 -0.005686 0.006683 -0.001200 0.013234 -0.002766
# 2 -0.005686 0.012089 -0.013586 -0.000149 -0.008860 0.004221
# 3 0.006683 -0.013586 0.053285 -0.009107 0.045255 -0.007883
# 4 -0.001200 -0.000149 -0.009107 0.060039 -0.015047 0.017633
# 5 0.013234 -0.008860 0.045255 -0.015047 0.092082 -0.017057
# 6 -0.002766 0.004221 -0.007883 0.017633 -0.017057 0.033565
#
#
# Mechanical properties :
#
#
# Convention : Reuss Voigt Hill
#
# Bulk Modulus (GPa) = 19.20656 68.20980 43.70818
# Shear Modulus (GPa) = 16.36878 30.34298 23.35588
#
# Velocity S-wave (km/s) = 2.87603 3.91575 3.43545
# Velocity P-wave (km/s) = 4.55350 7.41029 6.15007
#
# Compressibility (1/GPa) = 0.05206555
#
# Stress axis : x y z
#
# Youngs Moduli (GPa) = 84.25874 82.72278 18.76687
#
# Poissons Ratio (x) = 0.47032 -0.12542
# Poissons Ratio (y) = 0.47905 0.25496
# Poissons Ratio (z) = -0.56310 1.12386
#
# Static dielectric constant tensor:
#      x y z
#    x 1.742890 -0.011660 0.013140 
#    y -0.011660 1.758470 0.004160 
#    z 0.013140 0.004160 1.674040 
# 
# From -- ./inp_files/366387.got.cif
#   From: 2010.05.17/outbox.cif.g08.bks.cpg/sg2_184_cif.got.tgz:366387.got - 2010.06.03 11:33:40.
