data_PCOD9097030
_publ_section_title
;
Structure prediction by ZEFSAII (Michael W. Deem and Ramdas Pophale) SiO2 
 PCOD9097030
Probable space group: P -1
;
_chemical_formula_sum "Si O2"
_cell_formula_units_Z 14
_cell_length_a 9.528854
_cell_length_b 13.298569
_cell_length_c 9.087777
_cell_angle_alpha 39.226862
_cell_angle_beta 79.016322
_cell_angle_gamma 68.745866
_cell_volume 670.719694
_symmetry_space_group_name_H-M "P -1"
_symmetry_group_IT_number 2
_symmetry_cell_setting 'triclinic'
loop_
_space_group_symop_operation_xyz
x,y,z
-x,-y,-z
loop_
_atom_site_type_symbol
_atom_site_label
_atom_site_fract_x
_atom_site_fract_y
_atom_site_fract_z
Si Si1 0.727299 0.665698 0.508252
Si Si2 0.965568 0.415290 0.933721
Si Si3 0.060012 0.888988 0.896311
Si Si4 0.083675 0.763805 0.575487
Si Si5 0.399985 0.682724 0.512028
Si Si6 0.793855 0.493378 0.378499
Si Si7 0.246467 0.984485 0.990399
O O1 0.840816 0.591175 0.704933
O O2 0.564754 0.645047 0.587594
O O3 0.795123 0.554082 0.474197
O O4 0.707955 0.859579 0.254705
O O5 0.133798 0.397327 0.861389
O O6 0.958708 0.358654 0.166276
O O7 0.915098 0.279460 0.005880
O O8 0.028091 0.047068 0.613135
O O9 0.903457 0.933980 0.970125
O O10 0.194282 0.890767 0.974380
O O11 0.259972 0.744516 0.585952
O O12 0.095780 0.695678 0.479773
O O13 0.365706 0.524791 0.618884
O O14 0.368664 0.838670 0.226585
#
# Coordination Sequence:
#
# PCOD9097030 Si02
#       7
#     2   2   2   2   2   2   2
#     4  12  22  35  61  88 113 145 189 233 280 331
#     4  12  22  35  61  88 113 145 189 233 280 331
#     4  10  20  36  59  84 113 144 189 237 276 325
#     4   9  22  39  57  80 120 149 184 225 286 333
#     4   9  22  39  57  80 120 149 184 225 286 333
#     4  10  21  36  57  88 111 144 187 236 275 324
#     4  10  20  36  59  84 113 144 189 237 276 325
#
# _framework density 20.873101999999999
#
# number of rings (size 3 to 8) (size 9 to 14) (size 15 to 20)
#    0.857    0.857    1.429    3.857    4.000    0.571 
#    0.000    0.000    0.000    0.857    0.000    0.000 
#    0.000    0.000    0.000    0.000    0.000    0.000 
#
# Total GULP energy -78042.362055 kJ/mol
# GULP energy per Si atom -5574.454433 kJ/mol
# Density = 2.082559 g / cm^3
# Si number density = 20.873102 Si / 1000 Ang^3
#
#
#
# Elastic Constant Matrix: (Units=GPa)
#
#
# Indices 1 2 3 4 5 6 
#
# 1 112.5297 1.8069 49.6660 0.8738 -3.3964 9.1282
# 2 1.8069 41.1891 -0.1683 -0.7989 0.6103 12.6925
# 3 49.6660 -0.1683 96.4104 -0.3679 -25.8523 -0.6673
# 4 0.8738 -0.7989 -0.3679 25.3359 8.7665 -5.1879
# 5 -3.3964 0.6103 -25.8523 8.7665 27.1730 -2.0841
# 6 9.1282 12.6925 -0.6673 -5.1879 -2.0841 24.6449
#
#
#
# Elastic Compliance Matrix: (Units=1/GPa)
#
#
# Indices 1 2 3 4 5 6 
#
# 1 0.012991 0.001449 -0.008724 0.000761 -0.007435 -0.006263
# 2 0.001449 0.029200 -0.001531 -0.001536 -0.002675 -0.016166
# 3 -0.008724 -0.001531 0.020374 -0.005488 0.020493 0.005149
# 4 0.000761 -0.001536 -0.005488 0.048001 -0.019904 0.008782
# 5 -0.007435 -0.002675 0.020493 -0.019904 0.062292 0.005764
# 6 -0.006263 -0.016166 0.005149 0.008782 0.005764 0.053697
#
#
# Mechanical properties :
#
#
# Convention : Reuss Voigt Hill
#
# Bulk Modulus (GPa) = 22.24503 39.19317 30.71910
# Shear Modulus (GPa) = 19.29377 28.68574 23.98975
#
# Velocity S-wave (km/s) = 3.04359 3.71117 3.39383
# Velocity P-wave (km/s) = 4.79913 6.09765 5.48694
#
# Compressibility (1/GPa) = 0.04495387
#
# Stress axis : x y z
#
# Youngs Moduli (GPa) = 76.97358 34.24670 49.08292
#
# Poissons Ratio (x) = -0.04963 0.42820
# Poissons Ratio (y) = -0.11156 0.07514
# Poissons Ratio (z) = 0.67152 0.05243
#
# Static dielectric constant tensor:
#      x y z
#    x 1.766760 0.040790 -0.029530 
#    y 0.040790 1.799720 -0.008260 
#    z -0.029530 -0.008260 1.776810 
# 
# From -- ./inp_files/182349.got.cif
#   From: 2010.05.17/outbox.cif.g08.bks.cpg/sg2_92_cif.got.tgz:182349.got - 2010.06.03 11:33:40.
