data_PCOD9097978
_publ_section_title
;
Structure prediction by ZEFSAII (Michael W. Deem and Ramdas Pophale) SiO2 
 PCOD9097978
Probable space group: P -1
;
_chemical_formula_sum "Si O2"
_cell_formula_units_Z 14
_cell_length_a 10.640290
_cell_length_b 8.741596
_cell_length_c 8.865112
_cell_angle_alpha 75.842632
_cell_angle_beta 139.098700
_cell_angle_gamma 108.411415
_cell_volume 512.236526
_symmetry_space_group_name_H-M "P -1"
_symmetry_group_IT_number 2
_symmetry_cell_setting 'triclinic'
loop_
_space_group_symop_operation_xyz
x,y,z
-x,-y,-z
loop_
_atom_site_type_symbol
_atom_site_label
_atom_site_fract_x
_atom_site_fract_y
_atom_site_fract_z
Si Si1 0.223455 0.053838 0.739726
Si Si2 0.982340 0.169693 0.737332
Si Si3 0.702455 0.565511 0.982805
Si Si4 0.334705 0.145919 0.484656
Si Si5 0.264695 0.578344 0.621839
Si Si6 0.301127 0.786774 0.061766
Si Si7 0.894845 0.613120 0.777740
O O1 0.317087 0.144450 0.653987
O O2 0.174074 0.141211 0.824941
O O3 0.000000 0.000000 0.500000
O O4 0.324217 0.908729 0.913319
O O5 0.838406 0.268679 0.497253
O O6 0.107624 0.301950 0.929761
O O7 0.828326 0.006420 0.683097
O O8 0.749864 0.514654 0.210169
O O9 0.495833 0.621593 0.783384
O O10 0.673382 0.392832 0.913520
O O11 0.565656 0.146811 0.688526
O O12 0.292873 0.317743 0.358440
O O13 0.160263 0.468225 0.416288
O O14 0.069726 0.768660 0.883860
O O15 0.000000 0.500000 0.000000
#
# Coordination Sequence:
#
# PCOD9097978 Si02
#       7
#     2   2   2   2   2   2   2
#     4  10  20  36  62  98 137 165 205 270 340 388
#     4  11  22  36  63  96 138 164 202 274 332 387
#     4  11  23  37  68  98 137 164 209 277 344 384
#     4  11  24  41  63 102 133 171 223 263 334 394
#     4  11  24  40  62 101 132 172 217 269 333 391
#     4  12  23  42  68  98 134 177 214 271 330 399
#     4  12  26  47  67  91 133 184 230 263 308 399
#
# _framework density 27.331125
#
# number of rings (size 3 to 8) (size 9 to 14) (size 15 to 20)
#    0.000    0.857    5.714    3.429    6.000    0.571 
#    0.000    0.714    0.000    1.714    0.000    0.000 
#    0.000    0.000    0.000    0.000    0.000    0.000 
#
# Total GULP energy -78225.578812 kJ/mol
# GULP energy per Si atom -5587.541344 kJ/mol
# Density = 2.726892 g / cm^3
# Si number density = 27.331125 Si / 1000 Ang^3
#
#
#
# Elastic Constant Matrix: (Units=GPa)
#
#
# Indices 1 2 3 4 5 6 
#
# 1 55.0970 13.6836 20.1963 11.8564 1.1694 -5.9015
# 2 13.6836 139.3914 60.4545 13.8940 9.5967 3.2933
# 3 20.1963 60.4545 177.7170 9.1581 8.2781 3.3932
# 4 11.8564 13.8940 9.1581 51.4858 8.3689 6.9233
# 5 1.1694 9.5967 8.2781 8.3689 36.9023 -3.6466
# 6 -5.9015 3.2933 3.3932 6.9233 -3.6466 24.0788
#
#
#
# Elastic Compliance Matrix: (Units=1/GPa)
#
#
# Indices 1 2 3 4 5 6 
#
# 1 0.021088 -0.000954 -0.002023 -0.005579 0.002040 0.007497
# 2 -0.000954 0.008685 -0.002696 -0.001295 -0.001417 -0.000884
# 3 -0.002023 -0.002696 0.006828 0.000315 -0.000969 -0.001326
# 4 -0.005579 -0.001295 0.000315 0.023095 -0.005657 -0.008732
# 5 0.002040 -0.001417 -0.000969 -0.005657 0.029588 0.006938
# 6 0.007497 -0.000884 -0.001326 -0.008732 0.006938 0.047237
#
#
# Mechanical properties :
#
#
# Convention : Reuss Voigt Hill
#
# Bulk Modulus (GPa) = 39.59641 62.31935 50.95788
# Shear Modulus (GPa) = 31.99264 41.01811 36.50537
#
# Velocity S-wave (km/s) = 3.42505 3.87820 3.65865
# Velocity P-wave (km/s) = 5.49185 6.55019 6.04423
#
# Compressibility (1/GPa) = 0.02525481
#
# Stress axis : x y z
#
# Youngs Moduli (GPa) = 47.41940 115.14614 146.45193
#
# Poissons Ratio (x) = 0.10991 0.29620
# Poissons Ratio (y) = 0.04526 0.39486
# Poissons Ratio (z) = 0.09591 0.31045
#
# Static dielectric constant tensor:
#      x y z
#    x 3.696390 -0.411140 0.058200 
#    y -0.411140 2.321310 0.034500 
#    z 0.058200 0.034500 2.084080 
# 
# From -- ./inp_files/445703.got.cif
#   From: 2010.05.17/outbox.cif.g08.bks.cpg/sg2_223_cif.got.tgz:445703.got - 2010.06.03 11:33:40.
