data_PCOD9097376
_publ_section_title
;
Structure prediction by ZEFSAII (Michael W. Deem and Ramdas Pophale) SiO2 
 PCOD9097376
Probable space group: P -1
;
_chemical_formula_sum "Si O2"
_cell_formula_units_Z 16
_cell_length_a 25.252851
_cell_length_b 5.845592
_cell_length_c 5.676882
_cell_angle_alpha 81.026051
_cell_angle_beta 90.578541
_cell_angle_gamma 130.348120
_cell_volume 626.234767
_symmetry_space_group_name_H-M "P -1"
_symmetry_group_IT_number 2
_symmetry_cell_setting 'triclinic'
loop_
_space_group_symop_operation_xyz
x,y,z
-x,-y,-z
loop_
_atom_site_type_symbol
_atom_site_label
_atom_site_fract_x
_atom_site_fract_y
_atom_site_fract_z
Si Si1 0.336024 0.865480 0.319917
Si Si2 0.798995 0.260352 0.867331
Si Si3 0.113987 0.139236 0.441861
Si Si4 0.535886 0.408645 0.777901
Si Si5 0.038408 0.858783 0.987685
Si Si6 0.276575 0.913463 0.711137
Si Si7 0.427433 0.497459 0.741217
Si Si8 0.249119 0.248689 0.306787
O O1 0.274204 0.818260 0.183409
O O2 0.325106 0.584020 0.251767
O O3 0.405235 0.214757 0.265615
O O4 0.309396 0.785816 0.601859
O O5 0.863927 0.532975 0.678049
O O6 0.782522 0.941980 0.905148
O O7 0.797317 0.336674 0.123965
O O8 0.189308 0.229121 0.425830
O O9 0.078798 0.008047 0.713994
O O10 0.075090 0.938320 0.235636
O O11 0.463656 0.344941 0.770903
O O12 0.550007 0.333890 0.537401
O O13 0.545923 0.313331 0.045366
O O14 0.000000 0.500000 0.000000
O O15 0.000000 0.000000 0.000000
O O16 0.344422 0.229341 0.780227
O O17 0.256896 0.041807 0.491435
#
# Coordination Sequence:
#
# PCOD9097376 Si02
#       8
#     2   2   2   2   2   2   2   2
#     4   9  19  37  54  87 125 170 225 285 354 412
#     4  10  22  38  63  93 135 177 225 284 345 412
#     4  11  28  46  76 108 143 188 235 280 344 416
#     4   9  16  31  54  81 113 167 224 283 343 422
#     4  12  30  54  84 114 154 193 238 287 344 411
#     4  10  20  36  60  89 130 174 225 287 351 415
#     4   9  17  30  55  81 115 166 226 278 346 416
#     4  10  24  38  62  97 136 175 223 286 346 413
#
# _framework density 25.549524999999999
#
# number of rings (size 3 to 8) (size 9 to 14) (size 15 to 20)
#    0.000    2.000    1.250    0.750   10.500    1.000 
#    0.000    0.625    0.000    0.750    0.000    0.000 
#    0.000    0.000    0.000    0.000    0.000    0.000 
#
# Total GULP energy -89069.712591 kJ/mol
# GULP energy per Si atom -5566.857037 kJ/mol
# Density = 2.549137 g / cm^3
# Si number density = 25.549525 Si / 1000 Ang^3
#
#
#
# Elastic Constant Matrix: (Units=GPa)
#
#
# Indices 1 2 3 4 5 6 
#
# 1 54.4976 4.6674 10.2213 -1.8425 -7.3159 1.2333
# 2 4.6674 142.9048 36.8254 12.0598 -13.9137 -2.1749
# 3 10.2213 36.8254 169.7401 3.5366 -30.2415 8.8327
# 4 -1.8425 12.0598 3.5366 33.8265 13.1719 3.0448
# 5 -7.3159 -13.9137 -30.2415 13.1719 41.1827 4.5157
# 6 1.2333 -2.1749 8.8327 3.0448 4.5157 18.3847
#
#
#
# Elastic Compliance Matrix: (Units=1/GPa)
#
#
# Indices 1 2 3 4 5 6 
#
# 1 0.018918 -0.000239 -0.000434 0.000110 0.003132 -0.001876
# 2 -0.000239 0.007951 -0.001192 -0.003977 0.002878 0.001481
# 3 -0.000434 -0.001192 0.007637 -0.002466 0.006461 -0.004959
# 4 0.000110 -0.003977 -0.002466 0.037182 -0.014829 -0.001808
# 5 0.003132 0.002878 0.006461 -0.014829 0.036333 -0.009442
# 6 -0.001876 0.001481 -0.004959 -0.001808 -0.009442 0.059695
#
#
# Mechanical properties :
#
#
# Convention : Reuss Voigt Hill
#
# Bulk Modulus (GPa) = 32.49349 52.28561 42.38955
# Shear Modulus (GPa) = 27.51725 39.70735 33.61230
#
# Velocity S-wave (km/s) = 3.28535 3.94653 3.63102
# Velocity P-wave (km/s) = 5.20930 6.42461 5.84861
#
# Compressibility (1/GPa) = 0.03077539
#
# Stress axis : x y z
#
# Youngs Moduli (GPa) = 52.85998 125.76963 130.94851
#
# Poissons Ratio (x) = 0.03006 0.05684
# Poissons Ratio (y) = 0.01263 0.15609
# Poissons Ratio (z) = 0.02294 0.14992
#
# Static dielectric constant tensor:
#      x y z
#    x 2.166520 -0.205240 -0.119010 
#    y -0.205240 2.374800 0.288510 
#    z -0.119010 0.288510 2.559840 
# 
# From -- ./inp_files/14600.got.cif
#   From: 2010.05.17/outbox.cif.g08.bks.cpg/sg2_8_cif.got.tgz:14600.got - 2010.06.03 11:33:40.
