data_PCOD9097870
_publ_section_title
;
Structure prediction by ZEFSAII (Michael W. Deem and Ramdas Pophale) SiO2 
 PCOD9097870
Probable space group: P -1
;
_chemical_formula_sum "Si O2"
_cell_formula_units_Z 12
_cell_length_a 6.758986
_cell_length_b 9.237360
_cell_length_c 11.185588
_cell_angle_alpha 95.581337
_cell_angle_beta 57.020447
_cell_angle_gamma 74.628515
_cell_volume 539.108021
_symmetry_space_group_name_H-M "P -1"
_symmetry_group_IT_number 2
_symmetry_cell_setting 'triclinic'
loop_
_space_group_symop_operation_xyz
x,y,z
-x,-y,-z
loop_
_atom_site_type_symbol
_atom_site_label
_atom_site_fract_x
_atom_site_fract_y
_atom_site_fract_z
Si Si1 0.384112 0.840343 0.689455
Si Si2 0.967654 0.894440 0.315972
Si Si3 0.803212 0.436125 0.898492
Si Si4 0.425638 0.647112 0.447313
Si Si5 0.155251 0.598057 0.842718
Si Si6 0.846943 0.871927 0.620731
O O1 0.494209 0.768774 0.516477
O O2 0.221351 0.740259 0.779268
O O3 0.609048 0.820955 0.705640
O O4 0.208861 0.018105 0.729745
O O5 0.090340 0.710613 0.237152
O O6 0.830062 0.928501 0.492984
O O7 0.159136 0.986797 0.279908
O O8 0.926494 0.566564 0.849156
O O9 0.500000 0.500000 0.000000
O O10 0.890766 0.376948 0.999806
O O11 0.500000 0.500000 0.500000
O O12 0.600305 0.567690 0.270901
O O13 0.124728 0.731760 0.529467
#
# Coordination Sequence:
#
# PCOD9097870 Si02
#       6
#     2   2   2   2   2   2
#     4  10  21  38  62  90 120 151 193 247 295 345
#     4  10  22  38  60  89 118 155 199 240 288 352
#     4  11  24  41  60  81 115 160 201 241 292 350
#     4   9  19  35  58  90 120 147 188 240 291 346
#     4  10  23  39  58  86 117 153 198 243 290 344
#     4  10  20  36  62  91 120 155 191 237 299 351
#
# _framework density 22.258991999999999
#
# number of rings (size 3 to 8) (size 9 to 14) (size 15 to 20)
#    0.000    2.000    0.000    2.500    0.000   12.667 
#    0.000    1.667    0.000    3.000    0.000    0.000 
#    0.000    0.000    0.000    0.000    0.000    0.000 
#
# Total GULP energy -66955.643824 kJ/mol
# GULP energy per Si atom -5579.636985 kJ/mol
# Density = 2.220833 g / cm^3
# Si number density = 22.258992 Si / 1000 Ang^3
#
#
#
# Elastic Constant Matrix: (Units=GPa)
#
#
# Indices 1 2 3 4 5 6 
#
# 1 154.8199 47.3253 13.8132 2.6746 -25.8414 19.6935
# 2 47.3253 68.9780 3.6971 -3.0597 -15.5925 9.7834
# 3 13.8132 3.6971 43.9011 0.6379 6.3390 16.4036
# 4 2.6746 -3.0597 0.6379 23.5070 6.0904 4.6132
# 5 -25.8414 -15.5925 6.3390 6.0904 33.9532 -7.2878
# 6 19.6935 9.7834 16.4036 4.6132 -7.2878 27.7510
#
#
#
# Elastic Compliance Matrix: (Units=1/GPa)
#
#
# Indices 1 2 3 4 5 6 
#
# 1 0.009377 -0.004954 -0.002820 -0.002837 0.005619 -0.001293
# 2 -0.004954 0.019291 0.000438 0.002633 0.003899 -0.002958
# 3 -0.002820 0.000438 0.034585 0.007996 -0.014956 -0.023853
# 4 -0.002837 0.002633 0.007996 0.049929 -0.014796 -0.015827
# 5 0.005619 0.003899 -0.014956 -0.014796 0.044764 0.017694
# 6 -0.001293 -0.002958 -0.023853 -0.015827 0.017694 0.059373
#
#
# Mechanical properties :
#
#
# Convention : Reuss Voigt Hill
#
# Bulk Modulus (GPa) = 20.58459 44.15224 32.36841
# Shear Modulus (GPa) = 20.14643 30.56645 25.35644
#
# Velocity S-wave (km/s) = 3.01174 3.70972 3.37880
# Velocity P-wave (km/s) = 4.62190 6.18289 5.45848
#
# Compressibility (1/GPa) = 0.04858003
#
# Stress axis : x y z
#
# Youngs Moduli (GPa) = 106.64900 51.83840 28.91427
#
# Poissons Ratio (x) = 0.25682 0.08154
# Poissons Ratio (y) = 0.52837 -0.01267
# Poissons Ratio (z) = 0.30074 -0.02271
#
# Static dielectric constant tensor:
#      x y z
#    x 1.867180 0.040360 -0.028700 
#    y 0.040360 1.871350 -0.024060 
#    z -0.028700 -0.024060 1.876010 
# 
# From -- ./inp_files/31003.got.cif
#   From: 2010.05.17/outbox.cif.g08.bks.cpg/sg2_16_cif.got.tgz:31003.got - 2010.06.03 11:33:40.
