data_PCOD9097453
_publ_section_title
;
Structure prediction by ZEFSAII (Michael W. Deem and Ramdas Pophale) SiO2 
 PCOD9097453
Probable space group: P -1
;
_chemical_formula_sum "Si O2"
_cell_formula_units_Z 16
_cell_length_a 9.601147
_cell_length_b 15.793767
_cell_length_c 16.692207
_cell_angle_alpha 142.255305
_cell_angle_beta 148.474274
_cell_angle_gamma 32.623549
_cell_volume 689.303417
_symmetry_space_group_name_H-M "P -1"
_symmetry_group_IT_number 2
_symmetry_cell_setting 'triclinic'
loop_
_space_group_symop_operation_xyz
x,y,z
-x,-y,-z
loop_
_atom_site_type_symbol
_atom_site_label
_atom_site_fract_x
_atom_site_fract_y
_atom_site_fract_z
Si Si1 0.079048 0.633893 0.614775
Si Si2 0.460025 0.999038 0.383521
Si Si3 0.872539 0.839625 0.311418
Si Si4 0.977983 0.121219 0.971526
Si Si5 0.991185 0.368774 0.047065
Si Si6 0.631041 0.913403 0.088077
Si Si7 0.548173 0.316527 0.036805
Si Si8 0.559012 0.490826 0.614971
O O1 0.364227 0.624711 0.797160
O O2 0.219716 0.593154 0.564860
O O3 0.000000 0.500000 0.500000
O O4 0.780457 0.812332 0.612541
O O5 0.500000 0.000000 0.500000
O O6 0.729149 0.928070 0.392917
O O7 0.294803 0.895325 0.212699
O O8 0.775441 0.952406 0.267227
O O9 0.232612 0.695456 0.390450
O O10 0.693650 0.744371 0.130776
O O11 0.871408 0.181307 0.053538
O O12 0.026909 0.254371 0.052385
O O13 0.298385 0.951547 0.987804
O O14 0.237602 0.425938 0.211511
O O15 0.085096 0.260032 0.931369
O O16 0.640335 0.520478 0.986995
O O17 0.500000 0.000000 0.000000
O O18 0.500000 0.500000 0.500000
#
# Coordination Sequence:
#
# PCOD9097453 Si02
#       8
#     2   2   2   2   2   2   2   2
#     4  12  27  42  66  98 138 182 219 284 345 412
#     4  11  24  43  67  97 139 180 224 279 348 412
#     4  10  21  42  69  96 128 179 227 285 339 401
#     4  10  21  37  67  96 128 172 224 286 332 401
#     4  10  21  37  67  96 128 172 224 286 332 401
#     4  10  20  36  60  93 125 163 226 283 331 386
#     4  10  21  38  65  94 128 165 231 275 342 402
#     4  11  24  43  67  97 139 180 224 279 348 412
#
# _framework density 23.211839999999999
#
# number of rings (size 3 to 8) (size 9 to 14) (size 15 to 20)
#    0.000    1.500    0.000    4.875    3.500    4.000 
#    0.000    0.625    0.000    0.000    0.000    0.000 
#    0.000    0.000    0.000    0.000    0.000    0.000 
#
# Total GULP energy -89194.833641 kJ/mol
# GULP energy per Si atom -5574.677103 kJ/mol
# Density = 2.315901 g / cm^3
# Si number density = 23.211840 Si / 1000 Ang^3
#
#
#
# Elastic Constant Matrix: (Units=GPa)
#
#
# Indices 1 2 3 4 5 6 
#
# 1 99.6260 3.3414 26.0550 15.6266 -19.8135 -4.2610
# 2 3.3414 75.0376 8.5960 8.8054 2.2674 5.0327
# 3 26.0550 8.5960 56.1849 4.3321 -17.8389 11.2705
# 4 15.6266 8.8054 4.3321 24.5173 7.9854 -6.7327
# 5 -19.8135 2.2674 -17.8389 7.9854 42.2212 -0.9584
# 6 -4.2610 5.0327 11.2705 -6.7327 -0.9584 39.1938
#
#
#
# Elastic Compliance Matrix: (Units=1/GPa)
#
#
# Indices 1 2 3 4 5 6 
#
# 1 0.014103 0.000786 -0.003787 -0.010647 0.007009 0.000864
# 2 0.000786 0.014338 -0.001635 -0.005994 -0.000011 -0.002315
# 3 -0.003787 -0.001635 0.025258 -0.007077 0.010130 -0.008433
# 4 -0.010647 -0.005994 -0.007077 0.060270 -0.018802 0.011541
# 5 0.007009 -0.000011 0.010130 -0.018802 0.034708 -0.004530
# 6 0.000864 -0.002315 -0.008433 0.011541 -0.004530 0.030202
#
#
# Mechanical properties :
#
#
# Convention : Reuss Voigt Hill
#
# Bulk Modulus (GPa) = 22.50923 34.09257 28.30090
# Shear Modulus (GPa) = 24.63550 34.04356 29.33953
#
# Velocity S-wave (km/s) = 3.26135 3.83384 3.55912
# Velocity P-wave (km/s) = 4.88878 5.85809 5.39525
#
# Compressibility (1/GPa) = 0.04442622
#
# Stress axis : x y z
#
# Youngs Moduli (GPa) = 70.90917 69.74526 39.59125
#
# Poissons Ratio (x) = -0.05479 0.14993
# Poissons Ratio (y) = -0.05570 0.06472
# Poissons Ratio (z) = 0.26853 0.11402
#
# Static dielectric constant tensor:
#      x y z
#    x 1.915350 0.061590 -0.040870 
#    y 0.061590 1.926300 -0.008020 
#    z -0.040870 -0.008020 1.861970 
# 
# From -- ./inp_files/505641.got.cif
#   From: 2010.05.17/outbox.cif.g08.bks.cpg/sg2_253_cif.got.tgz:505641.got - 2010.06.03 11:33:40.
