data_PCOD9097407
_publ_section_title
;
Structure prediction by ZEFSAII (Michael W. Deem and Ramdas Pophale) SiO2 
 PCOD9097407
Probable space group: P -1
;
_chemical_formula_sum "Si O2"
_cell_formula_units_Z 15
_cell_length_a 13.591406
_cell_length_b 5.471490
_cell_length_c 16.319885
_cell_angle_alpha 100.560183
_cell_angle_beta 29.461612
_cell_angle_gamma 95.676917
_cell_volume 582.168464
_symmetry_space_group_name_H-M "P -1"
_symmetry_group_IT_number 2
_symmetry_cell_setting 'triclinic'
loop_
_space_group_symop_operation_xyz
x,y,z
-x,-y,-z
loop_
_atom_site_type_symbol
_atom_site_label
_atom_site_fract_x
_atom_site_fract_y
_atom_site_fract_z
Si Si1 0.545539 0.210470 0.415320
Si Si2 0.379675 0.353526 0.837619
Si Si3 0.993073 0.328965 0.615331
Si Si4 0.198953 0.817701 0.089601
Si Si5 0.728553 0.128708 0.684403
Si Si6 0.960152 0.162115 0.160619
Si Si7 0.500000 0.000000 0.000000
Si Si8 0.307760 0.510619 0.491930
O O1 0.500000 0.500000 0.500000
O O2 0.784468 0.147184 0.220327
O O3 0.396069 0.238916 0.447879
O O4 0.500000 0.000000 0.500000
O O5 0.533195 0.189147 0.774783
O O6 0.493193 0.369808 0.670760
O O7 0.354770 0.625351 0.915048
O O8 0.158928 0.267647 0.990645
O O9 0.170666 0.498172 0.510034
O O10 0.890254 0.327049 0.779041
O O11 0.824947 0.366636 0.668856
O O12 0.109132 0.055280 0.494136
O O13 0.313111 0.017942 0.067435
O O14 0.036849 0.922625 0.145887
O O15 0.661058 0.001346 0.808640
O O16 0.836383 0.341116 0.328353
#
# Coordination Sequence:
#
# PCOD9097407 Si02
#       8
#     2   2   2   2   2   2   1   2
#     4  10  24  47  76 106 142 186 240 295 360 428
#     4  12  25  41  68 103 135 180 232 288 356 421
#     4  10  21  40  67  92 136 182 230 282 352 423
#     4  11  22  40  64  94 138 176 227 289 348 414
#     4  10  22  39  61 100 134 180 231 285 347 424
#     4  11  24  45  70  97 140 179 233 289 356 422
#     4  10  20  36  60  90 130 178 222 286 338 408
#     4  11  24  44  70 101 135 186 232 290 356 420
#
# _framework density 25.765736
#
# number of rings (size 3 to 8) (size 9 to 14) (size 15 to 20)
#    0.000    1.333    2.667    2.400    1.867    5.333 
#    0.000    0.667    0.000    0.000    0.000    0.000 
#    0.000    0.000    0.000    0.000    0.000    0.000 
#
# Total GULP energy -83584.135135 kJ/mol
# GULP energy per Si atom -5572.275676 kJ/mol
# Density = 2.570709 g / cm^3
# Si number density = 25.765736 Si / 1000 Ang^3
#
#
#
# Elastic Constant Matrix: (Units=GPa)
#
#
# Indices 1 2 3 4 5 6 
#
# 1 73.0134 16.3275 35.7922 10.9130 6.3504 -1.6968
# 2 16.3275 64.4434 31.2381 -4.7262 7.7597 -11.8658
# 3 35.7922 31.2381 153.8798 -25.2779 -8.9711 -1.1255
# 4 10.9130 -4.7262 -25.2779 44.0314 -2.1244 -4.5123
# 5 6.3504 7.7597 -8.9711 -2.1244 43.7055 -3.8040
# 6 -1.6968 -11.8658 -1.1255 -4.5123 -3.8040 31.9620
#
#
#
# Elastic Compliance Matrix: (Units=1/GPa)
#
#
# Indices 1 2 3 4 5 6 
#
# 1 0.018436 -0.002533 -0.005377 -0.008299 -0.003891 -0.001786
# 2 -0.002533 0.019471 -0.003266 0.001391 -0.003099 0.006807
# 3 -0.005377 -0.003266 0.009744 0.006780 0.003712 0.000244
# 4 -0.008299 0.001391 0.006780 0.029524 0.004220 0.004985
# 5 -0.003891 -0.003099 0.003712 0.004220 0.025169 0.002365
# 6 -0.001786 0.006807 0.000244 0.004985 0.002365 0.034713
#
#
# Mechanical properties :
#
#
# Convention : Reuss Voigt Hill
#
# Bulk Modulus (GPa) = 39.52795 50.89468 45.21132
# Shear Modulus (GPa) = 29.78984 37.80504 33.79744
#
# Velocity S-wave (km/s) = 3.40395 3.83464 3.62570
# Velocity P-wave (km/s) = 5.55192 6.27708 5.92560
#
# Compressibility (1/GPa) = 0.02529855
#
# Stress axis : x y z
#
# Youngs Moduli (GPa) = 54.24199 51.35880 102.62473
#
# Poissons Ratio (x) = 0.13011 0.55182
# Poissons Ratio (y) = 0.13742 0.33515
# Poissons Ratio (z) = 0.29166 0.16773
#
# Static dielectric constant tensor:
#      x y z
#    x 2.131810 0.062190 -0.052300 
#    y 0.062190 2.099830 -0.040330 
#    z -0.052300 -0.040330 1.993570 
# 
# From -- ./inp_files/45853.got.cif
#   From: 2010.05.17/outbox.cif.g08.bks.cpg/sg2_23_cif.got.tgz:45853.got - 2010.06.03 11:33:40.
