data_PCOD9097815
_publ_section_title
;
Structure prediction by ZEFSAII (Michael W. Deem and Ramdas Pophale) SiO2 
 PCOD9097815
Probable space group: P -1
;
_chemical_formula_sum "Si O2"
_cell_formula_units_Z 12
_cell_length_a 9.714316
_cell_length_b 6.647740
_cell_length_c 8.376641
_cell_angle_alpha 127.117924
_cell_angle_beta 96.653668
_cell_angle_gamma 85.922893
_cell_volume 428.444205
_symmetry_space_group_name_H-M "P -1"
_symmetry_group_IT_number 2
_symmetry_cell_setting 'triclinic'
loop_
_space_group_symop_operation_xyz
x,y,z
-x,-y,-z
loop_
_atom_site_type_symbol
_atom_site_label
_atom_site_fract_x
_atom_site_fract_y
_atom_site_fract_z
Si Si1 0.195073 0.138763 0.907753
Si Si2 0.613068 0.042617 0.900994
Si Si3 0.064439 0.144658 0.405027
Si Si4 0.175562 0.681524 0.328811
Si Si5 0.685185 0.548584 0.492950
Si Si6 0.434653 0.221391 0.711214
O O1 0.052177 0.005198 0.777936
O O2 0.303011 0.168388 0.787645
O O3 0.249186 0.961412 0.975892
O O4 0.177170 0.421346 0.109007
O O5 0.610741 0.772741 0.683072
O O6 0.561698 0.251697 0.869201
O O7 0.500000 0.000000 0.000000
O O8 0.186262 0.939340 0.354253
O O9 0.978720 0.261826 0.596219
O O10 0.153046 0.372579 0.458913
O O11 0.292718 0.667650 0.476156
O O12 0.616431 0.559788 0.314468
O O13 0.500000 0.000000 0.500000
#
# Coordination Sequence:
#
# PCOD9097815 Si02
#       6
#     2   2   2   2   2   2
#     4  10  20  37  62  88 121 157 193 244 297 350
#     4   8  17  34  59  85 113 157 198 236 293 345
#     4  11  22  37  61  90 123 153 193 248 298 350
#     4  10  22  38  57  89 124 157 194 237 297 355
#     4  10  20  36  62  89 117 156 196 240 297 353
#     4   9  17  34  62  86 113 159 199 236 294 348
#
# _framework density 28.008313999999999
#
# number of rings (size 3 to 8) (size 9 to 14) (size 15 to 20)
#    0.000    2.333    0.000    3.000    0.000    2.667 
#    0.000    3.333    0.000  129.000    0.000    0.000 
#    0.000    0.000    0.000    0.000    0.000    0.000 
#
# Total GULP energy -67085.904140 kJ/mol
# GULP energy per Si atom -5590.492012 kJ/mol
# Density = 2.794457 g / cm^3
# Si number density = 28.008314 Si / 1000 Ang^3
#
#
#
# Elastic Constant Matrix: (Units=GPa)
#
#
# Indices 1 2 3 4 5 6 
#
# 1 135.0425 41.7021 62.3773 -1.2677 -4.6960 -16.1196
# 2 41.7021 190.1981 72.0054 -19.7365 26.5535 -44.5543
# 3 62.3773 72.0054 174.1657 -17.1610 -1.3994 -19.5335
# 4 -1.2677 -19.7365 -17.1610 67.2521 -30.1192 12.3949
# 5 -4.6960 26.5535 -1.3994 -30.1192 47.7303 -4.5800
# 6 -16.1196 -44.5543 -19.5335 12.3949 -4.5800 48.1079
#
#
#
# Elastic Compliance Matrix: (Units=1/GPa)
#
#
# Indices 1 2 3 4 5 6 
#
# 1 0.009166 -0.000807 -0.002839 -0.000588 0.001033 0.001421
# 2 -0.000807 0.008573 -0.002752 -0.001852 -0.005474 0.006508
# 3 -0.002839 -0.002752 0.008123 0.002739 0.003160 -0.000606
# 4 -0.000588 -0.001852 0.002739 0.022613 0.014822 -0.005216
# 5 0.001033 -0.005474 0.003160 0.014822 0.033150 -0.004103
# 6 0.001421 0.006508 -0.000606 -0.005216 -0.004103 0.027997
#
#
# Mechanical properties :
#
#
# Convention : Reuss Voigt Hill
#
# Bulk Modulus (GPa) = 76.53690 94.61955 85.57822
# Shear Modulus (GPa) = 39.44034 54.17283 46.80659
#
# Velocity S-wave (km/s) = 3.75662 4.40269 4.09243
# Velocity P-wave (km/s) = 6.79721 7.72664 7.27678
#
# Compressibility (1/GPa) = 0.01306559
#
# Stress axis : x y z
#
# Youngs Moduli (GPa) = 109.10109 116.64586 123.10005
#
# Poissons Ratio (x) = 0.09416 0.34952
# Poissons Ratio (y) = 0.08807 0.33875
# Poissons Ratio (z) = 0.30977 0.32099
#
# Static dielectric constant tensor:
#      x y z
#    x 2.171390 0.023910 -0.020810 
#    y 0.023910 2.321710 -0.067370 
#    z -0.020810 -0.067370 2.218270 
# 
# From -- ./inp_files/236270.got.cif
#   From: 2010.05.17/outbox.cif.g08.bks.cpg/sg2_119_cif.got.tgz:236270.got - 2010.06.03 11:33:40.
