data_PCOD9097982
_publ_section_title
;
Structure prediction by ZEFSAII (Michael W. Deem and Ramdas Pophale) SiO2 
 PCOD9097982
Probable space group: P -1
;
_chemical_formula_sum "Si O2"
_cell_formula_units_Z 15
_cell_length_a 7.020379
_cell_length_b 13.787441
_cell_length_c 11.700399
_cell_angle_alpha 132.787857
_cell_angle_beta 55.079074
_cell_angle_gamma 128.209917
_cell_volume 629.874059
_symmetry_space_group_name_H-M "P -1"
_symmetry_group_IT_number 2
_symmetry_cell_setting 'triclinic'
loop_
_space_group_symop_operation_xyz
x,y,z
-x,-y,-z
loop_
_atom_site_type_symbol
_atom_site_label
_atom_site_fract_x
_atom_site_fract_y
_atom_site_fract_z
Si Si1 0.734466 0.536744 0.031840
Si Si2 0.122493 0.862673 0.151276
Si Si3 0.572291 0.628243 0.379483
Si Si4 0.487625 0.771020 0.806908
Si Si5 0.462410 0.096607 0.359428
Si Si6 0.929019 0.546854 0.306192
Si Si7 0.020922 0.941819 0.819880
Si Si8 0.000000 0.500000 0.500000
O O1 0.622305 0.525656 0.187043
O O2 0.925763 0.701402 0.094277
O O3 0.500000 0.500000 0.000000
O O4 0.884398 0.444169 0.856865
O O5 0.228876 0.947986 0.300379
O O6 0.369171 0.855092 0.998988
O O7 0.006951 0.950257 0.179177
O O8 0.592007 0.783629 0.453499
O O9 0.791218 0.654758 0.418831
O O10 0.298211 0.546918 0.459027
O O11 0.488651 0.833347 0.729219
O O12 0.292550 0.609934 0.748145
O O13 0.768906 0.800364 0.775698
O O14 0.718778 0.080910 0.296413
O O15 0.063841 0.555307 0.387197
O O16 0.000000 0.000000 0.000000
#
# Coordination Sequence:
#
# PCOD9097982 Si02
#       8
#     2   2   2   2   2   2   2   1
#     4  11  25  51  71  95 143 187 238 282 344 429
#     4  10  22  41  64  96 132 178 233 284 335 410
#     4  12  27  44  69 104 142 187 228 289 353 410
#     4  10  20  36  63 100 135 166 230 282 341 404
#     4  11  22  39  62 101 135 175 227 285 339 411
#     4  11  25  45  72 103 136 186 231 291 351 413
#     4  11  19  35  65  98 138 180 222 282 346 403
#     4  12  24  42  70 104 138 170 234 292 348 406
#
# _framework density 23.814285000000002
#
# number of rings (size 3 to 8) (size 9 to 14) (size 15 to 20)
#    0.000    1.067    5.333    1.600    1.867    2.667 
#    2.400    0.667    0.000    0.000    0.000    0.000 
#    0.000    0.000    0.000    0.000    0.000    0.000 
#
# Total GULP energy -83642.852363 kJ/mol
# GULP energy per Si atom -5576.190158 kJ/mol
# Density = 2.376008 g / cm^3
# Si number density = 23.814285 Si / 1000 Ang^3
#
#
#
# Elastic Constant Matrix: (Units=GPa)
#
#
# Indices 1 2 3 4 5 6 
#
# 1 162.4155 9.5174 55.2160 9.4965 -19.9676 12.5603
# 2 9.5174 50.4334 5.2894 5.1291 -7.6035 16.4880
# 3 55.2160 5.2894 114.5204 -9.0179 -8.7582 -0.8071
# 4 9.4965 5.1291 -9.0179 26.8102 -5.7857 -5.2147
# 5 -19.9676 -7.6035 -8.7582 -5.7857 38.3874 -4.3526
# 6 12.5603 16.4880 -0.8071 -5.2147 -4.3526 32.0662
#
#
#
# Elastic Compliance Matrix: (Units=1/GPa)
#
#
# Indices 1 2 3 4 5 6 
#
# 1 0.008539 0.001240 -0.004429 -0.005134 0.002381 -0.004605
# 2 0.001240 0.025969 -0.002414 -0.008656 0.002232 -0.015004
# 3 -0.004429 -0.002414 0.011692 0.007189 0.001496 0.004642
# 4 -0.005134 -0.008656 0.007189 0.047471 0.006133 0.015195
# 5 0.002381 0.002232 0.001496 0.006133 0.029329 0.002936
# 6 -0.004605 -0.015004 0.004642 0.015195 0.002936 0.043691
#
#
# Mechanical properties :
#
#
# Convention : Reuss Voigt Hill
#
# Bulk Modulus (GPa) = 28.57590 51.93500 40.25545
# Shear Modulus (GPa) = 26.37643 36.60917 31.49280
#
# Velocity S-wave (km/s) = 3.33166 3.92507 3.64047
# Velocity P-wave (km/s) = 5.17933 6.51131 5.88314
#
# Compressibility (1/GPa) = 0.03499453
#
# Stress axis : x y z
#
# Youngs Moduli (GPa) = 117.10762 38.50672 85.52685
#
# Poissons Ratio (x) = -0.04774 0.37880
# Poissons Ratio (y) = -0.14518 0.20645
# Poissons Ratio (z) = 0.51867 0.09295
#
# Static dielectric constant tensor:
#      x y z
#    x 1.845000 0.077140 0.027320 
#    y 0.077140 1.731510 -0.069300 
#    z 0.027320 -0.069300 1.939890 
# 
# From -- ./inp_files/367141.got.cif
#   From: 2010.05.17/outbox.cif.g08.bks.cpg/sg2_184_cif.got.tgz:367141.got - 2010.06.03 11:33:40.
