data_PCOD9097387
_publ_section_title
;
Structure prediction by ZEFSAII (Michael W. Deem and Ramdas Pophale) SiO2 
 PCOD9097387
Probable space group: P -1
;
_chemical_formula_sum "Si O2"
_cell_formula_units_Z 11
_cell_length_a 12.086894
_cell_length_b 10.767051
_cell_length_c 6.129086
_cell_angle_alpha 110.803583
_cell_angle_beta 45.209926
_cell_angle_gamma 127.748913
_cell_volume 443.460770
_symmetry_space_group_name_H-M "P -1"
_symmetry_group_IT_number 2
_symmetry_cell_setting 'triclinic'
loop_
_space_group_symop_operation_xyz
x,y,z
-x,-y,-z
loop_
_atom_site_type_symbol
_atom_site_label
_atom_site_fract_x
_atom_site_fract_y
_atom_site_fract_z
Si Si1 0.010375 0.301574 0.204496
Si Si2 0.258619 0.643124 0.659444
Si Si3 0.000000 0.000000 0.000000
Si Si4 0.279494 0.396464 0.261833
Si Si5 0.678053 0.872814 0.069959
Si Si6 0.700318 0.129937 0.897228
O O1 0.912014 0.365436 0.232465
O O2 0.044107 0.174543 0.971661
O O3 0.856101 0.199135 0.541650
O O4 0.188180 0.415706 0.181137
O O5 0.230694 0.472103 0.573851
O O6 0.455203 0.763243 0.336492
O O7 0.287329 0.724615 0.903311
O O8 0.779141 0.918477 0.189661
O O9 0.500000 0.500000 0.000000
O O10 0.234941 0.219023 0.221554
O O11 0.734488 0.029964 0.961987
O O12 0.500000 0.000000 0.000000
#
# Coordination Sequence:
#
# PCOD9097387 Si02
#       6
#     2   2   1   2   2   2
#     4  11  22  39  66  92 123 162 210 250 311 364
#     4  11  21  42  64  88 128 166 203 251 309 363
#     4  10  20  36  60  90 120 160 196 256 304 354
#     4   9  22  40  65  87 122 169 205 249 310 367
#     4  10  20  40  63  92 126 161 206 250 310 363
#     4  12  23  37  67  96 123 158 209 260 298 368
#
# _framework density 24.8049
#
# number of rings (size 3 to 8) (size 9 to 14) (size 15 to 20)
#    0.000    1.455    3.636    2.182    0.000    3.636 
#    0.000    0.909    4.000    0.000    0.000    0.000 
#    0.000    0.000    0.000    0.000    0.000    0.000 
#
# Total GULP energy -61274.255457 kJ/mol
# GULP energy per Si atom -5570.386860 kJ/mol
# Density = 2.474844 g / cm^3
# Si number density = 24.804900 Si / 1000 Ang^3
#
#
#
# Elastic Constant Matrix: (Units=GPa)
#
#
# Indices 1 2 3 4 5 6 
#
# 1 153.3865 30.0263 40.4104 0.6571 -38.3144 37.8713
# 2 30.0263 84.8197 32.3581 28.2965 -11.7295 7.9790
# 3 40.4104 32.3581 73.8076 7.4037 -12.4785 -4.6797
# 4 0.6571 28.2965 7.4037 57.3923 3.5524 -9.8696
# 5 -38.3144 -11.7295 -12.4785 3.5524 23.3809 -0.9704
# 6 37.8713 7.9790 -4.6797 -9.8696 -0.9704 57.9706
#
#
#
# Elastic Compliance Matrix: (Units=1/GPa)
#
#
# Indices 1 2 3 4 5 6 
#
# 1 0.017601 0.002727 -0.006650 -0.004539 0.026824 -0.012735
# 2 0.002727 0.019365 -0.007400 -0.010481 0.011552 -0.006635
# 3 -0.006650 -0.007400 0.019945 0.002668 -0.004064 0.007359
# 4 -0.004539 -0.010481 0.002668 0.024682 -0.014665 0.008580
# 5 0.026824 0.011552 -0.004064 -0.014665 0.091734 -0.020403
# 6 -0.012735 -0.006635 0.007359 0.008580 -0.020403 0.028196
#
#
# Mechanical properties :
#
#
# Convention : Reuss Voigt Hill
#
# Bulk Modulus (GPa) = 29.18152 57.51150 43.34651
# Shear Modulus (GPa) = 21.22322 41.69670 31.45996
#
# Velocity S-wave (km/s) = 2.92825 4.10443 3.56518
# Velocity P-wave (km/s) = 4.81900 6.76001 5.87028
#
# Compressibility (1/GPa) = 0.03426827
#
# Stress axis : x y z
#
# Youngs Moduli (GPa) = 56.81335 51.63904 50.13688
#
# Poissons Ratio (x) = -0.14084 0.33340
# Poissons Ratio (y) = -0.15495 0.37099
# Poissons Ratio (z) = 0.37780 0.38210
#
# Static dielectric constant tensor:
#      x y z
#    x 1.953260 0.035410 0.035200 
#    y 0.035410 2.025630 0.040580 
#    z 0.035200 0.040580 2.029340 
# 
# From -- ./inp_files/17189.got.cif
#   From: 2010.05.17/outbox.cif.g08.bks.cpg/sg2_9_cif.got.tgz:17189.got - 2010.06.03 11:33:40.
