data_PCOD9097202
_publ_section_title
;
Structure prediction by ZEFSAII (Michael W. Deem and Ramdas Pophale) SiO2 
 PCOD9097202
Probable space group: P -1
;
_chemical_formula_sum "Si O2"
_cell_formula_units_Z 14
_cell_length_a 8.177284
_cell_length_b 14.917525
_cell_length_c 11.608224
_cell_angle_alpha 127.182582
_cell_angle_beta 130.448134
_cell_angle_gamma 34.087594
_cell_volume 596.431090
_symmetry_space_group_name_H-M "P -1"
_symmetry_group_IT_number 2
_symmetry_cell_setting 'triclinic'
loop_
_space_group_symop_operation_xyz
x,y,z
-x,-y,-z
loop_
_atom_site_type_symbol
_atom_site_label
_atom_site_fract_x
_atom_site_fract_y
_atom_site_fract_z
Si Si1 0.839741 0.736670 0.652260
Si Si2 0.760681 0.549131 0.207752
Si Si3 0.126379 0.883552 0.633459
Si Si4 0.274084 0.054860 0.711102
Si Si5 0.495017 0.865036 0.382600
Si Si6 0.565752 0.415845 0.343350
Si Si7 0.183428 0.631206 0.118417
O O1 0.583992 0.781840 0.484872
O O2 0.983163 0.593519 0.694984
O O3 0.108596 0.671531 0.635527
O O4 0.644948 0.918206 0.751052
O O5 0.711995 0.701321 0.280896
O O6 0.435391 0.621989 0.167705
O O7 0.840632 0.457264 0.054775
O O8 0.951924 0.867811 0.446120
O O9 0.391172 0.726593 0.705525
O O10 0.863401 0.022197 0.709575
O O11 0.247556 0.941947 0.665242
O O12 0.130420 0.192182 0.845475
O O13 0.500000 0.000000 0.500000
O O14 0.500000 0.500000 0.500000
O O15 0.327045 0.530017 0.223272
#
# Coordination Sequence:
#
# PCOD9097202 Si02
#       7
#     2   2   2   2   2   2   2
#     4  10  23  37  64  95 122 162 215 262 308 367
#     4  10  22  40  61  91 128 170 210 255 312 383
#     4  10  20  36  59  93 124 158 207 260 311 365
#     4  10  20  37  62  91 123 166 206 256 308 374
#     4  11  20  37  63  93 124 160 206 265 311 365
#     4  11  21  38  63  94 125 164 210 266 311 369
#     4  10  21  40  63  88 129 171 209 253 317 379
#
# _framework density 23.472957000000001
#
# number of rings (size 3 to 8) (size 9 to 14) (size 15 to 20)
#    0.000    1.714    4.286    0.429    0.000    1.714 
#    0.000    2.143    0.000   10.286    0.000    0.000 
#    0.000    0.000    0.000    0.000    0.000    0.000 
#
# Total GULP energy -78018.761880 kJ/mol
# GULP energy per Si atom -5572.768706 kJ/mol
# Density = 2.341953 g / cm^3
# Si number density = 23.472957 Si / 1000 Ang^3
#
#
#
# Elastic Constant Matrix: (Units=GPa)
#
#
# Indices 1 2 3 4 5 6 
#
# 1 90.0317 41.8095 35.1423 11.2299 -24.1269 -2.9549
# 2 41.8095 155.3099 65.7035 33.9176 -16.8179 -3.7747
# 3 35.1423 65.7035 99.5221 33.1662 -23.8416 6.7324
# 4 11.2299 33.9176 33.1662 35.1240 -3.7022 -10.2176
# 5 -24.1269 -16.8179 -23.8416 -3.7022 28.2041 4.2490
# 6 -2.9549 -3.7747 6.7324 -10.2176 4.2490 38.1164
#
#
#
# Elastic Compliance Matrix: (Units=1/GPa)
#
#
# Indices 1 2 3 4 5 6 
#
# 1 0.015677 -0.002462 -0.001107 -0.000487 0.010971 -0.000187
# 2 -0.002462 0.009871 -0.004189 -0.004747 -0.000430 0.000302
# 3 -0.001107 -0.004189 0.025197 -0.021254 0.016954 -0.012539
# 4 -0.000487 -0.004747 -0.021254 0.057484 -0.016761 0.020524
# 5 0.010971 -0.000430 0.016954 -0.016761 0.058709 -0.013224
# 6 -0.000187 0.000302 -0.012539 0.020524 -0.013224 0.035441
#
#
# Mechanical properties :
#
#
# Convention : Reuss Voigt Hill
#
# Bulk Modulus (GPa) = 28.38509 70.01936 49.20222
# Shear Modulus (GPa) = 21.77332 33.76945 27.77138
#
# Velocity S-wave (km/s) = 3.04894 3.79707 3.44339
# Velocity P-wave (km/s) = 4.95113 7.00844 6.06762
#
# Compressibility (1/GPa) = 0.03522976
#
# Stress axis : x y z
#
# Youngs Moduli (GPa) = 63.78575 101.30587 39.68708
#
# Poissons Ratio (x) = 0.24942 0.04394
# Poissons Ratio (y) = 0.15705 0.16624
# Poissons Ratio (z) = 0.07062 0.42435
#
# Static dielectric constant tensor:
#      x y z
#    x 1.997730 -0.089240 -0.025690 
#    y -0.089240 1.994200 0.096410 
#    z -0.025690 0.096410 1.961470 
# 
# From -- ./inp_files/397672.got.cif
#   From: 2010.05.17/outbox.cif.g08.bks.cpg/sg2_199_cif.got.tgz:397672.got - 2010.06.03 11:33:40.
