data_PCOD9097742
_publ_section_title
;
Structure prediction by ZEFSAII (Michael W. Deem and Ramdas Pophale) SiO2 
 PCOD9097742
Probable space group: P -1
;
_chemical_formula_sum "Si O2"
_cell_formula_units_Z 16
_cell_length_a 11.111799
_cell_length_b 8.115411
_cell_length_c 7.118443
_cell_angle_alpha 80.781167
_cell_angle_beta 95.377723
_cell_angle_gamma 91.102043
_cell_volume 630.832550
_symmetry_space_group_name_H-M "P -1"
_symmetry_group_IT_number 2
_symmetry_cell_setting 'triclinic'
loop_
_space_group_symop_operation_xyz
x,y,z
-x,-y,-z
loop_
_atom_site_type_symbol
_atom_site_label
_atom_site_fract_x
_atom_site_fract_y
_atom_site_fract_z
Si Si1 0.692602 0.834585 0.733977
Si Si2 0.952513 0.695660 0.784082
Si Si3 0.930017 0.991093 0.196205
Si Si4 0.979339 0.341128 0.760131
Si Si5 0.464383 0.599678 0.667712
Si Si6 0.515965 0.257310 0.839377
Si Si7 0.660798 0.001137 0.109777
Si Si8 0.726883 0.207743 0.581796
O O1 0.807783 0.711878 0.767666
O O2 0.572446 0.732300 0.685545
O O3 0.718895 0.007274 0.592852
O O4 0.682050 0.905136 0.931587
O O5 0.991498 0.538236 0.696130
O O6 0.997416 0.877268 0.692946
O O7 0.010093 0.671789 0.006489
O O8 0.794321 0.054689 0.168893
O O9 0.925107 0.794323 0.274341
O O10 0.000000 0.000000 0.000000
O O11 0.854905 0.270161 0.667312
O O12 0.500000 0.500000 0.500000
O O13 0.464865 0.439382 0.833026
O O14 0.334705 0.688505 0.613751
O O15 0.411802 0.138244 0.759629
O O16 0.631640 0.251928 0.723694
O O17 0.571086 0.155411 0.040749
#
# Coordination Sequence:
#
# PCOD9097742 Si02
#       8
#     2   2   2   2   2   2   2   2
#     4  11  18  31  53  80 108 136 179 220 275 314
#     4  10  17  27  49  80 104 135 166 224 276 305
#     4  10  16  31  48  77 109 133 167 215 270 319
#     4  10  18  29  50  78 107 131 172 221 266 313
#     4  10  21  34  50  75 105 143 185 219 253 316
#     4   9  19  34  51  75 108 143 174 215 271 319
#     4  10  19  33  54  77 112 139 167 224 279 319
#     4  10  19  35  53  77 110 144 179 217 258 317
#
# _framework density 25.363309000000001
#
# number of rings (size 3 to 8) (size 9 to 14) (size 15 to 20)
#    0.000    2.000    3.750    4.125    0.000    1.500 
#    0.000    0.000    0.000    0.750    0.000    4.375 
#    0.000    0.000    0.000    0.000    0.000    0.000 
#
# Total GULP energy -89362.336832 kJ/mol
# GULP energy per Si atom -5585.146052 kJ/mol
# Density = 2.530558 g / cm^3
# Si number density = 25.363309 Si / 1000 Ang^3
#
#
#
# Elastic Constant Matrix: (Units=GPa)
#
#
# Indices 1 2 3 4 5 6 
#
# 1 110.3747 21.6570 25.4425 -6.4230 34.4781 -2.9196
# 2 21.6570 186.5950 47.5433 -20.1678 26.5355 -8.9862
# 3 25.4425 47.5433 61.6575 4.5010 8.8195 -10.7106
# 4 -6.4230 -20.1678 4.5010 45.8697 -5.6925 6.9615
# 5 34.4781 26.5355 8.8195 -5.6925 36.2918 -0.5523
# 6 -2.9196 -8.9862 -10.7106 6.9615 -0.5523 27.3706
#
#
#
# Elastic Compliance Matrix: (Units=1/GPa)
#
#
# Indices 1 2 3 4 5 6 
#
# 1 0.014211 0.001828 -0.005668 0.001841 -0.013185 -0.000836
# 2 0.001828 0.007956 -0.006549 0.003859 -0.005370 -0.000846
# 3 -0.005668 -0.006549 0.025256 -0.007140 0.003053 0.009006
# 4 0.001841 0.003859 -0.007140 0.025785 0.001090 -0.007867
# 5 -0.013185 -0.005370 0.003053 0.001090 0.043415 -0.001376
# 6 -0.000836 -0.000846 0.009006 -0.007867 -0.001376 0.041666
#
#
# Mechanical properties :
#
#
# Convention : Reuss Voigt Hill
#
# Bulk Modulus (GPa) = 37.52911 60.87920 49.20416
# Shear Modulus (GPa) = 26.60305 39.50539 33.05422
#
# Velocity S-wave (km/s) = 3.24215 3.95090 3.61394
# Velocity P-wave (km/s) = 5.37068 6.69834 6.07091
#
# Compressibility (1/GPa) = 0.02664598
#
# Stress axis : x y z
#
# Youngs Moduli (GPa) = 70.36680 125.69542 39.59381
#
# Poissons Ratio (x) = -0.22981 0.22440
# Poissons Ratio (y) = -0.12865 0.25932
# Poissons Ratio (z) = 0.39881 0.82324
#
# Static dielectric constant tensor:
#      x y z
#    x 1.941930 0.014640 -0.040450 
#    y 0.014640 2.062810 -0.146410 
#    z -0.040450 -0.146410 2.420080 
# 
# From -- ./inp_files/243139.got.cif
#   From: 2010.05.17/outbox.cif.g08.bks.cpg/sg2_122_cif.got.tgz:243139.got - 2010.06.03 11:33:40.
