data_PCOD9097615
_publ_section_title
;
Structure prediction by ZEFSAII (Michael W. Deem and Ramdas Pophale) SiO2 
 PCOD9097615
Probable space group: P -1
;
_chemical_formula_sum "Si O2"
_cell_formula_units_Z 12
_cell_length_a 5.185490
_cell_length_b 8.372281
_cell_length_c 15.800185
_cell_angle_alpha 54.091284
_cell_angle_beta 72.891739
_cell_angle_gamma 103.044642
_cell_volume 455.348041
_symmetry_space_group_name_H-M "P -1"
_symmetry_group_IT_number 2
_symmetry_cell_setting 'triclinic'
loop_
_space_group_symop_operation_xyz
x,y,z
-x,-y,-z
loop_
_atom_site_type_symbol
_atom_site_label
_atom_site_fract_x
_atom_site_fract_y
_atom_site_fract_z
Si Si1 0.909261 0.058907 0.899063
Si Si2 0.109884 0.806311 0.851197
Si Si3 0.799175 0.356782 0.931249
Si Si4 0.192200 0.881125 0.349667
Si Si5 0.283939 0.104899 0.503770
Si Si6 0.753186 0.479594 0.425070
O O1 0.909560 0.290131 0.854788
O O2 0.115016 0.036494 0.811778
O O3 0.565333 0.846376 0.971658
O O4 0.000000 0.000000 0.000000
O O5 0.877518 0.615355 0.864298
O O6 0.079559 0.061338 0.622192
O O7 0.047871 0.682907 0.987365
O O8 0.533519 0.101967 0.240675
O O9 0.196321 0.716046 0.474799
O O10 0.083306 0.713196 0.331181
O O11 0.546226 0.373985 0.393993
O O12 0.500000 0.000000 0.500000
O O13 0.000000 0.000000 0.500000
O O14 0.500000 0.500000 0.500000
#
# Coordination Sequence:
#
# PCOD9097615 Si02
#       6
#     2   2   2   2   2   2
#     4   9  18  35  57  81 120 164 201 247 312 366
#     4  10  20  36  61  90 118 160 206 257 307 370
#     4   9  19  37  58  85 123 163 199 251 311 373
#     4  10  21  39  60  92 120 163 216 257 314 383
#     4  11  21  40  64  89 125 167 202 261 321 375
#     4   9  20  39  62  82 121 164 203 256 320 374
#
# _framework density 26.353467999999999
#
# number of rings (size 3 to 8) (size 9 to 14) (size 15 to 20)
#    0.000    2.333    1.667    0.500    0.000    2.667 
#    3.000    5.000    0.000    0.000    0.000    0.000 
#    0.000    0.000    0.000    0.000    0.000    0.000 
#
# Total GULP energy -66846.473103 kJ/mol
# GULP energy per Si atom -5570.539425 kJ/mol
# Density = 2.629349 g / cm^3
# Si number density = 26.353468 Si / 1000 Ang^3
#
#
#
# Elastic Constant Matrix: (Units=GPa)
#
#
# Indices 1 2 3 4 5 6 
#
# 1 139.3239 69.1149 11.9722 -5.2108 -17.2963 -11.2108
# 2 69.1149 260.6901 18.4020 -6.1433 -17.5552 25.2376
# 3 11.9722 18.4020 60.7980 -6.0669 -5.9566 -0.5410
# 4 -5.2108 -6.1433 -6.0669 27.6724 6.1024 -7.7790
# 5 -17.2963 -17.5552 -5.9566 6.1024 47.2913 -3.0571
# 6 -11.2108 25.2376 -0.5410 -7.7790 -3.0571 66.8805
#
#
#
# Elastic Compliance Matrix: (Units=1/GPa)
#
#
# Indices 1 2 3 4 5 6 
#
# 1 0.008976 -0.002405 -0.000665 0.001247 0.002317 0.002657
# 2 -0.002405 0.004795 -0.000969 -0.000379 0.000683 -0.002233
# 3 -0.000665 -0.000969 0.017339 0.003437 0.001193 0.000849
# 4 0.001247 -0.000379 0.003437 0.039265 -0.004011 0.004763
# 5 0.002317 0.000683 0.001193 -0.004011 0.022961 0.000723
# 6 0.002657 -0.002233 0.000849 0.004763 0.000723 0.016834
#
#
# Mechanical properties :
#
#
# Convention : Reuss Voigt Hill
#
# Bulk Modulus (GPa) = 43.41313 73.31003 58.36158
# Shear Modulus (GPa) = 39.70660 52.45703 46.08182
#
# Velocity S-wave (km/s) = 3.88583 4.46636 4.18617
# Velocity P-wave (km/s) = 6.05327 7.38080 6.74975
#
# Compressibility (1/GPa) = 0.02303450
#
# Stress axis : x y z
#
# Youngs Moduli (GPa) = 111.41296 208.54526 57.67246
#
# Poissons Ratio (x) = 0.50146 0.03833
# Poissons Ratio (y) = 0.26790 0.05586
# Poissons Ratio (z) = 0.07404 0.20200
#
# Static dielectric constant tensor:
#      x y z
#    x 2.100050 -0.074540 0.229430 
#    y -0.074540 2.218520 0.050090 
#    z 0.229430 0.050090 1.648950 
# 
# From -- ./inp_files/547799.got.cif
#   From: 2010.05.17/outbox.cif.g08.bks.cpg/sg2_274_cif.got.tgz:547799.got - 2010.06.03 11:33:40.
