data_PCOD9097681
_publ_section_title
;
Structure prediction by ZEFSAII (Michael W. Deem and Ramdas Pophale) SiO2 
 PCOD9097681
Probable space group: P -1
;
_chemical_formula_sum "Si O2"
_cell_formula_units_Z 16
_cell_length_a 14.777463
_cell_length_b 12.729455
_cell_length_c 8.970162
_cell_angle_alpha 57.633934
_cell_angle_beta 101.517475
_cell_angle_gamma 52.208814
_cell_volume 689.667315
_symmetry_space_group_name_H-M "P -1"
_symmetry_group_IT_number 2
_symmetry_cell_setting 'triclinic'
loop_
_space_group_symop_operation_xyz
x,y,z
-x,-y,-z
loop_
_atom_site_type_symbol
_atom_site_label
_atom_site_fract_x
_atom_site_fract_y
_atom_site_fract_z
Si Si1 0.321794 0.991416 0.312991
Si Si2 0.510811 0.975630 0.200623
Si Si3 0.923760 0.906558 0.967262
Si Si4 0.386927 0.720983 0.180848
Si Si5 0.597524 0.468268 0.931013
Si Si6 0.807048 0.656770 0.785162
Si Si7 0.242794 0.489745 0.877580
Si Si8 0.782020 0.350107 0.533491
O O1 0.401961 0.977196 0.212978
O O2 0.331082 0.080255 0.380908
O O3 0.119914 0.161098 0.097974
O O4 0.452265 0.722618 0.597759
O O5 0.398985 0.220704 0.053413
O O6 0.712822 0.740447 0.530118
O O7 0.500000 0.000000 0.000000
O O8 0.789096 0.030800 0.969217
O O9 0.850941 0.125666 0.715540
O O10 0.130784 0.693872 0.254395
O O11 0.500000 0.500000 0.500000
O O12 0.314752 0.726443 0.012662
O O13 0.555587 0.612029 0.262756
O O14 0.714840 0.430548 0.087752
O O15 0.500000 0.500000 0.000000
O O16 0.822569 0.519255 0.001452
O O17 0.000000 0.500000 0.000000
O O18 0.137346 0.662256 0.565118
#
# Coordination Sequence:
#
# PCOD9097681 Si02
#       8
#     2   2   2   2   2   2   2   2
#     4  11  21  44  67  88 132 173 212 275 328 391
#     4  11  25  40  71  96 121 175 230 270 336 395
#     4  10  22  40  63 100 137 169 219 275 336 399
#     4  10  20  36  61  93 127 172 215 247 328 401
#     4  12  20  37  68  95 125 171 214 257 329 401
#     4  11  25  47  65  96 132 174 227 281 341 392
#     4  11  22  44  64  91 132 171 222 273 330 401
#     4  10  21  39  63  94 137 169 212 276 335 393
#
# _framework density 23.199593
#
# number of rings (size 3 to 8) (size 9 to 14) (size 15 to 20)
#    0.000    1.250    6.250    0.750    1.750    2.000 
#    9.000    3.125    0.000    0.000    0.000    0.000 
#    0.000    0.000    0.000    0.000    0.000    0.000 
#
# Total GULP energy -89234.507727 kJ/mol
# GULP energy per Si atom -5577.156733 kJ/mol
# Density = 2.314679 g / cm^3
# Si number density = 23.199593 Si / 1000 Ang^3
#
#
#
# Elastic Constant Matrix: (Units=GPa)
#
#
# Indices 1 2 3 4 5 6 
#
# 1 125.5121 18.3909 58.1292 12.0329 -12.8736 6.4102
# 2 18.3909 81.3582 22.3894 21.0481 -5.9288 6.7234
# 3 58.1292 22.3894 100.4716 25.7922 -4.1920 -12.4044
# 4 12.0329 21.0481 25.7922 33.3517 -7.8163 -1.0087
# 5 -12.8736 -5.9288 -4.1920 -7.8163 33.3431 9.2140
# 6 6.4102 6.7234 -12.4044 -1.0087 9.2140 34.7809
#
#
#
# Elastic Compliance Matrix: (Units=1/GPa)
#
#
# Indices 1 2 3 4 5 6 
#
# 1 0.012836 -0.000365 -0.008937 0.003851 0.006640 -0.007130
# 2 -0.000365 0.015360 -0.001579 -0.008082 0.001639 -0.004134
# 3 -0.008937 -0.001579 0.019629 -0.012291 -0.007035 0.010460
# 4 0.003851 -0.008082 -0.012291 0.045523 0.010560 -0.005008
# 5 0.006640 0.001639 -0.007035 0.010560 0.038274 -0.013883
# 6 -0.007130 -0.004134 0.010460 -0.005008 -0.013883 0.038127
#
#
# Mechanical properties :
#
#
# Convention : Reuss Voigt Hill
#
# Bulk Modulus (GPa) = 38.36891 56.12899 47.24895
# Shear Modulus (GPa) = 24.97516 34.19064 29.58290
#
# Velocity S-wave (km/s) = 3.28462 3.84312 3.57479
# Velocity P-wave (km/s) = 5.56412 6.62867 6.11959
#
# Compressibility (1/GPa) = 0.02606277
#
# Stress axis : x y z
#
# Youngs Moduli (GPa) = 77.90670 65.10283 50.94613
#
# Poissons Ratio (x) = 0.02379 0.45530
# Poissons Ratio (y) = 0.02847 0.08043
# Poissons Ratio (z) = 0.69624 0.10278
#
# Static dielectric constant tensor:
#      x y z
#    x 1.868680 -0.014610 0.049040 
#    y -0.014610 1.974290 0.000950 
#    z 0.049040 0.000950 1.917870 
# 
# From -- ./inp_files/314662.got.cif
#   From: 2010.05.17/outbox.cif.g08.bks.cpg/sg2_158_cif.got.tgz:314662.got - 2010.06.03 11:33:40.
