data_PCOD9097719
_publ_section_title
;
Structure prediction by ZEFSAII (Michael W. Deem and Ramdas Pophale) SiO2 
 PCOD9097719
Probable space group: P -1
;
_chemical_formula_sum "Si O2"
_cell_formula_units_Z 16
_cell_length_a 16.215977
_cell_length_b 7.563403
_cell_length_c 8.704335
_cell_angle_alpha 67.398903
_cell_angle_beta 74.282056
_cell_angle_gamma 35.361726
_cell_volume 568.584419
_symmetry_space_group_name_H-M "P -1"
_symmetry_group_IT_number 2
_symmetry_cell_setting 'triclinic'
loop_
_space_group_symop_operation_xyz
x,y,z
-x,-y,-z
loop_
_atom_site_type_symbol
_atom_site_label
_atom_site_fract_x
_atom_site_fract_y
_atom_site_fract_z
Si Si1 0.886791 0.847949 0.831080
Si Si2 0.144465 0.840880 0.548930
Si Si3 0.203618 0.207463 0.761245
Si Si4 0.523056 0.770526 0.385501
Si Si5 0.285390 0.205253 0.132159
Si Si6 0.078103 0.559296 0.406093
Si Si7 0.748053 0.288973 0.014343
Si Si8 0.508062 0.746001 0.739175
O O1 0.785587 0.843827 0.908524
O O2 0.049459 0.499941 0.823709
O O3 0.831740 0.047050 0.636631
O O4 0.879096 0.014059 0.919196
O O5 0.306607 0.505398 0.622399
O O6 0.000000 0.000000 0.500000
O O7 0.057187 0.061345 0.669563
O O8 0.178515 0.385631 0.563603
O O9 0.354481 0.015613 0.806459
O O10 0.241319 0.916467 0.814135
O O11 0.499855 0.692493 0.582571
O O12 0.440730 0.867720 0.236042
O O13 0.449749 0.106807 0.343975
O O14 0.178531 0.391638 0.268993
O O15 0.275732 0.448434 0.006871
O O16 0.000000 0.500000 0.500000
O O17 0.619648 0.470065 0.897888
#
# Coordination Sequence:
#
# PCOD9097719 Si02
#       8
#     2   2   2   2   2   2   2   2
#     4  11  23  41  62  96 127 169 212 262 316 379
#     4  11  21  35  63  93 128 160 210 260 318 373
#     4  11  22  39  66  89 129 170 212 261 322 375
#     4  10  20  36  61  98 124 166 207 267 322 368
#     4  11  23  42  67  92 135 161 215 267 312 383
#     4  11  21  40  60  94 127 160 208 267 312 370
#     4  11  24  42  65  92 125 176 212 257 322 380
#     4  10  20  36  63  91 127 164 214 259 313 380
#
# _framework density 28.140059999999998
#
# number of rings (size 3 to 8) (size 9 to 14) (size 15 to 20)
#    0.000    1.250    5.000    3.000    1.750    1.000 
#    2.250    0.000    0.000    2.250    0.000    0.000 
#    0.000    0.000    0.000    0.000    0.000    0.000 
#
# Total GULP energy -89204.554340 kJ/mol
# GULP energy per Si atom -5575.284646 kJ/mol
# Density = 2.807601 g / cm^3
# Si number density = 28.140060 Si / 1000 Ang^3
#
#
#
# Elastic Constant Matrix: (Units=GPa)
#
#
# Indices 1 2 3 4 5 6 
#
# 1 103.5979 31.4723 25.1728 -17.3364 -10.8737 -18.6047
# 2 31.4723 139.0880 34.4929 -15.7290 -9.4665 -33.1144
# 3 25.1728 34.4929 115.1656 -18.8218 -10.7729 -7.7235
# 4 -17.3364 -15.7290 -18.8218 55.6934 -9.0761 -6.4024
# 5 -10.8737 -9.4665 -10.7729 -9.0761 41.3609 -8.4125
# 6 -18.6047 -33.1144 -7.7235 -6.4024 -8.4125 42.7917
#
#
#
# Elastic Compliance Matrix: (Units=1/GPa)
#
#
# Indices 1 2 3 4 5 6 
#
# 1 0.012697 0.000138 -0.000868 0.005511 0.005868 0.007449
# 2 0.000138 0.010684 -0.001350 0.004562 0.005119 0.009773
# 3 -0.000868 -0.001350 0.010263 0.003527 0.003234 0.001594
# 4 0.005511 0.004562 0.003527 0.025493 0.011579 0.012653
# 5 0.005868 0.005119 0.003234 0.011579 0.033406 0.015396
# 6 0.007449 0.009773 0.001594 0.012653 0.015396 0.039378
#
#
# Mechanical properties :
#
#
# Convention : Reuss Voigt Hill
#
# Bulk Modulus (GPa) = 33.91538 60.01415 46.96476
# Shear Modulus (GPa) = 34.26746 45.75011 40.00878
#
# Velocity S-wave (km/s) = 3.49341 4.03650 3.77473
# Velocity P-wave (km/s) = 5.32451 6.56488 5.97696
#
# Compressibility (1/GPa) = 0.02948515
#
# Stress axis : x y z
#
# Youngs Moduli (GPa) = 78.75614 93.59368 97.43611
#
# Poissons Ratio (x) = -0.01293 0.08454
# Poissons Ratio (y) = -0.01088 0.13158
# Poissons Ratio (z) = 0.06833 0.12639
#
# Static dielectric constant tensor:
#      x y z
#    x 2.881810 0.438120 0.417090 
#    y 0.438120 2.315080 0.126470 
#    z 0.417090 0.126470 2.443990 
# 
# From -- ./inp_files/461903.got.cif
#   From: 2010.05.17/outbox.cif.g08.bks.cpg/sg2_231_cif.got.tgz:461903.got - 2010.06.03 11:33:40.
