data_PCOD9097539
_publ_section_title
;
Structure prediction by ZEFSAII (Michael W. Deem and Ramdas Pophale) SiO2 
 PCOD9097539
Probable space group: P -1
;
_chemical_formula_sum "Si O2"
_cell_formula_units_Z 12
_cell_length_a 13.108997
_cell_length_b 8.691989
_cell_length_c 16.659713
_cell_angle_alpha 146.682349
_cell_angle_beta 32.971640
_cell_angle_gamma 149.971850
_cell_volume 473.517457
_symmetry_space_group_name_H-M "P -1"
_symmetry_group_IT_number 2
_symmetry_cell_setting 'triclinic'
loop_
_space_group_symop_operation_xyz
x,y,z
-x,-y,-z
loop_
_atom_site_type_symbol
_atom_site_label
_atom_site_fract_x
_atom_site_fract_y
_atom_site_fract_z
Si Si1 0.061597 0.401716 0.695222
Si Si2 0.048200 0.766889 0.472536
Si Si3 0.123196 0.805916 0.986380
Si Si4 0.471412 0.033678 0.127183
Si Si5 0.694233 0.790417 0.276706
Si Si6 0.672231 0.310055 0.632537
O O1 0.106304 0.476425 0.604146
O O2 0.141239 0.673914 0.830268
O O3 0.790347 0.191159 0.781386
O O4 0.131612 0.143824 0.559189
O O5 0.250366 0.731146 0.349652
O O6 0.878288 0.660403 0.613117
O O7 0.371064 0.048569 0.963578
O O8 0.000000 0.500000 0.000000
O O9 0.949835 0.917610 0.144620
O O10 0.571112 0.427469 0.243600
O O11 0.500000 0.000000 0.000000
O O12 0.557270 0.731829 0.259167
O O13 0.676955 0.030849 0.454318
#
# Coordination Sequence:
#
# PCOD9097539 Si02
#       6
#     2   2   2   2   2   2
#     4  11  21  40  60  95 115 147 206 245 288 335
#     4  10  22  38  61  85 120 157 194 244 287 353
#     4  10  20  36  61  88 117 150 194 247 287 340
#     4  11  20  35  65  90 114 151 200 246 291 341
#     4  10  20  36  61  87 113 157 202 233 287 364
#     4  10  21  39  60  82 122 162 191 230 304 354
#
# _framework density 25.342255000000002
#
# number of rings (size 3 to 8) (size 9 to 14) (size 15 to 20)
#    0.000    1.667    5.000    2.000    0.000    0.000 
#    6.000    4.167    0.000    0.000    0.000    0.000 
#    0.000    0.000    0.000    0.000    0.000    0.000 
#
# Total GULP energy -67180.830997 kJ/mol
# GULP energy per Si atom -5598.402583 kJ/mol
# Density = 2.528457 g / cm^3
# Si number density = 25.342255 Si / 1000 Ang^3
#
#
#
# Elastic Constant Matrix: (Units=GPa)
#
#
# Indices 1 2 3 4 5 6 
#
# 1 199.8437 17.3896 45.1968 -13.6662 -26.1121 26.4657
# 2 17.3896 49.2185 -0.3513 -8.2649 -9.7216 13.3747
# 3 45.1968 -0.3513 66.3078 -3.7954 -6.1509 9.1419
# 4 -13.6662 -8.2649 -3.7954 29.4511 10.8744 -3.7499
# 5 -26.1121 -9.7216 -6.1509 10.8744 56.7596 -9.0616
# 6 26.4657 13.3747 9.1419 -3.7499 -9.0616 37.8859
#
#
#
# Elastic Compliance Matrix: (Units=1/GPa)
#
#
# Indices 1 2 3 4 5 6 
#
# 1 0.006674 -0.001063 -0.003933 0.001283 0.001771 -0.002787
# 2 -0.001063 0.023874 0.002306 0.004929 0.001734 -0.007339
# 3 -0.003933 0.002306 0.018149 0.000856 0.000012 -0.002359
# 4 0.001283 0.004929 0.000856 0.038146 -0.005856 -0.000468
# 5 0.001771 0.001734 0.000012 -0.005856 0.020238 0.002409
# 6 -0.002787 -0.007339 -0.002359 -0.000468 0.002409 0.032032
#
#
# Mechanical properties :
#
#
# Convention : Reuss Voigt Hill
#
# Bulk Modulus (GPa) = 23.08529 48.87113 35.97821
# Shear Modulus (GPa) = 31.45973 41.69497 36.57735
#
# Velocity S-wave (km/s) = 3.52717 4.06060 3.80325
# Velocity P-wave (km/s) = 5.07120 6.42736 5.78913
#
# Compressibility (1/GPa) = 0.04331763
#
# Stress axis : x y z
#
# Youngs Moduli (GPa) = 149.83045 41.88607 55.09811
#
# Poissons Ratio (x) = 0.04454 0.21669
# Poissons Ratio (y) = 0.15934 -0.12707
# Poissons Ratio (z) = 0.58927 -0.09660
#
# Static dielectric constant tensor:
#      x y z
#    x 2.100230 -0.069840 0.022060 
#    y -0.069840 2.076920 -0.003430 
#    z 0.022060 -0.003430 2.038030 
# 
# From -- ./inp_files/185000.got.cif
#   From: 2010.05.17/outbox.cif.g08.bks.cpg/sg2_93_cif.got.tgz:185000.got - 2010.06.03 11:33:40.
