data_PCOD9097537
_publ_section_title
;
Structure prediction by ZEFSAII (Michael W. Deem and Ramdas Pophale) SiO2 
 PCOD9097537
Probable space group: P -1
;
_chemical_formula_sum "Si O2"
_cell_formula_units_Z 16
_cell_length_a 14.232701
_cell_length_b 10.817088
_cell_length_c 14.900935
_cell_angle_alpha 136.651381
_cell_angle_beta 40.451265
_cell_angle_gamma 151.484690
_cell_volume 697.749112
_symmetry_space_group_name_H-M "P -1"
_symmetry_group_IT_number 2
_symmetry_cell_setting 'triclinic'
loop_
_space_group_symop_operation_xyz
x,y,z
-x,-y,-z
loop_
_atom_site_type_symbol
_atom_site_label
_atom_site_fract_x
_atom_site_fract_y
_atom_site_fract_z
Si Si1 0.878027 0.878956 0.118271
Si Si2 0.201162 0.578267 0.860154
Si Si3 0.358327 0.010339 0.551801
Si Si4 0.062835 0.759762 0.475052
Si Si5 0.907471 0.987406 0.790251
Si Si6 0.314144 0.264842 0.446297
Si Si7 0.229856 0.558388 0.627357
Si Si8 0.489646 0.710234 0.860714
O O1 0.752854 0.943741 0.278800
O O2 0.701086 0.560339 0.089549
O O3 0.063129 0.011886 0.125687
O O4 0.000000 0.000000 0.000000
O O5 0.242823 0.663514 0.770703
O O6 0.381712 0.762269 0.901972
O O7 0.116639 0.293710 0.774415
O O8 0.000000 0.500000 0.000000
O O9 0.539443 0.253890 0.483629
O O10 0.500000 0.000000 0.500000
O O11 0.183424 0.785903 0.487118
O O12 0.925428 0.804725 0.636900
O O13 0.921862 0.509730 0.378494
O O14 0.228259 0.007139 0.418795
O O15 0.695584 0.903821 0.876374
O O16 0.500000 0.500000 0.500000
O O17 0.154058 0.285836 0.560395
O O18 0.410154 0.314721 0.306098
#
# Coordination Sequence:
#
# PCOD9097537 Si02
#       8
#     2   2   2   2   2   2   2   2
#     4  10  22  40  59  84 114 155 206 253 295 344
#     4  11  24  37  54  88 131 159 181 229 303 373
#     4  11  24  40  59  86 122 162 202 247 299 354
#     4  11  20  35  64  96 114 144 201 257 297 341
#     4  10  20  36  61  87 113 149 197 249 295 350
#     4  12  16  32  63  96 113 138 187 254 301 336
#     4  12  21  37  63  90 119 151 197 247 297 348
#     4  11  20  36  60  85 114 148 198 246 291 348
#
# _framework density 22.930879000000001
#
# number of rings (size 3 to 8) (size 9 to 14) (size 15 to 20)
#    0.000    1.000    6.250    1.875    0.000    3.500 
#    0.000    1.250    0.000    0.000    0.000    0.000 
#    0.000    0.000    0.000    0.000    0.000    0.000 
#
# Total GULP energy -89204.124954 kJ/mol
# GULP energy per Si atom -5575.257810 kJ/mol
# Density = 2.287869 g / cm^3
# Si number density = 22.930879 Si / 1000 Ang^3
#
#
#
# Elastic Constant Matrix: (Units=GPa)
#
#
# Indices 1 2 3 4 5 6 
#
# 1 202.3013 36.7547 63.2445 -3.2136 11.0654 46.0820
# 2 36.7547 74.8192 20.1942 -15.1024 18.2194 21.8642
# 3 63.2445 20.1942 115.2842 -28.5549 26.2032 2.7966
# 4 -3.2136 -15.1024 -28.5549 21.8581 -8.5209 2.2233
# 5 11.0654 18.2194 26.2032 -8.5209 49.5689 -7.7512
# 6 46.0820 21.8642 2.7966 2.2233 -7.7512 43.4382
#
#
#
# Elastic Compliance Matrix: (Units=1/GPa)
#
#
# Indices 1 2 3 4 5 6 
#
# 1 0.008842 -0.001712 -0.005984 -0.007149 -0.000643 -0.007882
# 2 -0.001712 0.022536 0.003735 0.018058 -0.008686 -0.012242
# 3 -0.005984 0.003735 0.018321 0.023366 -0.005533 0.001106
# 4 -0.007149 0.018058 0.023366 0.087087 -0.003694 -0.008126
# 5 -0.000643 -0.008686 -0.005533 -0.003694 0.027441 0.010496
# 6 -0.007882 -0.012242 0.001106 -0.008126 0.010496 0.039763
#
#
# Mechanical properties :
#
#
# Convention : Reuss Voigt Hill
#
# Bulk Modulus (GPa) = 23.93605 70.31017 47.12311
# Shear Modulus (GPa) = 22.13986 41.12045 31.63015
#
# Velocity S-wave (km/s) = 3.11063 4.23925 3.71802
# Velocity P-wave (km/s) = 4.83346 7.39527 6.24710
#
# Compressibility (1/GPa) = 0.04177798
#
# Stress axis : x y z
#
# Youngs Moduli (GPa) = 113.09615 44.37375 54.58159
#
# Poissons Ratio (x) = 0.07595 0.32664
# Poissons Ratio (y) = 0.19357 -0.20389
# Poissons Ratio (z) = 0.67681 -0.16576
#
# Static dielectric constant tensor:
#      x y z
#    x 1.953490 0.007660 -0.021400 
#    y 0.007660 1.928420 0.024400 
#    z -0.021400 0.024400 1.873300 
# 
# From -- ./inp_files/532668.got.cif
#   From: 2010.05.17/outbox.cif.g08.bks.cpg/sg2_267_cif.got.tgz:532668.got - 2010.06.03 11:33:40.
