data_PCOD9097938
_publ_section_title
;
Structure prediction by ZEFSAII (Michael W. Deem and Ramdas Pophale) SiO2 
 PCOD9097938
Probable space group: P -1
;
_chemical_formula_sum "Si O2"
_cell_formula_units_Z 15
_cell_length_a 16.607601
_cell_length_b 6.864583
_cell_length_c 12.805329
_cell_angle_alpha 65.523776
_cell_angle_beta 33.572903
_cell_angle_gamma 61.155693
_cell_volume 706.911213
_symmetry_space_group_name_H-M "P -1"
_symmetry_group_IT_number 2
_symmetry_cell_setting 'triclinic'
loop_
_space_group_symop_operation_xyz
x,y,z
-x,-y,-z
loop_
_atom_site_type_symbol
_atom_site_label
_atom_site_fract_x
_atom_site_fract_y
_atom_site_fract_z
Si Si1 0.635563 0.034912 0.104345
Si Si2 0.220778 0.892016 0.864319
Si Si3 0.867681 0.362048 0.378721
Si Si4 0.172573 0.446469 0.064651
Si Si5 0.701651 0.724761 0.623692
Si Si6 0.000000 0.000000 0.500000
Si Si7 0.872063 0.031848 0.280836
Si Si8 0.809892 0.387843 0.762409
O O1 0.669941 0.028805 0.192330
O O2 0.460372 0.101766 0.251367
O O3 0.703102 0.230728 0.944037
O O4 0.726559 0.803824 0.005311
O O5 0.210858 0.970400 0.739089
O O6 0.250217 0.625503 0.893492
O O7 0.050987 0.977378 0.077425
O O8 0.731228 0.539540 0.541917
O O9 0.009158 0.465985 0.186325
O O10 0.825019 0.265307 0.339290
O O11 0.932347 0.159071 0.435024
O O12 0.148382 0.508401 0.199085
O O13 0.827763 0.854290 0.442030
O O14 0.723879 0.590596 0.736952
O O15 0.058855 0.777890 0.409278
#
# Coordination Sequence:
#
# PCOD9097938 Si02
#       8
#     2   2   2   2   2   1   2   2
#     4  11  23  45  61  93 129 167 201 260 313 373
#     4  10  23  42  66  90 126 160 217 259 306 369
#     4  11  22  38  62  96 124 161 210 256 307 366
#     4  11  21  40  68  91 120 171 209 247 315 366
#     4  11  26  39  63  93 133 161 205 256 320 367
#     4  10  20  36  62  94 126 154 200 264 288 366
#     4  11  23  41  64  97 121 161 214 266 300 367
#     4  10  23  39  65  95 128 163 207 252 311 375
#
# _framework density 21.219073000000002
#
# number of rings (size 3 to 8) (size 9 to 14) (size 15 to 20)
#    0.000    1.333    4.000    1.200    1.867    5.867 
#    0.000    1.333    0.000    0.000    0.000    0.000 
#    0.000    0.000    0.000    0.000    0.000    0.000 
#
# Total GULP energy -83606.479907 kJ/mol
# GULP energy per Si atom -5573.765327 kJ/mol
# Density = 2.117078 g / cm^3
# Si number density = 21.219073 Si / 1000 Ang^3
#
#
#
# Elastic Constant Matrix: (Units=GPa)
#
#
# Indices 1 2 3 4 5 6 
#
# 1 90.8310 27.0174 16.3972 19.2048 15.1826 5.3108
# 2 27.0174 59.8041 15.4097 22.5808 3.1975 11.6293
# 3 16.3972 15.4097 33.0162 14.3634 3.1395 -0.0517
# 4 19.2048 22.5808 14.3634 22.3029 0.0735 0.8396
# 5 15.1826 3.1975 3.1395 0.0735 16.2458 9.7857
# 6 5.3108 11.6293 -0.0517 0.8396 9.7857 27.0704
#
#
#
# Elastic Compliance Matrix: (Units=1/GPa)
#
#
# Indices 1 2 3 4 5 6 
#
# 1 0.017263 -0.003467 -0.000275 -0.011309 -0.018427 0.005114
# 2 -0.003467 0.031444 -0.001698 -0.027243 0.006037 -0.014169
# 3 -0.000275 -0.001698 0.043787 -0.026422 -0.011208 0.005738
# 4 -0.011309 -0.027243 -0.026422 0.098954 0.018003 0.004295
# 5 -0.018427 0.006037 -0.011208 0.018003 0.101508 -0.036252
# 6 0.005114 -0.014169 0.005738 0.004295 -0.036252 0.055007
#
#
# Mechanical properties :
#
#
# Convention : Reuss Voigt Hill
#
# Bulk Modulus (GPa) = 12.25292 33.47775 22.86534
# Shear Modulus (GPa) = 12.95179 21.44561 17.19870
#
# Velocity S-wave (km/s) = 2.47328 3.18256 2.85007
# Velocity P-wave (km/s) = 3.73405 5.41446 4.65078
#
# Compressibility (1/GPa) = 0.08161322
#
# Stress axis : x y z
#
# Youngs Moduli (GPa) = 57.92896 31.80252 22.83785
#
# Poissons Ratio (x) = 0.11025 0.00628
# Poissons Ratio (y) = 0.20083 0.03879
# Poissons Ratio (z) = 0.01593 0.05401
#
# Static dielectric constant tensor:
#      x y z
#    x 1.753660 -0.005100 0.004440 
#    y -0.005100 1.775220 -0.029330 
#    z 0.004440 -0.029330 1.781070 
# 
# From -- ./inp_files/38564.got.cif
#   From: 2010.05.17/outbox.cif.g08.bks.cpg/sg2_20_cif.got.tgz:38564.got - 2010.06.03 11:33:40.
