data_PCOD9097436
_publ_section_title
;
Structure prediction by ZEFSAII (Michael W. Deem and Ramdas Pophale) SiO2 
 PCOD9097436
Probable space group: P -1
;
_chemical_formula_sum "Si O2"
_cell_formula_units_Z 16
_cell_length_a 9.589134
_cell_length_b 8.977505
_cell_length_c 8.043012
_cell_angle_alpha 94.974578
_cell_angle_beta 87.901956
_cell_angle_gamma 97.604613
_cell_volume 683.498412
_symmetry_space_group_name_H-M "P -1"
_symmetry_group_IT_number 2
_symmetry_cell_setting 'triclinic'
loop_
_space_group_symop_operation_xyz
x,y,z
-x,-y,-z
loop_
_atom_site_type_symbol
_atom_site_label
_atom_site_fract_x
_atom_site_fract_y
_atom_site_fract_z
Si Si1 0.709713 0.101896 0.600837
Si Si2 0.191130 0.964229 0.958438
Si Si3 0.942473 0.943977 0.715398
Si Si4 0.671346 0.445747 0.645858
Si Si5 0.869321 0.383506 0.062601
Si Si6 0.606147 0.437135 0.258667
Si Si7 0.444833 0.919432 0.745907
Si Si8 0.952230 0.623230 0.635765
O O1 0.702586 0.276614 0.647289
O O2 0.646723 0.067757 0.416948
O O3 0.863717 0.057240 0.621330
O O4 0.597542 0.006373 0.716318
O O5 0.156301 0.790664 0.017211
O O6 0.351920 0.982459 0.898103
O O7 0.093904 0.985596 0.801797
O O8 0.150538 0.075929 0.112303
O O9 0.929335 0.789085 0.598562
O O10 0.661382 0.476977 0.449481
O O11 0.527194 0.473269 0.742101
O O12 0.806580 0.551110 0.716613
O O13 0.726642 0.455927 0.113770
O O14 0.919731 0.348217 0.241490
O O15 0.000000 0.500000 0.000000
O O16 0.552528 0.258354 0.245766
O O17 0.000000 0.500000 0.500000
#
# Coordination Sequence:
#
# PCOD9097436 Si02
#       8
#     2   2   2   2   2   2   2   2
#     4  10  21  36  60  96 120 151 207 263 291 355
#     4   9  21  42  61  84 121 169 199 241 309 374
#     4  10  22  40  61  87 118 162 204 245 309 364
#     4  10  20  36  60  92 123 152 207 251 303 358
#     4  10  21  39  64  92 123 158 204 253 303 360
#     4   9  18  38  63  85 122 167 191 247 311 360
#     4   9  19  39  61  86 123 156 202 246 305 361
#     4  11  22  41  62  89 119 160 205 252 312 367
#
# _framework density 23.40898
#
# number of rings (size 3 to 8) (size 9 to 14) (size 15 to 20)
#    0.000    2.250    1.250    0.750    3.500    2.000 
#    6.750    0.625    0.000    0.000    0.000    0.000 
#    0.000    0.000    0.000    0.000    0.000    0.000 
#
# Total GULP energy -89335.722783 kJ/mol
# GULP energy per Si atom -5583.482674 kJ/mol
# Density = 2.335570 g / cm^3
# Si number density = 23.408980 Si / 1000 Ang^3
#
#
#
# Elastic Constant Matrix: (Units=GPa)
#
#
# Indices 1 2 3 4 5 6 
#
# 1 131.9218 58.8698 27.3489 -0.1259 -24.7512 -14.8344
# 2 58.8698 71.7346 43.6833 9.4540 -24.3830 -11.5592
# 3 27.3489 43.6833 52.5874 5.5812 -14.1072 -3.3726
# 4 -0.1259 9.4540 5.5812 24.2795 -1.3727 -9.1967
# 5 -24.7512 -24.3830 -14.1072 -1.3727 47.3771 -5.4048
# 6 -14.8344 -11.5592 -3.3726 -9.1967 -5.4048 44.3281
#
#
#
# Elastic Compliance Matrix: (Units=1/GPa)
#
#
# Indices 1 2 3 4 5 6 
#
# 1 0.013134 -0.012763 0.003898 0.005269 0.001913 0.002690
# 2 -0.012763 0.047075 -0.028646 -0.009384 0.009330 0.005016
# 3 0.003898 -0.028646 0.040228 0.000697 -0.001060 -0.003090
# 4 0.005269 -0.009384 0.000697 0.048330 0.000611 0.009471
# 5 0.001913 0.009330 -0.001060 0.000611 0.027347 0.006454
# 6 0.002690 0.005016 -0.003090 0.009471 0.006454 0.027284
#
#
# Mechanical properties :
#
#
# Convention : Reuss Voigt Hill
#
# Bulk Modulus (GPa) = 39.34708 57.33862 48.34285
# Shear Modulus (GPa) = 17.42823 31.61973 24.52398
#
# Velocity S-wave (km/s) = 2.73153 3.67925 3.24022
# Velocity P-wave (km/s) = 5.17623 6.52661 5.89025
#
# Compressibility (1/GPa) = 0.02541484
#
# Stress axis : x y z
#
# Youngs Moduli (GPa) = 76.13797 21.24286 24.85838
#
# Poissons Ratio (x) = 0.27112 -0.09689
# Poissons Ratio (y) = 0.97173 0.71209
# Poissons Ratio (z) = -0.29677 0.60852
#
# Static dielectric constant tensor:
#      x y z
#    x 1.891670 -0.042280 0.013810 
#    y -0.042280 1.920740 -0.018850 
#    z 0.013810 -0.018850 1.982710 
# 
# From -- ./inp_files/235155.got.cif
#   From: 2010.05.17/outbox.cif.g08.bks.cpg/sg2_118_cif.got.tgz:235155.got - 2010.06.03 11:33:40.
