data_PCOD9097245
_publ_section_title
;
Structure prediction by ZEFSAII (Michael W. Deem and Ramdas Pophale) SiO2 
 PCOD9097245
Probable space group: P -1
;
_chemical_formula_sum "Si O2"
_cell_formula_units_Z 16
_cell_length_a 9.033318
_cell_length_b 9.145395
_cell_length_c 15.366835
_cell_angle_alpha 101.076775
_cell_angle_beta 145.065453
_cell_angle_gamma 66.024686
_cell_volume 639.674545
_symmetry_space_group_name_H-M "P -1"
_symmetry_group_IT_number 2
_symmetry_cell_setting 'triclinic'
loop_
_space_group_symop_operation_xyz
x,y,z
-x,-y,-z
loop_
_atom_site_type_symbol
_atom_site_label
_atom_site_fract_x
_atom_site_fract_y
_atom_site_fract_z
Si Si1 0.247352 0.691285 0.840090
Si Si2 0.503418 0.352811 0.858649
Si Si3 0.023610 0.743014 0.067469
Si Si4 0.891567 0.748818 0.451885
Si Si5 0.574815 0.884633 0.719523
Si Si6 0.486797 0.425495 0.339856
Si Si7 0.291108 0.330970 0.456865
Si Si8 0.854672 0.024866 0.726204
O O1 0.455751 0.544136 0.862463
O O2 0.998107 0.630789 0.731019
O O3 0.403099 0.702850 0.004201
O O4 0.062287 0.881463 0.745167
O O5 0.746100 0.257192 0.893423
O O6 0.237660 0.321186 0.695528
O O7 0.191433 0.557319 0.166946
O O8 0.002123 0.867607 0.148917
O O9 0.731598 0.813434 0.879696
O O10 0.808717 0.685584 0.493653
O O11 0.232991 0.670447 0.597046
O O12 0.719441 0.948371 0.390461
O O13 0.549079 0.725017 0.651247
O O14 0.767026 0.939447 0.754988
O O15 0.587507 0.534738 0.462486
O O16 0.560291 0.151469 0.554668
#
# Coordination Sequence:
#
# PCOD9097245 Si02
#       8
#     2   2   2   2   2   2   2   2
#     4  11  21  32  55  94 111 143 192 243 285 334
#     4  11  20  34  62  85 114 144 194 247 282 328
#     4  11  20  39  61  86 116 151 195 243 283 334
#     4  11  20  39  61  86 116 151 195 243 283 334
#     4  11  21  34  57  90 116 151 192 239 285 342
#     4  11  21  34  57  90 116 151 192 239 285 342
#     4  10  20  36  60  83 114 150 191 240 284 337
#     4  10  20  36  60  83 114 150 191 240 284 337
#
# _framework density 25.012718
#
# number of rings (size 3 to 8) (size 9 to 14) (size 15 to 20)
#    0.000    1.250    6.250    3.375    0.000    0.000 
#    0.000    0.625    0.000    0.000    6.500   11.375 
#    0.000    0.000    0.000    0.000    0.000    0.000 
#
# Total GULP energy -89476.427597 kJ/mol
# GULP energy per Si atom -5592.276725 kJ/mol
# Density = 2.495579 g / cm^3
# Si number density = 25.012718 Si / 1000 Ang^3
#
#
#
# Elastic Constant Matrix: (Units=GPa)
#
#
# Indices 1 2 3 4 5 6 
#
# 1 36.0084 14.9490 17.3853 -12.5943 -3.1460 8.7579
# 2 14.9490 176.6012 35.6341 -15.9059 3.8804 -2.1876
# 3 17.3853 35.6341 128.1700 -12.4130 -16.0964 8.5030
# 4 -12.5943 -15.9059 -12.4130 39.9707 -7.6617 -1.0572
# 5 -3.1460 3.8804 -16.0964 -7.6617 18.5552 -10.8301
# 6 8.7579 -2.1876 8.5030 -1.0572 -10.8301 34.2525
#
#
#
# Elastic Compliance Matrix: (Units=1/GPa)
#
#
# Indices 1 2 3 4 5 6 
#
# 1 0.035310 -0.001786 -0.002227 0.010468 0.004814 -0.006744
# 2 -0.001786 0.006316 -0.001765 0.000950 -0.002437 0.000557
# 3 -0.002227 -0.001765 0.010339 0.004082 0.011635 0.001695
# 4 0.010468 0.000950 0.004082 0.034251 0.021777 0.004314
# 5 0.004814 -0.002437 0.011635 0.021777 0.088542 0.024393
# 6 -0.006744 0.000557 0.001695 0.004314 0.024393 0.038380
#
#
# Mechanical properties :
#
#
# Convention : Reuss Voigt Hill
#
# Bulk Modulus (GPa) = 24.74692 52.96849 38.85771
# Shear Modulus (GPa) = 20.99403 36.74308 28.86856
#
# Velocity S-wave (km/s) = 2.90027 3.83688 3.40097
# Velocity P-wave (km/s) = 4.59681 6.39151 5.56696
#
# Compressibility (1/GPa) = 0.04040907
#
# Stress axis : x y z
#
# Youngs Moduli (GPa) = 28.32033 158.33442 96.72182
#
# Poissons Ratio (x) = 0.28280 0.21542
# Poissons Ratio (y) = 0.05058 0.17068
# Poissons Ratio (z) = 0.06308 0.27940
#
# Static dielectric constant tensor:
#      x y z
#    x 2.008050 -0.049090 -0.024400 
#    y -0.049090 2.005270 0.003030 
#    z -0.024400 0.003030 2.019830 
# 
# From -- ./inp_files/390498.got.cif
#   From: 2010.05.17/outbox.cif.g08.bks.cpg/sg2_196_cif.got.tgz:390498.got - 2010.06.03 11:33:40.
