data_PCOD9097464
_publ_section_title
;
Structure prediction by ZEFSAII (Michael W. Deem and Ramdas Pophale) SiO2 
 PCOD9097464
Probable space group: P -1
;
_chemical_formula_sum "Si O2"
_cell_formula_units_Z 16
_cell_length_a 12.724682
_cell_length_b 16.721586
_cell_length_c 7.834509
_cell_angle_alpha 60.393121
_cell_angle_beta 88.760416
_cell_angle_gamma 136.981947
_cell_volume 755.242004
_symmetry_space_group_name_H-M "P -1"
_symmetry_group_IT_number 2
_symmetry_cell_setting 'triclinic'
loop_
_space_group_symop_operation_xyz
x,y,z
-x,-y,-z
loop_
_atom_site_type_symbol
_atom_site_label
_atom_site_fract_x
_atom_site_fract_y
_atom_site_fract_z
Si Si1 0.722670 0.459179 0.042939
Si Si2 0.624774 0.567120 0.755754
Si Si3 0.358331 0.495526 0.644230
Si Si4 0.079507 0.883080 0.932914
Si Si5 0.452893 0.841474 0.808772
Si Si6 0.825222 0.208684 0.232820
Si Si7 0.622122 0.836964 0.074922
Si Si8 0.001143 0.978298 0.228726
O O1 0.671514 0.470192 0.212773
O O2 0.591836 0.271157 0.210855
O O3 0.682292 0.504381 0.848909
O O4 0.959024 0.610969 0.880536
O O5 0.476957 0.491249 0.692476
O O6 0.823869 0.777982 0.502350
O O7 0.500000 0.500000 0.000000
O O8 0.486023 0.657048 0.351469
O O9 0.137671 0.306817 0.781892
O O10 0.141899 0.851422 0.833332
O O11 0.244525 0.019674 0.929126
O O12 0.039099 0.950725 0.768955
O O13 0.266910 0.772757 0.881493
O O14 0.654338 0.048585 0.539678
O O15 0.491246 0.815454 0.008244
O O16 0.784892 0.910294 0.865415
O O17 0.000000 0.000000 0.000000
#
# Coordination Sequence:
#
# PCOD9097464 Si02
#       8
#     2   2   2   2   2   2   2   2
#     4  10  22  41  62  90 125 160 210 257 308 368
#     4  10  20  36  60  94 125 165 209 241 310 385
#     4  10  21  39  61  93 126 170 198 249 315 383
#     4  10  22  40  65  84 131 167 199 258 307 370
#     4  11  24  39  67  89 118 166 205 269 304 369
#     4  10  23  45  62  88 119 162 220 251 316 357
#     4  11  23  40  60  96 129 157 213 246 324 369
#     4  10  20  37  59  89 131 163 197 256 308 367
#
# _framework density 21.185261000000001
#
# number of rings (size 3 to 8) (size 9 to 14) (size 15 to 20)
#    0.000    1.750    2.500    1.875    3.500    4.000 
#    0.000    5.000    0.000    0.000    0.000    0.000 
#    0.000    0.000    0.000    0.000    0.000    0.000 
#
# Total GULP energy -89471.615022 kJ/mol
# GULP energy per Si atom -5591.975939 kJ/mol
# Density = 2.113704 g / cm^3
# Si number density = 21.185261 Si / 1000 Ang^3
#
#
#
# Elastic Constant Matrix: (Units=GPa)
#
#
# Indices 1 2 3 4 5 6 
#
# 1 37.7251 -68.8757 -13.7551 25.8418 -3.6433 7.1122
# 2 -68.8757 -23.8024 -19.1276 18.1791 -12.9139 -8.3456
# 3 -13.7551 -19.1276 95.0377 1.4291 -6.6803 5.8025
# 4 25.8418 18.1791 1.4291 22.0208 8.8975 8.1152
# 5 -3.6433 -12.9139 -6.6803 8.8975 24.5427 -7.0522
# 6 7.1122 -8.3456 5.8025 8.1152 -7.0522 34.9727
#
#
#
# Elastic Compliance Matrix: (Units=1/GPa)
#
#
# Indices 1 2 3 4 5 6 
#
# 1 0.006793 -0.009020 -0.001064 0.004761 -0.007469 -0.005968
# 2 -0.009020 0.000729 -0.001724 0.013838 -0.007117 -0.002352
# 3 -0.001064 -0.001724 0.010123 0.003045 -0.000164 -0.002614
# 4 0.004761 0.013838 0.003045 0.032712 -0.004987 -0.006767
# 5 -0.007469 -0.007117 -0.000164 -0.004987 0.040277 0.009127
# 6 -0.005968 -0.002352 -0.002614 -0.006767 0.009127 0.033091
#
#
# Mechanical properties :
#
#
# Convention : Reuss Voigt Hill
#
# Bulk Modulus (GPa) = -167.46607 -10.50628 -88.98617
# Shear Modulus (GPa) = 34.39928 30.35517 32.37723
#
# Velocity S-wave (km/s) = 4.03393 3.78940 3.91358
# Velocity P-wave (km/s) = 7.58440 3.76511 4.65549
#
# Compressibility (1/GPa) = -0.00597136
#
# Stress axis : x y z
#
# Youngs Moduli (GPa) = 147.20784 1371.72138 98.78063
#
# Poissons Ratio (x) = 12.37348 0.10515
# Poissons Ratio (y) = 1.32787 0.17026
# Poissons Ratio (z) = 0.15670 2.36428
#
# Static dielectric constant tensor:
#      x y z
#    x 1.773920 -0.022130 -0.028840 
#    y -0.022130 1.796360 0.022200 
#    z -0.028840 0.022200 1.764780 
# 
# From -- ./inp_files/279061.got.cif
#   From: 2010.05.17/outbox.cif.g08.bks.cpg/sg2_140_cif.got.tgz:279061.got - 2010.06.03 11:33:40.
