data_PCOD9097137
_publ_section_title
;
Structure prediction by ZEFSAII (Michael W. Deem and Ramdas Pophale) SiO2 
 PCOD9097137
Probable space group: P -1
;
_chemical_formula_sum "Si O2"
_cell_formula_units_Z 12
_cell_length_a 10.972058
_cell_length_b 14.469281
_cell_length_c 8.311180
_cell_angle_alpha 83.821789
_cell_angle_beta 111.756821
_cell_angle_gamma 35.910861
_cell_volume 476.501026
_symmetry_space_group_name_H-M "P -1"
_symmetry_group_IT_number 2
_symmetry_cell_setting 'triclinic'
loop_
_space_group_symop_operation_xyz
x,y,z
-x,-y,-z
loop_
_atom_site_type_symbol
_atom_site_label
_atom_site_fract_x
_atom_site_fract_y
_atom_site_fract_z
Si Si1 0.029321 0.087624 0.041825
Si Si2 0.137149 0.114346 0.388897
Si Si3 0.909680 0.669321 0.841258
Si Si4 0.714378 0.608799 0.367270
Si Si5 0.069162 0.229790 0.828914
Si Si6 0.534341 0.162944 0.101690
O O1 0.432532 0.837101 0.298814
O O2 0.927862 0.188018 0.148880
O O3 0.908232 0.238876 0.818721
O O4 0.000000 0.000000 0.000000
O O5 0.016303 0.297963 0.261511
O O6 0.534295 0.877278 0.599307
O O7 0.163038 0.044496 0.585258
O O8 0.806246 0.592341 0.012441
O O9 0.912010 0.719982 0.008229
O O10 0.000000 0.500000 0.500000
O O11 0.860108 0.423246 0.558744
O O12 0.498713 0.739944 0.073459
O O13 0.402892 0.971515 0.949955
#
# Coordination Sequence:
#
# PCOD9097137 Si02
#       6
#     2   2   2   2   2   2
#     4  10  23  42  65  94 130 175 220 264 325 395
#     4  10  20  36  59  88 126 168 214 266 323 385
#     4  10  20  36  59  92 128 164 211 270 326 379
#     4  11  22  38  63  96 130 166 214 270 324 381
#     4  10  23  40  64  96 130 169 214 266 327 387
#     4  11  21  35  60  93 127 162 207 264 324 382
#
# _framework density 25.183575000000001
#
# number of rings (size 3 to 8) (size 9 to 14) (size 15 to 20)
#    0.000    1.667    0.000    4.500    0.000    9.333 
#    0.000    3.333    0.000   18.000    0.000    0.000 
#    0.000    0.000    0.000    0.000    0.000    0.000 
#
# Total GULP energy -66802.979109 kJ/mol
# GULP energy per Si atom -5566.914926 kJ/mol
# Density = 2.512626 g / cm^3
# Si number density = 25.183575 Si / 1000 Ang^3
#
#
#
# Elastic Constant Matrix: (Units=GPa)
#
#
# Indices 1 2 3 4 5 6 
#
# 1 106.0744 19.1021 65.2332 22.9090 -37.7586 33.0784
# 2 19.1021 125.8003 46.3597 -0.0375 -31.1841 4.8384
# 3 65.2332 46.3597 136.9294 3.9244 -71.9857 22.3060
# 4 22.9090 -0.0375 3.9244 39.3630 5.0352 -1.8371
# 5 -37.7586 -31.1841 -71.9857 5.0352 47.6712 -10.7691
# 6 33.0784 4.8384 22.3060 -1.8371 -10.7691 37.6725
#
#
#
# Elastic Compliance Matrix: (Units=1/GPa)
#
#
# Indices 1 2 3 4 5 6 
#
# 1 0.025915 0.001620 0.004696 -0.019825 0.026445 -0.019150
# 2 0.001620 0.009632 0.000823 -0.002187 0.008897 -0.000710
# 3 0.004696 0.000823 0.043082 -0.016308 0.068565 -0.010933
# 4 -0.019825 -0.002187 -0.016308 0.044822 -0.042572 0.017361
# 5 0.026445 0.008897 0.068565 -0.042572 0.150341 -0.024060
# 6 -0.019150 -0.000710 -0.010933 0.017361 -0.024060 0.043893
#
#
# Mechanical properties :
#
#
# Convention : Reuss Voigt Hill
#
# Bulk Modulus (GPa) = 10.76356 70.02158 40.39257
# Shear Modulus (GPa) = 14.95325 40.81528 27.88427
#
# Velocity S-wave (km/s) = 2.43938 4.03017 3.33113
# Velocity P-wave (km/s) = 3.49535 7.03713 5.55602
#
# Compressibility (1/GPa) = 0.09290605
#
# Stress axis : x y z
#
# Youngs Moduli (GPa) = 38.58840 103.82050 23.21180
#
# Poissons Ratio (x) = -0.16823 -0.10900
# Poissons Ratio (y) = -0.06253 -0.01909
# Poissons Ratio (z) = -0.18121 -0.08541
#
# Static dielectric constant tensor:
#      x y z
#    x 2.166140 -0.054280 -0.044770 
#    y -0.054280 2.087510 0.058160 
#    z -0.044770 0.058160 2.031850 
# 
# From -- ./inp_files/194296.got.cif
#   From: 2010.05.17/outbox.cif.g08.bks.cpg/sg2_98_cif.got.tgz:194296.got - 2010.06.03 11:33:40.
