data_PCOD9097455
_publ_section_title
;
Structure prediction by ZEFSAII (Michael W. Deem and Ramdas Pophale) SiO2 
 PCOD9097455
Probable space group: P -1
;
_chemical_formula_sum "Si O2"
_cell_formula_units_Z 16
_cell_length_a 9.244708
_cell_length_b 25.291702
_cell_length_c 16.469654
_cell_angle_alpha 17.094444
_cell_angle_beta 35.347034
_cell_angle_gamma 39.803660
_cell_volume 653.392406
_symmetry_space_group_name_H-M "P -1"
_symmetry_group_IT_number 2
_symmetry_cell_setting 'triclinic'
loop_
_space_group_symop_operation_xyz
x,y,z
-x,-y,-z
loop_
_atom_site_type_symbol
_atom_site_label
_atom_site_fract_x
_atom_site_fract_y
_atom_site_fract_z
Si Si1 0.287552 0.099975 0.499276
Si Si2 0.595860 0.635791 0.147824
Si Si3 0.340606 0.672345 0.905020
Si Si4 0.437753 0.811567 0.479147
Si Si5 0.117492 0.908267 0.188079
Si Si6 0.741632 0.389728 0.304890
Si Si7 0.926059 0.972133 0.461220
Si Si8 0.910526 0.401233 0.468859
O O1 0.426153 0.277170 0.216159
O O2 0.084737 0.097323 0.524625
O O3 0.128304 0.013533 0.774008
O O4 0.500000 0.000000 0.500000
O O5 0.592404 0.533592 0.213490
O O6 0.797817 0.537163 0.254860
O O7 0.319520 0.623719 0.327680
O O8 0.708786 0.839796 0.793507
O O9 0.435589 0.703575 0.723432
O O10 0.148864 0.826421 0.788501
O O11 0.166507 0.489640 0.258840
O O12 0.378380 0.687204 0.610246
O O13 0.199977 0.934279 0.420524
O O14 0.673158 0.943480 0.153399
O O15 0.221199 0.771437 0.409855
O O16 0.048112 0.780013 0.332347
O O17 0.000000 0.500000 0.000000
#
# Coordination Sequence:
#
# PCOD9097455 Si02
#       8
#     2   2   2   2   2   2   2   2
#     4  10  24  43  62  85 126 166 204 250 308 372
#     4  10  20  36  60  93 130 156 196 258 312 358
#     4  11  24  39  62  90 124 169 206 248 309 365
#     4  12  22  36  65  95 120 159 206 260 305 360
#     4  11  23  39  62  92 127 161 205 255 307 364
#     4  11  20  36  59  92 128 156 197 254 310 358
#     4  11  21  39  64  90 125 161 205 252 309 363
#     4  10  22  37  60  95 128 157 202 261 306 357
#
# _framework density 24.487583000000001
#
# number of rings (size 3 to 8) (size 9 to 14) (size 15 to 20)
#    0.000    1.250    3.750    2.250    5.250    2.000 
#    0.000    0.625    0.000    0.000    0.000    0.000 
#    0.000    0.000    0.000    0.000    0.000    0.000 
#
# Total GULP energy -89568.504519 kJ/mol
# GULP energy per Si atom -5598.031532 kJ/mol
# Density = 2.443185 g / cm^3
# Si number density = 24.487583 Si / 1000 Ang^3
#
#
#
# Elastic Constant Matrix: (Units=GPa)
#
#
# Indices 1 2 3 4 5 6 
#
# 1 103.7516 43.8101 36.6618 -2.9257 -12.7415 20.6951
# 2 43.8101 108.6302 48.4157 -2.0489 -20.4609 27.7619
# 3 36.6618 48.4157 168.1829 4.3439 -32.6085 16.4251
# 4 -2.9257 -2.0489 4.3439 46.8474 2.1699 -6.3195
# 5 -12.7415 -20.4609 -32.6085 2.1699 38.6119 -7.8313
# 6 20.6951 27.7619 16.4251 -6.3195 -7.8313 47.6004
#
#
#
# Elastic Compliance Matrix: (Units=1/GPa)
#
#
# Indices 1 2 3 4 5 6 
#
# 1 0.012199 -0.003570 -0.001286 0.000345 0.000490 -0.002651
# 2 -0.003570 0.013430 -0.001946 -0.000296 0.003275 -0.005109
# 3 -0.001286 -0.001946 0.007852 -0.001176 0.005177 -0.000320
# 4 0.000345 -0.000296 -0.001176 0.021954 -0.001647 0.003072
# 5 0.000490 0.003275 0.005177 -0.001647 0.032508 0.001220
# 6 -0.002651 -0.005109 -0.000320 0.003072 0.001220 0.025860
#
#
# Mechanical properties :
#
#
# Convention : Reuss Voigt Hill
#
# Bulk Modulus (GPa) = 50.31341 70.92663 60.62002
# Shear Modulus (GPa) = 37.30407 43.39042 40.34724
#
# Velocity S-wave (km/s) = 3.90729 4.21400 4.06354
# Velocity P-wave (km/s) = 6.39899 7.25977 6.84293
#
# Compressibility (1/GPa) = 0.01987542
#
# Stress axis : x y z
#
# Youngs Moduli (GPa) = 81.97203 74.46081 127.35859
#
# Poissons Ratio (x) = 0.26583 0.16384
# Poissons Ratio (y) = 0.29265 0.24787
# Poissons Ratio (z) = 0.10545 0.14492
#
# Static dielectric constant tensor:
#      x y z
#    x 2.071090 -0.054110 0.067600 
#    y -0.054110 1.922390 -0.034990 
#    z 0.067600 -0.034990 1.884810 
# 
# From -- ./inp_files/570904.got.cif
#   From: 2010.05.17/outbox.cif.g08.bks.cpg/sg2_286_cif.got.tgz:570904.got - 2010.06.03 11:33:40.
