data_PCOD9097854
_publ_section_title
;
Structure prediction by ZEFSAII (Michael W. Deem and Ramdas Pophale) SiO2 
 PCOD9097854
Probable space group: P -1
;
_chemical_formula_sum "Si O2"
_cell_formula_units_Z 16
_cell_length_a 11.861076
_cell_length_b 9.122571
_cell_length_c 12.422960
_cell_angle_alpha 134.968570
_cell_angle_beta 113.062392
_cell_angle_gamma 50.458205
_cell_volume 729.205175
_symmetry_space_group_name_H-M "P -1"
_symmetry_group_IT_number 2
_symmetry_cell_setting 'triclinic'
loop_
_space_group_symop_operation_xyz
x,y,z
-x,-y,-z
loop_
_atom_site_type_symbol
_atom_site_label
_atom_site_fract_x
_atom_site_fract_y
_atom_site_fract_z
Si Si1 0.533773 0.205084 0.648326
Si Si2 0.142820 0.543049 0.955078
Si Si3 0.082539 0.564355 0.706805
Si Si4 0.167634 0.964296 0.893785
Si Si5 0.624424 0.957859 0.112993
Si Si6 0.767875 0.759414 0.612955
Si Si7 0.654573 0.353299 0.038290
Si Si8 0.507843 0.714368 0.560304
O O1 0.395725 0.448682 0.776746
O O2 0.569688 0.252157 0.567410
O O3 0.500000 0.000000 0.500000
O O4 0.662987 0.054075 0.704596
O O5 0.131212 0.447014 0.783059
O O6 0.245891 0.331937 0.969690
O O7 0.231395 0.660389 0.009792
O O8 0.977525 0.762319 0.037101
O O9 0.167974 0.360758 0.542022
O O10 0.911010 0.673889 0.690253
O O11 0.106999 0.787508 0.803828
O O12 0.287094 0.916458 0.823914
O O13 0.267798 0.909599 0.009496
O O14 0.558102 0.062844 0.261262
O O15 0.500000 0.000000 0.000000
O O16 0.668021 0.662734 0.567501
O O17 0.500000 0.500000 0.000000
O O18 0.500000 0.500000 0.500000
#
# Coordination Sequence:
#
# PCOD9097854 Si02
#       8
#     2   2   2   2   2   2   2   2
#     4  10  20  36  62  90 125 163 211 254 319 361
#     4  11  23  40  64  89 129 171 201 263 328 373
#     4  10  21  40  63  93 128 160 210 257 323 380
#     4  11  24  41  61  92 130 170 208 259 327 371
#     4  12  26  44  65  92 128 170 222 265 312 385
#     4  10  21  37  65  93 123 164 209 261 309 391
#     4  11  22  37  65  98 125 158 217 264 303 376
#     4  11  22  41  65  91 128 166 213 263 322 368
#
# _framework density 21.941697999999999
#
# number of rings (size 3 to 8) (size 9 to 14) (size 15 to 20)
#    0.000    1.250    0.000    9.375    5.250    0.000 
#    0.000    0.000    0.000    4.500    0.000    0.000 
#    0.000    0.000    0.000    0.000    0.000    0.000 
#
# Total GULP energy -89135.411359 kJ/mol
# GULP energy per Si atom -5570.963210 kJ/mol
# Density = 2.189176 g / cm^3
# Si number density = 21.941698 Si / 1000 Ang^3
#
#
#
# Elastic Constant Matrix: (Units=GPa)
#
#
# Indices 1 2 3 4 5 6 
#
# 1 118.9531 40.2761 11.1576 -5.1672 -8.6309 -16.6762
# 2 40.2761 149.5604 5.9324 -5.7856 11.3529 -22.4050
# 3 11.1576 5.9324 58.8221 6.8870 -2.3097 -17.9383
# 4 -5.1672 -5.7856 6.8870 35.7726 -11.3435 -0.2952
# 5 -8.6309 11.3529 -2.3097 -11.3435 23.1978 2.7614
# 6 -16.6762 -22.4050 -17.9383 -0.2952 2.7614 47.1552
#
#
#
# Elastic Compliance Matrix: (Units=1/GPa)
#
#
# Indices 1 2 3 4 5 6 
#
# 1 0.010339 -0.002892 -0.001384 0.003404 0.006624 0.001389
# 2 -0.002892 0.008392 0.000681 -0.001088 -0.006073 0.003572
# 3 -0.001384 0.000681 0.019930 -0.004483 -0.001949 0.007502
# 4 0.003404 -0.001088 -0.004483 0.035053 0.018719 -0.001895
# 5 0.006624 -0.006073 -0.001949 0.018719 0.058046 -0.004566
# 6 0.001389 0.003572 0.007502 -0.001895 -0.004566 0.026504
#
#
# Mechanical properties :
#
#
# Convention : Reuss Voigt Hill
#
# Bulk Modulus (GPa) = 31.77708 49.11863 40.44786
# Shear Modulus (GPa) = 28.41759 39.22310 33.82035
#
# Velocity S-wave (km/s) = 3.60271 4.23260 3.93029
# Velocity P-wave (km/s) = 5.64092 6.80596 6.25064
#
# Compressibility (1/GPa) = 0.03146922
#
# Stress axis : x y z
#
# Youngs Moduli (GPa) = 96.72117 119.15829 50.17463
#
# Poissons Ratio (x) = 0.34465 0.06946
# Poissons Ratio (y) = 0.27975 -0.03415
# Poissons Ratio (z) = 0.13389 -0.08109
#
# Static dielectric constant tensor:
#      x y z
#    x 1.839280 -0.024060 0.031200 
#    y -0.024060 1.954980 -0.095830 
#    z 0.031200 -0.095830 1.963080 
# 
# From -- ./inp_files/420062.got.cif
#   From: 2010.05.17/outbox.cif.g08.bks.cpg/sg2_211_cif.got.tgz:420062.got - 2010.06.03 11:33:40.
