data_PCOD9097071
_publ_section_title
;
Structure prediction by ZEFSAII (Michael W. Deem and Ramdas Pophale) SiO2 
 PCOD9097071
Probable space group: P -1
;
_chemical_formula_sum "Si O2"
_cell_formula_units_Z 16
_cell_length_a 8.523404
_cell_length_b 11.533885
_cell_length_c 11.069240
_cell_angle_alpha 98.626114
_cell_angle_beta 58.759843
_cell_angle_gamma 58.841119
_cell_volume 653.205837
_symmetry_space_group_name_H-M "P -1"
_symmetry_group_IT_number 2
_symmetry_cell_setting 'triclinic'
loop_
_space_group_symop_operation_xyz
x,y,z
-x,-y,-z
loop_
_atom_site_type_symbol
_atom_site_label
_atom_site_fract_x
_atom_site_fract_y
_atom_site_fract_z
Si Si1 0.283080 0.458135 0.336244
Si Si2 0.141777 0.692940 0.611410
Si Si3 0.510520 0.434191 0.855954
Si Si4 0.199895 0.249821 0.595815
Si Si5 0.932939 0.946333 0.906084
Si Si6 0.394773 0.135504 0.249583
Si Si7 0.495586 0.726186 0.346872
Si Si8 0.968582 0.916774 0.331578
O O1 0.507791 0.441002 0.197451
O O2 0.335944 0.299653 0.278157
O O3 0.220458 0.528503 0.508293
O O4 0.047663 0.598999 0.362044
O O5 0.846744 0.831619 0.697739
O O6 0.349430 0.682853 0.462252
O O7 0.121146 0.755041 0.762269
O O8 0.358943 0.395965 0.846637
O O9 0.782974 0.239532 0.718640
O O10 0.500000 0.500000 0.000000
O O11 0.402305 0.123907 0.389787
O O12 0.304297 0.302197 0.648569
O O13 0.134689 0.162931 0.684228
O O14 0.949420 0.027981 0.796271
O O15 0.664663 0.002176 0.053472
O O16 0.000000 0.000000 0.000000
O O17 0.256965 0.926974 0.470534
#
# Coordination Sequence:
#
# PCOD9097071 Si02
#       8
#     2   2   2   2   2   2   2   2
#     4   9  20  38  59  84 114 154 195 231 282 349
#     4   9  19  36  57  82 114 151 189 227 283 344
#     4  10  20  37  57  81 115 153 192 235 285 344
#     4  10  20  37  62  87 114 149 195 242 282 335
#     4  11  23  39  58  89 121 147 187 244 290 331
#     4  11  20  38  62  86 116 153 192 236 284 342
#     4  10  20  36  59  86 112 149 196 241 282 335
#     4  10  21  39  59  83 115 154 191 230 289 352
#
# _framework density 24.494575999999999
#
# number of rings (size 3 to 8) (size 9 to 14) (size 15 to 20)
#    0.000    2.000    0.000    5.625    0.000    2.000 
#    0.000   20.000    0.000    0.000    0.000    0.000 
#    0.000    0.000    0.000    0.000    0.000    0.000 
#
# Total GULP energy -89152.962393 kJ/mol
# GULP energy per Si atom -5572.060150 kJ/mol
# Density = 2.443883 g / cm^3
# Si number density = 24.494576 Si / 1000 Ang^3
#
#
#
# Elastic Constant Matrix: (Units=GPa)
#
#
# Indices 1 2 3 4 5 6 
#
# 1 138.4165 28.3845 35.6221 -0.2090 35.6263 19.7534
# 2 28.3845 58.9468 -1.7072 -0.7490 0.2516 7.5355
# 3 35.6221 -1.7072 89.2852 3.1321 32.8119 5.5139
# 4 -0.2090 -0.7490 3.1321 32.0214 13.3461 -1.1854
# 5 35.6263 0.2516 32.8119 13.3461 46.7498 7.6369
# 6 19.7534 7.5355 5.5139 -1.1854 7.6369 34.4297
#
#
#
# Elastic Compliance Matrix: (Units=1/GPa)
#
#
# Indices 1 2 3 4 5 6 
#
# 1 0.011083 -0.004899 -0.001607 0.003196 -0.007679 -0.003216
# 2 -0.004899 0.019649 0.001231 -0.001258 0.003533 -0.002514
# 3 -0.001607 0.001231 0.015665 0.002981 -0.010730 0.000627
# 4 0.003196 -0.001258 0.002981 0.037572 -0.015695 0.002739
# 5 -0.007679 0.003533 -0.010730 -0.015695 0.039894 -0.004039
# 6 -0.003216 -0.002514 0.000627 0.002739 -0.004039 0.032330
#
#
# Mechanical properties :
#
#
# Convention : Reuss Voigt Hill
#
# Bulk Modulus (GPa) = 27.89598 45.69417 36.79507
# Shear Modulus (GPa) = 27.98122 37.59679 32.78901
#
# Velocity S-wave (km/s) = 3.38352 3.92203 3.66269
# Velocity P-wave (km/s) = 5.16504 6.26140 5.73946
#
# Compressibility (1/GPa) = 0.03584746
#
# Stress axis : x y z
#
# Youngs Moduli (GPa) = 90.22952 50.89238 63.83790
#
# Poissons Ratio (x) = 0.24931 0.10259
# Poissons Ratio (y) = 0.44201 -0.07859
# Poissons Ratio (z) = 0.14500 -0.06265
#
# Static dielectric constant tensor:
#      x y z
#    x 2.051070 -0.026960 -0.025520 
#    y -0.026960 1.960790 -0.017860 
#    z -0.025520 -0.017860 2.075320 
# 
# From -- ./inp_files/390635.got.cif
#   From: 2010.05.17/outbox.cif.g08.bks.cpg/sg2_196_cif.got.tgz:390635.got - 2010.06.03 11:33:40.
