data_PCOD9097486
_publ_section_title
;
Structure prediction by ZEFSAII (Michael W. Deem and Ramdas Pophale) SiO2 
 PCOD9097486
Probable space group: P -1
;
_chemical_formula_sum "Si O2"
_cell_formula_units_Z 16
_cell_length_a 15.220302
_cell_length_b 7.456524
_cell_length_c 7.886439
_cell_angle_alpha 124.055355
_cell_angle_beta 128.814953
_cell_angle_gamma 74.957515
_cell_volume 571.954988
_symmetry_space_group_name_H-M "P -1"
_symmetry_group_IT_number 2
_symmetry_cell_setting 'triclinic'
loop_
_space_group_symop_operation_xyz
x,y,z
-x,-y,-z
loop_
_atom_site_type_symbol
_atom_site_label
_atom_site_fract_x
_atom_site_fract_y
_atom_site_fract_z
Si Si1 0.672775 0.459901 0.102888
Si Si2 0.444757 0.466775 0.644834
Si Si3 0.252014 0.390661 0.179440
Si Si4 0.154488 0.972341 0.634241
Si Si5 0.606152 0.091627 0.290799
Si Si6 0.930827 0.499299 0.742487
Si Si7 0.882519 0.829306 0.629898
Si Si8 0.263738 0.847395 0.218711
O O1 0.607609 0.479412 0.209328
O O2 0.779349 0.649557 0.338190
O O3 0.577190 0.480202 0.852681
O O4 0.711469 0.228458 0.979658
O O5 0.364914 0.292282 0.341489
O O6 0.415956 0.660913 0.593283
O O7 0.189892 0.446385 0.306075
O O8 0.236894 0.607927 0.157230
O O9 0.180196 0.182555 0.893087
O O10 0.078527 0.029063 0.411734
O O11 0.277205 0.938791 0.680004
O O12 0.094612 0.737283 0.497843
O O13 0.626946 0.026147 0.475629
O O14 0.500000 0.000000 0.000000
O O15 0.966926 0.688721 0.751338
O O16 0.000000 0.500000 0.000000
O O17 0.829235 0.994591 0.778635
#
# Coordination Sequence:
#
# PCOD9097486 Si02
#       8
#     2   2   2   2   2   2   2   2
#     4  11  21  38  62 101 135 185 225 269 329 393
#     4  10  21  37  58  95 146 173 230 273 313 404
#     4  11  22  44  65  99 137 179 223 276 341 400
#     4  11  23  44  69  99 140 179 222 277 336 405
#     4  10  20  36  60  96 134 184 224 264 323 393
#     4  12  27  49  73  98 131 173 228 292 350 401
#     4  11  22  45  69  99 136 174 221 284 333 405
#     4  10  22  38  67  94 136 180 221 265 333 396
#
# _framework density 27.974228
#
# number of rings (size 3 to 8) (size 9 to 14) (size 15 to 20)
#    0.000    1.250    6.250    1.500    1.750    4.000 
#    0.000    2.500    0.000    0.000    0.000    0.000 
#    0.000    0.000    0.000    0.000    0.000    0.000 
#
# Total GULP energy -89425.506597 kJ/mol
# GULP energy per Si atom -5589.094162 kJ/mol
# Density = 2.791056 g / cm^3
# Si number density = 27.974228 Si / 1000 Ang^3
#
#
#
# Elastic Constant Matrix: (Units=GPa)
#
#
# Indices 1 2 3 4 5 6 
#
# 1 53.7572 11.9042 14.2691 6.1867 -9.1082 -16.0251
# 2 11.9042 165.3051 72.0944 0.5446 -4.1415 -1.2558
# 3 14.2691 72.0944 141.6309 -12.0739 4.6863 -4.4869
# 4 6.1867 0.5446 -12.0739 54.4426 -16.0008 -13.4293
# 5 -9.1082 -4.1415 4.6863 -16.0008 38.0952 -0.4000
# 6 -16.0251 -1.2558 -4.4869 -13.4293 -0.4000 26.8311
#
#
#
# Elastic Compliance Matrix: (Units=1/GPa)
#
#
# Indices 1 2 3 4 5 6 
#
# 1 0.024967 -0.000807 -0.001580 0.003038 0.007523 0.016242
# 2 -0.000807 0.007904 -0.004092 -0.000994 0.000739 -0.001283
# 3 -0.001580 -0.004092 0.009600 0.002494 -0.000938 0.001705
# 4 0.003038 -0.000994 0.002494 0.025634 0.011237 0.015182
# 5 0.007523 0.000739 -0.000938 0.011237 0.033074 0.010488
# 6 0.016242 -0.001283 0.001705 0.015182 0.010488 0.054952
#
#
# Mechanical properties :
#
#
# Convention : Reuss Voigt Hill
#
# Bulk Modulus (GPa) = 33.88255 61.91430 47.89842
# Shear Modulus (GPa) = 27.94432 41.36882 34.65657
#
# Velocity S-wave (km/s) = 3.16402 3.84971 3.52358
# Velocity P-wave (km/s) = 5.04840 6.47619 5.80635
#
# Compressibility (1/GPa) = 0.02951372
#
# Stress axis : x y z
#
# Youngs Moduli (GPa) = 40.05271 126.51465 104.16196
#
# Poissons Ratio (x) = 0.10211 0.16457
# Poissons Ratio (y) = 0.03233 0.42623
# Poissons Ratio (z) = 0.06328 0.51770
#
# Static dielectric constant tensor:
#      x y z
#    x 1.738180 -0.189500 -0.650840 
#    y -0.189500 2.099920 -0.392290 
#    z -0.650840 -0.392290 1.199930 
# 
# From -- ./inp_files/343087.got.cif
#   From: 2010.05.17/outbox.cif.g08.bks.cpg/sg2_172_cif.got.tgz:343087.got - 2010.06.03 11:33:40.
