data_PCOD9097973
_publ_section_title
;
Structure prediction by ZEFSAII (Michael W. Deem and Ramdas Pophale) SiO2 
 PCOD9097973
Probable space group: P -1
;
_chemical_formula_sum "Si O2"
_cell_formula_units_Z 13
_cell_length_a 17.311205
_cell_length_b 10.549679
_cell_length_c 9.118561
_cell_angle_alpha 101.594414
_cell_angle_beta 120.853376
_cell_angle_gamma 28.348361
_cell_volume 535.715417
_symmetry_space_group_name_H-M "P -1"
_symmetry_group_IT_number 2
_symmetry_cell_setting 'triclinic'
loop_
_space_group_symop_operation_xyz
x,y,z
-x,-y,-z
loop_
_atom_site_type_symbol
_atom_site_label
_atom_site_fract_x
_atom_site_fract_y
_atom_site_fract_z
Si Si1 0.599914 0.696692 0.304780
Si Si2 0.114324 0.461128 0.308092
Si Si3 0.254392 0.938499 0.724581
Si Si4 0.979957 0.839646 0.747620
Si Si5 0.782401 0.263436 0.166447
Si Si6 0.204191 0.081703 0.175562
Si Si7 0.500000 0.000000 0.000000
O O1 0.706335 0.662325 0.508370
O O2 0.789569 0.355208 0.329725
O O3 0.482631 0.938189 0.119090
O O4 0.433398 0.810846 0.241913
O O5 0.209340 0.190372 0.325119
O O6 0.921762 0.717117 0.310155
O O7 0.002375 0.632496 0.079231
O O8 0.209947 0.888639 0.794902
O O9 0.181199 0.989871 0.506122
O O10 0.524972 0.617145 0.924667
O O11 0.844393 0.981794 0.796253
O O12 0.027091 0.930668 0.801399
O O13 0.233621 0.427638 0.880141
#
# Coordination Sequence:
#
# PCOD9097973 Si02
#       7
#     2   2   2   2   2   2   1
#     4  11  22  41  65  94 130 166 210 260 319 375
#     4  11  22  40  65  90 128 174 199 262 317 377
#     4  11  22  43  71  91 121 172 220 263 311 361
#     4  11  24  40  65  95 131 163 211 267 313 377
#     4  10  23  42  70  94 120 165 230 260 298 385
#     4  11  25  40  59  97 137 161 205 258 330 378
#     4  10  20  36  62  98 120 158 212 254 300 378
#
# _framework density 24.266615999999999
#
# number of rings (size 3 to 8) (size 9 to 14) (size 15 to 20)
#    0.000    1.231    4.615    2.769    2.154    4.308 
#    0.000    1.538    0.000    0.000    0.000    0.000 
#    0.000    0.000    0.000    0.000    0.000    0.000 
#
# Total GULP energy -72409.634482 kJ/mol
# GULP energy per Si atom -5569.971883 kJ/mol
# Density = 2.421138 g / cm^3
# Si number density = 24.266616 Si / 1000 Ang^3
#
#
#
# Elastic Constant Matrix: (Units=GPa)
#
#
# Indices 1 2 3 4 5 6 
#
# 1 146.7805 10.5920 61.0977 5.1506 11.5998 -36.9187
# 2 10.5920 23.1638 5.2107 -0.2933 -3.6737 1.0771
# 3 61.0977 5.2107 96.8154 -0.3697 15.3852 -6.0822
# 4 5.1506 -0.2933 -0.3697 23.4696 5.5668 5.8169
# 5 11.5998 -3.6737 15.3852 5.5668 32.3334 5.3434
# 6 -36.9187 1.0771 -6.0822 5.8169 5.3434 39.7506
#
#
#
# Elastic Compliance Matrix: (Units=1/GPa)
#
#
# Indices 1 2 3 4 5 6 
#
# 1 0.014138 -0.006116 -0.007196 -0.005795 -0.003580 0.013524
# 2 -0.006116 0.047985 -0.000696 0.001908 0.009068 -0.008585
# 3 -0.007196 -0.000696 0.015423 0.004010 -0.004825 -0.004243
# 4 -0.005795 0.001908 0.004010 0.048147 -0.006075 -0.011050
# 5 -0.003580 0.009068 -0.004825 -0.006075 0.037993 -0.008527
# 6 0.013524 -0.008585 -0.004243 -0.011050 -0.008527 0.040064
#
#
# Mechanical properties :
#
#
# Convention : Reuss Voigt Hill
#
# Bulk Modulus (GPa) = 20.18984 46.72895 33.45940
# Shear Modulus (GPa) = 20.13876 31.76802 25.95339
#
# Velocity S-wave (km/s) = 2.88392 3.62211 3.27388
# Velocity P-wave (km/s) = 4.40765 6.06557 5.30182
#
# Compressibility (1/GPa) = 0.04952986
#
# Stress axis : x y z
#
# Youngs Moduli (GPa) = 70.73294 20.83969 64.83651
#
# Poissons Ratio (x) = 0.12745 0.46659
# Poissons Ratio (y) = 0.43259 0.04513
# Poissons Ratio (z) = 0.50902 0.01451
#
# Static dielectric constant tensor:
#      x y z
#    x 1.987100 0.020770 0.015870 
#    y 0.020770 1.928040 -0.086610 
#    z 0.015870 -0.086610 1.926610 
# 
# From -- ./inp_files/331137.got.cif
#   From: 2010.05.17/outbox.cif.g08.bks.cpg/sg2_166_cif.got.tgz:331137.got - 2010.06.03 11:33:40.
