data_PCOD9097182
_publ_section_title
;
Structure prediction by ZEFSAII (Michael W. Deem and Ramdas Pophale) SiO2 
 PCOD9097182
Probable space group: P -1
;
_chemical_formula_sum "Si O2"
_cell_formula_units_Z 16
_cell_length_a 13.824931
_cell_length_b 11.125521
_cell_length_c 13.044607
_cell_angle_alpha 119.661911
_cell_angle_beta 29.320666
_cell_angle_gamma 136.113152
_cell_volume 626.240718
_symmetry_space_group_name_H-M "P -1"
_symmetry_group_IT_number 2
_symmetry_cell_setting 'triclinic'
loop_
_space_group_symop_operation_xyz
x,y,z
-x,-y,-z
loop_
_atom_site_type_symbol
_atom_site_label
_atom_site_fract_x
_atom_site_fract_y
_atom_site_fract_z
Si Si1 0.570989 0.363661 0.299650
Si Si2 0.712100 0.013185 0.211361
Si Si3 0.491539 0.113377 0.924653
Si Si4 0.274004 0.136760 0.674717
Si Si5 0.306045 0.621975 0.306586
Si Si6 0.911278 0.268744 0.967350
Si Si7 0.648962 0.534485 0.610563
Si Si8 0.839287 0.069135 0.666782
O O1 0.349686 0.191751 0.508400
O O2 0.781468 0.342972 0.072387
O O3 0.483082 0.394808 0.290068
O O4 0.768562 0.567826 0.260522
O O5 0.709906 0.997193 0.329874
O O6 0.447279 0.816163 0.322197
O O7 0.792627 0.197114 0.163091
O O8 0.975525 0.050663 0.942762
O O9 0.542564 0.285889 0.901620
O O10 0.717803 0.100359 0.696223
O O11 0.219715 0.923125 0.048092
O O12 0.428925 0.095554 0.093267
O O13 0.495846 0.337878 0.611886
O O14 0.358115 0.513933 0.283595
O O15 0.000000 0.500000 0.500000
O O16 0.962035 0.718179 0.382128
O O17 0.000000 0.000000 0.500000
#
# Coordination Sequence:
#
# PCOD9097182 Si02
#       8
#     2   2   2   2   2   2   2   2
#     4  11  22  34  60  91 127 154 199 249 302 368
#     4   9  20  36  60  83 119 157 204 241 300 371
#     4  10  22  42  63  86 124 164 201 255 313 357
#     4  10  20  36  59  91 116 161 197 246 303 357
#     4  10  20  39  63  85 115 166 203 250 307 358
#     4  10  21  39  57  89 123 158 196 248 308 360
#     4  11  21  36  61  89 122 157 206 246 301 371
#     4  11  23  39  64  93 120 158 211 254 305 369
#
# _framework density 25.549281000000001
#
# number of rings (size 3 to 8) (size 9 to 14) (size 15 to 20)
#    0.000    1.750    2.500    1.875    3.500    0.500 
#    0.000    0.625    0.000    0.000    0.000    0.000 
#    0.000    0.000    0.000    0.000    0.000    0.000 
#
# Total GULP energy -89100.488131 kJ/mol
# GULP energy per Si atom -5568.780508 kJ/mol
# Density = 2.549113 g / cm^3
# Si number density = 25.549281 Si / 1000 Ang^3
#
#
#
# Elastic Constant Matrix: (Units=GPa)
#
#
# Indices 1 2 3 4 5 6 
#
# 1 194.8934 51.9149 57.5794 -15.8299 -10.3161 -65.9295
# 2 51.9149 75.9292 38.7106 -18.3168 -5.3782 -10.1682
# 3 57.5794 38.7106 93.8235 -23.7443 -9.2898 -16.3193
# 4 -15.8299 -18.3168 -23.7443 40.8883 -4.2909 -8.2270
# 5 -10.3161 -5.3782 -9.2898 -4.2909 43.1162 -22.7639
# 6 -65.9295 -10.1682 -16.3193 -8.2270 -22.7639 65.1494
#
#
#
# Elastic Compliance Matrix: (Units=1/GPa)
#
#
# Indices 1 2 3 4 5 6 
#
# 1 0.014842 -0.003971 0.000186 0.009890 0.015164 0.020994
# 2 -0.003971 0.018972 -0.004771 0.003797 -0.000208 -0.001846
# 3 0.000186 -0.004771 0.017468 0.010620 0.008577 0.008157
# 4 0.009890 0.003797 0.010620 0.044126 0.023866 0.027173
# 5 0.015164 -0.000208 0.008577 0.023866 0.051290 0.038397
# 6 0.020994 -0.001846 0.008157 0.027173 0.038397 0.055197
#
#
# Mechanical properties :
#
#
# Convention : Reuss Voigt Hill
#
# Bulk Modulus (GPa) = 29.26585 73.45065 51.35825
# Shear Modulus (GPa) = 21.70160 44.26022 32.98091
#
# Velocity S-wave (km/s) = 2.91761 4.16666 3.59677
# Velocity P-wave (km/s) = 4.77802 7.20827 6.11509
#
# Compressibility (1/GPa) = 0.03416952
#
# Stress axis : x y z
#
# Youngs Moduli (GPa) = 67.37808 52.70954 57.24634
#
# Poissons Ratio (x) = 0.20932 -0.01066
# Poissons Ratio (y) = 0.26757 0.27313
# Poissons Ratio (z) = -0.01254 0.25149
#
# Static dielectric constant tensor:
#      x y z
#    x 2.245310 -0.029260 0.066720 
#    y -0.029260 2.093510 0.049240 
#    z 0.066720 0.049240 2.098140 
# 
# From -- ./inp_files/531875.got.cif
#   From: 2010.05.17/outbox.cif.g08.bks.cpg/sg2_266_cif.got.tgz:531875.got - 2010.06.03 11:33:40.
