data_PCOD9097565
_publ_section_title
;
Structure prediction by ZEFSAII (Michael W. Deem and Ramdas Pophale) SiO2 
 PCOD9097565
Probable space group: P -1
;
_chemical_formula_sum "Si O2"
_cell_formula_units_Z 14
_cell_length_a 26.626934
_cell_length_b 21.221856
_cell_length_c 7.071231
_cell_angle_alpha 48.153311
_cell_angle_beta 51.858047
_cell_angle_gamma 12.404994
_cell_volume 624.871103
_symmetry_space_group_name_H-M "P -1"
_symmetry_group_IT_number 2
_symmetry_cell_setting 'triclinic'
loop_
_space_group_symop_operation_xyz
x,y,z
-x,-y,-z
loop_
_atom_site_type_symbol
_atom_site_label
_atom_site_fract_x
_atom_site_fract_y
_atom_site_fract_z
Si Si1 0.029262 0.364142 0.740668
Si Si2 0.470797 0.344565 0.075003
Si Si3 0.437453 0.579131 0.709014
Si Si4 0.116903 0.704691 0.455859
Si Si5 0.774477 0.840891 0.917919
Si Si6 0.387524 0.466325 0.570398
Si Si7 0.614709 0.793583 0.983988
O O1 0.000000 0.500000 0.500000
O O2 0.263154 0.031803 0.758487
O O3 0.106754 0.260629 0.984745
O O4 0.781423 0.630880 0.774639
O O5 0.271838 0.543457 0.245591
O O6 0.477991 0.430463 0.965685
O O7 0.408981 0.425851 0.829565
O O8 0.500000 0.500000 0.500000
O O9 0.584499 0.470486 0.664624
O O10 0.158553 0.953903 0.635279
O O11 0.152156 0.726976 0.501431
O O12 0.223866 0.480622 0.731431
O O13 0.602577 0.133838 0.645827
O O14 0.583758 0.008878 0.058053
O O15 0.000000 0.500000 0.000000
O O16 0.500000 0.000000 0.000000
#
# Coordination Sequence:
#
# PCOD9097565 Si02
#       7
#     2   2   2   2   2   2   2
#     4  11  23  41  60  88 127 157 199 257 303 361
#     4  10  22  40  61  91 123 156 208 254 296 364
#     4  10  21  40  63  89 124 159 202 254 300 362
#     4  11  22  40  65  87 121 164 202 246 312 361
#     4  10  20  36  61  88 120 155 205 246 295 365
#     4   9  22  40  60  89 123 161 198 252 305 353
#     4  11  21  36  62  88 117 164 199 244 311 356
#
# _framework density 22.404620999999999
#
# number of rings (size 3 to 8) (size 9 to 14) (size 15 to 20)
#    0.000    1.714    1.429    3.857    2.000    3.429 
#    0.000   10.000    0.000    0.000    0.000    0.000 
#    0.000    0.000    0.000    0.000    0.000    0.000 
#
# Total GULP energy -78115.303956 kJ/mol
# GULP energy per Si atom -5579.664568 kJ/mol
# Density = 2.235363 g / cm^3
# Si number density = 22.404621 Si / 1000 Ang^3
#
#
#
# Elastic Constant Matrix: (Units=GPa)
#
#
# Indices 1 2 3 4 5 6 
#
# 1 83.2007 1.3236 15.1876 13.2658 -14.5862 -1.3349
# 2 1.3236 95.1991 43.6350 21.4144 -20.0127 3.5096
# 3 15.1876 43.6350 83.0508 16.1805 -26.5867 10.1066
# 4 13.2658 21.4144 16.1805 37.7364 3.9628 -5.4302
# 5 -14.5862 -20.0127 -26.5867 3.9628 46.8241 5.7893
# 6 -1.3349 3.5096 10.1066 -5.4302 5.7893 35.9319
#
#
#
# Elastic Compliance Matrix: (Units=1/GPa)
#
#
# Indices 1 2 3 4 5 6 
#
# 1 0.014356 0.003152 -0.000568 -0.007514 0.006352 -0.001774
# 2 0.003152 0.016205 -0.005071 -0.009115 0.006097 -0.002399
# 3 -0.000568 -0.005071 0.021165 -0.008437 0.011450 -0.008599
# 4 -0.007514 -0.009115 -0.008437 0.041308 -0.015982 0.011802
# 5 0.006352 0.006097 0.011450 -0.015982 0.035238 -0.011673
# 6 -0.001774 -0.002399 -0.008599 0.011802 -0.011673 0.034082
#
#
# Mechanical properties :
#
#
# Convention : Reuss Voigt Hill
#
# Bulk Modulus (GPa) = 21.39017 42.41586 31.90302
# Shear Modulus (GPa) = 27.33554 37.51878 32.42716
#
# Velocity S-wave (km/s) = 3.49676 4.09663 3.80852
# Velocity P-wave (km/s) = 5.08636 6.43034 5.79743
#
# Compressibility (1/GPa) = 0.04675044
#
# Stress axis : x y z
#
# Youngs Moduli (GPa) = 69.65849 61.70821 47.24833
#
# Poissons Ratio (x) = -0.19448 0.02684
# Poissons Ratio (y) = -0.21953 0.23960
# Poissons Ratio (z) = 0.03957 0.31293
#
# Static dielectric constant tensor:
#      x y z
#    x 1.816930 0.023620 -0.007570 
#    y 0.023620 1.884080 -0.030790 
#    z -0.007570 -0.030790 1.776870 
# 
# From -- ./inp_files/176990.got.cif
#   From: 2010.05.17/outbox.cif.g08.bks.cpg/sg2_89_cif.got.tgz:176990.got - 2010.06.03 11:33:40.
