data_PCOD9097386
_publ_section_title
;
Structure prediction by ZEFSAII (Michael W. Deem and Ramdas Pophale) SiO2 
 PCOD9097386
Probable space group: P -1
;
_chemical_formula_sum "Si O2"
_cell_formula_units_Z 15
_cell_length_a 11.651048
_cell_length_b 5.138573
_cell_length_c 20.024950
_cell_angle_alpha 76.638191
_cell_angle_beta 150.270583
_cell_angle_gamma 105.721243
_cell_volume 572.271709
_symmetry_space_group_name_H-M "P -1"
_symmetry_group_IT_number 2
_symmetry_cell_setting 'triclinic'
loop_
_space_group_symop_operation_xyz
x,y,z
-x,-y,-z
loop_
_atom_site_type_symbol
_atom_site_label
_atom_site_fract_x
_atom_site_fract_y
_atom_site_fract_z
Si Si1 0.500000 0.000000 0.000000
Si Si2 0.010551 0.357922 0.415902
Si Si3 0.769942 0.512173 0.717388
Si Si4 0.446572 0.709261 0.639460
Si Si5 0.634819 0.742952 0.183625
Si Si6 0.462807 0.971455 0.766185
Si Si7 0.694852 0.856258 0.541076
Si Si8 0.730623 0.665585 0.027394
O O1 0.697695 0.859299 0.060173
O O2 0.317319 0.965001 0.843204
O O3 0.849029 0.583817 0.301984
O O4 0.815490 0.130496 0.361430
O O5 0.224941 0.492765 0.562686
O O6 0.145756 0.241932 0.430655
O O7 0.668662 0.584226 0.733571
O O8 0.789302 0.775987 0.664250
O O9 0.566118 0.304028 0.592501
O O10 0.008964 0.390873 0.847912
O O11 0.512401 0.933479 0.716205
O O12 0.339967 0.840404 0.512697
O O13 0.432408 0.634303 0.031826
O O14 0.510727 0.761437 0.190849
O O15 0.615785 0.782574 0.896717
#
# Coordination Sequence:
#
# PCOD9097386 Si02
#       8
#     1   2   2   2   2   2   2   2
#     4  10  20  36  60  90 120 154 202 258 312 364
#     4  10  21  38  62  91 123 161 207 264 315 364
#     4  10  23  42  62  89 126 165 208 257 309 370
#     4  11  23  39  63  89 124 170 211 255 307 369
#     4  10  21  36  58  89 124 162 204 254 313 372
#     4  10  23  40  59  93 128 162 208 257 312 369
#     4  10  22  40  63  92 120 160 212 261 314 365
#     4  10  22  40  62  89 123 162 203 255 314 372
#
# _framework density 26.211324999999999
#
# number of rings (size 3 to 8) (size 9 to 14) (size 15 to 20)
#    0.000    1.867    0.000    2.800    0.000   12.267 
#    0.000    1.333    0.000    0.000    0.000    0.000 
#    0.000    0.000    0.000    0.000    0.000    0.000 
#
# Total GULP energy -83775.750200 kJ/mol
# GULP energy per Si atom -5585.050013 kJ/mol
# Density = 2.615167 g / cm^3
# Si number density = 26.211325 Si / 1000 Ang^3
#
#
#
# Elastic Constant Matrix: (Units=GPa)
#
#
# Indices 1 2 3 4 5 6 
#
# 1 115.3278 41.8846 68.4637 -14.9351 14.9856 -44.6467
# 2 41.8846 88.4669 44.8330 -16.8381 13.2940 -30.1482
# 3 68.4637 44.8330 157.6037 -31.1872 27.9544 -19.8860
# 4 -14.9351 -16.8381 -31.1872 48.8013 -7.6010 3.3324
# 5 14.9856 13.2940 27.9544 -7.6010 49.2025 -11.4873
# 6 -44.6467 -30.1482 -19.8860 3.3324 -11.4873 56.2824
#
#
#
# Elastic Compliance Matrix: (Units=1/GPa)
#
#
# Indices 1 2 3 4 5 6 
#
# 1 0.016469 -0.001502 -0.005495 0.000454 0.001034 0.010502
# 2 -0.001502 0.016029 -0.002422 0.003007 -0.000575 0.006243
# 3 -0.005495 -0.002422 0.010459 0.003788 -0.003716 -0.002944
# 4 0.000454 0.003007 0.003788 0.024118 0.001115 0.002109
# 5 0.001034 -0.000575 -0.003716 0.001115 0.023359 0.003901
# 6 0.010502 0.006243 -0.002944 0.002109 0.003901 0.029073
#
#
# Mechanical properties :
#
#
# Convention : Reuss Voigt Hill
#
# Bulk Modulus (GPa) = 41.46608 74.64010 58.05309
# Shear Modulus (GPa) = 34.15650 44.60507 39.38079
#
# Velocity S-wave (km/s) = 3.61379 4.12970 3.88033
# Velocity P-wave (km/s) = 5.76775 7.16082 6.50170
#
# Compressibility (1/GPa) = 0.02411610
#
# Stress axis : x y z
#
# Youngs Moduli (GPa) = 60.72112 62.38807 95.61578
#
# Poissons Ratio (x) = 0.09373 0.52543
# Poissons Ratio (y) = 0.09123 0.23161
# Poissons Ratio (z) = 0.33368 0.15112
#
# Static dielectric constant tensor:
#      x y z
#    x 2.609140 1.140310 -0.187430 
#    y 1.140310 4.205410 -0.239850 
#    z -0.187430 -0.239850 2.051520 
# 
# From -- ./inp_files/83306.got.cif
#   From: 2010.05.17/outbox.cif.g08.bks.cpg/sg2_42_cif.got.tgz:83306.got - 2010.06.03 11:33:40.
