data_PCOD9097180
_publ_section_title
;
Structure prediction by ZEFSAII (Michael W. Deem and Ramdas Pophale) SiO2 
 PCOD9097180
Probable space group: P -1
;
_chemical_formula_sum "Si O2"
_cell_formula_units_Z 12
_cell_length_a 14.043576
_cell_length_b 13.566095
_cell_length_c 9.286619
_cell_angle_alpha 115.429510
_cell_angle_beta 61.254942
_cell_angle_gamma 159.358294
_cell_volume 545.622004
_symmetry_space_group_name_H-M "P -1"
_symmetry_group_IT_number 2
_symmetry_cell_setting 'triclinic'
loop_
_space_group_symop_operation_xyz
x,y,z
-x,-y,-z
loop_
_atom_site_type_symbol
_atom_site_label
_atom_site_fract_x
_atom_site_fract_y
_atom_site_fract_z
Si Si1 0.239688 0.810583 0.993819
Si Si2 0.223463 0.747085 0.645418
Si Si3 0.280987 0.084806 0.270636
Si Si4 0.740436 0.919205 0.377807
Si Si5 0.204179 0.515992 0.395973
Si Si6 0.294840 0.349794 0.682425
O O1 0.292175 0.863710 0.819017
O O2 0.214365 0.907529 0.137296
O O3 0.000000 0.500000 0.000000
O O4 0.500000 0.000000 0.000000
O O5 0.151462 0.551468 0.589139
O O6 0.955166 0.561571 0.659421
O O7 0.500000 0.000000 0.500000
O O8 0.002239 0.896242 0.324362
O O9 0.337975 0.127141 0.427156
O O10 0.547300 0.397936 0.211531
O O11 0.526683 0.781973 0.340325
O O12 0.735826 0.784816 0.279619
O O13 0.040797 0.251632 0.354636
O O14 0.500000 0.500000 0.500000
#
# Coordination Sequence:
#
# PCOD9097180 Si02
#       6
#     2   2   2   2   2   2
#     4  12  27  43  67  97 135 167 213 265 326 384
#     4  11  25  44  64  95 131 174 214 259 323 388
#     4  11  21  38  59  92 131 165 203 272 325 366
#     4  11  19  35  62  93 119 161 219 259 309 375
#     4  11  22  36  63  88 124 160 217 256 306 377
#     4  10  20  36  59  90 128 165 209 266 320 372
#
# _framework density 21.993248999999999
#
# number of rings (size 3 to 8) (size 9 to 14) (size 15 to 20)
#    0.000    1.000    1.667    8.000    4.667    0.000 
#    0.000    0.000    0.000    6.000    0.000    0.000 
#    0.000    0.000    0.000    0.000    0.000    0.000 
#
# Total GULP energy -66988.518780 kJ/mol
# GULP energy per Si atom -5582.376565 kJ/mol
# Density = 2.194319 g / cm^3
# Si number density = 21.993249 Si / 1000 Ang^3
#
#
#
# Elastic Constant Matrix: (Units=GPa)
#
#
# Indices 1 2 3 4 5 6 
#
# 1 115.3910 42.4952 28.3482 11.5740 -9.7110 18.6276
# 2 42.4952 140.5345 25.1651 26.2960 -4.7215 -1.0973
# 3 28.3482 25.1651 70.4741 18.8391 2.6026 4.0542
# 4 11.5740 26.2960 18.8391 26.2124 -4.8975 -4.9516
# 5 -9.7110 -4.7215 2.6026 -4.8975 26.2283 16.2219
# 6 18.6276 -1.0973 4.0542 -4.9516 16.2219 55.9273
#
#
#
# Elastic Compliance Matrix: (Units=1/GPa)
#
#
# Indices 1 2 3 4 5 6 
#
# 1 0.012407 -0.002932 -0.004117 0.000825 0.008518 -0.006289
# 2 -0.002932 0.009526 0.000028 -0.008395 -0.001462 0.000842
# 3 -0.004117 0.000028 0.019610 -0.013374 -0.006336 0.000604
# 4 0.000825 -0.008395 -0.013374 0.058091 0.009091 0.003036
# 5 0.008518 -0.001462 -0.006336 0.009091 0.054026 -0.017272
# 6 -0.006289 0.000842 0.000604 0.003036 -0.017272 0.025226
#
#
# Mechanical properties :
#
#
# Convention : Reuss Voigt Hill
#
# Bulk Modulus (GPa) = 36.36368 57.60184 46.98276
# Shear Modulus (GPa) = 24.74081 37.03302 30.88692
#
# Velocity S-wave (km/s) = 3.35763 4.10791 3.75157
# Velocity P-wave (km/s) = 5.62152 6.98194 6.33833
#
# Compressibility (1/GPa) = 0.02749996
#
# Stress axis : x y z
#
# Youngs Moduli (GPa) = 80.60229 104.98033 50.99410
#
# Poissons Ratio (x) = 0.30777 0.20995
# Poissons Ratio (y) = 0.23630 -0.00141
# Poissons Ratio (z) = 0.33185 -0.00290
#
# Static dielectric constant tensor:
#      x y z
#    x 1.766850 -0.053580 0.017450 
#    y -0.053580 1.840770 -0.003940 
#    z 0.017450 -0.003940 1.817910 
# 
# From -- ./inp_files/313820.got.cif
#   From: 2010.05.17/outbox.cif.g08.bks.cpg/sg2_157_cif.got.tgz:313820.got - 2010.06.03 11:33:40.
