data_PCOD9097673
_publ_section_title
;
Structure prediction by ZEFSAII (Michael W. Deem and Ramdas Pophale) SiO2 
 PCOD9097673
Probable space group: P -1
;
_chemical_formula_sum "Si O2"
_cell_formula_units_Z 16
_cell_length_a 14.055221
_cell_length_b 8.329400
_cell_length_c 7.029708
_cell_angle_alpha 56.138154
_cell_angle_beta 74.077712
_cell_angle_gamma 100.977758
_cell_volume 593.343771
_symmetry_space_group_name_H-M "P -1"
_symmetry_group_IT_number 2
_symmetry_cell_setting 'triclinic'
loop_
_space_group_symop_operation_xyz
x,y,z
-x,-y,-z
loop_
_atom_site_type_symbol
_atom_site_label
_atom_site_fract_x
_atom_site_fract_y
_atom_site_fract_z
Si Si1 0.001675 0.035063 0.207108
Si Si2 0.505734 0.703533 0.245120
Si Si3 0.237971 0.087625 0.518395
Si Si4 0.057935 0.681628 0.507217
Si Si5 0.696901 0.453699 0.759532
Si Si6 0.604719 0.126578 0.498359
Si Si7 0.274125 0.964888 0.986633
Si Si8 0.809343 0.519914 0.233289
O O1 0.892371 0.058907 0.313039
O O2 0.989026 0.819952 0.465713
O O3 0.115776 0.242670 0.035791
O O4 0.000000 0.000000 0.000000
O O5 0.500000 0.500000 0.500000
O O6 0.431930 0.619935 0.156356
O O7 0.452695 0.834259 0.309152
O O8 0.629936 0.867195 0.052777
O O9 0.260607 0.327363 0.293683
O O10 0.321468 0.003384 0.441468
O O11 0.266277 0.090134 0.724704
O O12 0.101729 0.577581 0.715948
O O13 0.000000 0.500000 0.500000
O O14 0.165949 0.861177 0.234809
O O15 0.759477 0.510507 0.480596
O O16 0.707806 0.240873 0.956520
O O17 0.704890 0.369090 0.263820
O O18 0.500000 0.000000 0.500000
#
# Coordination Sequence:
#
# PCOD9097673 Si02
#       8
#     2   2   2   2   2   2   2   2
#     4  12  20  36  66  97 125 164 214 259 323 379
#     4  11  21  39  66  89 120 165 218 266 315 375
#     4  12  22  40  62  92 130 171 206 261 326 378
#     4  11  20  37  63 102 129 155 211 279 314 374
#     4  10  20  36  61  93 122 161 212 266 314 372
#     4  11  24  43  65  88 136 174 209 266 324 378
#     4  11  20  34  64  92 121 162 212 259 322 369
#     4  10  22  39  64  96 128 167 213 267 315 378
#
# _framework density 26.965819
#
# number of rings (size 3 to 8) (size 9 to 14) (size 15 to 20)
#    0.000    1.000    6.250    1.125    1.750    0.500 
#    0.000    2.500    2.750    0.000    0.000    0.000 
#    0.000    0.000    0.000    0.000    0.000    0.000 
#
# Total GULP energy -89570.273056 kJ/mol
# GULP energy per Si atom -5598.142066 kJ/mol
# Density = 2.690444 g / cm^3
# Si number density = 26.965819 Si / 1000 Ang^3
#
#
#
# Elastic Constant Matrix: (Units=GPa)
#
#
# Indices 1 2 3 4 5 6 
#
# 1 142.8841 47.0916 53.4108 -24.7448 -24.3961 -0.0625
# 2 47.0916 108.4729 55.9028 -35.1720 -15.8230 -1.2199
# 3 53.4108 55.9028 123.2469 -34.0263 -12.1682 5.8952
# 4 -24.7448 -35.1720 -34.0263 48.0010 5.5833 -1.8863
# 5 -24.3961 -15.8230 -12.1682 5.5833 63.6079 -19.0444
# 6 -0.0625 -1.2199 5.8952 -1.8863 -19.0444 52.1203
#
#
#
# Elastic Compliance Matrix: (Units=1/GPa)
#
#
# Indices 1 2 3 4 5 6 
#
# 1 0.009304 -0.001821 -0.002620 0.001320 0.002911 0.001376
# 2 -0.001821 0.014501 -0.003778 0.006832 0.002122 0.001787
# 3 -0.002620 -0.003778 0.012248 0.004556 -0.000443 -0.001474
# 4 0.001320 0.006832 0.004556 0.029699 0.000771 0.001003
# 5 0.002911 0.002122 -0.000443 0.000771 0.019371 0.007209
# 6 0.001376 0.001787 -0.001474 0.001003 0.007209 0.022067
#
#
# Mechanical properties :
#
#
# Convention : Reuss Voigt Hill
#
# Bulk Modulus (GPa) = 50.98136 76.37938 63.68037
# Shear Modulus (GPa) = 38.41167 47.29244 42.85205
#
# Velocity S-wave (km/s) = 3.77829 4.19237 3.99071
# Velocity P-wave (km/s) = 6.16287 7.19866 6.70081
#
# Compressibility (1/GPa) = 0.01961501
#
# Stress axis : x y z
#
# Youngs Moduli (GPa) = 107.47517 68.95853 81.64728
#
# Poissons Ratio (x) = 0.12556 0.21394
# Poissons Ratio (y) = 0.19569 0.30849
# Poissons Ratio (z) = 0.28161 0.26055
#
# Static dielectric constant tensor:
#      x y z
#    x 2.142980 -0.001480 0.009060 
#    y -0.001480 2.279770 0.030970 
#    z 0.009060 0.030970 2.096900 
# 
# From -- ./inp_files/297369.got.cif
#   From: 2010.05.17/outbox.cif.g08.bks.cpg/sg2_149_cif.got.tgz:297369.got - 2010.06.03 11:33:40.
