data_PCOD9097217
_publ_section_title
;
Structure prediction by ZEFSAII (Michael W. Deem and Ramdas Pophale) SiO2 
 PCOD9097217
Probable space group: P -1
;
_chemical_formula_sum "Si O2"
_cell_formula_units_Z 16
_cell_length_a 14.265808
_cell_length_b 11.042489
_cell_length_c 14.305486
_cell_angle_alpha 31.808853
_cell_angle_beta 143.842832
_cell_angle_gamma 129.778494
_cell_volume 692.996126
_symmetry_space_group_name_H-M "P -1"
_symmetry_group_IT_number 2
_symmetry_cell_setting 'triclinic'
loop_
_space_group_symop_operation_xyz
x,y,z
-x,-y,-z
loop_
_atom_site_type_symbol
_atom_site_label
_atom_site_fract_x
_atom_site_fract_y
_atom_site_fract_z
Si Si1 0.827949 0.645288 0.865691
Si Si2 0.985702 0.978649 0.660886
Si Si3 0.621209 0.869102 0.907524
Si Si4 0.446288 0.217645 0.882351
Si Si5 0.801708 0.173444 0.215051
Si Si6 0.631376 0.089802 0.480002
Si Si7 0.520641 0.399190 0.478197
Si Si8 0.154542 0.575445 0.621876
O O1 0.663702 0.612972 0.697476
O O2 0.963091 0.745466 0.849254
O O3 0.766912 0.866179 0.735356
O O4 0.881669 0.407108 0.118732
O O5 0.871722 0.998363 0.465484
O O6 0.919015 0.210952 0.510557
O O7 0.161211 0.951940 0.773173
O O8 0.454208 0.857265 0.725239
O O9 0.624547 0.144361 0.721854
O O10 0.640378 0.824861 0.063504
O O11 0.745833 0.660274 0.100729
O O12 0.395756 0.431743 0.632337
O O13 0.619207 0.261520 0.032489
O O14 0.500000 0.000000 0.000000
O O15 0.721468 0.312278 0.420280
O O16 0.500000 0.000000 0.500000
O O17 0.500000 0.500000 0.500000
O O18 0.000000 0.500000 0.500000
#
# Coordination Sequence:
#
# PCOD9097217 Si02
#       8
#     2   2   2   2   2   2   2   2
#     4   9  20  36  60  89 123 155 218 271 322 387
#     4  10  22  41  59  87 126 171 214 261 327 408
#     4  11  24  42  67  97 133 180 224 282 334 411
#     4  11  22  36  65  95 129 166 214 276 341 385
#     4  10  21  37  65  89 118 166 220 263 325 396
#     4  10  23  43  72  96 128 180 238 276 332 414
#     4  10  20  36  59  96 127 163 218 277 329 392
#     4  11  26  43  67  96 143 178 221 280 350 403
#
# _framework density 23.088151
#
# number of rings (size 3 to 8) (size 9 to 14) (size 15 to 20)
#    0.000    1.750    1.250    3.000    8.750    0.000 
#    0.000    0.625    0.000    0.000    0.000    0.000 
#    0.000    0.000    0.000    0.000    0.000    0.000 
#
# Total GULP energy -89171.753487 kJ/mol
# GULP energy per Si atom -5573.234593 kJ/mol
# Density = 2.303560 g / cm^3
# Si number density = 23.088151 Si / 1000 Ang^3
#
#
#
# Elastic Constant Matrix: (Units=GPa)
#
#
# Indices 1 2 3 4 5 6 
#
# 1 58.3534 11.7100 8.5355 -5.6346 -9.8876 -2.8854
# 2 11.7100 75.9951 30.4787 -26.5810 -10.4820 -0.5645
# 3 8.5355 30.4787 117.4494 -41.0656 -1.4181 -0.5044
# 4 -5.6346 -26.5810 -41.0656 36.4408 -5.7629 8.0898
# 5 -9.8876 -10.4820 -1.4181 -5.7629 36.6259 -3.9117
# 6 -2.8854 -0.5645 -0.5044 8.0898 -3.9117 21.4137
#
#
#
# Elastic Compliance Matrix: (Units=1/GPa)
#
#
# Indices 1 2 3 4 5 6 
#
# 1 0.018646 -0.001419 -0.000323 0.001687 0.005177 0.002776
# 2 -0.001419 0.020379 0.001401 0.018629 0.007877 -0.005220
# 3 -0.000323 0.001401 0.015228 0.020138 0.003363 -0.006642
# 4 0.001687 0.018629 0.020138 0.071525 0.015362 -0.023022
# 5 0.005177 0.007877 0.003363 0.015362 0.033644 0.001327
# 6 0.002776 -0.005220 -0.006642 -0.023022 0.001327 0.055719
#
#
# Mechanical properties :
#
#
# Convention : Reuss Voigt Hill
#
# Bulk Modulus (GPa) = 18.66663 39.24957 28.95810
# Shear Modulus (GPa) = 21.39675 32.30099 26.84887
#
# Velocity S-wave (km/s) = 3.04755 3.74442 3.41381
# Velocity P-wave (km/s) = 4.52613 5.97754 5.30174
#
# Compressibility (1/GPa) = 0.05357152
#
# Stress axis : x y z
#
# Youngs Moduli (GPa) = 53.62997 49.06961 65.67054
#
# Poissons Ratio (x) = 0.06963 0.02118
# Poissons Ratio (y) = 0.07610 -0.09199
# Poissons Ratio (z) = 0.01730 -0.06874
#
# Static dielectric constant tensor:
#      x y z
#    x 2.023040 0.009180 0.049830 
#    y 0.009180 1.905900 0.002870 
#    z 0.049830 0.002870 1.889660 
# 
# From -- ./inp_files/532302.got.cif
#   From: 2010.05.17/outbox.cif.g08.bks.cpg/sg2_267_cif.got.tgz:532302.got - 2010.06.03 11:33:40.
