data_PCOD9097007
_publ_section_title
;
Structure prediction by ZEFSAII (Michael W. Deem and Ramdas Pophale) SiO2 
 PCOD9097007
Probable space group: P -1
;
_chemical_formula_sum "Si O2"
_cell_formula_units_Z 16
_cell_length_a 23.204715
_cell_length_b 8.392162
_cell_length_c 6.493991
_cell_angle_alpha 120.352956
_cell_angle_beta 49.415285
_cell_angle_gamma 136.935725
_cell_volume 654.687455
_symmetry_space_group_name_H-M "P -1"
_symmetry_group_IT_number 2
_symmetry_cell_setting 'triclinic'
loop_
_space_group_symop_operation_xyz
x,y,z
-x,-y,-z
loop_
_atom_site_type_symbol
_atom_site_label
_atom_site_fract_x
_atom_site_fract_y
_atom_site_fract_z
Si Si1 0.138260 0.409636 0.730230
Si Si2 0.948908 0.796674 0.810625
Si Si3 0.676424 0.500484 0.667417
Si Si4 0.935036 0.104646 0.772560
Si Si5 0.238765 0.907556 0.697049
Si Si6 0.380955 0.210657 0.226768
Si Si7 0.533920 0.252319 0.166179
Si Si8 0.400003 0.004066 0.659570
O O1 0.207631 0.333164 0.514069
O O2 0.202196 0.644671 0.603903
O O3 0.034044 0.276405 0.782123
O O4 0.121359 0.425250 0.024593
O O5 0.031107 0.828385 0.499144
O O6 0.901265 0.857145 0.787030
O O7 0.000000 0.000000 0.000000
O O8 0.628989 0.610626 0.749141
O O9 0.636376 0.255749 0.485120
O O10 0.639509 0.436896 0.948766
O O11 0.851909 0.117539 0.029423
O O12 0.324584 0.028753 0.740009
O O13 0.282794 0.039974 0.469498
O O14 0.467760 0.310335 0.250560
O O15 0.396307 0.062848 0.939193
O O16 0.502548 0.194931 0.438387
O O17 0.500000 0.000000 0.000000
#
# Coordination Sequence:
#
# PCOD9097007 Si02
#       8
#     2   2   2   2   2   2   2   2
#     4  10  21  37  55  83 118 154 195 244 295 345
#     4   9  20  36  54  80 113 147 196 246 290 348
#     4  10  21  39  61  87 122 156 197 247 292 353
#     4  10  20  36  59  82 112 156 196 240 298 348
#     4  10  22  38  56  85 119 150 200 251 288 351
#     4  11  22  40  65  88 117 159 199 240 299 357
#     4   9  20  41  61  89 125 150 194 250 292 355
#     4   9  22  40  60  89 121 156 196 246 299 347
#
# _framework density 24.439143000000001
#
# number of rings (size 3 to 8) (size 9 to 14) (size 15 to 20)
#    0.000    2.250    0.000    2.250    0.000   10.000 
#    0.000   12.500    0.000    0.000    0.000    0.000 
#    0.000    0.000    0.000    0.000    0.000    0.000 
#
# Total GULP energy -89284.788419 kJ/mol
# GULP energy per Si atom -5580.299276 kJ/mol
# Density = 2.438352 g / cm^3
# Si number density = 24.439143 Si / 1000 Ang^3
#
#
#
# Elastic Constant Matrix: (Units=GPa)
#
#
# Indices 1 2 3 4 5 6 
#
# 1 94.6282 18.5647 54.4417 -6.8410 -27.4398 4.2707
# 2 18.5647 58.1930 19.5848 -14.8400 0.1646 -7.5022
# 3 54.4417 19.5848 122.9367 -26.5033 -21.1086 26.3394
# 4 -6.8410 -14.8400 -26.5033 41.5500 -4.4302 -4.7861
# 5 -27.4398 0.1646 -21.1086 -4.4302 43.2538 4.9702
# 6 4.2707 -7.5022 26.3394 -4.7861 4.9702 25.1114
#
#
#
# Elastic Compliance Matrix: (Units=1/GPa)
#
#
# Indices 1 2 3 4 5 6 
#
# 1 0.016787 -0.003664 -0.006012 -0.001512 0.007508 0.000582
# 2 -0.003664 0.023593 -0.005353 0.005537 -0.006250 0.015579
# 3 -0.006012 -0.005353 0.019474 0.008029 0.008974 -0.021249
# 4 -0.001512 0.005537 0.008029 0.031390 0.006358 -0.001786
# 5 0.007508 -0.006250 0.008974 0.006358 0.035037 -0.018280
# 6 0.000582 0.015579 -0.021249 -0.001786 -0.018280 0.069943
#
#
# Mechanical properties :
#
#
# Convention : Reuss Voigt Hill
#
# Bulk Modulus (GPa) = 33.56205 51.21559 42.38882
# Shear Modulus (GPa) = 21.16738 34.19414 27.68076
#
# Velocity S-wave (km/s) = 2.94619 3.74459 3.36912
# Velocity P-wave (km/s) = 5.03350 6.30062 5.70236
#
# Compressibility (1/GPa) = 0.02979556
#
# Stress axis : x y z
#
# Youngs Moduli (GPa) = 59.57145 42.38605 51.35111
#
# Poissons Ratio (x) = 0.15529 0.30871
# Poissons Ratio (y) = 0.21825 0.27490
# Poissons Ratio (z) = 0.35813 0.22690
#
# Static dielectric constant tensor:
#      x y z
#    x 1.942880 0.017190 0.002380 
#    y 0.017190 2.105830 0.003410 
#    z 0.002380 0.003410 1.981750 
# 
# From -- ./inp_files/110787.got.cif
#   From: 2010.05.17/outbox.cif.g08.bks.cpg/sg2_56_cif.got.tgz:110787.got - 2010.06.03 11:33:40.
