data_PCOD9097383
_publ_section_title
;
Structure prediction by ZEFSAII (Michael W. Deem and Ramdas Pophale) SiO2 
 PCOD9097383
Probable space group: P -1
;
_chemical_formula_sum "Si O2"
_cell_formula_units_Z 16
_cell_length_a 12.650336
_cell_length_b 11.427824
_cell_length_c 9.449403
_cell_angle_alpha 106.085276
_cell_angle_beta 69.148002
_cell_angle_gamma 134.844154
_cell_volume 904.435784
_symmetry_space_group_name_H-M "P -1"
_symmetry_group_IT_number 2
_symmetry_cell_setting 'triclinic'
loop_
_space_group_symop_operation_xyz
x,y,z
-x,-y,-z
loop_
_atom_site_type_symbol
_atom_site_label
_atom_site_fract_x
_atom_site_fract_y
_atom_site_fract_z
Si Si1 0.285283 0.231039 0.960799
Si Si2 0.542853 0.849039 0.482011
Si Si3 0.407344 0.682241 0.047551
Si Si4 0.839710 0.639084 0.762276
Si Si5 0.519259 0.975877 0.256510
Si Si6 0.182831 0.922794 0.763435
Si Si7 0.338672 0.461549 0.460413
Si Si8 0.387861 0.491245 0.754491
O O1 0.443432 0.284761 0.957127
O O2 0.330025 0.350566 0.848619
O O3 0.178842 0.042988 0.897934
O O4 0.210688 0.265138 0.122158
O O5 0.467153 0.863636 0.386864
O O6 0.460154 0.661134 0.470049
O O7 0.523120 0.917425 0.652447
O O8 0.718680 0.970299 0.387810
O O9 0.265179 0.533077 0.160086
O O10 0.445508 0.850261 0.119074
O O11 0.381563 0.615935 0.878887
O O12 0.794010 0.604133 0.608253
O O13 0.017933 0.752553 0.747759
O O14 0.702752 0.086939 0.212904
O O15 0.293064 0.413421 0.628774
O O16 0.438933 0.420630 0.342430
#
# Coordination Sequence:
#
# PCOD9097383 Si02
#       8
#     2   2   2   2   2   2   2   2
#     4  10  16  31  45  67  95 125 147 186 225 274
#     4   9  16  32  47  68  94 119 147 191 228 265
#     4  10  16  31  49  69  88 121 157 189 219 265
#     4  11  17  26  46  73  95 117 149 189 229 267
#     4   8  16  31  51  65  92 118 153 186 231 261
#     4   9  17  27  45  72  97 113 147 192 234 262
#     4  11  18  29  47  69  92 122 155 185 222 272
#     4  10  18  28  49  67  91 122 157 185 221 266
#
# _framework density 17.690586
#
# number of rings (size 3 to 8) (size 9 to 14) (size 15 to 20)
#    0.750    1.500    5.000    1.125    0.000    0.000 
#    0.000    3.750    0.000    0.000    0.000    4.375 
#    0.000    0.000    0.000    0.000    0.000    0.000 
#
# Total GULP energy -89070.019218 kJ/mol
# GULP energy per Si atom -5566.876201 kJ/mol
# Density = 1.765032 g / cm^3
# Si number density = 17.690586 Si / 1000 Ang^3
#
#
#
# Elastic Constant Matrix: (Units=GPa)
#
#
# Indices 1 2 3 4 5 6 
#
# 1 23.2036 25.6893 14.2697 7.2244 -2.7870 14.3318
# 2 25.6893 60.0684 19.3302 18.3975 -8.8562 20.4463
# 3 14.2697 19.3302 82.2387 29.9821 4.5050 0.1013
# 4 7.2244 18.3975 29.9821 25.4219 -6.6319 0.8908
# 5 -2.7870 -8.8562 4.5050 -6.6319 22.2886 4.6592
# 6 14.3318 20.4463 0.1013 0.8908 4.6592 21.5208
#
#
#
# Elastic Compliance Matrix: (Units=1/GPa)
#
#
# Indices 1 2 3 4 5 6 
#
# 1 0.124451 -0.024264 -0.026449 0.024281 0.032660 -0.067777
# 2 -0.024264 0.045855 0.000878 -0.022503 0.014505 -0.029620
# 3 -0.026449 0.000878 0.031875 -0.038266 -0.025760 0.023791
# 4 0.024281 -0.022503 -0.038266 0.102866 0.033727 -0.006170
# 5 0.032660 0.014505 -0.025760 0.033727 0.081330 -0.054413
# 6 -0.067777 -0.029620 0.023791 -0.006170 -0.054413 0.131668
#
#
# Mechanical properties :
#
#
# Convention : Reuss Voigt Hill
#
# Bulk Modulus (GPa) = 9.75500 31.56545 20.66022
# Shear Modulus (GPa) = 7.67007 20.92767 14.29887
#
# Velocity S-wave (km/s) = 2.08449 3.44318 2.84610
# Velocity P-wave (km/s) = 3.36447 5.80424 4.74388
#
# Compressibility (1/GPa) = 0.10251154
#
# Stress axis : x y z
#
# Youngs Moduli (GPa) = 8.03529 21.80807 31.37208
#
# Poissons Ratio (x) = 0.52914 0.82976
# Poissons Ratio (y) = 0.19497 -0.02754
# Poissons Ratio (z) = 0.21253 -0.01915
#
# Static dielectric constant tensor:
#      x y z
#    x 1.607210 -0.020740 0.003340 
#    y -0.020740 1.607040 0.026070 
#    z 0.003340 0.026070 1.652910 
# 
# From -- ./inp_files/227879.got.cif
#   From: 2010.05.17/outbox.cif.g08.bks.cpg/sg2_114_cif.got.tgz:227879.got - 2010.06.03 11:33:40.
