data_PCOD9097016
_publ_section_title
;
Structure prediction by ZEFSAII (Michael W. Deem and Ramdas Pophale) SiO2 
 PCOD9097016
Probable space group: P -1
;
_chemical_formula_sum "Si O2"
_cell_formula_units_Z 14
_cell_length_a 9.294656
_cell_length_b 6.563140
_cell_length_c 18.029870
_cell_angle_alpha 132.500614
_cell_angle_beta 132.520563
_cell_angle_gamma 73.676854
_cell_volume 565.608864
_symmetry_space_group_name_H-M "P -1"
_symmetry_group_IT_number 2
_symmetry_cell_setting 'triclinic'
loop_
_space_group_symop_operation_xyz
x,y,z
-x,-y,-z
loop_
_atom_site_type_symbol
_atom_site_label
_atom_site_fract_x
_atom_site_fract_y
_atom_site_fract_z
Si Si1 0.731570 0.728085 0.570550
Si Si2 0.393646 0.436454 0.664574
Si Si3 0.116383 0.249202 0.766429
Si Si4 0.612328 0.035460 0.126499
Si Si5 0.312574 0.819159 0.223060
Si Si6 0.941509 0.288743 0.036898
Si Si7 0.029761 0.417288 0.621330
O O1 0.567615 0.633473 0.423157
O O2 0.807013 0.447746 0.541454
O O3 0.674973 0.872939 0.659500
O O4 0.915895 0.000964 0.667619
O O5 0.480571 0.770066 0.804424
O O6 0.478290 0.246050 0.702638
O O7 0.148647 0.368918 0.577512
O O8 0.119804 0.562920 0.876043
O O9 0.082956 0.245069 0.665693
O O10 0.320873 0.194456 0.856871
O O11 0.836501 0.249602 0.232517
O O12 0.500000 0.000000 0.000000
O O13 0.137112 0.548081 0.135430
O O14 0.238945 0.787809 0.105703
O O15 0.000000 0.000000 0.000000
#
# Coordination Sequence:
#
# PCOD9097016 Si02
#       7
#     2   2   2   2   2   2   2
#     4  10  20  39  59  80 115 152 192 228 277 335
#     4  10  21  38  57  87 114 149 187 235 281 327
#     4  10  20  36  59  83 110 154 186 229 280 334
#     4   9  20  36  53  81 117 140 183 231 279 329
#     4  10  21  39  60  82 115 147 188 237 277 332
#     4  10  21  38  61  83 111 150 190 227 286 339
#     4   9  21  36  58  83 115 149 187 228 279 335
#
# _framework density 24.752088000000001
#
# number of rings (size 3 to 8) (size 9 to 14) (size 15 to 20)
#    0.857    1.429    0.000    2.571    0.000    4.571 
#    2.571    0.000    0.000    5.143    0.000    0.000 
#    0.000    0.000    0.000    0.000    0.000    0.000 
#
# Total GULP energy -78120.096011 kJ/mol
# GULP energy per Si atom -5580.006858 kJ/mol
# Density = 2.469575 g / cm^3
# Si number density = 24.752088 Si / 1000 Ang^3
#
#
#
# Elastic Constant Matrix: (Units=GPa)
#
#
# Indices 1 2 3 4 5 6 
#
# 1 51.6680 14.1905 4.3293 7.6658 -10.2254 -0.8995
# 2 14.1905 110.0378 26.4016 -9.2038 3.3728 -12.4924
# 3 4.3293 26.4016 111.9790 4.2711 -22.8198 -5.8048
# 4 7.6658 -9.2038 4.2711 31.5729 -9.6850 -3.8743
# 5 -10.2254 3.3728 -22.8198 -9.6850 25.1578 -1.6090
# 6 -0.8995 -12.4924 -5.8048 -3.8743 -1.6090 37.9053
#
#
#
# Elastic Compliance Matrix: (Units=1/GPa)
#
#
# Indices 1 2 3 4 5 6 
#
# 1 0.022981 -0.004240 0.002382 -0.003968 0.010514 -0.000447
# 2 -0.004240 0.011286 -0.003426 0.003746 -0.004693 0.003278
# 3 0.002382 -0.003426 0.012354 0.000949 0.013093 0.001472
# 4 -0.003968 0.003746 0.000949 0.038602 0.013979 0.005824
# 5 0.010514 -0.004693 0.013093 0.013979 0.062215 0.004778
# 6 -0.000447 0.003278 0.001472 0.005824 0.004778 0.028475
#
#
# Mechanical properties :
#
#
# Convention : Reuss Voigt Hill
#
# Bulk Modulus (GPa) = 27.73731 40.39196 34.06464
# Shear Modulus (GPa) = 25.18909 34.17809 29.68359
#
# Velocity S-wave (km/s) = 3.19353 3.71997 3.46676
# Velocity P-wave (km/s) = 4.98283 5.89957 5.46047
#
# Compressibility (1/GPa) = 0.03605252
#
# Stress axis : x y z
#
# Youngs Moduli (GPa) = 43.51447 88.60624 80.94372
#
# Poissons Ratio (x) = 0.37568 -0.19280
# Poissons Ratio (y) = 0.18450 0.27733
# Poissons Ratio (z) = -0.10365 0.30358
#
# Static dielectric constant tensor:
#      x y z
#    x 1.984980 -0.000080 0.081350 
#    y -0.000080 2.031190 0.012990 
#    z 0.081350 0.012990 1.967610 
# 
# From -- ./inp_files/564597.got.cif
#   From: 2010.05.17/outbox.cif.g08.bks.cpg/sg2_283_cif.got.tgz:564597.got - 2010.06.03 11:33:40.
