data_PCOD9097631
_publ_section_title
;
Structure prediction by ZEFSAII (Michael W. Deem and Ramdas Pophale) SiO2 
 PCOD9097631
Probable space group: P -1
;
_chemical_formula_sum "Si O2"
_cell_formula_units_Z 12
_cell_length_a 7.871966
_cell_length_b 8.615105
_cell_length_c 13.096075
_cell_angle_alpha 108.821556
_cell_angle_beta 36.354925
_cell_angle_gamma 90.383643
_cell_volume 444.734275
_symmetry_space_group_name_H-M "P -1"
_symmetry_group_IT_number 2
_symmetry_cell_setting 'triclinic'
loop_
_space_group_symop_operation_xyz
x,y,z
-x,-y,-z
loop_
_atom_site_type_symbol
_atom_site_label
_atom_site_fract_x
_atom_site_fract_y
_atom_site_fract_z
Si Si1 0.313747 0.268715 0.788969
Si Si2 0.536170 0.841181 0.871781
Si Si3 0.280090 0.569715 0.018098
Si Si4 0.110195 0.510752 0.591593
Si Si5 0.158056 0.701930 0.799167
Si Si6 0.555054 0.889893 0.638649
O O1 0.413398 0.401215 0.835028
O O2 0.578575 0.057953 0.608415
O O3 0.106807 0.352479 0.804651
O O4 0.056653 0.250085 0.987438
O O5 0.334043 0.742171 0.992066
O O6 0.477284 0.921885 0.803881
O O7 0.880943 0.660023 0.656223
O O8 0.500000 0.000000 0.000000
O O9 0.500000 0.500000 0.000000
O O10 0.006115 0.629014 0.770918
O O11 0.483458 0.455593 0.381688
O O12 0.135344 0.309762 0.557270
O O13 0.258782 0.852182 0.735267
#
# Coordination Sequence:
#
# PCOD9097631 Si02
#       6
#     2   2   2   2   2   2
#     4  11  22  40  63  89 123 160 200 248 304 359
#     4  12  23  37  63  90 118 158 204 249 296 358
#     4  11  24  39  59  89 125 161 201 247 298 361
#     4   9  20  33  58  93 120 147 197 253 302 349
#     4   9  18  35  59  86 119 151 193 249 299 345
#     4  10  20  36  61  91 115 151 200 250 298 348
#
# _framework density 26.982406999999998
#
# number of rings (size 3 to 8) (size 9 to 14) (size 15 to 20)
#    1.000    0.667    1.667    4.000    2.333    0.000 
#    0.000    0.833    0.000   20.000    0.000    0.000 
#    0.000    0.000    0.000    0.000    0.000    0.000 
#
# Total GULP energy -66976.484819 kJ/mol
# GULP energy per Si atom -5581.373735 kJ/mol
# Density = 2.692099 g / cm^3
# Si number density = 26.982407 Si / 1000 Ang^3
#
#
#
# Elastic Constant Matrix: (Units=GPa)
#
#
# Indices 1 2 3 4 5 6 
#
# 1 172.5243 88.1104 23.3569 27.1660 9.9622 -13.7361
# 2 88.1104 166.2986 22.8449 51.7277 9.2299 2.2212
# 3 23.3569 22.8449 61.4593 21.8916 -3.5175 -1.0887
# 4 27.1660 51.7277 21.8916 49.9553 4.5316 4.6064
# 5 9.9622 9.2299 -3.5175 4.5316 45.2950 4.1552
# 6 -13.7361 2.2212 -1.0887 4.6064 4.1552 60.5832
#
#
#
# Elastic Compliance Matrix: (Units=1/GPa)
#
#
# Indices 1 2 3 4 5 6 
#
# 1 0.008416 -0.004373 -0.001864 0.000701 -0.001365 0.002075
# 2 -0.004373 0.011191 0.000863 -0.009506 -0.000241 -0.000647
# 3 -0.001864 0.000863 0.019994 -0.008919 0.002642 0.000402
# 4 0.000701 -0.009506 -0.008919 0.033771 -0.002098 -0.002077
# 5 -0.001365 -0.000241 0.002642 -0.002098 0.022995 -0.001671
# 6 0.002075 -0.000647 0.000402 -0.002077 -0.001671 0.017280
#
#
# Mechanical properties :
#
#
# Convention : Reuss Voigt Hill
#
# Bulk Modulus (GPa) = 34.65874 74.32297 54.49086
# Shear Modulus (GPa) = 37.31065 48.89802 43.10434
#
# Velocity S-wave (km/s) = 3.72261 4.26163 4.00121
# Velocity P-wave (km/s) = 5.59910 7.19862 6.44864
#
# Compressibility (1/GPa) = 0.02885275
#
# Stress axis : x y z
#
# Youngs Moduli (GPa) = 118.82810 89.36147 50.01619
#
# Poissons Ratio (x) = 0.39075 0.09322
# Poissons Ratio (y) = 0.51960 -0.04317
# Poissons Ratio (z) = 0.22147 -0.07712
#
# Static dielectric constant tensor:
#      x y z
#    x 2.154330 -0.002560 -0.001480 
#    y -0.002560 2.196010 0.008380 
#    z -0.001480 0.008380 2.207080 
# 
# From -- ./inp_files/491196.got.cif
#   From: 2010.05.17/outbox.cif.g08.bks.cpg/sg2_246_cif.got.tgz:491196.got - 2010.06.03 11:33:40.
