data_PCOD9097482
_publ_section_title
;
Structure prediction by ZEFSAII (Michael W. Deem and Ramdas Pophale) SiO2 
 PCOD9097482
Probable space group: P -1
;
_chemical_formula_sum "Si O2"
_cell_formula_units_Z 16
_cell_length_a 8.028731
_cell_length_b 16.824820
_cell_length_c 8.074611
_cell_angle_alpha 131.410526
_cell_angle_beta 62.231903
_cell_angle_gamma 124.301156
_cell_volume 668.091853
_symmetry_space_group_name_H-M "P -1"
_symmetry_group_IT_number 2
_symmetry_cell_setting 'triclinic'
loop_
_space_group_symop_operation_xyz
x,y,z
-x,-y,-z
loop_
_atom_site_type_symbol
_atom_site_label
_atom_site_fract_x
_atom_site_fract_y
_atom_site_fract_z
Si Si1 0.131766 0.778510 0.060536
Si Si2 0.869479 0.200026 0.312546
Si Si3 0.614817 0.371762 0.259779
Si Si4 0.257265 0.167176 0.032019
Si Si5 0.685328 0.691009 0.112376
Si Si6 0.299534 0.546017 0.302690
Si Si7 0.042473 0.438837 0.734657
Si Si8 0.495705 0.010271 0.817544
O O1 0.124992 0.768848 0.845988
O O2 0.252787 0.701773 0.962294
O O3 0.900315 0.734425 0.171021
O O4 0.271803 0.909961 0.225117
O O5 0.956848 0.304698 0.545553
O O6 0.025046 0.134505 0.147703
O O7 0.639026 0.118402 0.354686
O O8 0.385410 0.290612 0.224347
O O9 0.658010 0.393767 0.460672
O O10 0.713743 0.496710 0.304491
O O11 0.291082 0.203375 0.873158
O O12 0.362474 0.082686 0.923824
O O13 0.685717 0.577282 0.862874
O O14 0.472675 0.635655 0.229343
O O15 0.078284 0.523640 0.301761
O O16 0.000000 0.500000 0.000000
O O17 0.500000 0.000000 0.000000
#
# Coordination Sequence:
#
# PCOD9097482 Si02
#       8
#     2   2   2   2   2   2   2   2
#     4   9  17  36  63  90 118 163 206 260 312 377
#     4  10  20  36  60  96 125 164 212 259 312 373
#     4  11  20  37  61  88 124 163 212 249 318 379
#     4  10  21  36  62  97 130 159 207 272 314 377
#     4  10  21  36  58  93 130 164 207 263 325 364
#     4  11  22  37  61  90 128 172 209 257 316 394
#     4  12  24  37  61  93 134 168 209 260 315 382
#     4   9  19  36  66  97 121 167 216 260 318 383
#
# _framework density 23.948803999999999
#
# number of rings (size 3 to 8) (size 9 to 14) (size 15 to 20)
#    0.000    1.750    2.500    3.000    0.000    4.000 
#    0.000    0.000    0.000    7.500    6.500    0.000 
#    0.000    0.000    0.000    0.000    0.000    0.000 
#
# Total GULP energy -89290.234872 kJ/mol
# GULP energy per Si atom -5580.639679 kJ/mol
# Density = 2.389430 g / cm^3
# Si number density = 23.948804 Si / 1000 Ang^3
#
#
#
# Elastic Constant Matrix: (Units=GPa)
#
#
# Indices 1 2 3 4 5 6 
#
# 1 69.9096 24.9077 1.1388 2.6256 -0.8811 10.7481
# 2 24.9077 105.0267 11.1620 27.0612 4.3433 30.6776
# 3 1.1388 11.1620 34.2593 11.6713 10.6950 1.4481
# 4 2.6256 27.0612 11.6713 21.8265 5.3714 6.6013
# 5 -0.8811 4.3433 10.6950 5.3714 26.9902 14.7203
# 6 10.7481 30.6776 1.4481 6.6013 14.7203 57.4685
#
#
#
# Elastic Compliance Matrix: (Units=1/GPa)
#
#
# Indices 1 2 3 4 5 6 
#
# 1 0.015972 -0.004351 -0.000926 0.004031 0.001614 -0.001517
# 2 -0.004351 0.017915 0.000021 -0.020664 0.005297 -0.007733
# 3 -0.000926 0.000021 0.040253 -0.019327 -0.014976 0.005204
# 4 0.004031 -0.020664 -0.019327 0.082046 -0.006909 0.003109
# 5 0.001614 0.005297 -0.014976 -0.006909 0.051875 -0.015246
# 6 -0.001517 -0.007733 0.005204 0.003109 -0.015246 0.025230
#
#
# Mechanical properties :
#
#
# Convention : Reuss Voigt Hill
#
# Bulk Modulus (GPa) = 15.71676 31.51250 23.61463
# Shear Modulus (GPa) = 18.86701 32.72283 25.79492
#
# Velocity S-wave (km/s) = 2.80983 3.70045 3.28546
# Velocity P-wave (km/s) = 4.13567 5.60755 4.92688
#
# Compressibility (1/GPa) = 0.06362635
#
# Stress axis : x y z
#
# Youngs Moduli (GPa) = 62.61005 55.81809 24.84312
#
# Poissons Ratio (x) = 0.24289 0.02301
# Poissons Ratio (y) = 0.27245 -0.00052
# Poissons Ratio (z) = 0.05798 -0.00116
#
# Static dielectric constant tensor:
#      x y z
#    x 1.918220 -0.021010 -0.001220 
#    y -0.021010 1.992230 0.011750 
#    z -0.001220 0.011750 1.908710 
# 
# From -- ./inp_files/218547.got.cif
#   From: 2010.05.17/outbox.cif.g08.bks.cpg/sg2_110_cif.got.tgz:218547.got - 2010.06.03 11:33:40.
