data_PCOD9097883
_publ_section_title
;
Structure prediction by ZEFSAII (Michael W. Deem and Ramdas Pophale) SiO2 
 PCOD9097883
Probable space group: P -1
;
_chemical_formula_sum "Si O2"
_cell_formula_units_Z 14
_cell_length_a 5.430543
_cell_length_b 9.465502
_cell_length_c 19.308499
_cell_angle_alpha 111.235067
_cell_angle_beta 57.867925
_cell_angle_gamma 81.445499
_cell_volume 706.350469
_symmetry_space_group_name_H-M "P -1"
_symmetry_group_IT_number 2
_symmetry_cell_setting 'triclinic'
loop_
_space_group_symop_operation_xyz
x,y,z
-x,-y,-z
loop_
_atom_site_type_symbol
_atom_site_label
_atom_site_fract_x
_atom_site_fract_y
_atom_site_fract_z
Si Si1 0.336611 0.479558 0.129730
Si Si2 0.124192 0.588382 0.720047
Si Si3 0.744938 0.420911 0.513551
Si Si4 0.824958 0.838313 0.689796
Si Si5 0.318072 0.347858 0.955819
Si Si6 0.938605 0.149107 0.983456
Si Si7 0.913915 0.063116 0.203805
O O1 0.039065 0.503113 0.225999
O O2 0.316614 0.407746 0.044686
O O3 0.402935 0.639758 0.130386
O O4 0.650401 0.320354 0.083736
O O5 0.915296 0.672141 0.696319
O O6 0.451459 0.915548 0.739935
O O7 0.099641 0.759512 0.790457
O O8 0.500000 0.500000 0.500000
O O9 0.947190 0.944535 0.741097
O O10 0.959414 0.230282 0.423304
O O11 0.000000 0.500000 0.500000
O O12 0.492728 0.470881 0.623363
O O13 0.000000 0.500000 0.000000
O O14 0.248973 0.186239 0.935784
O O15 0.883150 0.086459 0.905192
O O16 0.000000 0.000000 0.000000
#
# Coordination Sequence:
#
# PCOD9097883 Si02
#       7
#     2   2   2   2   2   2   2
#     4  10  20  38  53  79 111 151 188 233 269 342
#     4   9  19  28  53  76 108 142 186 224 279 332
#     4  10  16  31  49  73 112 146 174 226 285 331
#     4   9  18  32  46  78 114 141 177 228 280 331
#     4   9  21  38  54  71 113 151 192 229 278 323
#     4  11  22  33  56  82 114 149 188 234 282 334
#     4  10  20  30  49  77 110 144 177 220 281 325
#
# _framework density 19.820187000000001
#
# number of rings (size 3 to 8) (size 9 to 14) (size 15 to 20)
#    0.857    1.429    1.429    1.714    2.000    2.286 
#    0.000    0.000    0.000    0.000    0.000    2.000 
#    0.000    0.000    0.000    0.000    0.000    0.000 
#
# Total GULP energy -77947.580339 kJ/mol
# GULP energy per Si atom -5567.684310 kJ/mol
# Density = 1.977508 g / cm^3
# Si number density = 19.820187 Si / 1000 Ang^3
#
#
#
# Elastic Constant Matrix: (Units=GPa)
#
#
# Indices 1 2 3 4 5 6 
#
# 1 116.6419 28.4247 35.9244 -3.8904 -7.0760 19.1499
# 2 28.4247 86.8471 37.2950 -14.6412 -6.2892 26.7471
# 3 35.9244 37.2950 109.1430 -13.7869 -20.3618 25.7863
# 4 -3.8904 -14.6412 -13.7869 23.6262 11.1331 -7.5604
# 5 -7.0760 -6.2892 -20.3618 11.1331 33.3132 1.8694
# 6 19.1499 26.7471 25.7863 -7.5604 1.8694 32.5935
#
#
#
# Elastic Compliance Matrix: (Units=1/GPa)
#
#
# Indices 1 2 3 4 5 6 
#
# 1 0.010206 -0.001644 -0.001877 -0.002491 0.001759 -0.003841
# 2 -0.001644 0.017037 -0.002161 0.005743 0.000187 -0.009984
# 3 -0.001877 -0.002161 0.014152 -0.000178 0.008399 -0.008843
# 4 -0.002491 0.005743 -0.000178 0.058354 -0.019704 0.011557
# 5 0.001759 0.000187 0.008399 -0.019704 0.042980 -0.014867
# 6 -0.003841 -0.009984 -0.008843 0.011557 -0.014867 0.051661
#
#
# Mechanical properties :
#
#
# Convention : Reuss Voigt Hill
#
# Bulk Modulus (GPa) = 33.29833 57.32447 45.31140
# Shear Modulus (GPa) = 23.17333 31.97246 27.57289
#
# Velocity S-wave (km/s) = 3.42303 4.02073 3.73386
# Velocity P-wave (km/s) = 5.69733 7.10916 6.44204
#
# Compressibility (1/GPa) = 0.03003153
#
# Stress axis : x y z
#
# Youngs Moduli (GPa) = 97.98038 58.69444 70.65936
#
# Poissons Ratio (x) = 0.09650 0.13260
# Poissons Ratio (y) = 0.16109 0.15273
# Poissons Ratio (z) = 0.18387 0.12687
#
# Static dielectric constant tensor:
#      x y z
#    x 1.879600 -0.108820 -0.061280 
#    y -0.108820 1.804790 0.076960 
#    z -0.061280 0.076960 1.779710 
# 
# From -- ./inp_files/581625.got.cif
#   From: 2010.05.17/outbox.cif.g08.bks.cpg/sg2_291_cif.got.tgz:581625.got - 2010.06.03 11:33:40.
