data_PCOD9097102
_publ_section_title
;
Structure prediction by ZEFSAII (Michael W. Deem and Ramdas Pophale) SiO2 
 PCOD9097102
Probable space group: P -1
;
_chemical_formula_sum "Si O2"
_cell_formula_units_Z 16
_cell_length_a 22.610443
_cell_length_b 5.467406
_cell_length_c 16.654237
_cell_angle_alpha 97.808195
_cell_angle_beta 21.345816
_cell_angle_gamma 106.128678
_cell_volume 673.983442
_symmetry_space_group_name_H-M "P -1"
_symmetry_group_IT_number 2
_symmetry_cell_setting 'triclinic'
loop_
_space_group_symop_operation_xyz
x,y,z
-x,-y,-z
loop_
_atom_site_type_symbol
_atom_site_label
_atom_site_fract_x
_atom_site_fract_y
_atom_site_fract_z
Si Si1 0.140441 0.072444 0.944196
Si Si2 0.546277 0.206153 0.575743
Si Si3 0.151830 0.613149 0.245569
Si Si4 0.687205 0.320740 0.229324
Si Si5 0.431132 0.100532 0.238847
Si Si6 0.765313 0.004640 0.357151
Si Si7 0.544252 0.419751 0.853773
Si Si8 0.258577 0.170867 0.063956
O O1 0.223577 0.367446 0.893848
O O2 0.186446 0.836807 0.915414
O O3 0.214956 0.109925 0.759804
O O4 0.935172 0.013655 0.190362
O O5 0.449132 0.878848 0.670718
O O6 0.578561 0.307728 0.448580
O O7 0.739122 0.275843 0.375168
O O8 0.413045 0.255574 0.805440
O O9 0.146128 0.343795 0.198202
O O10 0.000000 0.500000 0.500000
O O11 0.146811 0.848022 0.203891
O O12 0.352446 0.757587 0.036736
O O13 0.349895 0.288109 0.307810
O O14 0.389259 0.105065 0.385688
O O15 0.369037 0.796640 0.269447
O O16 0.500000 0.500000 0.000000
O O17 0.367688 0.272817 0.014456
#
# Coordination Sequence:
#
# PCOD9097102 Si02
#       8
#     2   2   2   2   2   2   2   2
#     4  10  24  40  62  94 139 169 206 269 314 369
#     4  10  21  40  68  96 125 174 221 253 313 381
#     4  10  20  36  59  87 117 146 198 265 313 360
#     4  10  24  40  62  94 139 169 206 269 314 369
#     4  10  21  36  63  89 113 160 206 254 300 394
#     4  10  21  40  68  96 125 174 221 253 313 381
#     4  10  20  36  59  87 117 146 198 265 313 360
#     4  10  21  36  63  89 113 160 206 254 300 394
#
# _framework density 23.739457000000002
#
# number of rings (size 3 to 8) (size 9 to 14) (size 15 to 20)
#    0.000    2.000    2.500    0.750    3.500   11.000 
#    0.000    0.000   33.000    0.000    0.000    0.000 
#    0.000    0.000    0.000    0.000    0.000    0.000 
#
# Total GULP energy -89173.567701 kJ/mol
# GULP energy per Si atom -5573.347981 kJ/mol
# Density = 2.368542 g / cm^3
# Si number density = 23.739457 Si / 1000 Ang^3
#
#
#
# Elastic Constant Matrix: (Units=GPa)
#
#
# Indices 1 2 3 4 5 6 
#
# 1 67.0588 11.8619 39.6514 2.9344 6.3690 -12.0727
# 2 11.8619 158.0652 69.7696 -12.8401 -2.8414 -50.4961
# 3 39.6514 69.7696 71.5098 57.6380 12.6263 20.2600
# 4 2.9344 -12.8401 57.6380 6.4669 -4.1653 -10.6850
# 5 6.3690 -2.8414 12.6263 -4.1653 30.0450 5.1893
# 6 -12.0727 -50.4961 20.2600 -10.6850 5.1893 15.4847
#
#
#
# Elastic Compliance Matrix: (Units=1/GPa)
#
#
# Indices 1 2 3 4 5 6 
#
# 1 0.016590 -0.001184 0.000284 -0.010305 -0.005786 0.003530
# 2 -0.001184 0.005750 0.003560 -0.011949 -0.003406 0.006066
# 3 0.000284 0.003560 0.002445 0.005639 -0.002263 0.013282
# 4 -0.010305 -0.011949 0.005639 0.026355 0.009117 -0.039247
# 5 -0.005786 -0.003406 -0.002263 0.009117 0.039806 -0.019705
# 6 0.003530 0.006066 0.013282 -0.039247 -0.019705 0.049256
#
#
# Mechanical properties :
#
#
# Convention : Reuss Voigt Hill
#
# Bulk Modulus (GPa) = 33.21703 59.91106 46.56404
# Shear Modulus (GPa) = 34.50273 22.08938 28.29605
#
# Velocity S-wave (km/s) = 3.81647 3.05371 3.45620
# Velocity P-wave (km/s) = 5.78302 6.14208 5.96525
#
# Compressibility (1/GPa) = 0.03010504
#
# Stress axis : x y z
#
# Youngs Moduli (GPa) = 60.27841 173.91875 409.05286
#
# Poissons Ratio (x) = 0.20590 -0.11624
# Poissons Ratio (y) = 0.07136 -1.45628
# Poissons Ratio (z) = -0.01713 -0.61917
#
# Static dielectric constant tensor:
#      x y z
#    x 1.987350 -0.084300 -0.024400 
#    y -0.084300 2.073790 -0.038650 
#    z -0.024400 -0.038650 1.914990 
# 
# From -- ./inp_files/579493.got.cif
#   From: 2010.05.17/outbox.cif.g08.bks.cpg/sg2_290_cif.got.tgz:579493.got - 2010.06.03 11:33:40.
