data_PCOD9097100
_publ_section_title
;
Structure prediction by ZEFSAII (Michael W. Deem and Ramdas Pophale) SiO2 
 PCOD9097100
Probable space group: P -1
;
_chemical_formula_sum "Si O2"
_cell_formula_units_Z 16
_cell_length_a 7.026700
_cell_length_b 16.073029
_cell_length_c 13.008501
_cell_angle_alpha 26.560065
_cell_angle_beta 91.546513
_cell_angle_gamma 87.454544
_cell_volume 648.916359
_symmetry_space_group_name_H-M "P -1"
_symmetry_group_IT_number 2
_symmetry_cell_setting 'triclinic'
loop_
_space_group_symop_operation_xyz
x,y,z
-x,-y,-z
loop_
_atom_site_type_symbol
_atom_site_label
_atom_site_fract_x
_atom_site_fract_y
_atom_site_fract_z
Si Si1 0.922841 0.281860 0.622278
Si Si2 0.570682 0.176420 0.171251
Si Si3 0.797458 0.630709 0.613025
Si Si4 0.744668 0.080453 0.504674
Si Si5 0.821280 0.718743 0.187712
Si Si6 0.504395 0.778856 0.261561
Si Si7 0.949391 0.187892 0.095544
Si Si8 0.529035 0.423753 0.199776
O O1 0.906803 0.506030 0.394892
O O2 0.710538 0.240229 0.685898
O O3 0.034422 0.253369 0.547043
O O4 0.070683 0.201736 0.802392
O O5 0.683129 0.143874 0.318090
O O6 0.735603 0.137186 0.130788
O O7 0.414373 0.041662 0.322610
O O8 0.467904 0.394589 0.928852
O O9 0.647311 0.673202 0.467689
O O10 0.656945 0.669220 0.665857
O O11 0.893323 0.411489 0.872173
O O12 0.715267 0.267146 0.368143
O O13 0.944459 0.945827 0.668078
O O14 0.603799 0.706692 0.234053
O O15 0.892717 0.833603 0.968350
O O16 0.500000 0.000000 0.000000
O O17 0.500000 0.500000 0.000000
#
# Coordination Sequence:
#
# PCOD9097100 Si02
#       8
#     2   2   2   2   2   2   2   2
#     4   9  19  40  60  78 117 155 196 249 294 360
#     4   9  20  39  58  87 122 156 198 246 299 353
#     4   9  21  38  57  86 119 155 201 242 306 357
#     4  10  20  36  62  87 116 162 200 239 302 360
#     4   9  20  35  57  87 108 150 204 240 298 358
#     4  11  23  37  58  84 119 160 196 248 309 355
#     4  10  20  36  59  87 116 150 198 249 295 354
#     4   9  19  38  62  88 124 154 194 252 293 355
#
# _framework density 24.656490999999999
#
# number of rings (size 3 to 8) (size 9 to 14) (size 15 to 20)
#    0.000    2.500    0.000    1.500    1.750    7.000 
#    2.250    2.500    0.000   13.500    0.000    0.000 
#    0.000    0.000    0.000    0.000    0.000    0.000 
#
# Total GULP energy -89238.018725 kJ/mol
# GULP energy per Si atom -5577.376170 kJ/mol
# Density = 2.460037 g / cm^3
# Si number density = 24.656491 Si / 1000 Ang^3
#
#
#
# Elastic Constant Matrix: (Units=GPa)
#
#
# Indices 1 2 3 4 5 6 
#
# 1 120.0197 35.9273 43.0310 14.8178 1.6449 -24.1751
# 2 35.9273 68.7664 36.9073 16.9291 1.1851 -28.6364
# 3 43.0310 36.9073 109.8767 -1.3419 11.8826 -7.1841
# 4 14.8178 16.9291 -1.3419 45.3610 -21.0741 -7.5931
# 5 1.6449 1.1851 11.8826 -21.0741 49.3027 7.9248
# 6 -24.1751 -28.6364 -7.1841 -7.5931 7.9248 30.4701
#
#
#
# Elastic Compliance Matrix: (Units=1/GPa)
#
#
# Indices 1 2 3 4 5 6 
#
# 1 0.011884 0.000624 -0.004069 -0.003945 -0.002520 0.008728
# 2 0.000624 0.035163 -0.009245 -0.012648 -0.008953 0.030539
# 3 -0.004069 -0.009245 0.013329 0.003896 0.000068 -0.007821
# 4 -0.003945 -0.012648 0.003896 0.033734 0.015478 -0.009717
# 5 -0.002520 -0.008953 0.000068 0.015478 0.029465 -0.014204
# 6 0.008728 0.030539 -0.007821 -0.009717 -0.014204 0.067874
#
#
# Mechanical properties :
#
#
# Convention : Reuss Voigt Hill
#
# Bulk Modulus (GPa) = 28.57414 58.93267 43.75340
# Shear Modulus (GPa) = 21.88251 37.21323 29.54787
#
# Velocity S-wave (km/s) = 2.98232 3.88914 3.46552
# Velocity P-wave (km/s) = 4.84489 6.64234 5.81350
#
# Compressibility (1/GPa) = 0.03499668
#
# Stress axis : x y z
#
# Youngs Moduli (GPa) = 84.15025 28.43879 75.02547
#
# Poissons Ratio (x) = -0.01776 0.30525
# Poissons Ratio (y) = -0.05255 0.69363
# Poissons Ratio (z) = 0.34238 0.26292
#
# Static dielectric constant tensor:
#      x y z
#    x 1.948510 -0.028640 0.005790 
#    y -0.028640 2.056720 -0.014660 
#    z 0.005790 -0.014660 1.999210 
# 
# From -- ./inp_files/551117.got.cif
#   From: 2010.05.17/outbox.cif.g08.bks.cpg/sg2_276_cif.got.tgz:551117.got - 2010.06.03 11:33:40.
