data_PCOD9097846
_publ_section_title
;
Structure prediction by ZEFSAII (Michael W. Deem and Ramdas Pophale) SiO2 
 PCOD9097846
Probable space group: P -1
;
_chemical_formula_sum "Si O2"
_cell_formula_units_Z 16
_cell_length_a 15.580899
_cell_length_b 9.139220
_cell_length_c 7.763661
_cell_angle_alpha 81.481333
_cell_angle_beta 118.394741
_cell_angle_gamma 137.359962
_cell_volume 619.894518
_symmetry_space_group_name_H-M "P -1"
_symmetry_group_IT_number 2
_symmetry_cell_setting 'triclinic'
loop_
_space_group_symop_operation_xyz
x,y,z
-x,-y,-z
loop_
_atom_site_type_symbol
_atom_site_label
_atom_site_fract_x
_atom_site_fract_y
_atom_site_fract_z
Si Si1 0.864369 0.455224 0.334761
Si Si2 0.936211 0.792307 0.115596
Si Si3 0.587127 0.163766 0.359781
Si Si4 0.473914 0.218463 0.508118
Si Si5 0.151318 0.553942 0.187897
Si Si6 0.853656 0.205865 0.115556
Si Si7 0.729306 0.746869 0.597468
Si Si8 0.167676 0.141774 0.705356
O O1 0.962052 0.700606 0.307264
O O2 0.716372 0.343680 0.312315
O O3 0.784257 0.259806 0.146222
O O4 0.000000 0.500000 0.500000
O O5 0.817858 0.755926 0.115100
O O6 0.888493 0.624000 0.949128
O O7 0.098847 0.060838 0.198923
O O8 0.470664 0.154524 0.314637
O O9 0.684992 0.278039 0.609334
O O10 0.536975 0.934098 0.344215
O O11 0.617821 0.494501 0.612071
O O12 0.335299 0.167367 0.429769
O O13 0.037451 0.402302 0.265097
O O14 0.145304 0.716488 0.086616
O O15 0.804420 0.993290 0.179060
O O16 0.735618 0.727368 0.400119
O O17 0.000000 0.000000 0.500000
#
# Coordination Sequence:
#
# PCOD9097846 Si02
#       8
#     2   2   2   2   2   2   2   2
#     4  11  18  33  62  90 116 150 200 259 299 341
#     4  10  22  36  61  98 121 152 187 258 330 354
#     4  11  22  39  63  89 119 159 213 248 287 358
#     4  10  23  38  59  87 119 169 206 250 276 347
#     4  10  23  37  58  94 129 156 187 251 324 365
#     4  10  21  35  55  94 122 156 185 240 331 354
#     4  10  21  39  60  89 120 155 207 247 294 360
#     4  10  20  36  62  90 121 155 200 258 304 352
#
# _framework density 25.810845
#
# number of rings (size 3 to 8) (size 9 to 14) (size 15 to 20)
#    0.000    1.750    1.250    3.750    7.000    0.500 
#    0.000    0.000    0.000   28.500    0.000    0.000 
#    0.000    0.000    0.000    0.000    0.000    0.000 
#
# Total GULP energy -89106.866269 kJ/mol
# GULP energy per Si atom -5569.179142 kJ/mol
# Density = 2.575210 g / cm^3
# Si number density = 25.810845 Si / 1000 Ang^3
#
#
#
# Elastic Constant Matrix: (Units=GPa)
#
#
# Indices 1 2 3 4 5 6 
#
# 1 163.1824 21.9354 25.2850 10.6621 -32.4109 -10.2870
# 2 21.9354 103.1824 20.0530 16.9117 -2.0977 -9.4011
# 3 25.2850 20.0530 23.7212 3.2779 -17.7522 -4.5750
# 4 10.6621 16.9117 3.2779 9.4097 -9.3820 -0.9656
# 5 -32.4109 -2.0977 -17.7522 -9.3820 36.0467 -3.7086
# 6 -10.2870 -9.4011 -4.5750 -0.9656 -3.7086 55.6743
#
#
#
# Elastic Compliance Matrix: (Units=1/GPa)
#
#
# Indices 1 2 3 4 5 6 
#
# 1 0.007972 -0.000253 -0.004284 -0.002408 0.004555 0.001340
# 2 -0.000253 0.032568 -0.050396 -0.087030 -0.046139 -0.003272
# 3 -0.004284 -0.050396 0.152762 0.152829 0.109582 0.013202
# 4 -0.002408 -0.087030 0.152829 0.382388 0.169137 0.015317
# 5 0.004555 -0.046139 0.109582 0.169137 0.128535 0.013551
# 6 0.001340 -0.003272 0.013202 0.015317 0.013551 0.019910
#
#
# Mechanical properties :
#
#
# Convention : Reuss Voigt Hill
#
# Bulk Modulus (GPa) = 11.98529 47.18143 29.58336
# Shear Modulus (GPa) = 5.80172 35.08031 20.44101
#
# Velocity S-wave (km/s) = 1.50089 3.69064 2.81722
# Velocity P-wave (km/s) = 2.76715 6.03991 4.69774
#
# Compressibility (1/GPa) = 0.08343559
#
# Stress axis : x y z
#
# Youngs Moduli (GPa) = 125.43241 30.70521 6.54612
#
# Poissons Ratio (x) = 0.00776 0.02805
# Poissons Ratio (y) = 0.03172 0.32990
# Poissons Ratio (z) = 0.53741 1.54742
#
# Static dielectric constant tensor:
#      x y z
#    x 2.394290 -0.017850 0.092600 
#    y -0.017850 2.061080 0.054290 
#    z 0.092600 0.054290 2.402390 
# 
# From -- ./inp_files/298308.got.cif
#   From: 2010.05.17/outbox.cif.g08.bks.cpg/sg2_150_cif.got.tgz:298308.got - 2010.06.03 11:33:40.
