data_PCOD9097658
_publ_section_title
;
Structure prediction by ZEFSAII (Michael W. Deem and Ramdas Pophale) SiO2 
 PCOD9097658
Probable space group: P -1
;
_chemical_formula_sum "Si O2"
_cell_formula_units_Z 15
_cell_length_a 12.987920
_cell_length_b 11.260651
_cell_length_c 6.960851
_cell_angle_alpha 74.960702
_cell_angle_beta 74.177705
_cell_angle_gamma 120.999437
_cell_volume 734.259680
_symmetry_space_group_name_H-M "P -1"
_symmetry_group_IT_number 2
_symmetry_cell_setting 'triclinic'
loop_
_space_group_symop_operation_xyz
x,y,z
-x,-y,-z
loop_
_atom_site_type_symbol
_atom_site_label
_atom_site_fract_x
_atom_site_fract_y
_atom_site_fract_z
Si Si1 0.329763 0.993336 0.257908
Si Si2 0.235350 0.665997 0.326518
Si Si3 0.508570 0.298014 0.780673
Si Si4 0.394522 0.208751 0.461527
Si Si5 0.500000 0.500000 0.000000
Si Si6 0.975795 0.506864 0.787686
Si Si7 0.010832 0.816101 0.549571
Si Si8 0.918872 0.946114 0.261788
O O1 0.387735 0.076256 0.401150
O O2 0.322142 0.843128 0.288525
O O3 0.171168 0.924465 0.362488
O O4 0.413901 0.124389 0.997065
O O5 0.334607 0.622433 0.277190
O O6 0.107179 0.552665 0.582881
O O7 0.162707 0.648367 0.169429
O O8 0.489367 0.279998 0.570075
O O9 0.473489 0.400962 0.854813
O O10 0.441933 0.341632 0.223648
O O11 0.239494 0.128368 0.643706
O O12 0.966446 0.646260 0.693319
O O13 0.000000 0.500000 0.000000
O O14 0.927281 0.822461 0.421504
O O15 0.006259 0.900690 0.701766
O O16 0.000000 0.000000 0.000000
#
# Coordination Sequence:
#
# PCOD9097658 Si02
#       8
#     2   2   2   2   1   2   2   2
#     4   9  20  39  62  86 126 153 204 266 300 368
#     4  10  23  40  62  93 122 160 209 253 310 373
#     4  11  22  40  64  90 121 166 206 253 313 367
#     4  10  22  39  61  89 123 166 206 254 312 373
#     4  10  24  42  54  84 132 162 202 258 296 366
#     4  10  23  42  61  89 127 165 204 260 313 374
#     4   9  20  38  58  89 123 160 202 255 311 362
#     4  10  20  36  61  92 119 160 209 256 309 364
#
# _framework density 20.428742
#
# number of rings (size 3 to 8) (size 9 to 14) (size 15 to 20)
#    0.000    2.133    0.000    1.600    1.867   10.133 
#    0.000    0.000    0.000    0.000    0.000    0.000 
#    0.000    0.000    0.000    0.000    0.000    0.000 
#
# Total GULP energy -83518.838575 kJ/mol
# GULP energy per Si atom -5567.922572 kJ/mol
# Density = 2.038224 g / cm^3
# Si number density = 20.428742 Si / 1000 Ang^3
#
#
#
# Elastic Constant Matrix: (Units=GPa)
#
#
# Indices 1 2 3 4 5 6 
#
# 1 27.3948 13.1165 22.1197 2.3896 8.2191 3.5945
# 2 13.1165 84.8345 30.7340 9.2277 4.1080 7.4817
# 3 22.1197 30.7340 94.4217 18.5468 9.5341 1.9615
# 4 2.3896 9.2277 18.5468 25.8945 5.6092 5.7967
# 5 8.2191 4.1080 9.5341 5.6092 12.7862 6.2565
# 6 3.5945 7.4817 1.9615 5.7967 6.2565 17.8124
#
#
#
# Elastic Compliance Matrix: (Units=1/GPa)
#
#
# Indices 1 2 3 4 5 6 
#
# 1 0.055547 -0.004355 -0.010616 0.010897 -0.030694 -0.000976
# 2 -0.004355 0.014245 -0.003599 -0.001792 0.004481 -0.005699
# 3 -0.010616 -0.003599 0.016420 -0.010278 -0.002770 0.006163
# 4 0.010897 -0.001792 -0.010278 0.051615 -0.015741 -0.011583
# 5 -0.030694 0.004481 -0.002770 -0.015741 0.121605 -0.032973
# 6 -0.000976 -0.005699 0.006163 -0.011583 -0.032973 0.073404
#
#
# Mechanical properties :
#
#
# Convention : Reuss Voigt Hill
#
# Bulk Modulus (GPa) = 20.37817 37.62126 28.99972
# Shear Modulus (GPa) = 12.94221 20.67734 16.80978
#
# Velocity S-wave (km/s) = 2.51973 3.18491 2.87165
# Velocity P-wave (km/s) = 4.29678 5.65515 5.02210
#
# Compressibility (1/GPa) = 0.04907212
#
# Stress axis : x y z
#
# Youngs Moduli (GPa) = 18.00286 70.19873 60.90284
#
# Poissons Ratio (x) = 0.30573 0.64654
# Poissons Ratio (y) = 0.07841 0.21916
# Poissons Ratio (z) = 0.19112 0.25262
#
# Static dielectric constant tensor:
#      x y z
#    x 1.751340 -0.007060 -0.026280 
#    y -0.007060 1.755810 0.011420 
#    z -0.026280 0.011420 1.690230 
# 
# From -- ./inp_files/68153.got.cif
#   From: 2010.05.17/outbox.cif.g08.bks.cpg/sg2_35_cif.got.tgz:68153.got - 2010.06.03 11:33:40.
