data_PCOD9097075
_publ_section_title
;
Structure prediction by ZEFSAII (Michael W. Deem and Ramdas Pophale) SiO2 
 PCOD9097075
Probable space group: P -1
;
_chemical_formula_sum "Si O2"
_cell_formula_units_Z 16
_cell_length_a 11.823648
_cell_length_b 12.274636
_cell_length_c 11.631513
_cell_angle_alpha 40.049098
_cell_angle_beta 59.742974
_cell_angle_gamma 53.662643
_cell_volume 870.845035
_symmetry_space_group_name_H-M "P -1"
_symmetry_group_IT_number 2
_symmetry_cell_setting 'triclinic'
loop_
_space_group_symop_operation_xyz
x,y,z
-x,-y,-z
loop_
_atom_site_type_symbol
_atom_site_label
_atom_site_fract_x
_atom_site_fract_y
_atom_site_fract_z
Si Si1 0.514718 0.245320 0.796990
Si Si2 0.730377 0.892537 0.931253
Si Si3 0.888751 0.759230 0.522412
Si Si4 0.890736 0.607411 0.268276
Si Si5 0.446729 0.662576 0.554597
Si Si6 0.947831 0.201730 0.811868
Si Si7 0.720431 0.571975 0.602676
Si Si8 0.839639 0.015094 0.550022
O O1 0.479987 0.448924 0.692168
O O2 0.510247 0.260705 0.647463
O O3 0.668727 0.091109 0.864228
O O4 0.403023 0.167582 0.968757
O O5 0.800482 0.916043 0.758635
O O6 0.828141 0.741520 0.088095
O O7 0.784317 0.683035 0.566955
O O8 0.824184 0.916906 0.519776
O O9 0.001836 0.587905 0.669054
O O10 0.982785 0.814035 0.336541
O O11 0.779000 0.582386 0.435332
O O12 0.977098 0.692105 0.235863
O O13 0.552174 0.664150 0.601858
O O14 0.281257 0.781737 0.557132
O O15 0.787498 0.353301 0.771539
O O16 0.000000 0.000000 0.000000
O O17 0.000000 0.000000 0.500000
#
# Coordination Sequence:
#
# PCOD9097075 Si02
#       8
#     2   2   2   2   2   2   2   2
#     4   9  20  35  58  90 112 139 191 246 285 322
#     4  10  20  36  59  86 114 148 190 233 283 345
#     4   9  21  39  53  81 121 152 185 226 286 347
#     4   9  18  33  59  86 110 146 184 235 285 327
#     4  10  20  37  60  84 116 150 187 240 288 328
#     4   9  19  32  58  89 107 141 192 244 280 323
#     4   9  18  37  60  83 112 145 191 235 289 327
#     4  11  26  39  54  83 118 161 191 222 287 351
#
# _framework density 18.372959999999999
#
# number of rings (size 3 to 8) (size 9 to 14) (size 15 to 20)
#    0.000    2.500    1.250    1.500    5.250    3.000 
#    0.000    0.000    0.000    1.500    0.000    0.000 
#    0.000    0.000    0.000    0.000    0.000    0.000 
#
# Total GULP energy -89083.458049 kJ/mol
# GULP energy per Si atom -5567.716128 kJ/mol
# Density = 1.833114 g / cm^3
# Si number density = 18.372960 Si / 1000 Ang^3
#
#
#
# Elastic Constant Matrix: (Units=GPa)
#
#
# Indices 1 2 3 4 5 6 
#
# 1 74.4561 34.9270 22.2246 -2.2174 11.7758 -20.1214
# 2 34.9270 78.7401 38.1501 -6.4550 0.6432 0.4623
# 3 22.2246 38.1501 103.3432 -15.6597 9.1497 -10.5697
# 4 -2.2174 -6.4550 -15.6597 29.4766 -7.4405 4.5188
# 5 11.7758 0.6432 9.1497 -7.4405 28.1400 -2.0975
# 6 -20.1214 0.4623 -10.5697 4.5188 -2.0975 24.4361
#
#
#
# Elastic Compliance Matrix: (Units=1/GPa)
#
#
# Indices 1 2 3 4 5 6 
#
# 1 0.027301 -0.013438 0.001529 -0.006628 -0.011606 0.023626
# 2 -0.013438 0.022366 -0.006858 0.004354 0.007403 -0.014625
# 3 0.001529 -0.006858 0.013404 0.003946 -0.003338 0.006170
# 4 -0.006628 0.004354 0.003946 0.040964 0.011445 -0.010426
# 5 -0.011606 0.007403 -0.003338 0.011445 0.043627 -0.009513
# 6 0.023626 -0.014625 0.006170 -0.010426 -0.009513 0.064434
#
#
# Mechanical properties :
#
#
# Convention : Reuss Voigt Hill
#
# Bulk Modulus (GPa) = 39.15932 49.68256 44.42094
# Shear Modulus (GPa) = 19.36918 27.15970 23.26444
#
# Velocity S-wave (km/s) = 3.25040 3.84896 3.56228
# Velocity P-wave (km/s) = 5.95371 6.84489 6.41479
#
# Compressibility (1/GPa) = 0.02553670
#
# Stress axis : x y z
#
# Youngs Moduli (GPa) = 36.62866 44.71090 74.60520
#
# Poissons Ratio (x) = 0.60083 -0.11408
# Poissons Ratio (y) = 0.49222 0.51165
# Poissons Ratio (z) = -0.05601 0.30663
#
# Static dielectric constant tensor:
#      x y z
#    x 1.662620 -0.026310 -0.026430 
#    y -0.026310 1.642240 -0.029810 
#    z -0.026430 -0.029810 1.585450 
# 
# From -- ./inp_files/252489.got.cif
#   From: 2010.05.17/outbox.cif.g08.bks.cpg/sg2_127_cif.got.tgz:252489.got - 2010.06.03 11:33:40.
