data_PCOD9097153
_publ_section_title
;
Structure prediction by ZEFSAII (Michael W. Deem and Ramdas Pophale) SiO2 
 PCOD9097153
Probable space group: P -1
;
_chemical_formula_sum "Si O2"
_cell_formula_units_Z 16
_cell_length_a 20.772835
_cell_length_b 9.274908
_cell_length_c 5.055937
_cell_angle_alpha 61.132273
_cell_angle_beta 115.626154
_cell_angle_gamma 129.451238
_cell_volume 647.220264
_symmetry_space_group_name_H-M "P -1"
_symmetry_group_IT_number 2
_symmetry_cell_setting 'triclinic'
loop_
_space_group_symop_operation_xyz
x,y,z
-x,-y,-z
loop_
_atom_site_type_symbol
_atom_site_label
_atom_site_fract_x
_atom_site_fract_y
_atom_site_fract_z
Si Si1 0.156363 0.403988 0.670359
Si Si2 0.556615 0.174537 0.660286
Si Si3 0.053535 0.392230 0.994383
Si Si4 0.917318 0.002854 0.271658
Si Si5 0.608780 0.941598 0.230056
Si Si6 0.147691 0.811531 0.670833
Si Si7 0.749076 0.179275 0.651259
Si Si8 0.560857 0.548760 0.311416
O O1 0.092928 0.406694 0.339318
O O2 0.240816 0.612617 0.575495
O O3 0.151450 0.203898 0.791848
O O4 0.116871 0.386753 0.902023
O O5 0.594441 0.403309 0.460673
O O6 0.500000 0.000000 0.500000
O O7 0.489497 0.148269 0.789704
O O8 0.625379 0.128003 0.924908
O O9 0.064218 0.596176 0.764601
O O10 0.961134 0.196249 0.994945
O O11 0.876645 0.036787 0.423368
O O12 0.000000 0.000000 0.500000
O O13 0.658817 0.007446 0.536195
O O14 0.621807 0.783632 0.247276
O O15 0.215156 0.829853 0.994909
O O16 0.188415 0.825756 0.450766
O O17 0.500000 0.500000 0.500000
O O18 0.500000 0.500000 0.000000
#
# Coordination Sequence:
#
# PCOD9097153 Si02
#       8
#     2   2   2   2   2   2   2   2
#     4   9  19  35  54  81 114 142 186 235 281 342
#     4  10  20  37  64  95 118 150 209 257 291 348
#     4   9  18  34  56  81 105 146 187 234 287 333
#     4  10  20  36  60  86 112 146 193 252 294 326
#     4  10  22  39  62  88 124 163 198 246 306 354
#     4  10  22  38  57  82 116 151 200 232 284 366
#     4  10  23  41  57  79 119 164 186 228 294 362
#     4  10  20  36  59  89 122 149 192 253 294 343
#
# _framework density 24.721107
#
# number of rings (size 3 to 8) (size 9 to 14) (size 15 to 20)
#    0.000    2.250    1.250    0.750    1.750    4.000 
#    2.250    8.750    0.000    0.000    0.000    0.000 
#    0.000    0.000    0.000    0.000    0.000    0.000 
#
# Total GULP energy -89342.438974 kJ/mol
# GULP energy per Si atom -5583.902436 kJ/mol
# Density = 2.466484 g / cm^3
# Si number density = 24.721107 Si / 1000 Ang^3
#
#
#
# Elastic Constant Matrix: (Units=GPa)
#
#
# Indices 1 2 3 4 5 6 
#
# 1 62.4288 20.0823 21.1818 -12.7874 4.5044 -19.8033
# 2 20.0823 154.4148 22.4411 -12.0501 15.4224 -34.5719
# 3 21.1818 22.4411 86.6472 14.2205 4.7990 -4.9989
# 4 -12.7874 -12.0501 14.2205 40.9895 -8.4918 7.3282
# 5 4.5044 15.4224 4.7990 -8.4918 27.4781 -4.1103
# 6 -19.8033 -34.5719 -4.9989 7.3282 -4.1103 43.0394
#
#
#
# Elastic Compliance Matrix: (Units=1/GPa)
#
#
# Indices 1 2 3 4 5 6 
#
# 1 0.022377 0.000502 -0.006469 0.008020 0.000956 0.008674
# 2 0.000502 0.008555 -0.002072 0.001628 -0.003078 0.006291
# 3 -0.006469 -0.002072 0.015080 -0.008203 -0.003214 -0.001800
# 4 0.008020 0.001628 -0.008203 0.032205 0.009071 -0.000572
# 5 0.000956 -0.003078 -0.003214 0.009071 0.041327 -0.000003
# 6 0.008674 0.006291 -0.001800 -0.000572 -0.000003 0.032167
#
#
# Mechanical properties :
#
#
# Convention : Reuss Voigt Hill
#
# Bulk Modulus (GPa) = 33.40760 47.87793 40.64276
# Shear Modulus (GPa) = 28.12679 38.28710 33.20694
#
# Velocity S-wave (km/s) = 3.37674 3.93970 3.66903
# Velocity P-wave (km/s) = 5.36155 6.33279 5.86730
#
# Compressibility (1/GPa) = 0.02993331
#
# Stress axis : x y z
#
# Youngs Moduli (GPa) = 44.68885 116.89266 66.31430
#
# Poissons Ratio (x) = -0.05872 0.42900
# Poissons Ratio (y) = -0.02245 0.13742
# Poissons Ratio (z) = 0.28910 0.24224
#
# Static dielectric constant tensor:
#      x y z
#    x 1.958410 0.023300 -0.045250 
#    y 0.023300 2.086560 -0.093320 
#    z -0.045250 -0.093320 2.058030 
# 
# From -- ./inp_files/55260.got.cif
#   From: 2010.05.17/outbox.cif.g08.bks.cpg/sg2_28_cif.got.tgz:55260.got - 2010.06.03 11:33:40.
