data_PCOD9097115
_publ_section_title
;
Structure prediction by ZEFSAII (Michael W. Deem and Ramdas Pophale) SiO2 
 PCOD9097115
Probable space group: P -1
;
_chemical_formula_sum "Si O2"
_cell_formula_units_Z 12
_cell_length_a 12.915096
_cell_length_b 14.069139
_cell_length_c 6.728803
_cell_angle_alpha 98.083100
_cell_angle_beta 92.781504
_cell_angle_gamma 151.705431
_cell_volume 533.696282
_symmetry_space_group_name_H-M "P -1"
_symmetry_group_IT_number 2
_symmetry_cell_setting 'triclinic'
loop_
_space_group_symop_operation_xyz
x,y,z
-x,-y,-z
loop_
_atom_site_type_symbol
_atom_site_label
_atom_site_fract_x
_atom_site_fract_y
_atom_site_fract_z
Si Si1 0.030147 0.744737 0.143953
Si Si2 0.773967 0.672384 0.320743
Si Si3 0.691855 0.761511 0.056153
Si Si4 0.903912 0.767027 0.803010
Si Si5 0.794088 0.360193 0.093591
Si Si6 0.493141 0.974721 0.724289
O O1 0.013298 0.827495 0.297741
O O2 0.869879 0.532469 0.177242
O O3 0.290529 0.919976 0.191671
O O4 0.918728 0.681824 0.903290
O O5 0.569012 0.448474 0.112640
O O6 0.773575 0.655336 0.548789
O O7 0.730419 0.746084 0.272067
O O8 0.795829 0.764355 0.922241
O O9 0.831081 0.975281 0.126272
O O10 0.742899 0.264482 0.269912
O O11 0.562918 0.132127 0.886763
O O12 0.000000 0.500000 0.000000
O O13 0.500000 0.000000 0.500000
#
# Coordination Sequence:
#
# PCOD9097115 Si02
#       6
#     2   2   2   2   2   2
#     4  10  23  37  56  95 120 152 210 258 304 380
#     4  10  20  36  59  87 123 164 203 256 312 360
#     4   9  20  37  57  86 122 164 211 250 303 374
#     4  10  20  37  59  85 126 161 205 258 306 365
#     4   9  21  41  61  84 123 156 200 258 308 375
#     4  10  22  41  65  88 119 166 204 251 322 378
#
# _framework density 22.484697000000001
#
# number of rings (size 3 to 8) (size 9 to 14) (size 15 to 20)
#    0.000    2.333    0.000    1.000    2.333    8.000 
#    0.000    0.000    0.000    0.000    0.000    0.000 
#    0.000    0.000    0.000    0.000    0.000    0.000 
#
# Total GULP energy -66859.075699 kJ/mol
# GULP energy per Si atom -5571.589642 kJ/mol
# Density = 2.243352 g / cm^3
# Si number density = 22.484697 Si / 1000 Ang^3
#
#
#
# Elastic Constant Matrix: (Units=GPa)
#
#
# Indices 1 2 3 4 5 6 
#
# 1 61.2410 10.0032 18.0757 -6.8030 8.0031 15.5013
# 2 10.0032 135.1985 26.9610 -23.5699 7.5165 -3.8468
# 3 18.0757 26.9610 132.4430 -36.2547 22.7482 2.5275
# 4 -6.8030 -23.5699 -36.2547 36.7229 -4.5992 0.6070
# 5 8.0031 7.5165 22.7482 -4.5992 13.5156 -0.5827
# 6 15.5013 -3.8468 2.5275 0.6070 -0.5827 20.5610
#
#
#
# Elastic Compliance Matrix: (Units=1/GPa)
#
#
# Indices 1 2 3 4 5 6 
#
# 1 0.023032 -0.001095 0.000516 0.002647 -0.013777 -0.018101
# 2 -0.001095 0.008536 0.000231 0.005137 -0.002646 0.002167
# 3 0.000516 0.000231 0.014242 0.011783 -0.020525 -0.003026
# 4 0.002647 0.005137 0.011783 0.041423 -0.010333 -0.003999
# 5 -0.013777 -0.002646 -0.020525 -0.010333 0.115337 0.015989
# 6 -0.018101 0.002167 -0.003026 -0.003999 0.015989 0.063631
#
#
# Mechanical properties :
#
#
# Convention : Reuss Voigt Hill
#
# Bulk Modulus (GPa) = 22.16621 48.77359 35.46990
# Shear Modulus (GPa) = 17.73472 32.41609 25.07540
#
# Velocity S-wave (km/s) = 2.81151 3.80109 3.34312
# Velocity P-wave (km/s) = 4.51876 6.40338 5.54177
#
# Compressibility (1/GPa) = 0.04511371
#
# Stress axis : x y z
#
# Youngs Moduli (GPa) = 43.41874 117.15479 70.21687
#
# Poissons Ratio (x) = 0.12823 -0.03622
# Poissons Ratio (y) = 0.04752 -0.01623
# Poissons Ratio (z) = -0.02240 -0.02707
#
# Static dielectric constant tensor:
#      x y z
#    x 1.913080 0.014400 -0.010940 
#    y 0.014400 1.941960 -0.042780 
#    z -0.010940 -0.042780 1.869210 
# 
# From -- ./inp_files/98164.got.cif
#   From: 2010.05.17/outbox.cif.g08.bks.cpg/sg2_50_cif.got.tgz:98164.got - 2010.06.03 11:33:40.
