data_PCOD9097849
_publ_section_title
;
Structure prediction by ZEFSAII (Michael W. Deem and Ramdas Pophale) SiO2 
 PCOD9097849
Probable space group: P -1
;
_chemical_formula_sum "Si O2"
_cell_formula_units_Z 16
_cell_length_a 25.862242
_cell_length_b 13.619902
_cell_length_c 8.348714
_cell_angle_alpha 127.356013
_cell_angle_beta 41.745232
_cell_angle_gamma 157.231149
_cell_volume 719.168470
_symmetry_space_group_name_H-M "P -1"
_symmetry_group_IT_number 2
_symmetry_cell_setting 'triclinic'
loop_
_space_group_symop_operation_xyz
x,y,z
-x,-y,-z
loop_
_atom_site_type_symbol
_atom_site_label
_atom_site_fract_x
_atom_site_fract_y
_atom_site_fract_z
Si Si1 0.568274 0.285829 0.876042
Si Si2 0.993060 0.346469 0.323247
Si Si3 0.513677 0.687484 0.218688
Si Si4 0.378175 0.915450 0.518442
Si Si5 0.050189 0.190363 0.471952
Si Si6 0.759419 0.887168 0.655465
Si Si7 0.953712 0.560149 0.070672
Si Si8 0.669299 0.158178 0.797282
O O1 0.561258 0.377067 0.844051
O O2 0.549972 0.121059 0.681507
O O3 0.756488 0.551327 0.775210
O O4 0.413360 0.073273 0.146300
O O5 0.177467 0.565740 0.184587
O O6 0.000000 0.500000 0.500000
O O7 0.968271 0.305074 0.149481
O O8 0.841844 0.072651 0.500049
O O9 0.404964 0.428968 0.298907
O O10 0.508571 0.804960 0.449739
O O11 0.696293 0.890878 0.947389
O O12 0.245518 0.738655 0.792886
O O13 0.279261 0.793306 0.456624
O O14 0.038835 0.301357 0.710436
O O15 0.909607 0.010345 0.486057
O O16 0.000000 0.000000 0.500000
O O17 0.000000 0.500000 0.000000
O O18 0.500000 0.000000 0.000000
#
# Coordination Sequence:
#
# PCOD9097849 Si02
#       8
#     2   2   2   2   2   2   2   2
#     4  10  20  38  64  89 121 166 210 257 316 374
#     4  12  23  41  67  95 128 164 216 271 320 374
#     4  11  22  39  61  90 126 165 212 255 314 378
#     4  10  20  36  62  90 122 162 212 259 308 375
#     4  11  22  43  64  92 131 171 211 258 325 381
#     4  11  24  41  61  90 130 170 205 261 320 380
#     4  11  23  40  69  98 123 167 222 269 317 386
#     4  10  21  37  61  94 126 160 204 264 315 367
#
# _framework density 22.247917999999999
#
# number of rings (size 3 to 8) (size 9 to 14) (size 15 to 20)
#    0.000    1.250    1.250    7.125    0.000    3.000 
#    2.250    0.625    0.000    4.500    0.000    0.000 
#    0.000    0.000    0.000    0.000    0.000    0.000 
#
# Total GULP energy -89220.671104 kJ/mol
# GULP energy per Si atom -5576.291944 kJ/mol
# Density = 2.219728 g / cm^3
# Si number density = 22.247918 Si / 1000 Ang^3
#
#
#
# Elastic Constant Matrix: (Units=GPa)
#
#
# Indices 1 2 3 4 5 6 
#
# 1 120.5116 32.8660 38.4494 -22.1229 -1.3572 -17.8815
# 2 32.8660 98.5555 34.6858 -22.5771 6.1324 -34.8971
# 3 38.4494 34.6858 72.4389 -34.5094 8.5254 -18.0648
# 4 -22.1229 -22.5771 -34.5094 38.3555 -9.5666 -0.4953
# 5 -1.3572 6.1324 8.5254 -9.5666 43.5459 -12.7734
# 6 -17.8815 -34.8971 -18.0648 -0.4953 -12.7734 44.6799
#
#
#
# Elastic Compliance Matrix: (Units=1/GPa)
#
#
# Indices 1 2 3 4 5 6 
#
# 1 0.010674 -0.000555 -0.003029 0.003867 0.002873 0.003478
# 2 -0.000555 0.018218 0.001045 0.012714 0.004671 0.015906
# 3 -0.003029 0.001045 0.031267 0.028129 0.003821 0.013650
# 4 0.003867 0.012714 0.028129 0.065289 0.015370 0.027969
# 5 0.002873 0.004671 0.003821 0.015370 0.029401 0.014919
# 6 0.003478 0.015906 0.013650 0.027969 0.014919 0.046291
#
#
# Mechanical properties :
#
#
# Convention : Reuss Voigt Hill
#
# Bulk Modulus (GPa) = 18.15493 55.94536 37.05015
# Shear Modulus (GPa) = 22.26415 37.68324 29.97369
#
# Velocity S-wave (km/s) = 3.16686 4.12003 3.67448
# Velocity P-wave (km/s) = 4.64220 6.91620 5.88998
#
# Compressibility (1/GPa) = 0.05508146
#
# Stress axis : x y z
#
# Youngs Moduli (GPa) = 93.68700 54.89148 31.98302
#
# Poissons Ratio (x) = 0.03047 0.09686
# Poissons Ratio (y) = 0.05201 -0.03343
# Poissons Ratio (z) = 0.28373 -0.05738
#
# Static dielectric constant tensor:
#      x y z
#    x 1.990550 0.086600 0.042600 
#    y 0.086600 1.883510 0.008650 
#    z 0.042600 0.008650 1.951140 
# 
# From -- ./inp_files/358810.got.cif
#   From: 2010.05.17/outbox.cif.g08.bks.cpg/sg2_180_cif.got.tgz:358810.got - 2010.06.03 11:33:40.
