data_PCOD9097463
_publ_section_title
;
Structure prediction by ZEFSAII (Michael W. Deem and Ramdas Pophale) SiO2 
 PCOD9097463
Probable space group: P -1
;
_chemical_formula_sum "Si O2"
_cell_formula_units_Z 15
_cell_length_a 13.789977
_cell_length_b 8.637742
_cell_length_c 8.715651
_cell_angle_alpha 100.978666
_cell_angle_beta 109.729291
_cell_angle_gamma 132.456395
_cell_volume 575.513600
_symmetry_space_group_name_H-M "P -1"
_symmetry_group_IT_number 2
_symmetry_cell_setting 'triclinic'
loop_
_space_group_symop_operation_xyz
x,y,z
-x,-y,-z
loop_
_atom_site_type_symbol
_atom_site_label
_atom_site_fract_x
_atom_site_fract_y
_atom_site_fract_z
Si Si1 0.256691 0.913481 0.236702
Si Si2 0.033663 0.455505 0.227091
Si Si3 0.690310 0.562676 0.935403
Si Si4 0.500000 0.500000 0.000000
Si Si5 0.454149 0.728282 0.768811
Si Si6 0.035906 0.930557 0.674169
Si Si7 0.242096 0.250698 0.335799
Si Si8 0.832045 0.510396 0.235245
O O1 0.217012 0.739475 0.315664
O O2 0.385882 0.014499 0.193754
O O3 0.304754 0.148215 0.359557
O O4 0.077696 0.725295 0.016126
O O5 0.944766 0.496452 0.266435
O O6 0.012665 0.285146 0.297109
O O7 0.758456 0.487833 0.032005
O O8 0.494896 0.365589 0.822272
O O9 0.749438 0.680828 0.822015
O O10 0.759076 0.780520 0.144281
O O11 0.502035 0.659116 0.908962
O O12 0.347020 0.499754 0.542531
O O13 0.330183 0.703389 0.778262
O O14 0.947142 0.958229 0.734047
O O15 0.951617 0.788315 0.438590
#
# Coordination Sequence:
#
# PCOD9097463 Si02
#       8
#     2   2   2   1   2   2   2   2
#     4  11  23  40  63  97 128 166 206 263 315 377
#     4  11  24  40  65  91 130 172 212 252 316 383
#     4  11  21  37  64  95 127 160 212 263 319 362
#     4  10  20  36  60  94 124 160 198 260 318 368
#     4  10  22  43  65  96 128 161 213 264 317 371
#     4  11  22  41  65  93 125 166 216 263 312 372
#     4  11  22  39  68  94 125 161 211 267 312 369
#     4  10  24  41  63  93 129 166 211 264 316 375
#
# _framework density 26.063675
#
# number of rings (size 3 to 8) (size 9 to 14) (size 15 to 20)
#    0.000    1.333    2.667    2.400    3.733    2.667 
#    0.000    4.000    0.000    0.000    0.000    0.000 
#    0.000    0.000    0.000    0.000    0.000    0.000 
#
# Total GULP energy -83759.473864 kJ/mol
# GULP energy per Si atom -5583.964924 kJ/mol
# Density = 2.600435 g / cm^3
# Si number density = 26.063675 Si / 1000 Ang^3
#
#
#
# Elastic Constant Matrix: (Units=GPa)
#
#
# Indices 1 2 3 4 5 6 
#
# 1 121.4059 52.8290 -3.4505 -13.1880 -20.9622 28.0804
# 2 52.8290 152.2663 17.5469 -17.5963 -17.0894 29.9145
# 3 -3.4505 17.5469 92.0496 -17.3250 -14.2603 4.9213
# 4 -13.1880 -17.5963 -17.3250 32.4291 4.3723 -9.7351
# 5 -20.9622 -17.0894 -14.2603 4.3723 27.7776 -2.7319
# 6 28.0804 29.9145 4.9213 -9.7351 -2.7319 31.1527
#
#
#
# Elastic Compliance Matrix: (Units=1/GPa)
#
#
# Indices 1 2 3 4 5 6 
#
# 1 0.012995 -0.001847 0.003104 0.002016 0.009061 -0.009006
# 2 -0.001847 0.009000 -0.000718 0.001512 0.002933 -0.006134
# 3 0.003104 -0.000718 0.013647 0.006673 0.007709 -0.001503
# 4 0.002016 0.001512 0.006673 0.038268 0.000610 0.007689
# 5 0.009061 0.002933 0.007709 0.000610 0.047734 -0.007825
# 6 -0.009006 -0.006134 -0.001503 0.007689 -0.007825 0.048062
#
#
# Mechanical properties :
#
#
# Convention : Reuss Voigt Hill
#
# Bulk Modulus (GPa) = 27.23322 55.50809 41.37065
# Shear Modulus (GPa) = 27.64421 38.19165 32.91793
#
# Velocity S-wave (km/s) = 3.26028 3.83210 3.55770
# Velocity P-wave (km/s) = 4.96427 6.39714 5.72570
#
# Compressibility (1/GPa) = 0.03671986
#
# Stress axis : x y z
#
# Youngs Moduli (GPa) = 76.95138 111.10927 73.27364
#
# Poissons Ratio (x) = 0.20525 -0.22742
# Poissons Ratio (y) = 0.14215 0.05261
# Poissons Ratio (z) = -0.23884 0.07978
#
# Static dielectric constant tensor:
#      x y z
#    x 1.199900 -0.322800 -0.345970 
#    y -0.322800 1.972260 -0.106540 
#    z -0.345970 -0.106540 1.920010 
# 
# From -- ./inp_files/167673.got.cif
#   From: 2010.05.17/outbox.cif.g08.bks.cpg/sg2_84_cif.got.tgz:167673.got - 2010.06.03 11:33:40.
