data_PCOD9097628
_publ_section_title
;
Structure prediction by ZEFSAII (Michael W. Deem and Ramdas Pophale) SiO2 
 PCOD9097628
Probable space group: P -1
;
_chemical_formula_sum "Si O2"
_cell_formula_units_Z 14
_cell_length_a 11.658820
_cell_length_b 11.692250
_cell_length_c 13.053567
_cell_angle_alpha 145.586622
_cell_angle_beta 146.593075
_cell_angle_gamma 55.753869
_cell_volume 506.330184
_symmetry_space_group_name_H-M "P -1"
_symmetry_group_IT_number 2
_symmetry_cell_setting 'triclinic'
loop_
_space_group_symop_operation_xyz
x,y,z
-x,-y,-z
loop_
_atom_site_type_symbol
_atom_site_label
_atom_site_fract_x
_atom_site_fract_y
_atom_site_fract_z
Si Si1 0.436385 0.243245 0.748897
Si Si2 0.248205 0.619282 0.323674
Si Si3 0.060002 0.264507 0.082805
Si Si4 0.611186 0.921370 0.121247
Si Si5 0.460856 0.818156 0.439762
Si Si6 0.044737 0.934318 0.671335
Si Si7 0.149447 0.545591 0.541986
O O1 0.405569 0.218405 0.583775
O O2 0.221280 0.135416 0.582267
O O3 0.564048 0.078781 0.739047
O O4 0.500000 0.500000 0.000000
O O5 0.237942 0.469987 0.302612
O O6 0.426839 0.662943 0.397033
O O7 0.298747 0.862057 0.582146
O O8 0.000000 0.500000 0.000000
O O9 0.096314 0.326831 0.274156
O O10 0.801458 0.234076 0.834024
O O11 0.105503 0.060994 0.919260
O O12 0.822047 0.908581 0.206335
O O13 0.419099 0.703763 0.867549
O O14 0.500000 0.000000 0.000000
O O15 0.068413 0.703248 0.527353
O O16 0.000000 0.500000 0.500000
#
# Coordination Sequence:
#
# PCOD9097628 Si02
#       7
#     2   2   2   2   2   2   2
#     4  10  20  36  61  90 130 173 204 266 320 374
#     4  10  20  39  66  92 128 173 207 263 327 374
#     4  10  20  41  65  89 129 167 209 270 321 374
#     4  10  21  42  64  90 128 170 212 263 318 386
#     4   9  21  38  59  93 129 164 210 261 319 383
#     4  10  22  40  63  93 124 169 219 260 321 394
#     4  11  24  43  67  90 127 171 214 273 326 376
#
# _framework density 27.649940999999998
#
# number of rings (size 3 to 8) (size 9 to 14) (size 15 to 20)
#    0.000    2.000    2.857    0.857    2.000    5.714 
#    5.143    2.143    0.000    0.000    0.000    0.000 
#    0.000    0.000    0.000    0.000    0.000    0.000 
#
# Total GULP energy -78290.562523 kJ/mol
# GULP energy per Si atom -5592.183037 kJ/mol
# Density = 2.758701 g / cm^3
# Si number density = 27.649941 Si / 1000 Ang^3
#
#
#
# Elastic Constant Matrix: (Units=GPa)
#
#
# Indices 1 2 3 4 5 6 
#
# 1 182.5664 6.2268 57.6850 7.1516 31.8393 5.9799
# 2 6.2268 62.4912 20.7575 3.4093 2.4947 7.6057
# 3 57.6850 20.7575 155.4214 13.9200 -5.2943 -9.9531
# 4 7.1516 3.4093 13.9200 42.5549 -1.3010 1.1436
# 5 31.8393 2.4947 -5.2943 -1.3010 65.7503 15.8476
# 6 5.9799 7.6057 -9.9531 1.1436 15.8476 46.8729
#
#
#
# Elastic Compliance Matrix: (Units=1/GPa)
#
#
# Indices 1 2 3 4 5 6 
#
# 1 0.006977 0.000423 -0.002752 -0.000406 -0.003544 -0.000335
# 2 0.000423 0.017279 -0.002641 -0.000511 -0.000286 -0.003309
# 3 -0.002752 -0.002641 0.008171 -0.002006 0.001560 0.002036
# 4 -0.000406 -0.000511 -0.002006 0.024320 0.000815 -0.001160
# 5 -0.003544 -0.000286 0.001560 0.000815 0.018380 -0.005404
# 6 -0.000335 -0.003309 0.002036 -0.001160 -0.005404 0.024202
#
#
# Mechanical properties :
#
#
# Convention : Reuss Voigt Hill
#
# Bulk Modulus (GPa) = 44.46580 63.31308 53.88944
# Shear Modulus (GPa) = 42.82055 52.08961 47.45508
#
# Velocity S-wave (km/s) = 3.93958 4.34510 4.14730
# Velocity P-wave (km/s) = 6.06715 6.93693 6.51657
#
# Compressibility (1/GPa) = 0.02248919
#
# Stress axis : x y z
#
# Youngs Moduli (GPa) = 143.31827 57.87261 122.37731
#
# Poissons Ratio (x) = -0.02450 0.33679
# Poissons Ratio (y) = -0.06067 0.32317
# Poissons Ratio (z) = 0.39442 0.15283
#
# Static dielectric constant tensor:
#      x y z
#    x 2.184280 -0.004540 -0.312300 
#    y -0.004540 2.202880 0.067460 
#    z -0.312300 0.067460 0.479680 
# 
# From -- ./inp_files/522698.got.cif
#   From: 2010.05.17/outbox.cif.g08.bks.cpg/sg2_262_cif.got.tgz:522698.got - 2010.06.03 11:33:40.
