data_PCOD9097154
_publ_section_title
;
Structure prediction by ZEFSAII (Michael W. Deem and Ramdas Pophale) SiO2 
 PCOD9097154
Probable space group: P -1
;
_chemical_formula_sum "Si O2"
_cell_formula_units_Z 14
_cell_length_a 8.598924
_cell_length_b 11.172843
_cell_length_c 7.795565
_cell_angle_alpha 121.842328
_cell_angle_beta 67.822730
_cell_angle_gamma 112.832395
_cell_volume 571.933996
_symmetry_space_group_name_H-M "P -1"
_symmetry_group_IT_number 2
_symmetry_cell_setting 'triclinic'
loop_
_space_group_symop_operation_xyz
x,y,z
-x,-y,-z
loop_
_atom_site_type_symbol
_atom_site_label
_atom_site_fract_x
_atom_site_fract_y
_atom_site_fract_z
Si Si1 0.426492 0.429103 0.698283
Si Si2 0.731135 0.477228 0.849744
Si Si3 0.820480 0.887490 0.948057
Si Si4 0.396988 0.705468 0.710826
Si Si5 0.144174 0.952970 0.291045
Si Si6 0.445427 0.838061 0.159199
Si Si7 0.972328 0.304006 0.128606
O O1 0.619555 0.493046 0.741314
O O2 0.371656 0.545132 0.685069
O O3 0.451273 0.289042 0.482877
O O4 0.309835 0.416310 0.903894
O O5 0.640753 0.314985 0.829843
O O6 0.938362 0.524704 0.798095
O O7 0.883425 0.743026 0.851410
O O8 0.795473 0.930412 0.796589
O O9 0.652053 0.892643 0.135764
O O10 0.000000 0.000000 0.000000
O O11 0.214744 0.720542 0.724208
O O12 0.436055 0.808636 0.935503
O O13 0.310934 0.936427 0.317488
O O14 0.000000 0.000000 0.500000
O O15 0.065217 0.798048 0.104271
#
# Coordination Sequence:
#
# PCOD9097154 Si02
#       7
#     2   2   2   2   2   2   2
#     4   9  18  33  51  80 118 156 189 224 285 361
#     4  10  20  36  59  89 123 152 189 242 305 359
#     4  10  21  40  61  82 115 160 205 243 290 352
#     4   9  19  33  53  81 116 157 193 230 288 353
#     4  10  23  41  62  89 117 155 207 253 292 345
#     4  10  21  40  63  85 120 161 195 246 304 356
#     4  10  21  38  59  87 122 156 194 245 298 357
#
# _framework density 24.478345999999998
#
# number of rings (size 3 to 8) (size 9 to 14) (size 15 to 20)
#    0.000    2.286    0.000    3.000    0.000    8.000 
#    0.000    7.143    0.000    0.000    0.000    0.000 
#    0.000    0.000    0.000    0.000    0.000    0.000 
#
# Total GULP energy -78053.287071 kJ/mol
# GULP energy per Si atom -5575.234791 kJ/mol
# Density = 2.442263 g / cm^3
# Si number density = 24.478346 Si / 1000 Ang^3
#
#
#
# Elastic Constant Matrix: (Units=GPa)
#
#
# Indices 1 2 3 4 5 6 
#
# 1 129.9446 57.5653 14.3888 5.1697 -29.4436 -0.0540
# 2 57.5653 81.7224 19.1332 -8.6201 -8.1934 11.1444
# 3 14.3888 19.1332 58.1216 4.9102 -25.0675 -8.5710
# 4 5.1697 -8.6201 4.9102 15.2184 -5.0254 2.5613
# 5 -29.4436 -8.1934 -25.0675 -5.0254 39.5391 4.4476
# 6 -0.0540 11.1444 -8.5710 2.5613 4.4476 40.7278
#
#
#
# Elastic Compliance Matrix: (Units=1/GPa)
#
#
# Indices 1 2 3 4 5 6 
#
# 1 0.016287 -0.014088 0.007505 -0.012886 0.011769 0.004981
# 2 -0.014088 0.028497 -0.013348 0.024243 -0.008707 -0.011199
# 3 0.007505 -0.013348 0.030684 -0.015130 0.019345 0.008959
# 4 -0.012886 0.024243 -0.015130 0.091021 -0.000856 -0.015466
# 5 0.011769 -0.008707 0.019345 -0.000856 0.044216 0.001695
# 6 0.004981 -0.011199 0.008959 -0.015466 0.001695 0.030297
#
#
# Mechanical properties :
#
#
# Convention : Reuss Voigt Hill
#
# Bulk Modulus (GPa) = 28.08626 50.21816 39.15221
# Shear Modulus (GPa) = 17.08031 31.01049 24.04540
#
# Velocity S-wave (km/s) = 2.64440 3.56315 3.13759
# Velocity P-wave (km/s) = 4.56319 6.12274 5.39956
#
# Compressibility (1/GPa) = 0.03560459
#
# Stress axis : x y z
#
# Youngs Moduli (GPa) = 61.39870 35.09168 32.58981
#
# Poissons Ratio (x) = 0.49438 -0.24457
# Poissons Ratio (y) = 0.86499 0.43502
# Poissons Ratio (z) = -0.46077 0.46841
#
# Static dielectric constant tensor:
#      x y z
#    x 2.029090 0.017130 0.025910 
#    y 0.017130 2.209980 0.052740 
#    z 0.025910 0.052740 1.992380 
# 
# From -- ./inp_files/189783.got.cif
#   From: 2010.05.17/outbox.cif.g08.bks.cpg/sg2_95_cif.got.tgz:189783.got - 2010.06.03 11:33:40.
