data_PCOD9097277
_publ_section_title
;
Structure prediction by ZEFSAII (Michael W. Deem and Ramdas Pophale) SiO2 
 PCOD9097277
Probable space group: P -1
;
_chemical_formula_sum "Si O2"
_cell_formula_units_Z 16
_cell_length_a 13.440529
_cell_length_b 9.121968
_cell_length_c 15.791578
_cell_angle_alpha 70.196297
_cell_angle_beta 26.590097
_cell_angle_gamma 68.647077
_cell_volume 806.719458
_symmetry_space_group_name_H-M "P -1"
_symmetry_group_IT_number 2
_symmetry_cell_setting 'triclinic'
loop_
_space_group_symop_operation_xyz
x,y,z
-x,-y,-z
loop_
_atom_site_type_symbol
_atom_site_label
_atom_site_fract_x
_atom_site_fract_y
_atom_site_fract_z
Si Si1 0.257471 0.991144 0.272901
Si Si2 0.948592 0.138080 0.208166
Si Si3 0.138887 0.278531 0.196185
Si Si4 0.344823 0.565917 0.927048
Si Si5 0.015783 0.343539 0.960840
Si Si6 0.623044 0.099145 0.099117
Si Si7 0.677035 0.321584 0.635785
Si Si8 0.516335 0.839215 0.349277
O O1 0.330334 0.803429 0.257533
O O2 0.250317 0.104070 0.175260
O O3 0.424465 0.060974 0.196534
O O4 0.000000 0.000000 0.500000
O O5 0.941136 0.212317 0.106319
O O6 0.701774 0.127881 0.432724
O O7 0.052074 0.255170 0.171596
O O8 0.128566 0.979642 0.104207
O O9 0.926705 0.321884 0.411331
O O10 0.278119 0.422419 0.061291
O O11 0.141006 0.622941 0.007075
O O12 0.392669 0.716367 0.912399
O O13 0.553337 0.488467 0.726487
O O14 0.000000 0.500000 0.000000
O O15 0.270278 0.274315 0.754351
O O16 0.584877 0.003580 0.232912
O O17 0.549655 0.250805 0.668128
#
# Coordination Sequence:
#
# PCOD9097277 Si02
#       8
#     2   2   2   2   2   2   2   2
#     4   9  19  40  64  84 108 149 197 235 280 344
#     4  10  21  38  61  85 111 155 202 231 273 338
#     4  10  20  36  60  85 109 147 196 237 281 338
#     4  12  23  36  55  87 123 150 182 239 295 333
#     4  11  20  36  58  87 117 151 193 237 279 330
#     4  10  23  39  56  85 123 148 183 240 291 338
#     4   9  19  36  58  84 111 146 193 239 278 333
#     4   9  19  38  60  81 112 156 200 231 270 336
#
# _framework density 19.833413
#
# number of rings (size 3 to 8) (size 9 to 14) (size 15 to 20)
#    0.000    2.000    2.500    2.250    0.000    7.000 
#    0.000    3.750    0.000    0.000    0.000    0.000 
#    0.000    0.000    0.000    0.000    0.000    0.000 
#
# Total GULP energy -89274.172669 kJ/mol
# GULP energy per Si atom -5579.635792 kJ/mol
# Density = 1.978827 g / cm^3
# Si number density = 19.833413 Si / 1000 Ang^3
#
#
#
# Elastic Constant Matrix: (Units=GPa)
#
#
# Indices 1 2 3 4 5 6 
#
# 1 43.9680 20.7903 23.3153 4.2340 -5.6396 -18.7846
# 2 20.7903 114.0300 58.8178 11.8250 -2.2197 2.7112
# 3 23.3153 58.8178 115.7987 23.5206 -1.7424 3.4804
# 4 4.2340 11.8250 23.5206 25.8779 -7.5795 -5.0022
# 5 -5.6396 -2.2197 -1.7424 -7.5795 20.1005 2.5356
# 6 -18.7846 2.7112 3.4804 -5.0022 2.5356 28.2460
#
#
#
# Elastic Compliance Matrix: (Units=1/GPa)
#
#
# Indices 1 2 3 4 5 6 
#
# 1 0.044729 -0.004909 -0.010189 0.014145 0.012312 0.032873
# 2 -0.004909 0.012442 -0.004957 -0.001276 -0.000405 -0.004037
# 3 -0.010189 -0.004957 0.016441 -0.014857 -0.006272 -0.010394
# 4 0.014145 -0.001276 -0.014857 0.061045 0.023023 0.020104
# 5 0.012312 -0.000405 -0.006272 0.023023 0.060331 0.007661
# 6 0.032873 -0.004037 -0.010394 0.020104 0.007661 0.061806
#
#
# Mechanical properties :
#
#
# Convention : Reuss Voigt Hill
#
# Bulk Modulus (GPa) = 29.84782 53.29372 41.57077
# Shear Modulus (GPa) = 16.23015 26.23643 21.23329
#
# Velocity S-wave (km/s) = 2.86374 3.64103 3.27552
# Velocity P-wave (km/s) = 5.10065 6.67871 5.94230
#
# Compressibility (1/GPa) = 0.03350328
#
# Stress axis : x y z
#
# Youngs Moduli (GPa) = 22.35685 80.37429 60.82519
#
# Poissons Ratio (x) = 0.39452 0.61973
# Poissons Ratio (y) = 0.10974 0.30150
# Poissons Ratio (z) = 0.22779 0.39840
#
# Static dielectric constant tensor:
#      x y z
#    x 1.706690 -0.041790 -0.014480 
#    y -0.041790 1.704000 0.022790 
#    z -0.014480 0.022790 1.740830 
# 
# From -- ./inp_files/267290.got.cif
#   From: 2010.05.17/outbox.cif.g08.bks.cpg/sg2_134_cif.got.tgz:267290.got - 2010.06.03 11:33:40.
