data_PCOD9097400
_publ_section_title
;
Structure prediction by ZEFSAII (Michael W. Deem and Ramdas Pophale) SiO2 
 PCOD9097400
Probable space group: P -1
;
_chemical_formula_sum "Si O2"
_cell_formula_units_Z 14
_cell_length_a 18.013113
_cell_length_b 6.808787
_cell_length_c 7.118619
_cell_angle_alpha 62.519510
_cell_angle_beta 132.373863
_cell_angle_gamma 127.699537
_cell_volume 508.523324
_symmetry_space_group_name_H-M "P -1"
_symmetry_group_IT_number 2
_symmetry_cell_setting 'triclinic'
loop_
_space_group_symop_operation_xyz
x,y,z
-x,-y,-z
loop_
_atom_site_type_symbol
_atom_site_label
_atom_site_fract_x
_atom_site_fract_y
_atom_site_fract_z
Si Si1 0.224709 0.867587 0.600203
Si Si2 0.473740 0.183290 0.011446
Si Si3 0.340382 0.816211 0.443353
Si Si4 0.080084 0.139920 0.279644
Si Si5 0.850588 0.392109 0.042548
Si Si6 0.151932 0.137951 0.821389
Si Si7 0.402325 0.373814 0.234930
O O1 0.156189 0.022182 0.370841
O O2 0.265763 0.785657 0.518292
O O3 0.338507 0.058442 0.824074
O O4 0.153642 0.645449 0.723340
O O5 0.547282 0.198463 0.309503
O O6 0.539064 0.455059 0.916138
O O7 0.500000 0.000000 0.000000
O O8 0.269308 0.642715 0.230278
O O9 0.376155 0.092182 0.318692
O O10 0.071401 0.358791 0.050251
O O11 0.134055 0.220302 0.545821
O O12 0.955997 0.919972 0.209909
O O13 0.858618 0.142532 0.099075
O O14 0.272259 0.329714 0.028849
O O15 0.500000 0.500000 0.500000
#
# Coordination Sequence:
#
# PCOD9097400 Si02
#       7
#     2   2   2   2   2   2   2
#     4  10  22  37  61  96 128 157 218 261 310 385
#     4  10  20  36  60  90 124 167 206 257 314 376
#     4  10  22  40  61  92 130 166 211 261 317 379
#     4  10  20  41  64  90 130 166 208 270 310 373
#     4  10  21  39  64  91 126 169 211 256 322 377
#     4   9  21  38  64  93 122 167 217 252 319 382
#     4  11  19  36  64  90 119 166 208 257 315 370
#
# _framework density 27.530691999999998
#
# number of rings (size 3 to 8) (size 9 to 14) (size 15 to 20)
#    0.000    2.000    2.857    1.286    0.000    4.000 
#    0.000   12.857    0.000   31.714    0.000    0.000 
#    0.000    0.000    0.000    0.000    0.000    0.000 
#
# Total GULP energy -78405.328058 kJ/mol
# GULP energy per Si atom -5600.380576 kJ/mol
# Density = 2.746803 g / cm^3
# Si number density = 27.530692 Si / 1000 Ang^3
#
#
#
# Elastic Constant Matrix: (Units=GPa)
#
#
# Indices 1 2 3 4 5 6 
#
# 1 134.9457 54.1198 43.8420 -2.0724 0.8405 14.7342
# 2 54.1198 145.7154 25.6047 -21.1681 -6.7022 27.0499
# 3 43.8420 25.6047 98.8866 -5.6766 -11.1923 9.1425
# 4 -2.0724 -21.1681 -5.6766 68.3011 6.9237 -0.4289
# 5 0.8405 -6.7022 -11.1923 6.9237 50.6271 -0.0359
# 6 14.7342 27.0499 9.1425 -0.4289 -0.0359 36.8886
#
#
#
# Elastic Compliance Matrix: (Units=1/GPa)
#
#
# Indices 1 2 3 4 5 6 
#
# 1 0.009934 -0.003065 -0.003729 -0.000833 -0.001282 -0.000808
# 2 -0.003065 0.009544 -0.000336 0.002714 0.000865 -0.005659
# 3 -0.003729 -0.000336 0.012305 0.000527 0.002665 -0.001305
# 4 -0.000833 0.002714 0.000527 0.015658 -0.001653 -0.001607
# 5 -0.001282 0.000865 0.002665 -0.001653 0.020703 -0.000782
# 6 -0.000808 -0.005659 -0.001305 -0.001607 -0.000782 0.031885
#
#
# Mechanical properties :
#
#
# Convention : Reuss Voigt Hill
#
# Bulk Modulus (GPa) = 57.06040 69.63120 63.34580
# Shear Modulus (GPa) = 41.62129 48.22877 44.92503
#
# Velocity S-wave (km/s) = 3.89242 4.19001 4.04396
# Velocity P-wave (km/s) = 6.40097 6.98251 6.69805
#
# Compressibility (1/GPa) = 0.01752529
#
# Stress axis : x y z
#
# Youngs Moduli (GPa) = 100.66103 104.77288 81.26477
#
# Poissons Ratio (x) = 0.32108 0.30305
# Poissons Ratio (y) = 0.30848 0.02729
# Poissons Ratio (z) = 0.37539 0.03518
#
# Static dielectric constant tensor:
#      x y z
#    x 2.136230 -0.002880 0.127080 
#    y -0.002880 2.161800 -0.061050 
#    z 0.127080 -0.061050 0.932640 
# 
# From -- ./inp_files/342493.got.cif
#   From: 2010.05.17/outbox.cif.g08.bks.cpg/sg2_172_cif.got.tgz:342493.got - 2010.06.03 11:33:40.
