data_PCOD9097548
_publ_section_title
;
Structure prediction by ZEFSAII (Michael W. Deem and Ramdas Pophale) SiO2 
 PCOD9097548
Probable space group: P -1
;
_chemical_formula_sum "Si O2"
_cell_formula_units_Z 16
_cell_length_a 7.967580
_cell_length_b 7.429029
_cell_length_c 14.931270
_cell_angle_alpha 119.916258
_cell_angle_beta 111.367756
_cell_angle_gamma 64.403510
_cell_volume 678.213635
_symmetry_space_group_name_H-M "P -1"
_symmetry_group_IT_number 2
_symmetry_cell_setting 'triclinic'
loop_
_space_group_symop_operation_xyz
x,y,z
-x,-y,-z
loop_
_atom_site_type_symbol
_atom_site_label
_atom_site_fract_x
_atom_site_fract_y
_atom_site_fract_z
Si Si1 0.718768 0.439173 0.799631
Si Si2 0.556028 0.696067 0.011129
Si Si3 0.916415 0.122218 0.426599
Si Si4 0.563088 0.440218 0.392266
Si Si5 0.911174 0.532894 0.378262
Si Si6 0.139935 0.400677 0.814318
Si Si7 0.085956 0.023395 0.254895
Si Si8 0.838397 0.111032 0.065320
O O1 0.635109 0.601323 0.905781
O O2 0.605551 0.508576 0.700653
O O3 0.931943 0.441106 0.824458
O O4 0.732148 0.191297 0.775597
O O5 0.365349 0.894894 0.006375
O O6 0.500000 0.500000 0.000000
O O7 0.705201 0.738494 0.120269
O O8 0.974292 0.341889 0.510250
O O9 0.032950 0.985674 0.335376
O O10 0.698068 0.192883 0.373539
O O11 0.000000 0.000000 0.500000
O O12 0.500000 0.500000 0.500000
O O13 0.715009 0.533331 0.389621
O O14 0.854141 0.660749 0.304401
O O15 0.053339 0.287142 0.318916
O O16 0.175378 0.635586 0.872114
O O17 0.924916 0.013192 0.151902
O O18 0.000000 0.000000 0.000000
#
# Coordination Sequence:
#
# PCOD9097548 Si02
#       8
#     2   2   2   2   2   2   2   2
#     4  12  23  39  62  95 128 164 216 267 319 384
#     4  10  20  38  63  90 124 166 209 262 320 383
#     4  11  22  42  65  89 122 166 213 266 322 382
#     4  11  22  38  61  90 125 164 212 268 316 378
#     4  10  22  42  64  89 125 170 213 263 325 382
#     4  10  21  39  62  89 124 169 210 266 326 379
#     4  10  20  36  61  87 120 164 204 253 315 375
#     4  10  21  40  63  89 122 165 213 261 319 385
#
# _framework density 23.591384999999999
#
# number of rings (size 3 to 8) (size 9 to 14) (size 15 to 20)
#    0.000    1.500    0.000    8.625    0.000    1.000 
#    0.000   14.375    0.000    6.000    0.000    0.000 
#    0.000    0.000    0.000    0.000    0.000    0.000 
#
# Total GULP energy -89131.365539 kJ/mol
# GULP energy per Si atom -5570.710346 kJ/mol
# Density = 2.353769 g / cm^3
# Si number density = 23.591385 Si / 1000 Ang^3
#
#
#
# Elastic Constant Matrix: (Units=GPa)
#
#
# Indices 1 2 3 4 5 6 
#
# 1 94.6052 19.5117 53.6017 -19.8164 -3.8423 -10.7450
# 2 19.5117 106.5291 44.2799 -31.3601 8.4761 -9.1715
# 3 53.6017 44.2799 156.5543 -58.7559 -12.4803 -21.7602
# 4 -19.8164 -31.3601 -58.7559 47.2029 -10.0919 7.8961
# 5 -3.8423 8.4761 -12.4803 -10.0919 39.6494 -8.9272
# 6 -10.7450 -9.1715 -21.7602 7.8961 -8.9272 42.6072
#
#
#
# Elastic Compliance Matrix: (Units=1/GPa)
#
#
# Indices 1 2 3 4 5 6 
#
# 1 0.013200 -0.000667 -0.004318 -0.000417 0.000204 0.001100
# 2 -0.000667 0.011815 -0.000754 0.006298 -0.001091 0.000594
# 3 -0.004318 -0.000754 0.018259 0.021995 0.012582 0.006634
# 4 -0.000417 0.006298 0.021995 0.056024 0.021273 0.006558
# 5 0.000204 -0.001091 0.012582 0.021273 0.037118 0.010077
# 6 0.001100 0.000594 0.006634 0.006558 0.010077 0.028160
#
#
# Mechanical properties :
#
#
# Convention : Reuss Voigt Hill
#
# Bulk Modulus (GPa) = 31.45069 65.83059 48.64064
# Shear Modulus (GPa) = 26.78776 41.91159 34.34968
#
# Velocity S-wave (km/s) = 3.37336 4.21950 3.81993
# Velocity P-wave (km/s) = 5.34164 7.19055 6.33392
#
# Compressibility (1/GPa) = 0.03179581
#
# Stress axis : x y z
#
# Youngs Moduli (GPa) = 75.75554 84.64057 54.76681
#
# Poissons Ratio (x) = 0.05647 0.23650
# Poissons Ratio (y) = 0.05054 0.04128
# Poissons Ratio (z) = 0.32713 0.06380
#
# Static dielectric constant tensor:
#      x y z
#    x 1.934910 0.055230 -0.020640 
#    y 0.055230 2.026710 0.030770 
#    z -0.020640 0.030770 2.342320 
# 
# From -- ./inp_files/493689.got.cif
#   From: 2010.05.17/outbox.cif.g08.bks.cpg/sg2_247_cif.got.tgz:493689.got - 2010.06.03 11:33:40.
