data_PCOD9097613
_publ_section_title
;
Structure prediction by ZEFSAII (Michael W. Deem and Ramdas Pophale) SiO2 
 PCOD9097613
Probable space group: P -1
;
_chemical_formula_sum "Si O2"
_cell_formula_units_Z 16
_cell_length_a 15.101268
_cell_length_b 23.836069
_cell_length_c 6.579890
_cell_angle_alpha 87.215799
_cell_angle_beta 87.647614
_cell_angle_gamma 20.171569
_cell_volume 815.687816
_symmetry_space_group_name_H-M "P -1"
_symmetry_group_IT_number 2
_symmetry_cell_setting 'triclinic'
loop_
_space_group_symop_operation_xyz
x,y,z
-x,-y,-z
loop_
_atom_site_type_symbol
_atom_site_label
_atom_site_fract_x
_atom_site_fract_y
_atom_site_fract_z
Si Si1 0.133229 0.300090 0.624400
Si Si2 0.148116 0.192282 0.972646
Si Si3 0.433023 0.474457 0.010286
Si Si4 0.662542 0.155057 0.078371
Si Si5 0.757509 0.681035 0.050353
Si Si6 0.557088 0.624457 0.629073
Si Si7 0.783829 0.183957 0.763417
Si Si8 0.421100 0.111275 0.232610
O O1 0.133099 0.252211 0.804006
O O2 0.197462 0.319672 0.730873
O O3 0.351931 0.157846 0.464472
O O4 0.840651 0.469059 0.537659
O O5 0.865805 0.349224 0.051148
O O6 0.291386 0.058429 0.855822
O O7 0.315971 0.114376 0.158396
O O8 0.446344 0.431268 0.228869
O O9 0.500000 0.500000 0.000000
O O10 0.615229 0.331729 0.865856
O O11 0.500224 0.290419 0.225149
O O12 0.493336 0.207152 0.984818
O O13 0.743664 0.149253 0.892601
O O14 0.914180 0.983631 0.204738
O O15 0.734831 0.746687 0.887415
O O16 0.000000 0.500000 0.000000
O O17 0.334313 0.752939 0.459909
#
# Coordination Sequence:
#
# PCOD9097613 Si02
#       8
#     2   2   2   2   2   2   2   2
#     4  10  20  36  61  90 117 154 197 236 298 357
#     4   9  20  39  59  85 118 152 195 245 293 350
#     4  10  22  38  61  86 121 153 193 246 297 350
#     4  10  22  40  59  86 120 157 198 247 289 348
#     4  11  23  37  57  89 125 153 192 243 296 347
#     4  10  20  38  63  88 116 155 201 241 291 359
#     4  10  22  39  64  83 115 162 201 238 295 347
#     4  10  21  36  61  85 118 158 192 241 294 349
#
# _framework density 19.615348999999998
#
# number of rings (size 3 to 8) (size 9 to 14) (size 15 to 20)
#    0.000    2.000    1.250    1.500    5.250    2.000 
#    0.000    0.000    0.000    0.000    0.000    0.000 
#    0.000    0.000    0.000    0.000    0.000    0.000 
#
# Total GULP energy -89222.096646 kJ/mol
# GULP energy per Si atom -5576.381040 kJ/mol
# Density = 1.957070 g / cm^3
# Si number density = 19.615349 Si / 1000 Ang^3
#
#
#
# Elastic Constant Matrix: (Units=GPa)
#
#
# Indices 1 2 3 4 5 6 
#
# 1 92.1741 38.3563 30.2935 2.2818 15.7409 -2.7241
# 2 38.3563 107.1260 8.1076 -1.4479 11.2763 -2.0191
# 3 30.2935 8.1076 49.7489 1.4434 18.1657 2.2368
# 4 2.2818 -1.4479 1.4434 30.7282 0.9972 9.6606
# 5 15.7409 11.2763 18.1657 0.9972 18.0086 -3.0322
# 6 -2.7241 -2.0191 2.2368 9.6606 -3.0322 23.3966
#
#
#
# Elastic Compliance Matrix: (Units=1/GPa)
#
#
# Indices 1 2 3 4 5 6 
#
# 1 0.016097 -0.004891 -0.008329 -0.001829 -0.002044 0.002739
# 2 -0.004891 0.011533 0.003660 0.001402 -0.006952 -0.001404
# 3 -0.008329 0.003660 0.037690 0.003350 -0.034928 -0.010167
# 4 -0.001829 0.001402 0.003350 0.038244 -0.007672 -0.017198
# 5 -0.002044 -0.006952 -0.034928 -0.007672 0.100473 0.018690
# 6 0.002739 -0.001404 -0.010167 -0.017198 0.018690 0.053434
#
#
# Mechanical properties :
#
#
# Convention : Reuss Voigt Hill
#
# Bulk Modulus (GPa) = 21.64493 44.72933 33.18713
# Shear Modulus (GPa) = 17.12383 25.91279 21.51831
#
# Velocity S-wave (km/s) = 2.95783 3.63856 3.31571
# Velocity P-wave (km/s) = 4.76693 6.36435 5.62266
#
# Compressibility (1/GPa) = 0.04620020
#
# Stress axis : x y z
#
# Youngs Moduli (GPa) = 62.12412 86.70494 26.53241
#
# Poissons Ratio (x) = 0.42408 0.22098
# Poissons Ratio (y) = 0.30386 -0.09710
# Poissons Ratio (z) = 0.51740 -0.31732
#
# Static dielectric constant tensor:
#      x y z
#    x 1.675370 -0.012650 0.007810 
#    y -0.012650 1.754120 -0.005480 
#    z 0.007810 -0.005480 1.678820 
# 
# From -- ./inp_files/70832.got.cif
#   From: 2010.05.17/outbox.cif.g08.bks.cpg/sg2_36_cif.got.tgz:70832.got - 2010.06.03 11:33:40.
