data_PCOD9097886
_publ_section_title
;
Structure prediction by ZEFSAII (Michael W. Deem and Ramdas Pophale) SiO2 
 PCOD9097886
Probable space group: P -1
;
_chemical_formula_sum "Si O2"
_cell_formula_units_Z 12
_cell_length_a 10.000191
_cell_length_b 11.533584
_cell_length_c 8.874134
_cell_angle_alpha 78.173259
_cell_angle_beta 66.564797
_cell_angle_gamma 34.497775
_cell_volume 516.810009
_symmetry_space_group_name_H-M "P -1"
_symmetry_group_IT_number 2
_symmetry_cell_setting 'triclinic'
loop_
_space_group_symop_operation_xyz
x,y,z
-x,-y,-z
loop_
_atom_site_type_symbol
_atom_site_label
_atom_site_fract_x
_atom_site_fract_y
_atom_site_fract_z
Si Si1 0.195727 0.698009 0.068211
Si Si2 0.753613 0.152516 0.227736
Si Si3 0.225453 0.481868 0.543171
Si Si4 0.869515 0.735573 0.353446
Si Si5 0.913691 0.671646 0.895704
Si Si6 0.562792 0.066848 0.162074
O O1 0.088698 0.639412 0.164596
O O2 0.500000 0.500000 0.000000
O O3 0.160098 0.781712 0.898498
O O4 0.015311 0.900327 0.206795
O O5 0.518887 0.316789 0.407277
O O6 0.627604 0.158471 0.146515
O O7 0.194711 0.359585 0.590478
O O8 0.013052 0.668795 0.465221
O O9 0.150013 0.568452 0.723041
O O10 0.620276 0.966049 0.324957
O O11 0.717076 0.760610 0.828646
O O12 0.000000 0.500000 0.000000
O O13 0.749336 0.874763 0.012397
#
# Coordination Sequence:
#
# PCOD9097886 Si02
#       6
#     2   2   2   2   2   2
#     4  10  20  37  58  91 121 156 193 252 309 351
#     4  10  22  37  62  92 116 154 209 248 294 360
#     4  11  21  36  63  95 121 150 206 260 294 347
#     4  10  20  36  62  92 117 154 199 252 295 347
#     4  11  23  39  55  89 133 162 191 243 315 364
#     4  10  22  39  59  87 123 169 192 241 309 367
#
# _framework density 23.219366000000001
#
# number of rings (size 3 to 8) (size 9 to 14) (size 15 to 20)
#    0.000    1.667    3.333    2.000    0.000    6.000 
#    0.000    0.000    0.000   10.000    0.000    0.000 
#    0.000    0.000    0.000    0.000    0.000    0.000 
#
# Total GULP energy -66878.872226 kJ/mol
# GULP energy per Si atom -5573.239352 kJ/mol
# Density = 2.316652 g / cm^3
# Si number density = 23.219366 Si / 1000 Ang^3
#
#
#
# Elastic Constant Matrix: (Units=GPa)
#
#
# Indices 1 2 3 4 5 6 
#
# 1 47.2835 14.3597 27.4170 -9.3623 -8.5796 0.8314
# 2 14.3597 148.8210 58.8539 1.6862 -0.0800 -16.0387
# 3 27.4170 58.8539 182.4446 19.2977 -20.0854 5.8389
# 4 -9.3623 1.6862 19.2977 50.0075 13.6668 -0.8276
# 5 -8.5796 -0.0800 -20.0854 13.6668 32.8674 1.6107
# 6 0.8314 -16.0387 5.8389 -0.8276 1.6107 37.6060
#
#
#
# Elastic Compliance Matrix: (Units=1/GPa)
#
#
# Indices 1 2 3 4 5 6 
#
# 1 0.025159 -0.001008 -0.003845 0.005715 0.001856 -0.000343
# 2 -0.001008 0.008564 -0.003284 0.001732 -0.003183 0.004359
# 3 -0.003845 -0.003284 0.008583 -0.005833 0.006809 -0.003068
# 4 0.005715 0.001732 -0.005833 0.026970 -0.013415 0.002686
# 5 0.001856 -0.003183 0.006809 -0.013415 0.040862 -0.004501
# 6 -0.000343 0.004359 -0.003068 0.002686 -0.004501 0.029187
#
#
# Mechanical properties :
#
#
# Convention : Reuss Voigt Hill
#
# Bulk Modulus (GPa) = 38.41404 64.42338 51.41871
# Shear Modulus (GPa) = 30.43652 42.62407 36.53029
#
# Velocity S-wave (km/s) = 3.62446 4.28917 3.97075
# Velocity P-wave (km/s) = 5.83913 7.23430 6.57383
#
# Compressibility (1/GPa) = 0.02603215
#
# Stress axis : x y z
#
# Youngs Moduli (GPa) = 39.74736 116.76748 116.50602
#
# Poissons Ratio (x) = 0.11767 0.44796
# Poissons Ratio (y) = 0.04005 0.38265
# Poissons Ratio (z) = 0.15283 0.38350
#
# Static dielectric constant tensor:
#      x y z
#    x 1.879650 -0.030550 0.002200 
#    y -0.030550 1.982430 0.039240 
#    z 0.002200 0.039240 1.972420 
# 
# From -- ./inp_files/267325.got.cif
#   From: 2010.05.17/outbox.cif.g08.bks.cpg/sg2_134_cif.got.tgz:267325.got - 2010.06.03 11:33:40.
