data_PCOD9097612
_publ_section_title
;
Structure prediction by ZEFSAII (Michael W. Deem and Ramdas Pophale) SiO2 
 PCOD9097612
Probable space group: P -1
;
_chemical_formula_sum "Si O2"
_cell_formula_units_Z 16
_cell_length_a 8.139239
_cell_length_b 10.983429
_cell_length_c 10.811270
_cell_angle_alpha 77.443083
_cell_angle_beta 102.325286
_cell_angle_gamma 56.260458
_cell_volume 714.894380
_symmetry_space_group_name_H-M "P -1"
_symmetry_group_IT_number 2
_symmetry_cell_setting 'triclinic'
loop_
_space_group_symop_operation_xyz
x,y,z
-x,-y,-z
loop_
_atom_site_type_symbol
_atom_site_label
_atom_site_fract_x
_atom_site_fract_y
_atom_site_fract_z
Si Si1 0.733136 0.369739 0.119707
Si Si2 0.003810 0.914527 0.640917
Si Si3 0.493173 0.832299 0.079061
Si Si4 0.722917 0.783461 0.633346
Si Si5 0.937369 0.533807 0.127823
Si Si6 0.589398 0.922600 0.324294
Si Si7 0.906033 0.902527 0.220867
Si Si8 0.150712 0.805440 0.064050
O O1 0.758779 0.253569 0.253375
O O2 0.820265 0.458870 0.156670
O O3 0.500000 0.500000 0.000000
O O4 0.879276 0.257269 0.051419
O O5 0.855042 0.858071 0.632589
O O6 0.000000 0.000000 0.500000
O O7 0.977449 0.029250 0.720110
O O8 0.518132 0.089287 0.810424
O O9 0.739651 0.718902 0.091920
O O10 0.393586 0.743539 0.115749
O O11 0.320557 0.959849 0.919419
O O12 0.618955 0.822774 0.471820
O O13 0.846380 0.597904 0.729858
O O14 0.546967 0.896673 0.685941
O O15 0.000000 0.500000 0.000000
O O16 0.825559 0.855021 0.329796
O O17 0.072121 0.767632 0.178797
O O18 0.000000 0.000000 0.000000
#
# Coordination Sequence:
#
# PCOD9097612 Si02
#       8
#     2   2   2   2   2   2   2   2
#     4  11  21  40  63  90 124 157 203 259 307 362
#     4  11  20  38  65  90 122 158 205 252 304 367
#     4  11  22  38  60  88 123 162 199 255 304 361
#     4  10  24  41  62  90 121 165 198 254 309 368
#     4  11  24  39  61  89 123 162 204 248 309 366
#     4  11  23  39  60  89 124 157 206 248 306 368
#     4  11  21  36  62  93 116 155 209 253 299 360
#     4  10  20  36  61  90 116 156 201 258 301 355
#
# _framework density 22.380927
#
# number of rings (size 3 to 8) (size 9 to 14) (size 15 to 20)
#    0.000    1.250    5.000    1.875    7.000    0.500 
#    0.000    0.000    0.000    1.500    0.000    0.000 
#    0.000    0.000    0.000    0.000    0.000    0.000 
#
# Total GULP energy -89104.799331 kJ/mol
# GULP energy per Si atom -5569.049958 kJ/mol
# Density = 2.232999 g / cm^3
# Si number density = 22.380927 Si / 1000 Ang^3
#
#
#
# Elastic Constant Matrix: (Units=GPa)
#
#
# Indices 1 2 3 4 5 6 
#
# 1 49.9308 0.7967 3.0163 3.8297 -9.3913 -4.5490
# 2 0.7967 87.3085 44.0013 7.0357 -7.9959 -22.5557
# 3 3.0163 44.0013 124.7865 5.4817 -7.2843 -10.8044
# 4 3.8297 7.0357 5.4817 39.0459 2.1065 2.4764
# 5 -9.3913 -7.9959 -7.2843 2.1065 28.1661 10.2122
# 6 -4.5490 -22.5557 -10.8044 2.4764 10.2122 33.6641
#
#
#
# Elastic Compliance Matrix: (Units=1/GPa)
#
#
# Indices 1 2 3 4 5 6 
#
# 1 0.021738 0.001276 -0.000285 -0.002817 0.007112 0.001750
# 2 0.001276 0.016781 -0.004922 -0.003116 0.000562 0.009896
# 3 -0.000285 -0.004922 0.009806 -0.000496 0.001277 -0.000540
# 4 -0.002817 -0.003116 -0.000496 0.026900 -0.002577 -0.003825
# 5 0.007112 0.000562 0.001277 -0.002577 0.042533 -0.010966
# 6 0.001750 0.009896 -0.000540 -0.003825 -0.010966 0.040007
#
#
# Mechanical properties :
#
#
# Convention : Reuss Voigt Hill
#
# Bulk Modulus (GPa) = 24.71376 39.73938 32.22657
# Shear Modulus (GPa) = 27.91513 34.45600 31.18557
#
# Velocity S-wave (km/s) = 3.53551 3.92793 3.73688
# Velocity P-wave (km/s) = 5.26619 6.19403 5.74886
#
# Compressibility (1/GPa) = 0.04046329
#
# Stress axis : x y z
#
# Youngs Moduli (GPa) = 46.00276 59.58971 101.98225
#
# Poissons Ratio (x) = -0.07602 0.02905
# Poissons Ratio (y) = -0.05869 0.50193
# Poissons Ratio (z) = 0.01310 0.29328
#
# Static dielectric constant tensor:
#      x y z
#    x 1.436970 0.634800 -0.843880 
#    y 0.634800 1.142370 1.022510 
#    z -0.843880 1.022510 0.501990 
# 
# From -- ./inp_files/395764.got.cif
#   From: 2010.05.17/outbox.cif.g08.bks.cpg/sg2_198_cif.got.tgz:395764.got - 2010.06.03 11:33:40.
