data_PCOD9097925
_publ_section_title
;
Structure prediction by ZEFSAII (Michael W. Deem and Ramdas Pophale) SiO2 
 PCOD9097925
Probable space group: P -1
;
_chemical_formula_sum "Si O2"
_cell_formula_units_Z 16
_cell_length_a 10.433890
_cell_length_b 14.098489
_cell_length_c 22.774381
_cell_angle_alpha 28.716465
_cell_angle_beta 47.321495
_cell_angle_gamma 27.167232
_cell_volume 650.032827
_symmetry_space_group_name_H-M "P -1"
_symmetry_group_IT_number 2
_symmetry_cell_setting 'triclinic'
loop_
_space_group_symop_operation_xyz
x,y,z
-x,-y,-z
loop_
_atom_site_type_symbol
_atom_site_label
_atom_site_fract_x
_atom_site_fract_y
_atom_site_fract_z
Si Si1 0.566273 0.179356 0.701556
Si Si2 0.307880 0.762093 0.779023
Si Si3 0.129440 0.400962 0.210259
Si Si4 0.845585 0.747205 0.357255
Si Si5 0.254602 0.631096 0.658042
Si Si6 0.014620 0.090007 0.573258
Si Si7 0.687218 0.611030 0.954753
Si Si8 0.964111 0.304720 0.794581
O O1 0.799187 0.095804 0.637477
O O2 0.213081 0.536505 0.589324
O O3 0.541228 0.311188 0.700104
O O4 0.668928 0.856597 0.846788
O O5 0.674068 0.429659 0.825171
O O6 0.248359 0.945988 0.756000
O O7 0.209449 0.632810 0.894029
O O8 0.114620 0.041304 0.634012
O O9 0.895750 0.442801 0.245405
O O10 0.120188 0.566612 0.069708
O O11 0.056621 0.552382 0.215392
O O12 0.499111 0.980878 0.323704
O O13 0.000000 0.500000 0.500000
O O14 0.061567 0.558058 0.334675
O O15 0.315220 0.722876 0.642867
O O16 0.000000 0.000000 0.500000
O O17 0.324128 0.887411 0.905119
#
# Coordination Sequence:
#
# PCOD9097925 Si02
#       8
#     2   2   2   2   2   2   2   2
#     4  10  21  39  65  89 122 169 210 254 320 371
#     4  11  26  41  62  97 131 163 212 262 315 374
#     4  10  21  39  64  92 122 166 215 257 309 378
#     4  10  25  40  64  93 128 164 205 263 319 372
#     4  10  20  36  62  94 116 159 213 259 306 372
#     4  10  23  40  62  92 127 161 208 265 312 374
#     4  11  22  41  66  92 126 170 212 260 311 378
#     4  10  23  43  66  90 126 169 208 257 316 377
#
# _framework density 24.614139999999999
#
# number of rings (size 3 to 8) (size 9 to 14) (size 15 to 20)
#    0.000    1.750    2.500    0.375    3.500   11.000 
#    0.000    0.625    0.000    0.000    0.000    0.000 
#    0.000    0.000    0.000    0.000    0.000    0.000 
#
# Total GULP energy -89388.168795 kJ/mol
# GULP energy per Si atom -5586.760550 kJ/mol
# Density = 2.455812 g / cm^3
# Si number density = 24.614140 Si / 1000 Ang^3
#
#
#
# Elastic Constant Matrix: (Units=GPa)
#
#
# Indices 1 2 3 4 5 6 
#
# 1 55.3427 21.9713 6.6750 1.4042 -0.2703 28.4410
# 2 21.9713 108.7619 39.0427 34.0014 3.4820 29.1168
# 3 6.6750 39.0427 79.7443 19.4740 -15.2863 -1.5379
# 4 1.4042 34.0014 19.4740 33.5503 -1.6426 5.7472
# 5 -0.2703 3.4820 -15.2863 -1.6426 28.5129 3.4056
# 6 28.4410 29.1168 -1.5379 5.7472 3.4056 50.6934
#
#
#
# Elastic Compliance Matrix: (Units=1/GPa)
#
#
# Indices 1 2 3 4 5 6 
#
# 1 0.026482 -0.002328 -0.002360 0.005126 0.001268 -0.014258
# 2 -0.002328 0.018693 -0.006847 -0.013845 -0.005856 -0.007675
# 3 -0.002360 -0.006847 0.019287 -0.004631 0.010209 0.005681
# 4 0.005126 -0.013845 -0.004631 0.046488 0.001991 -0.000469
# 5 0.001268 -0.005856 0.010209 0.001991 0.041392 -0.000045
# 6 -0.014258 -0.007675 0.005681 -0.000469 -0.000045 0.032362
#
#
# Mechanical properties :
#
#
# Convention : Reuss Voigt Hill
#
# Bulk Modulus (GPa) = 24.16005 42.13634 33.14819
# Shear Modulus (GPa) = 22.56602 34.29531 28.43067
#
# Velocity S-wave (km/s) = 3.03114 3.73677 3.40230
# Velocity P-wave (km/s) = 4.69971 5.98112 5.37871
#
# Compressibility (1/GPa) = 0.04139064
#
# Stress axis : x y z
#
# Youngs Moduli (GPa) = 37.76206 53.49616 51.84784
#
# Poissons Ratio (x) = 0.12456 0.12238
# Poissons Ratio (y) = 0.08793 0.35499
# Poissons Ratio (z) = 0.08913 0.36628
#
# Static dielectric constant tensor:
#      x y z
#    x 1.971770 0.044070 0.018040 
#    y 0.044070 2.007090 0.018620 
#    z 0.018040 0.018620 1.970180 
# 
# From -- ./inp_files/595621.got.cif
#   From: 2010.05.17/outbox.cif.g08.bks.cpg/sg2_298_cif.got.tgz:595621.got - 2010.06.03 11:33:40.
