data_PCOD9097248
_publ_section_title
;
Structure prediction by ZEFSAII (Michael W. Deem and Ramdas Pophale) SiO2 
 PCOD9097248
Probable space group: P -1
;
_chemical_formula_sum "Si O2"
_cell_formula_units_Z 16
_cell_length_a 8.533403
_cell_length_b 16.834685
_cell_length_c 9.746703
_cell_angle_alpha 109.092589
_cell_angle_beta 42.467982
_cell_angle_gamma 111.271586
_cell_volume 877.020412
_symmetry_space_group_name_H-M "P -1"
_symmetry_group_IT_number 2
_symmetry_cell_setting 'triclinic'
loop_
_space_group_symop_operation_xyz
x,y,z
-x,-y,-z
loop_
_atom_site_type_symbol
_atom_site_label
_atom_site_fract_x
_atom_site_fract_y
_atom_site_fract_z
Si Si1 0.374506 0.285528 0.736812
Si Si2 0.180758 0.471689 0.559722
Si Si3 0.804601 0.027900 0.465161
Si Si4 0.458561 0.632260 0.619059
Si Si5 0.390577 0.868962 0.574408
Si Si6 0.180188 0.775722 0.932880
Si Si7 0.750955 0.058322 0.832378
Si Si8 0.338576 0.556737 0.211444
O O1 0.508238 0.350888 0.799382
O O2 0.471894 0.197578 0.625297
O O3 0.440811 0.327636 0.568444
O O4 0.093927 0.267462 0.922732
O O5 0.264412 0.547491 0.658841
O O6 0.330543 0.398720 0.454152
O O7 0.258011 0.512062 0.384094
O O8 0.899679 0.440594 0.717877
O O9 0.778824 0.095491 0.402418
O O10 0.786193 0.065493 0.649943
O O11 0.584789 0.948983 0.545912
O O12 0.042332 0.990000 0.277372
O O13 0.337603 0.703151 0.810139
O O14 0.256328 0.821914 0.764972
O O15 0.220725 0.849480 0.062811
O O16 0.500000 0.000000 0.000000
O O17 0.500000 0.500000 0.000000
#
# Coordination Sequence:
#
# PCOD9097248 Si02
#       8
#     2   2   2   2   2   2   2   2
#     4  10  21  38  57  84 115 151 187 239 285 337
#     4   9  19  39  59  84 115 150 190 233 280 341
#     4  10  22  39  62  82 115 151 194 239 295 337
#     4   9  20  37  62  84 113 154 189 231 288 336
#     4  10  21  40  60  83 112 155 192 238 287 343
#     4  11  21  37  62  84 118 150 198 235 287 345
#     4  11  22  39  59  87 115 151 191 243 289 344
#     4  10  20  36  60  83 116 149 189 234 284 335
#
# _framework density 18.243589
#
# number of rings (size 3 to 8) (size 9 to 14) (size 15 to 20)
#    0.000    2.000    2.500    0.750    0.000    3.500 
#    6.750    3.750    0.000    0.000    0.000    0.000 
#    0.000    0.000    0.000    0.000    0.000    0.000 
#
# Total GULP energy -89330.859032 kJ/mol
# GULP energy per Si atom -5583.178689 kJ/mol
# Density = 1.820207 g / cm^3
# Si number density = 18.243589 Si / 1000 Ang^3
#
#
#
# Elastic Constant Matrix: (Units=GPa)
#
#
# Indices 1 2 3 4 5 6 
#
# 1 138.6820 61.6458 59.4025 26.8957 -26.8410 -1.7315
# 2 61.6458 94.0348 50.0766 28.5121 -14.3262 -1.0285
# 3 59.4025 50.0766 104.2942 35.2902 -19.5961 9.8066
# 4 26.8957 28.5121 35.2902 31.3270 2.9901 -9.5139
# 5 -26.8410 -14.3262 -19.5961 2.9901 24.3147 -3.5223
# 6 -1.7315 -1.0285 9.8066 -9.5139 -3.5223 28.7491
#
#
#
# Elastic Compliance Matrix: (Units=1/GPa)
#
#
# Indices 1 2 3 4 5 6 
#
# 1 0.013379 -0.003798 0.000268 -0.009963 0.013824 -0.001025
# 2 -0.003798 0.019429 0.001401 -0.018437 0.009943 -0.004895
# 3 0.000268 0.001401 0.033583 -0.049572 0.030804 -0.024020
# 4 -0.009963 -0.018437 -0.049572 0.135614 -0.070981 0.051832
# 5 0.013824 0.009943 0.030804 -0.070981 0.092693 -0.021452
# 6 -0.001025 -0.004895 -0.024020 0.051832 -0.021452 0.057265
#
#
# Mechanical properties :
#
#
# Convention : Reuss Voigt Hill
#
# Bulk Modulus (GPa) = 16.09429 75.47343 45.78386
# Shear Modulus (GPa) = 13.26501 27.93725 20.60113
#
# Velocity S-wave (km/s) = 2.69941 3.91749 3.36404
# Velocity P-wave (km/s) = 4.30776 7.86905 6.34345
#
# Compressibility (1/GPa) = 0.06213386
#
# Stress axis : x y z
#
# Youngs Moduli (GPa) = 74.74384 51.46836 29.77726
#
# Poissons Ratio (x) = 0.19547 -0.00799
# Poissons Ratio (y) = 0.28387 -0.04172
# Poissons Ratio (z) = -0.02006 -0.07211
#
# Static dielectric constant tensor:
#      x y z
#    x 1.613020 0.006130 0.005180 
#    y 0.006130 1.614190 0.001750 
#    z 0.005180 0.001750 1.604640 
# 
# From -- ./inp_files/217970.got.cif
#   From: 2010.05.17/outbox.cif.g08.bks.cpg/sg2_109_cif.got.tgz:217970.got - 2010.06.03 11:33:40.
