data_PCOD9097864
_publ_section_title
;
Structure prediction by ZEFSAII (Michael W. Deem and Ramdas Pophale) SiO2 
 PCOD9097864
Probable space group: P -1
;
_chemical_formula_sum "Si O2"
_cell_formula_units_Z 16
_cell_length_a 8.436882
_cell_length_b 10.437006
_cell_length_c 20.219379
_cell_angle_alpha 43.550659
_cell_angle_beta 128.400993
_cell_angle_gamma 95.902331
_cell_volume 736.008471
_symmetry_space_group_name_H-M "P -1"
_symmetry_group_IT_number 2
_symmetry_cell_setting 'triclinic'
loop_
_space_group_symop_operation_xyz
x,y,z
-x,-y,-z
loop_
_atom_site_type_symbol
_atom_site_label
_atom_site_fract_x
_atom_site_fract_y
_atom_site_fract_z
Si Si1 0.019807 0.291720 0.117089
Si Si2 0.442152 0.885227 0.468289
Si Si3 0.648174 0.162661 0.902023
Si Si4 0.281830 0.873253 0.925934
Si Si5 0.132611 0.699651 0.430105
Si Si6 0.361657 0.194645 0.686535
Si Si7 0.689458 0.675114 0.987198
Si Si8 0.134148 0.633464 0.193556
O O1 0.889694 0.208704 0.070978
O O2 0.811836 0.430674 0.072023
O O3 0.305936 0.076365 0.301615
O O4 0.000000 0.500000 0.000000
O O5 0.236916 0.829867 0.440453
O O6 0.706954 0.607376 0.630921
O O7 0.500000 0.000000 0.500000
O O8 0.551600 0.191770 0.940373
O O9 0.472907 0.161816 0.802372
O O10 0.677854 0.353328 0.809869
O O11 0.940390 0.896478 0.079109
O O12 0.484075 0.743487 0.965651
O O13 0.049225 0.145156 0.737987
O O14 0.346521 0.414131 0.573484
O O15 0.931213 0.718215 0.421538
O O16 0.550047 0.916826 0.815221
O O17 0.942692 0.624735 0.102505
#
# Coordination Sequence:
#
# PCOD9097864 Si02
#       8
#     2   2   2   2   2   2   2   2
#     4  11  23  40  61  86 119 159 208 246 294 353
#     4  11  21  38  62  84 122 161 200 245 295 357
#     4  10  20  37  64  89 119 155 201 244 296 360
#     4  10  22  37  61  88 120 158 200 250 295 357
#     4   9  19  35  54  91 114 156 195 244 308 339
#     4   9  18  35  62  83 121 153 196 247 297 356
#     4  10  20  37  60  86 118 160 198 242 303 353
#     4  10  20  36  62  91 116 157 200 242 301 353
#
# _framework density 21.738880999999999
#
# number of rings (size 3 to 8) (size 9 to 14) (size 15 to 20)
#    0.000    2.000    2.500    1.125    0.000    4.500 
#    2.250    1.250    2.750    1.500    0.000    0.000 
#    0.000    0.000    0.000    0.000    0.000    0.000 
#
# Total GULP energy -89081.548520 kJ/mol
# GULP energy per Si atom -5567.596782 kJ/mol
# Density = 2.168940 g / cm^3
# Si number density = 21.738881 Si / 1000 Ang^3
#
#
#
# Elastic Constant Matrix: (Units=GPa)
#
#
# Indices 1 2 3 4 5 6 
#
# 1 49.0842 17.6188 20.5530 1.5382 -10.4839 18.2409
# 2 17.6188 57.2302 16.0716 1.5753 -7.2190 23.5894
# 3 20.5530 16.0716 110.0516 -22.2453 -1.9419 1.7578
# 4 1.5382 1.5753 -22.2453 35.1703 5.3521 1.8485
# 5 -10.4839 -7.2190 -1.9419 5.3521 25.3602 0.8388
# 6 18.2409 23.5894 1.7578 1.8485 0.8388 43.3355
#
#
#
# Elastic Compliance Matrix: (Units=1/GPa)
#
#
# Indices 1 2 3 4 5 6 
#
# 1 0.031335 -0.000584 -0.006754 -0.007115 0.014188 -0.012569
# 2 -0.000584 0.025472 -0.004110 -0.004231 0.008032 -0.013428
# 3 -0.006754 -0.004110 0.012609 0.008996 -0.005037 0.004282
# 4 -0.007115 -0.004231 0.008996 0.036139 -0.011203 0.003608
# 5 0.014188 0.008032 -0.005037 -0.011203 0.049914 -0.010628
# 6 -0.012569 -0.013428 0.004282 0.003608 -0.010628 0.035554
#
#
# Mechanical properties :
#
#
# Convention : Reuss Voigt Hill
#
# Bulk Modulus (GPa) = 21.49576 36.09474 28.79525
# Shear Modulus (GPa) = 21.79366 31.58137 26.68752
#
# Velocity S-wave (km/s) = 3.16969 3.81564 3.50757
# Velocity P-wave (km/s) = 4.82759 6.00433 5.44782
#
# Compressibility (1/GPa) = 0.04652079
#
# Stress axis : x y z
#
# Youngs Moduli (GPa) = 31.91316 39.25955 79.30616
#
# Poissons Ratio (x) = 0.02292 0.53562
# Poissons Ratio (y) = 0.01864 0.32594
# Poissons Ratio (z) = 0.21553 0.16135
#
# Static dielectric constant tensor:
#      x y z
#    x 1.854790 -0.017490 0.001640 
#    y -0.017490 1.854470 -0.035450 
#    z 0.001640 -0.035450 1.829560 
# 
# From -- ./inp_files/588968.got.cif
#   From: 2010.05.17/outbox.cif.g08.bks.cpg/sg2_295_cif.got.tgz:588968.got - 2010.06.03 11:33:40.
