data_PCOD9097118
_publ_section_title
;
Structure prediction by ZEFSAII (Michael W. Deem and Ramdas Pophale) SiO2 
 PCOD9097118
Probable space group: P -1
;
_chemical_formula_sum "Si O2"
_cell_formula_units_Z 16
_cell_length_a 21.405940
_cell_length_b 8.901062
_cell_length_c 20.909130
_cell_angle_alpha 125.280310
_cell_angle_beta 160.261823
_cell_angle_gamma 42.357375
_cell_volume 775.178784
_symmetry_space_group_name_H-M "P -1"
_symmetry_group_IT_number 2
_symmetry_cell_setting 'triclinic'
loop_
_space_group_symop_operation_xyz
x,y,z
-x,-y,-z
loop_
_atom_site_type_symbol
_atom_site_label
_atom_site_fract_x
_atom_site_fract_y
_atom_site_fract_z
Si Si1 0.198833 0.148052 0.753066
Si Si2 0.062851 0.007263 0.476535
Si Si3 0.573010 0.424334 0.868510
Si Si4 0.060684 0.069784 0.338693
Si Si5 0.282234 0.271054 0.545196
Si Si6 0.483547 0.928692 0.536389
Si Si7 0.020894 0.968650 0.937182
Si Si8 0.776574 0.372793 0.707076
O O1 0.157252 0.987252 0.713410
O O2 0.007548 0.435747 0.670796
O O3 0.069043 0.189398 0.569065
O O4 0.500000 0.000000 0.000000
O O5 0.333430 0.723988 0.692818
O O6 0.050701 0.048344 0.399545
O O7 0.453889 0.314248 0.749898
O O8 0.786271 0.322337 0.102847
O O9 0.725958 0.294075 0.916597
O O10 0.145488 0.820113 0.323022
O O11 0.255369 0.100648 0.516409
O O12 0.430030 0.118460 0.584526
O O13 0.219847 0.993031 0.303795
O O14 0.727302 0.618421 0.703415
O O15 0.500000 0.000000 0.500000
O O16 0.975698 0.192818 0.912228
O O17 0.000000 0.000000 0.000000
O O18 0.500000 0.500000 0.500000
#
# Coordination Sequence:
#
# PCOD9097118 Si02
#       8
#     2   2   2   2   2   2   2   2
#     4  10  23  44  66  96 130 163 221 268 319 397
#     4  10  24  42  70  93 125 176 206 268 337 373
#     4  10  22  41  62  93 131 164 218 263 313 390
#     4  11  22  42  65  95 131 169 213 265 325 381
#     4  11  22  40  65  92 130 167 211 272 319 376
#     4  11  22  37  62  93 128 172 212 263 318 381
#     4  10  20  36  59  87 127 174 211 261 318 374
#     4   9  19  37  58  85 131 167 207 260 313 379
#
# _framework density 20.6404
#
# number of rings (size 3 to 8) (size 9 to 14) (size 15 to 20)
#    0.000    1.750    3.750    1.500    7.000    1.500 
#    0.000   16.875    0.000    0.000    0.000    0.000 
#    0.000    0.000    0.000    0.000    0.000    0.000 
#
# Total GULP energy -89214.393115 kJ/mol
# GULP energy per Si atom -5575.899570 kJ/mol
# Density = 2.059342 g / cm^3
# Si number density = 20.640400 Si / 1000 Ang^3
#
#
#
# Elastic Constant Matrix: (Units=GPa)
#
#
# Indices 1 2 3 4 5 6 
#
# 1 168.5177 43.8357 29.3508 -0.3441 -7.4633 -9.5806
# 2 43.8357 88.5459 22.2937 -5.7263 -1.2900 0.8411
# 3 29.3508 22.2937 78.6135 3.2339 13.6341 -2.5268
# 4 -0.3441 -5.7263 3.2339 30.1249 -3.6730 4.2407
# 5 -7.4633 -1.2900 13.6341 -3.6730 33.2378 3.6596
# 6 -9.5806 0.8411 -2.5268 4.2407 3.6596 22.4805
#
#
#
# Elastic Compliance Matrix: (Units=1/GPa)
#
#
# Indices 1 2 3 4 5 6 
#
# 1 0.007365 -0.003140 -0.002107 -0.000427 0.002045 0.002767
# 2 -0.003140 0.014004 -0.003404 0.003696 0.002003 -0.003268
# 3 -0.002107 -0.003404 0.016109 -0.003802 -0.007970 0.003054
# 4 -0.000427 0.003696 -0.003802 0.036323 0.006576 -0.008670
# 5 0.002045 0.002003 -0.007970 0.006576 0.035401 -0.007103
# 6 0.002767 -0.003268 0.003054 -0.008670 -0.007103 0.048919
#
#
# Mechanical properties :
#
#
# Convention : Reuss Voigt Hill
#
# Bulk Modulus (GPa) = 49.56156 58.51529 54.03842
# Shear Modulus (GPa) = 27.45013 33.18177 30.31595
#
# Velocity S-wave (km/s) = 3.65077 4.01385 3.83661
# Velocity P-wave (km/s) = 6.46799 7.06348 6.77228
#
# Compressibility (1/GPa) = 0.02017693
#
# Stress axis : x y z
#
# Youngs Moduli (GPa) = 135.78096 71.40826 62.07584
#
# Poissons Ratio (x) = 0.22419 0.13082
# Poissons Ratio (y) = 0.42629 0.21128
# Poissons Ratio (z) = 0.28616 0.24305
#
# Static dielectric constant tensor:
#      x y z
#    x 1.685080 -0.034650 -0.032650 
#    y -0.034650 1.841500 0.009070 
#    z -0.032650 0.009070 1.768360 
# 
# From -- ./inp_files/315466.got.cif
#   From: 2010.05.17/outbox.cif.g08.bks.cpg/sg2_158_cif.got.tgz:315466.got - 2010.06.03 11:33:40.
