data_PCOD9097506
_publ_section_title
;
Structure prediction by ZEFSAII (Michael W. Deem and Ramdas Pophale) SiO2 
 PCOD9097506
Probable space group: P -1
;
_chemical_formula_sum "Si O2"
_cell_formula_units_Z 16
_cell_length_a 8.496422
_cell_length_b 7.042953
_cell_length_c 16.308405
_cell_angle_alpha 127.015411
_cell_angle_beta 60.421116
_cell_angle_gamma 127.422090
_cell_volume 606.151630
_symmetry_space_group_name_H-M "P -1"
_symmetry_group_IT_number 2
_symmetry_cell_setting 'triclinic'
loop_
_space_group_symop_operation_xyz
x,y,z
-x,-y,-z
loop_
_atom_site_type_symbol
_atom_site_label
_atom_site_fract_x
_atom_site_fract_y
_atom_site_fract_z
Si Si1 0.658974 0.817211 0.072808
Si Si2 0.299875 0.677584 0.019343
Si Si3 0.532388 0.752204 0.269104
Si Si4 0.271383 0.933852 0.491136
Si Si5 0.514656 0.537753 0.643049
Si Si6 0.836347 0.344004 0.238222
Si Si7 0.153711 0.463615 0.537143
Si Si8 0.923140 0.711096 0.169734
O O1 0.531536 0.841650 0.034006
O O2 0.514941 0.724552 0.168508
O O3 0.839325 0.094987 0.127657
O O4 0.738875 0.592994 0.988871
O O5 0.152277 0.815978 0.107377
O O6 0.222173 0.543591 0.915378
O O7 0.429591 0.920356 0.381010
O O8 0.425382 0.488009 0.285113
O O9 0.776511 0.853495 0.245698
O O10 0.222358 0.698772 0.511696
O O11 0.046769 0.810237 0.485401
O O12 0.361364 0.230325 0.579504
O O13 0.398669 0.714816 0.722479
O O14 0.674661 0.626659 0.552554
O O15 0.876956 0.407547 0.338817
O O16 0.944376 0.607979 0.226442
#
# Coordination Sequence:
#
# PCOD9097506 Si02
#       8
#     2   2   2   2   2   2   2   2
#     4  10  20  36  63  86 113 148 196 241 291 355
#     4   9  20  40  61  84 109 154 190 235 307 363
#     4   9  18  35  60  84 112 157 189 234 286 341
#     4  10  20  36  61  81 120 164 197 235 285 342
#     4  10  20  38  55  82 128 162 186 243 291 332
#     4  11  22  35  56  87 119 149 193 249 285 341
#     4  10  21  36  56  89 115 158 205 234 283 346
#     4   9  20  38  59  82 118 143 188 240 301 351
#
# _framework density 26.396035999999999
#
# number of rings (size 3 to 8) (size 9 to 14) (size 15 to 20)
#    0.000    2.250    0.000    3.375    1.750    1.500 
#    4.500    0.000   19.250    0.000    0.000    0.000 
#    0.000    0.000    0.000    0.000    0.000    0.000 
#
# Total GULP energy -89074.809156 kJ/mol
# GULP energy per Si atom -5567.175572 kJ/mol
# Density = 2.633596 g / cm^3
# Si number density = 26.396036 Si / 1000 Ang^3
#
#
#
# Elastic Constant Matrix: (Units=GPa)
#
#
# Indices 1 2 3 4 5 6 
#
# 1 64.7358 25.7416 27.9818 -10.2948 -5.8792 0.5971
# 2 25.7416 68.5336 29.3995 -11.3691 0.4628 9.5326
# 3 27.9818 29.3995 87.4765 -18.7412 -5.8589 12.5733
# 4 -10.2948 -11.3691 -18.7412 28.1203 -12.7139 -0.2938
# 5 -5.8792 0.4628 -5.8589 -12.7139 42.5851 -11.9341
# 6 0.5971 9.5326 12.5733 -0.2938 -11.9341 20.9028
#
#
#
# Elastic Compliance Matrix: (Units=1/GPa)
#
#
# Indices 1 2 3 4 5 6 
#
# 1 0.021233 -0.006510 -0.004292 0.005274 0.006420 0.008684
# 2 -0.006510 0.019987 -0.003167 0.001909 -0.003503 -0.008997
# 3 -0.004292 -0.003167 0.017153 0.009742 0.002734 -0.007053
# 4 0.005274 0.001909 0.009742 0.053600 0.019444 0.004973
# 5 0.006420 -0.003503 0.002734 0.019444 0.036428 0.020841
# 6 0.008684 -0.008997 -0.007053 0.004973 0.020841 0.067907
#
#
# Mechanical properties :
#
#
# Convention : Reuss Voigt Hill
#
# Bulk Modulus (GPa) = 32.85850 42.99908 37.92879
# Shear Modulus (GPa) = 19.65462 27.49651 23.57556
#
# Velocity S-wave (km/s) = 2.73171 3.23103 2.99180
# Velocity P-wave (km/s) = 4.73550 5.49952 5.13175
#
# Compressibility (1/GPa) = 0.03043352
#
# Stress axis : x y z
#
# Youngs Moduli (GPa) = 47.09637 50.03212 58.29795
#
# Poissons Ratio (x) = 0.32572 0.25023
# Poissons Ratio (y) = 0.30661 0.18466
# Poissons Ratio (z) = 0.20215 0.15847
#
# Static dielectric constant tensor:
#      x y z
#    x 2.290200 -0.018230 0.024310 
#    y -0.018230 2.077650 -0.014190 
#    z 0.024310 -0.014190 2.058450 
# 
# From -- ./inp_files/556515.got.cif
#   From: 2010.05.17/outbox.cif.g08.bks.cpg/sg2_279_cif.got.tgz:556515.got - 2010.06.03 11:33:40.
