data_PCOD9097218
_publ_section_title
;
Structure prediction by ZEFSAII (Michael W. Deem and Ramdas Pophale) SiO2 
 PCOD9097218
Probable space group: P -1
;
_chemical_formula_sum "Si O2"
_cell_formula_units_Z 16
_cell_length_a 17.669491
_cell_length_b 21.093830
_cell_length_c 13.628931
_cell_angle_alpha 20.644517
_cell_angle_beta 153.541393
_cell_angle_gamma 160.678953
_cell_volume 589.321935
_symmetry_space_group_name_H-M "P -1"
_symmetry_group_IT_number 2
_symmetry_cell_setting 'triclinic'
loop_
_space_group_symop_operation_xyz
x,y,z
-x,-y,-z
loop_
_atom_site_type_symbol
_atom_site_label
_atom_site_fract_x
_atom_site_fract_y
_atom_site_fract_z
Si Si1 0.416721 0.200659 0.736176
Si Si2 0.351788 0.269878 0.773712
Si Si3 0.199999 0.616280 0.819676
Si Si4 0.229428 0.560385 0.482297
Si Si5 0.593979 0.415310 0.155621
Si Si6 0.273735 0.179817 0.396316
Si Si7 0.798499 0.044923 0.760672
Si Si8 0.197886 0.774569 0.798250
O O1 0.302661 0.160785 0.766434
O O2 0.620896 0.497272 0.533990
O O3 0.249152 0.114267 0.576022
O O4 0.560581 0.118976 0.028100
O O5 0.616902 0.403139 0.916420
O O6 0.208830 0.066849 0.984698
O O7 0.219754 0.760121 0.729022
O O8 0.928504 0.393592 0.812231
O O9 0.265471 0.786327 0.555721
O O10 0.283840 0.629550 0.560226
O O11 0.455019 0.670475 0.525584
O O12 0.059034 0.264029 0.709596
O O13 0.381354 0.178416 0.195649
O O14 0.500000 0.500000 0.000000
O O15 0.751109 0.636537 0.939816
O O16 0.146838 0.941027 0.529272
O O17 0.000000 0.500000 0.000000
#
# Coordination Sequence:
#
# PCOD9097218 Si02
#       8
#     2   2   2   2   2   2   2   2
#     4  10  22  39  66  89 128 174 212 267 309 380
#     4  10  20  40  65  92 127 177 220 249 315 377
#     4   9  20  38  63  93 126 165 213 262 313 387
#     4   9  22  36  64  99 125 164 206 264 330 373
#     4  10  20  36  59  96 135 162 202 267 318 385
#     4  11  21  40  62  96 133 159 212 276 319 378
#     4  10  20  39  67  90 131 173 209 259 319 380
#     4  11  23  40  67  94 126 169 212 269 331 382
#
# _framework density 27.149846
#
# number of rings (size 3 to 8) (size 9 to 14) (size 15 to 20)
#    0.750    1.250    1.250    3.000    0.000    3.000 
#    0.000    0.625   11.000    8.250    0.000    0.000 
#    0.000    0.000    0.000    0.000    0.000    0.000 
#
# Total GULP energy -89537.954390 kJ/mol
# GULP energy per Si atom -5596.122149 kJ/mol
# Density = 2.708805 g / cm^3
# Si number density = 27.149846 Si / 1000 Ang^3
#
#
#
# Elastic Constant Matrix: (Units=GPa)
#
#
# Indices 1 2 3 4 5 6 
#
# 1 69.2319 22.7447 27.6674 3.1757 -16.3134 -18.5446
# 2 22.7447 119.4885 15.5035 1.6653 -3.0701 -10.4309
# 3 27.6674 15.5035 120.4996 0.2903 -10.5329 -4.4616
# 4 3.1757 1.6653 0.2903 59.3919 -2.0565 -6.5979
# 5 -16.3134 -3.0701 -10.5329 -2.0565 36.5974 5.9704
# 6 -18.5446 -10.4309 -4.4616 -6.5979 5.9704 39.9531
#
#
#
# Elastic Compliance Matrix: (Units=1/GPa)
#
#
# Indices 1 2 3 4 5 6 
#
# 1 0.020191 -0.002586 -0.003455 0.000053 0.006595 0.007334
# 2 -0.002586 0.009023 -0.000589 -0.000005 -0.000762 0.001203
# 3 -0.003455 -0.000589 0.009241 0.000099 0.001221 -0.000892
# 4 0.000053 -0.000005 0.000099 0.017163 0.000562 0.002785
# 5 0.006595 -0.000762 0.001221 0.000562 0.030831 -0.001516
# 6 0.007334 0.001203 -0.000892 0.002785 -0.001516 0.029334
#
#
# Mechanical properties :
#
#
# Convention : Reuss Voigt Hill
#
# Bulk Modulus (GPa) = 39.69154 49.00568 44.34861
# Shear Modulus (GPa) = 36.37888 43.40877 39.89383
#
# Velocity S-wave (km/s) = 3.66448 4.00291 3.83743
# Velocity P-wave (km/s) = 5.70576 6.28121 6.00039
#
# Compressibility (1/GPa) = 0.02519428
#
# Stress axis : x y z
#
# Youngs Moduli (GPa) = 49.52762 110.82545 108.20840
#
# Poissons Ratio (x) = 0.28660 0.37389
# Poissons Ratio (y) = 0.12808 0.06376
# Poissons Ratio (z) = 0.17113 0.06530
#
# Static dielectric constant tensor:
#      x y z
#    x 2.155910 0.043700 -0.004810 
#    y 0.043700 2.165360 0.033960 
#    z -0.004810 0.033960 2.151740 
# 
# From -- ./inp_files/541750.got.cif
#   From: 2010.05.17/outbox.cif.g08.bks.cpg/sg2_271_cif.got.tgz:541750.got - 2010.06.03 11:33:40.
