data_PCOD9097912
_publ_section_title
;
Structure prediction by ZEFSAII (Michael W. Deem and Ramdas Pophale) SiO2 
 PCOD9097912
Probable space group: P -1
;
_chemical_formula_sum "Si O2"
_cell_formula_units_Z 14
_cell_length_a 18.922339
_cell_length_b 18.378991
_cell_length_c 8.407625
_cell_angle_alpha 32.345226
_cell_angle_beta 31.262607
_cell_angle_gamma 23.170078
_cell_volume 571.588567
_symmetry_space_group_name_H-M "P -1"
_symmetry_group_IT_number 2
_symmetry_cell_setting 'triclinic'
loop_
_space_group_symop_operation_xyz
x,y,z
-x,-y,-z
loop_
_atom_site_type_symbol
_atom_site_label
_atom_site_fract_x
_atom_site_fract_y
_atom_site_fract_z
Si Si1 0.558153 0.641772 0.916087
Si Si2 0.459914 0.190137 0.033367
Si Si3 0.029389 0.687874 0.205509
Si Si4 0.420560 0.952677 0.377625
Si Si5 0.145279 0.088279 0.390018
Si Si6 0.126447 0.917194 0.248711
Si Si7 0.936372 0.463329 0.931590
O O1 0.753980 0.417007 0.970397
O O2 0.544674 0.739186 0.600641
O O3 0.573671 0.734500 0.863943
O O4 0.351001 0.716509 0.200316
O O5 0.675744 0.064641 0.792287
O O6 0.415639 0.062614 0.330335
O O7 0.294838 0.379096 0.894794
O O8 0.021775 0.642357 0.121472
O O9 0.991578 0.581058 0.581374
O O10 0.884735 0.915267 0.076378
O O11 0.238609 0.020804 0.507363
O O12 0.500000 0.000000 0.000000
O O13 0.979830 0.098765 0.647705
O O14 0.057919 0.298987 0.132203
O O15 0.000000 0.000000 0.500000
#
# Coordination Sequence:
#
# PCOD9097912 Si02
#       7
#     2   2   2   2   2   2   2
#     4  11  22  39  64  90 122 165 208 251 304 365
#     4  10  20  37  64  90 119 160 207 253 308 353
#     4  10  21  36  61  95 121 154 211 261 299 359
#     4  10  22  39  62  91 127 163 199 257 315 360
#     4  11  23  41  60  92 133 159 203 255 304 368
#     4  12  23  40  63  92 126 167 205 249 306 367
#     4  10  20  36  62  93 121 158 207 258 307 357
#
# _framework density 24.493143
#
# number of rings (size 3 to 8) (size 9 to 14) (size 15 to 20)
#    0.000    1.429    2.857    3.000    0.000    5.143 
#    0.000    3.571    0.000    0.000    0.000    0.000 
#    0.000    0.000    0.000    0.000    0.000    0.000 
#
# Total GULP energy -78295.976912 kJ/mol
# GULP energy per Si atom -5592.569779 kJ/mol
# Density = 2.443740 g / cm^3
# Si number density = 24.493143 Si / 1000 Ang^3
#
#
#
# Elastic Constant Matrix: (Units=GPa)
#
#
# Indices 1 2 3 4 5 6 
#
# 1 95.3152 -10.8351 12.0953 9.0518 -9.5391 -24.3546
# 2 -10.8351 73.3569 -5.1186 10.1971 3.1487 -28.7331
# 3 12.0953 -5.1186 57.3479 10.5306 -0.2215 -0.4914
# 4 9.0518 10.1971 10.5306 30.9385 -11.9584 -9.0231
# 5 -9.5391 3.1487 -0.2215 -11.9584 46.9371 -0.0284
# 6 -24.3546 -28.7331 -0.4914 -9.0231 -0.0284 36.8400
#
#
#
# Elastic Compliance Matrix: (Units=1/GPa)
#
#
# Indices 1 2 3 4 5 6 
#
# 1 0.016919 0.009551 -0.002376 -0.000942 0.002558 0.018374
# 2 0.009551 0.025723 0.001367 -0.004757 -0.000975 0.025230
# 3 -0.002376 0.001367 0.019504 -0.008015 -0.002526 -0.002209
# 4 -0.000942 -0.004757 -0.008015 0.042932 0.011031 0.006084
# 5 0.002558 -0.000975 -0.002526 0.011031 0.024691 0.003618
# 6 0.018374 0.025230 -0.002209 0.006084 0.003618 0.060433
#
#
# Mechanical properties :
#
#
# Convention : Reuss Voigt Hill
#
# Bulk Modulus (GPa) = 12.62110 24.25590 18.43850
# Shear Modulus (GPa) = 25.05940 38.26832 31.66386
#
# Velocity S-wave (km/s) = 3.20209 3.95702 3.59940
# Velocity P-wave (km/s) = 4.33997 5.54995 4.98183
#
# Compressibility (1/GPa) = 0.07923239
#
# Stress axis : x y z
#
# Youngs Moduli (GPa) = 59.10480 38.87518 51.27277
#
# Poissons Ratio (x) = -0.37131 0.12180
# Poissons Ratio (y) = -0.56453 -0.07011
# Poissons Ratio (z) = 0.14041 -0.05316
#
# Static dielectric constant tensor:
#      x y z
#    x 1.917580 0.015690 0.009560 
#    y 0.015690 2.033870 0.126710 
#    z 0.009560 0.126710 2.049230 
# 
# From -- ./inp_files/349651.got.cif
#   From: 2010.05.17/outbox.cif.g08.bks.cpg/sg2_175_cif.got.tgz:349651.got - 2010.06.03 11:33:40.
