data_PCOD9097624
_publ_section_title
;
Structure prediction by ZEFSAII (Michael W. Deem and Ramdas Pophale) SiO2 
 PCOD9097624
Probable space group: P -1
;
_chemical_formula_sum "Si O2"
_cell_formula_units_Z 16
_cell_length_a 5.102992
_cell_length_b 24.806648
_cell_length_c 24.435812
_cell_angle_alpha 11.219171
_cell_angle_beta 70.434450
_cell_angle_gamma 70.837112
_cell_volume 567.086059
_symmetry_space_group_name_H-M "P -1"
_symmetry_group_IT_number 2
_symmetry_cell_setting 'triclinic'
loop_
_space_group_symop_operation_xyz
x,y,z
-x,-y,-z
loop_
_atom_site_type_symbol
_atom_site_label
_atom_site_fract_x
_atom_site_fract_y
_atom_site_fract_z
Si Si1 0.206408 0.571639 0.830690
Si Si2 0.032126 0.285767 0.610759
Si Si3 0.302446 0.969207 0.765654
Si Si4 0.492549 0.464248 0.326953
Si Si5 0.807212 0.566718 0.761435
Si Si6 0.280974 0.222600 0.909758
Si Si7 0.308292 0.243214 0.250780
Si Si8 0.668095 0.250500 0.764333
O O1 0.516158 0.690049 0.682510
O O2 0.045045 0.526916 0.829566
O O3 0.987726 0.744473 0.710278
O O4 0.251034 0.296394 0.137966
O O5 0.891822 0.574443 0.318544
O O6 0.972448 0.242871 0.722121
O O7 0.337382 0.304472 0.546491
O O8 0.862636 0.069503 0.800127
O O9 0.512296 0.210212 0.535442
O O10 0.102163 0.209067 0.514594
O O11 0.320179 0.727031 0.052415
O O12 0.290018 0.737226 0.949444
O O13 0.726917 0.645016 0.161259
O O14 0.593296 0.230468 0.853592
O O15 0.500000 0.000000 0.500000
O O16 0.500000 0.500000 0.000000
O O17 0.500000 0.500000 0.500000
O O18 0.500000 0.000000 0.000000
#
# Coordination Sequence:
#
# PCOD9097624 Si02
#       8
#     2   2   2   2   2   2   2   2
#     4  11  26  50  80 114 158 210 248 305 378 442
#     4  10  20  36  61  90 127 172 216 286 359 449
#     4  10  26  48  64  98 132 180 246 326 360 434
#     4  11  22  45  64  94 130 171 244 297 380 430
#     4  11  26  49  74 106 148 199 260 309 372 440
#     4  10  20  36  61  90 127 172 216 286 359 449
#     4  11  26  46  77 123 165 200 248 302 364 456
#     4   8  16  31  52  87 126 162 214 268 351 446
#
# _framework density 28.214413
#
# number of rings (size 3 to 8) (size 9 to 14) (size 15 to 20)
#    0.000    1.750    1.250    1.500    1.750    5.500 
#   22.500    0.000    0.000   10.500    0.000    0.000 
#    0.000    0.000    0.000    0.000    0.000    0.000 
#
# Total GULP energy -89278.850942 kJ/mol
# GULP energy per Si atom -5579.928184 kJ/mol
# Density = 2.815020 g / cm^3
# Si number density = 28.214413 Si / 1000 Ang^3
#
#
#
# Elastic Constant Matrix: (Units=GPa)
#
#
# Indices 1 2 3 4 5 6 
#
# 1 147.3689 34.6031 53.5502 9.5546 5.7685 20.8703
# 2 34.6031 93.3221 51.4880 4.2807 -4.9511 23.5127
# 3 53.5502 51.4880 224.9384 1.8002 7.7528 13.3681
# 4 9.5546 4.2807 1.8002 34.4266 2.1013 6.8125
# 5 5.7685 -4.9511 7.7528 2.1013 35.7771 2.2736
# 6 20.8703 23.5127 13.3681 6.8125 2.2736 45.0126
#
#
#
# Elastic Compliance Matrix: (Units=1/GPa)
#
#
# Indices 1 2 3 4 5 6 
#
# 1 0.008128 -0.001689 -0.001370 -0.001476 -0.001020 -0.002205
# 2 -0.001689 0.014551 -0.002674 -0.000181 0.003267 -0.006161
# 3 -0.001370 -0.002674 0.005402 0.000429 -0.001372 0.000432
# 4 -0.001476 -0.000181 0.000429 0.030308 -0.001415 -0.003864
# 5 -0.001020 0.003267 -0.001372 -0.001415 0.029080 -0.002081
# 6 -0.002205 -0.006161 0.000432 -0.003864 -0.002081 0.027018
#
#
# Mechanical properties :
#
#
# Convention : Reuss Voigt Hill
#
# Bulk Modulus (GPa) = 60.18513 82.76801 71.47657
# Shear Modulus (GPa) = 38.02526 44.77579 41.40053
#
# Velocity S-wave (km/s) = 3.67512 3.98802 3.83476
# Velocity P-wave (km/s) = 6.27585 7.11370 6.70787
#
# Compressibility (1/GPa) = 0.01661540
#
# Stress axis : x y z
#
# Youngs Moduli (GPa) = 123.03094 68.72434 185.11309
#
# Poissons Ratio (x) = 0.11605 0.25369
# Poissons Ratio (y) = 0.20776 0.49493
# Poissons Ratio (z) = 0.16861 0.18374
#
# Static dielectric constant tensor:
#      x y z
#    x 2.207100 -0.116870 -0.014490 
#    y -0.116870 2.394750 0.022800 
#    z -0.014490 0.022800 2.163350 
# 
# From -- ./inp_files/616022.got.cif
#   From: 2010.05.17/outbox.cif.g08.bks.cpg/sg2_309_cif.got.tgz:616022.got - 2010.06.03 11:33:40.
