data_PCOD9097008
_publ_section_title
;
Structure prediction by ZEFSAII (Michael W. Deem and Ramdas Pophale) SiO2 
 PCOD9097008
Probable space group: P -1
;
_chemical_formula_sum "Si O2"
_cell_formula_units_Z 16
_cell_length_a 7.342371
_cell_length_b 6.787978
_cell_length_c 22.676166
_cell_angle_alpha 110.117601
_cell_angle_beta 124.118885
_cell_angle_gamma 108.591363
_cell_volume 661.340308
_symmetry_space_group_name_H-M "P -1"
_symmetry_group_IT_number 2
_symmetry_cell_setting 'triclinic'
loop_
_space_group_symop_operation_xyz
x,y,z
-x,-y,-z
loop_
_atom_site_type_symbol
_atom_site_label
_atom_site_fract_x
_atom_site_fract_y
_atom_site_fract_z
Si Si1 0.110313 0.334838 0.810872
Si Si2 0.754619 0.855215 0.775837
Si Si3 0.812665 0.541036 0.844024
Si Si4 0.310673 0.563887 0.443109
Si Si5 0.707240 0.212167 0.890069
Si Si6 0.604946 0.937662 0.955891
Si Si7 0.407182 0.864542 0.379820
Si Si8 0.222292 0.748820 0.611002
O O1 0.982765 0.442886 0.840417
O O2 0.907264 0.236627 0.706426
O O3 0.442810 0.613459 0.891383
O O4 0.025507 0.070970 0.803164
O O5 0.723737 0.618132 0.779172
O O6 0.467838 0.740049 0.675509
O O7 0.778585 0.042719 0.851374
O O8 0.598408 0.305672 0.829615
O O9 0.047295 0.836847 0.950390
O O10 0.500000 0.500000 0.500000
O O11 0.360732 0.636540 0.390335
O O12 0.976677 0.314390 0.376113
O O13 0.421049 0.848771 0.522925
O O14 0.519002 0.018120 0.891097
O O15 0.000000 0.500000 0.000000
O O16 0.500000 0.000000 0.000000
O O17 0.602782 0.968593 0.366519
O O18 0.000000 0.500000 0.500000
#
# Coordination Sequence:
#
# PCOD9097008 Si02
#       8
#     2   2   2   2   2   2   2   2
#     4   9  19  35  56  80 117 150 187 242 291 344
#     4  10  20  36  59  82 113 149 201 238 294 355
#     4   9  19  36  57  83 111 153 198 239 287 353
#     4  10  21  38  62  86 116 152 197 246 298 361
#     4   9  19  35  55  78 115 150 192 242 285 334
#     4   9  18  34  56  78 115 156 187 237 291 338
#     4   9  20  38  58  85 121 151 193 247 296 350
#     4   9  20  39  62  84 118 158 191 247 304 349
#
# _framework density 24.193294000000002
#
# number of rings (size 3 to 8) (size 9 to 14) (size 15 to 20)
#    0.000    2.750    0.000    0.750    1.750    6.000 
#    0.000   12.500    2.750    0.000    0.000    0.000 
#    0.000    0.000    0.000    0.000    0.000    0.000 
#
# Total GULP energy -89298.638923 kJ/mol
# GULP energy per Si atom -5581.164933 kJ/mol
# Density = 2.413823 g / cm^3
# Si number density = 24.193294 Si / 1000 Ang^3
#
#
#
# Elastic Constant Matrix: (Units=GPa)
#
#
# Indices 1 2 3 4 5 6 
#
# 1 44.0446 54.7244 -0.7247 -7.1495 1.1019 13.6420
# 2 54.7244 250.3940 47.2205 -36.3502 10.7024 37.4842
# 3 -0.7247 47.2205 92.4193 4.3117 2.2532 15.1936
# 4 -7.1495 -36.3502 4.3117 49.2377 6.2687 -7.1180
# 5 1.1019 10.7024 2.2532 6.2687 23.5264 1.2845
# 6 13.6420 37.4842 15.1936 -7.1180 1.2845 40.0932
#
#
#
# Elastic Compliance Matrix: (Units=1/GPa)
#
#
# Indices 1 2 3 4 5 6 
#
# 1 0.034427 -0.008064 0.005584 -0.002772 0.002635 -0.006867
# 2 -0.008064 0.007669 -0.003797 0.005047 -0.003985 -0.001964
# 3 0.005584 -0.003797 0.013659 -0.003993 0.001455 -0.004282
# 4 -0.002772 0.005047 -0.003993 0.025458 -0.008706 0.002536
# 5 0.002635 -0.003985 0.001455 -0.008706 0.046416 -0.000755
# 6 -0.006867 -0.001964 -0.004282 0.002536 -0.000755 0.031211
#
#
# Mechanical properties :
#
#
# Convention : Reuss Voigt Hill
#
# Bulk Modulus (GPa) = 23.14773 65.47760 44.31267
# Shear Modulus (GPa) = 26.91140 41.61396 34.26268
#
# Velocity S-wave (km/s) = 3.33881 4.15186 3.76733
# Velocity P-wave (km/s) = 4.94491 7.07863 6.10570
#
# Compressibility (1/GPa) = 0.04320078
#
# Stress axis : x y z
#
# Youngs Moduli (GPa) = 29.04709 130.39173 73.21250
#
# Poissons Ratio (x) = 1.05150 -0.40884
# Poissons Ratio (y) = 0.23424 0.27800
# Poissons Ratio (z) = -0.16221 0.49512
#
# Static dielectric constant tensor:
#      x y z
#    x 1.967130 0.062380 0.015590 
#    y 0.062380 1.973350 -0.008060 
#    z 0.015590 -0.008060 1.933050 
# 
# From -- ./inp_files/110791.got.cif
#   From: 2010.05.17/outbox.cif.g08.bks.cpg/sg2_56_cif.got.tgz:110791.got - 2010.06.03 11:33:40.
