data_PCOD9097635
_publ_section_title
;
Structure prediction by ZEFSAII (Michael W. Deem and Ramdas Pophale) SiO2 
 PCOD9097635
Probable space group: P -1
;
_chemical_formula_sum "Si O2"
_cell_formula_units_Z 16
_cell_length_a 15.273541
_cell_length_b 18.655646
_cell_length_c 11.026149
_cell_angle_alpha 148.091796
_cell_angle_beta 50.768856
_cell_angle_gamma 149.197659
_cell_volume 794.240468
_symmetry_space_group_name_H-M "P -1"
_symmetry_group_IT_number 2
_symmetry_cell_setting 'triclinic'
loop_
_space_group_symop_operation_xyz
x,y,z
-x,-y,-z
loop_
_atom_site_type_symbol
_atom_site_label
_atom_site_fract_x
_atom_site_fract_y
_atom_site_fract_z
Si Si1 0.514211 0.316342 0.417199
Si Si2 0.987198 0.604896 0.821466
Si Si3 0.276560 0.126768 0.729174
Si Si4 0.386602 0.691794 0.411582
Si Si5 0.361494 0.967890 0.861975
Si Si6 0.839643 0.751007 0.826749
Si Si7 0.871731 0.194664 0.386312
Si Si8 0.128862 0.994215 0.397984
O O1 0.581991 0.320922 0.494396
O O2 0.676972 0.574604 0.619320
O O3 0.315389 0.189147 0.436900
O O4 0.486040 0.176558 0.139233
O O5 0.171486 0.757445 0.799361
O O6 0.817825 0.496782 0.733107
O O7 0.924313 0.402847 0.644306
O O8 0.037880 0.769640 0.108340
O O9 0.485914 0.282405 0.745687
O O10 0.188152 0.934745 0.623417
O O11 0.181262 0.030663 0.544531
O O12 0.249449 0.251756 0.987180
O O13 0.451091 0.909627 0.665237
O O14 0.292738 0.974717 0.809789
O O15 0.952575 0.719127 0.695322
O O16 0.000000 0.000000 0.000000
O O17 0.000000 0.000000 0.500000
#
# Coordination Sequence:
#
# PCOD9097635 Si02
#       8
#     2   2   2   2   2   2   2   2
#     4  10  21  36  62  88 116 159 198 254 297 352
#     4  10  21  37  63  93 117 161 202 247 300 355
#     4  10  24  39  57  88 121 163 200 246 310 356
#     4  10  20  36  61  91 121 152 202 248 303 359
#     4  10  20  36  61  94 118 152 203 251 298 355
#     4  10  22  40  60  85 118 166 202 240 299 365
#     4  10  21  41  62  82 125 164 200 246 300 363
#     4  10  24  39  61  93 124 154 200 258 298 360
#
# _framework density 20.145033000000002
#
# number of rings (size 3 to 8) (size 9 to 14) (size 15 to 20)
#    0.000    2.000    0.000    3.375    7.000    5.500 
#    0.000    6.250    0.000    0.000    0.000    0.000 
#    0.000    0.000    0.000    0.000    0.000    0.000 
#
# Total GULP energy -89298.667449 kJ/mol
# GULP energy per Si atom -5581.166716 kJ/mol
# Density = 2.009918 g / cm^3
# Si number density = 20.145033 Si / 1000 Ang^3
#
#
#
# Elastic Constant Matrix: (Units=GPa)
#
#
# Indices 1 2 3 4 5 6 
#
# 1 57.9484 23.3782 18.0954 4.2702 -9.4634 8.3545
# 2 23.3782 63.9592 41.7196 2.3076 -10.1526 10.9452
# 3 18.0954 41.7196 133.8895 10.2513 8.2332 15.5985
# 4 4.2702 2.3076 10.2513 35.2602 3.0283 -4.1727
# 5 -9.4634 -10.1526 8.2332 3.0283 19.8797 -5.7407
# 6 8.3545 10.9452 15.5985 -4.1727 -5.7407 33.8932
#
#
#
# Elastic Compliance Matrix: (Units=1/GPa)
#
#
# Indices 1 2 3 4 5 6 
#
# 1 0.021612 -0.005351 -0.001293 -0.002810 0.007940 -0.002005
# 2 -0.005351 0.024861 -0.007720 0.000032 0.013071 -0.000939
# 3 -0.001293 -0.007720 0.011368 -0.002292 -0.010196 -0.004429
# 4 -0.002810 0.000032 -0.002292 0.030247 -0.003578 0.004855
# 5 0.007940 0.013071 -0.010196 -0.003578 0.068310 0.009644
# 6 -0.002005 -0.000939 -0.004429 0.004855 0.009644 0.034571
#
#
# Mechanical properties :
#
#
# Convention : Reuss Voigt Hill
#
# Bulk Modulus (GPa) = 34.35032 46.90927 40.62980
# Shear Modulus (GPa) = 21.79582 29.31355 25.55468
#
# Velocity S-wave (km/s) = 3.29286 3.81875 3.56551
# Velocity P-wave (km/s) = 5.61656 6.54065 6.09614
#
# Compressibility (1/GPa) = 0.02911181
#
# Stress axis : x y z
#
# Youngs Moduli (GPa) = 46.27014 40.22360 87.96949
#
# Poissons Ratio (x) = 0.21525 0.11373
# Poissons Ratio (y) = 0.24761 0.67914
# Poissons Ratio (z) = 0.05982 0.31053
#
# Static dielectric constant tensor:
#      x y z
#    x 1.719440 -0.022330 -0.037300 
#    y -0.022330 1.757790 0.029530 
#    z -0.037300 0.029530 1.732500 
# 
# From -- ./inp_files/258942.got.cif
#   From: 2010.05.17/outbox.cif.g08.bks.cpg/sg2_130_cif.got.tgz:258942.got - 2010.06.03 11:33:40.
