data_PCOD9097340
_publ_section_title
;
Structure prediction by ZEFSAII (Michael W. Deem and Ramdas Pophale) SiO2 
 PCOD9097340
Probable space group: P -1
;
_chemical_formula_sum "Si O2"
_cell_formula_units_Z 16
_cell_length_a 14.939842
_cell_length_b 13.913553
_cell_length_c 12.568071
_cell_angle_alpha 106.007707
_cell_angle_beta 53.709802
_cell_angle_gamma 153.619217
_cell_volume 658.394299
_symmetry_space_group_name_H-M "P -1"
_symmetry_group_IT_number 2
_symmetry_cell_setting 'triclinic'
loop_
_space_group_symop_operation_xyz
x,y,z
-x,-y,-z
loop_
_atom_site_type_symbol
_atom_site_label
_atom_site_fract_x
_atom_site_fract_y
_atom_site_fract_z
Si Si1 0.208738 0.277030 0.322118
Si Si2 0.137277 0.213662 0.609338
Si Si3 0.266359 0.027367 0.595800
Si Si4 0.523437 0.739790 0.257278
Si Si5 0.815202 0.235263 0.671396
Si Si6 0.979278 0.305548 0.789535
Si Si7 0.903564 0.321112 0.309595
Si Si8 0.779409 0.171205 0.125971
O O1 0.199973 0.271176 0.454846
O O2 0.494466 0.603021 0.188840
O O3 0.168811 0.128323 0.267534
O O4 0.870904 0.032810 0.428210
O O5 0.500000 0.500000 0.500000
O O6 0.021212 0.222315 0.734335
O O7 0.274492 0.094832 0.721875
O O8 0.662466 0.342551 0.393018
O O9 0.048895 0.744155 0.687109
O O10 0.723825 0.113950 0.814422
O O11 0.669957 0.962199 0.162293
O O12 0.916681 0.436063 0.684537
O O13 0.135957 0.444670 0.469060
O O14 0.521791 0.002455 0.721586
O O15 0.916024 0.289100 0.946843
O O16 0.000279 0.389963 0.139129
O O17 0.500000 0.000000 0.500000
#
# Coordination Sequence:
#
# PCOD9097340 Si02
#       8
#     2   2   2   2   2   2   2   2
#     4  11  20  36  69  88 104 157 199 244 296 337
#     4  11  22  40  62  94 115 143 204 250 291 354
#     4  10  20  37  59  84 122 146 203 241 281 352
#     4  10  20  36  60  88 115 157 203 237 281 350
#     4  11  21  39  58  86 122 161 202 234 278 361
#     4  11  22  41  54  89 126 153 187 260 294 338
#     4  11  21  37  59  86 115 163 206 236 273 353
#     4  11  24  37  58  86 130 158 190 239 301 339
#
# _framework density 24.301545999999998
#
# number of rings (size 3 to 8) (size 9 to 14) (size 15 to 20)
#    0.000    1.250    7.500    1.500    1.750    0.500 
#    2.250    0.625    0.000    6.750    0.000    0.000 
#    0.000    0.000    0.000    0.000    0.000    0.000 
#
# Total GULP energy -89384.655158 kJ/mol
# GULP energy per Si atom -5586.540947 kJ/mol
# Density = 2.424623 g / cm^3
# Si number density = 24.301546 Si / 1000 Ang^3
#
#
#
# Elastic Constant Matrix: (Units=GPa)
#
#
# Indices 1 2 3 4 5 6 
#
# 1 112.4709 48.4079 8.3710 8.5469 16.2810 9.6427
# 2 48.4079 122.1932 8.1306 19.1983 0.9315 -15.8116
# 3 8.3710 8.1306 36.0210 13.0592 21.0932 9.9073
# 4 8.5469 19.1983 13.0592 25.0119 1.1277 7.9327
# 5 16.2810 0.9315 21.0932 1.1277 25.8834 17.6223
# 6 9.6427 -15.8116 9.9073 7.9327 17.6223 59.4272
#
#
#
# Elastic Compliance Matrix: (Units=1/GPa)
#
#
# Indices 1 2 3 4 5 6 
#
# 1 0.012723 -0.004785 0.007916 -0.004202 -0.014171 0.000106
# 2 -0.004785 0.012444 0.002360 -0.010930 -0.002998 0.006042
# 3 0.007916 0.002360 0.094267 -0.055387 -0.091916 0.018278
# 4 -0.004202 -0.010930 -0.055387 0.082916 0.059297 -0.021644
# 5 -0.014171 -0.002998 -0.091916 0.059297 0.142727 -0.033414
# 6 0.000106 0.006042 0.018278 -0.021644 -0.033414 0.028168
#
#
# Mechanical properties :
#
#
# Convention : Reuss Voigt Hill
#
# Bulk Modulus (GPa) = 7.66784 44.50044 26.08414
# Shear Modulus (GPa) = 12.32326 35.78288 24.05307
#
# Velocity S-wave (km/s) = 2.25433 3.84142 3.14948
# Velocity P-wave (km/s) = 3.15248 6.16659 4.89719
#
# Compressibility (1/GPa) = 0.13041483
#
# Stress axis : x y z
#
# Youngs Moduli (GPa) = 78.59681 80.35746 10.60819
#
# Poissons Ratio (x) = 0.38452 -0.08397
# Poissons Ratio (y) = 0.37610 -0.02503
# Poissons Ratio (z) = -0.62216 -0.18961
#
# Static dielectric constant tensor:
#      x y z
#    x 1.956430 -0.013500 0.018490 
#    y -0.013500 1.972900 -0.027220 
#    z 0.018490 -0.027220 1.964450 
# 
# From -- ./inp_files/453883.got.cif
#   From: 2010.05.17/outbox.cif.g08.bks.cpg/sg2_227_cif.got.tgz:453883.got - 2010.06.03 11:33:40.
