data_PCOD9097799
_publ_section_title
;
Structure prediction by ZEFSAII (Michael W. Deem and Ramdas Pophale) SiO2 
 PCOD9097799
Probable space group: P -1
;
_chemical_formula_sum "Si O2"
_cell_formula_units_Z 16
_cell_length_a 24.075773
_cell_length_b 5.301878
_cell_length_c 9.135983
_cell_angle_alpha 69.160244
_cell_angle_beta 138.293869
_cell_angle_gamma 102.738734
_cell_volume 723.203624
_symmetry_space_group_name_H-M "P -1"
_symmetry_group_IT_number 2
_symmetry_cell_setting 'triclinic'
loop_
_space_group_symop_operation_xyz
x,y,z
-x,-y,-z
loop_
_atom_site_type_symbol
_atom_site_label
_atom_site_fract_x
_atom_site_fract_y
_atom_site_fract_z
Si Si1 0.838537 0.711374 0.111278
Si Si2 0.309173 0.060408 0.061236
Si Si3 0.865096 0.389774 0.794780
Si Si4 0.013243 0.962129 0.707856
Si Si5 0.405965 0.549888 0.251872
Si Si6 0.321261 0.937354 0.800003
Si Si7 0.864251 0.260517 0.495567
Si Si8 0.765505 0.860208 0.660023
O O1 0.863301 0.468546 0.317193
O O2 0.922157 0.807609 0.184146
O O3 0.784888 0.924498 0.066154
O O4 0.775092 0.675572 0.860483
O O5 0.362439 0.272597 0.204943
O O6 0.353952 0.761368 0.212253
O O7 0.311971 0.140594 0.877910
O O8 0.894078 0.371765 0.686721
O O9 0.822076 0.680372 0.692761
O O10 0.800710 0.146106 0.720196
O O11 0.935900 0.301349 0.071602
O O12 0.000000 0.000000 0.500000
O O13 0.928298 0.018889 0.617775
O O14 0.500000 0.500000 0.500000
O O15 0.393722 0.716856 0.039398
O O16 0.232485 0.799723 0.662535
O O17 0.320182 0.069061 0.611175
#
# Coordination Sequence:
#
# PCOD9097799 Si02
#       8
#     2   2   2   2   2   2   2   2
#     4  11  21  38  58  88 120 160 200 244 300 347
#     4  10  20  36  62  88 119 149 194 236 294 350
#     4  10  23  40  56  82 115 159 210 250 293 332
#     4  11  23  36  56  85 124 164 204 251 295 344
#     4  10  21  37  65  93 116 145 194 243 292 353
#     4   9  21  36  62  86 117 153 201 238 296 339
#     4  11  20  39  58  85 118 161 210 250 289 342
#     4  10  22  37  60  84 119 154 199 247 294 351
#
# _framework density 22.123781999999999
#
# number of rings (size 3 to 8) (size 9 to 14) (size 15 to 20)
#    0.750    1.000    1.250    3.375    1.750    5.000 
#    0.000    5.625    0.000    1.500    0.000    0.000 
#    0.000    0.000    0.000    0.000    0.000    0.000 
#
# Total GULP energy -89184.614709 kJ/mol
# GULP energy per Si atom -5574.038419 kJ/mol
# Density = 2.207343 g / cm^3
# Si number density = 22.123782 Si / 1000 Ang^3
#
#
#
# Elastic Constant Matrix: (Units=GPa)
#
#
# Indices 1 2 3 4 5 6 
#
# 1 18.3830 8.8597 21.4418 7.0780 -8.1991 -5.9139
# 2 8.8597 88.8563 19.6023 3.9170 9.1576 -10.1955
# 3 21.4418 19.6023 162.0419 -5.6609 -7.7089 -1.3582
# 4 7.0780 3.9170 -5.6609 32.7830 -4.6405 -2.2407
# 5 -8.1991 9.1576 -7.7089 -4.6405 36.0436 -3.1092
# 6 -5.9139 -10.1955 -1.3582 -2.2407 -3.1092 27.0812
#
#
#
# Elastic Compliance Matrix: (Units=1/GPa)
#
#
# Indices 1 2 3 4 5 6 
#
# 1 0.090556 -0.005831 -0.010803 -0.016790 0.019148 0.017847
# 2 -0.005831 0.012921 -0.001023 -0.000926 -0.004695 0.002924
# 3 -0.010803 -0.001023 0.007823 0.003630 -0.000237 -0.002079
# 4 -0.016790 -0.000926 0.003630 0.035047 0.001640 -0.000745
# 5 0.019148 -0.004695 -0.000237 0.001640 0.034009 0.006442
# 6 0.017847 0.002924 -0.002079 -0.000745 0.006442 0.042498
#
#
# Mechanical properties :
#
#
# Convention : Reuss Voigt Hill
#
# Bulk Modulus (GPa) = 13.16046 41.00988 27.08517
# Shear Modulus (GPa) = 17.63688 33.80672 25.72180
#
# Velocity S-wave (km/s) = 2.82652 3.91330 3.41344
# Velocity P-wave (km/s) = 4.07600 6.24462 5.27300
#
# Compressibility (1/GPa) = 0.07598518
#
# Stress axis : x y z
#
# Youngs Moduli (GPa) = 11.04295 77.39087 127.83475
#
# Poissons Ratio (x) = 0.45129 1.38102
# Poissons Ratio (y) = 0.06439 0.13074
# Poissons Ratio (z) = 0.11930 0.07915
#
# Static dielectric constant tensor:
#      x y z
#    x 1.846870 0.013250 -0.057820 
#    y 0.013250 1.843640 0.006310 
#    z -0.057820 0.006310 1.888360 
# 
# From -- ./inp_files/355976.got.cif
#   From: 2010.05.17/outbox.cif.g08.bks.cpg/sg2_178_cif.got.tgz:355976.got - 2010.06.03 11:33:40.
