data_PCOD9097254
_publ_section_title
;
Structure prediction by ZEFSAII (Michael W. Deem and Ramdas Pophale) SiO2 
 PCOD9097254
Probable space group: P -1
;
_chemical_formula_sum "Si O2"
_cell_formula_units_Z 10
_cell_length_a 12.083724
_cell_length_b 7.020126
_cell_length_c 17.529871
_cell_angle_alpha 130.169177
_cell_angle_beta 25.561904
_cell_angle_gamma 139.844179
_cell_volume 408.462512
_symmetry_space_group_name_H-M "P -1"
_symmetry_group_IT_number 2
_symmetry_cell_setting 'triclinic'
loop_
_space_group_symop_operation_xyz
x,y,z
-x,-y,-z
loop_
_atom_site_type_symbol
_atom_site_label
_atom_site_fract_x
_atom_site_fract_y
_atom_site_fract_z
Si Si1 0.058781 0.464976 0.798083
Si Si2 0.783429 0.875145 0.484882
Si Si3 0.156452 0.462169 0.493412
Si Si4 0.863764 0.701381 0.837622
Si Si5 0.151392 0.235265 0.897887
O O1 0.425122 0.704646 0.642620
O O2 0.033607 0.166852 0.707742
O O3 0.936549 0.560695 0.827770
O O4 0.894627 0.501380 0.982471
O O5 0.809958 0.701093 0.495679
O O6 0.923077 0.206089 0.514164
O O7 0.493826 0.644641 0.295991
O O8 0.041251 0.664338 0.648347
O O9 0.500000 0.500000 0.000000
O O10 0.991916 0.039349 0.870741
O O11 0.000000 0.000000 0.000000
#
# Coordination Sequence:
#
# PCOD9097254 Si02
#       5
#     2   2   2   2   2
#     4   9  19  37  56  82 113 142 184 231 276 328
#     4   9  19  37  59  82 110 145 186 229 277 328
#     4  10  20  36  60  84 111 147 184 228 278 330
#     4  10  20  37  58  80 112 148 187 230 275 330
#     4  10  21  37  55  82 115 147 186 227 274 330
#
# _framework density 24.482050999999998
#
# number of rings (size 3 to 8) (size 9 to 14) (size 15 to 20)
#    0.000    2.400    0.000    1.800    0.000    1.600 
#    0.000   28.000    0.000    0.000    0.000    0.000 
#    0.000    0.000    0.000    0.000    0.000    0.000 
#
# Total GULP energy -55978.004890 kJ/mol
# GULP energy per Si atom -5597.800489 kJ/mol
# Density = 2.442633 g / cm^3
# Si number density = 24.482051 Si / 1000 Ang^3
#
#
#
# Elastic Constant Matrix: (Units=GPa)
#
#
# Indices 1 2 3 4 5 6 
#
# 1 122.3876 48.6262 38.5764 16.4952 -11.5661 20.5382
# 2 48.6262 148.2753 77.3333 41.9609 -5.1568 26.4300
# 3 38.5764 77.3333 195.0748 41.2426 0.3522 32.6005
# 4 16.4952 41.9609 41.2426 49.5914 9.6370 1.1165
# 5 -11.5661 -5.1568 0.3522 9.6370 47.3656 -3.5847
# 6 20.5382 26.4300 32.6005 1.1165 -3.5847 50.1497
#
#
#
# Elastic Compliance Matrix: (Units=1/GPa)
#
#
# Indices 1 2 3 4 5 6 
#
# 1 0.009987 -0.002073 -0.000384 -0.001650 0.002359 -0.002543
# 2 -0.002073 0.011243 -0.001850 -0.007595 0.002007 -0.003561
# 3 -0.000384 -0.001850 0.007494 -0.004515 0.000294 -0.003618
# 4 -0.001650 -0.007595 -0.004515 0.032162 -0.007257 0.006379
# 5 0.002359 0.002007 0.000294 -0.007257 0.023352 -0.000385
# 6 -0.002543 -0.003561 -0.003618 0.006379 -0.000385 0.025041
#
#
# Mechanical properties :
#
#
# Convention : Reuss Voigt Hill
#
# Bulk Modulus (GPa) = 49.72266 88.31216 69.01741
# Shear Modulus (GPa) = 40.12975 49.50145 44.81560
#
# Velocity S-wave (km/s) = 4.05303 4.50149 4.28313
# Velocity P-wave (km/s) = 6.50052 7.94785 7.26034
#
# Compressibility (1/GPa) = 0.02011156
#
# Stress axis : x y z
#
# Youngs Moduli (GPa) = 100.12617 88.94729 133.43656
#
# Poissons Ratio (x) = 0.18438 0.05120
# Poissons Ratio (y) = 0.20755 0.24683
# Poissons Ratio (z) = 0.03842 0.16453
#
# Static dielectric constant tensor:
#      x y z
#    x 1.998220 -0.054640 0.055610 
#    y -0.054640 1.987390 0.056300 
#    z 0.055610 0.056300 1.865300 
# 
# From -- ./inp_files/16482.got.cif
#   From: 2010.05.17/outbox.cif.g08.bks.cpg/sg2_9_cif.got.tgz:16482.got - 2010.06.03 11:33:40.
