data_PCOD9097533
_publ_section_title
;
Structure prediction by ZEFSAII (Michael W. Deem and Ramdas Pophale) SiO2 
 PCOD9097533
Probable space group: P -1
;
_chemical_formula_sum "Si O2"
_cell_formula_units_Z 16
_cell_length_a 10.554273
_cell_length_b 9.347552
_cell_length_c 12.559565
_cell_angle_alpha 147.232365
_cell_angle_beta 72.461332
_cell_angle_gamma 100.488646
_cell_volume 633.316445
_symmetry_space_group_name_H-M "P -1"
_symmetry_group_IT_number 2
_symmetry_cell_setting 'triclinic'
loop_
_space_group_symop_operation_xyz
x,y,z
-x,-y,-z
loop_
_atom_site_type_symbol
_atom_site_label
_atom_site_fract_x
_atom_site_fract_y
_atom_site_fract_z
Si Si1 0.627060 0.192647 0.214800
Si Si2 0.096627 0.633007 0.205619
Si Si3 0.654262 0.879857 0.392818
Si Si4 0.172432 0.460702 0.708105
Si Si5 0.198322 0.005397 0.760225
Si Si6 0.652230 0.886568 0.793231
Si Si7 0.369139 0.634192 0.060630
Si Si8 0.073838 0.964965 0.203981
O O1 0.731670 0.406395 0.312731
O O2 0.467255 0.293475 0.304938
O O3 0.683258 0.048405 0.218290
O O4 0.648749 0.987396 0.979950
O O5 0.046610 0.812819 0.226819
O O6 0.973043 0.646915 0.328943
O O7 0.133880 0.315436 0.979190
O O8 0.248290 0.701801 0.217841
O O9 0.724759 0.781059 0.421677
O O10 0.737370 0.056845 0.409852
O O11 0.667253 0.596478 0.151475
O O12 0.500000 0.000000 0.500000
O O13 0.135664 0.714196 0.957157
O O14 0.059838 0.880795 0.719695
O O15 0.810585 0.843386 0.696803
O O16 0.605091 0.127545 0.873623
O O17 0.500000 0.500000 0.000000
#
# Coordination Sequence:
#
# PCOD9097533 Si02
#       8
#     2   2   2   2   2   2   2   2
#     4  10  19  28  46  74 113 132 160 206 262 316
#     4   9  15  27  51  73 100 129 166 217 259 284
#     4  11  20  33  53  75 100 135 177 215 253 300
#     4  10  16  31  47  71 105 131 163 210 259 296
#     4  10  17  29  47  75  96 129 175 206 247 308
#     4   9  17  29  44  73 109 137 152 204 275 306
#     4  10  18  32  54  80 103 128 174 217 253 303
#     4   9  14  27  50  70 101 127 168 214 257 291
#
# _framework density 25.263829999999999
#
# number of rings (size 3 to 8) (size 9 to 14) (size 15 to 20)
#    0.000    2.250    6.250    2.250    0.000    4.500 
#    0.000    0.625    0.000    0.750    0.000    0.875 
#    0.000    0.000    0.000    0.000    0.000    0.000 
#
# Total GULP energy -89122.516961 kJ/mol
# GULP energy per Si atom -5570.157310 kJ/mol
# Density = 2.520633 g / cm^3
# Si number density = 25.263830 Si / 1000 Ang^3
#
#
#
# Elastic Constant Matrix: (Units=GPa)
#
#
# Indices 1 2 3 4 5 6 
#
# 1 149.1430 14.0857 11.3528 8.2808 -22.8096 4.0462
# 2 14.0857 49.8131 8.1366 -11.4778 -4.4031 7.5275
# 3 11.3528 8.1366 63.1280 -2.8250 5.8558 9.6464
# 4 8.2808 -11.4778 -2.8250 13.5332 8.8010 -2.3508
# 5 -22.8096 -4.4031 5.8558 8.8010 47.0815 1.2477
# 6 4.0462 7.5275 9.6464 -2.3508 1.2477 44.1563
#
#
#
# Elastic Compliance Matrix: (Units=1/GPa)
#
#
# Indices 1 2 3 4 5 6 
#
# 1 0.009315 -0.005057 -0.002294 -0.015228 0.007185 -0.000504
# 2 -0.005057 0.028442 -0.000535 0.030104 -0.005284 -0.002516
# 3 -0.002294 -0.000535 0.017525 0.007064 -0.004582 -0.003022
# 4 -0.015228 0.030104 0.007064 0.130039 -0.029815 0.002486
# 5 0.007185 -0.005284 -0.004582 -0.029815 0.030402 -0.001203
# 6 -0.000504 -0.002516 -0.003022 0.002486 -0.001203 0.023948
#
#
# Mechanical properties :
#
#
# Convention : Reuss Voigt Hill
#
# Bulk Modulus (GPa) = 25.30955 36.58159 30.94557
# Shear Modulus (GPa) = 18.61411 36.18813 27.40112
#
# Velocity S-wave (km/s) = 2.71733 3.78882 3.29690
# Velocity P-wave (km/s) = 4.45926 5.80099 5.17381
#
# Compressibility (1/GPa) = 0.03951078
#
# Stress axis : x y z
#
# Youngs Moduli (GPa) = 107.34996 35.15918 57.06073
#
# Poissons Ratio (x) = 0.17780 0.13092
# Poissons Ratio (y) = 0.54285 0.03050
# Poissons Ratio (z) = 0.24631 0.01880
#
# Static dielectric constant tensor:
#      x y z
#    x 2.104660 0.123770 0.048130 
#    y 0.123770 2.044880 -0.043540 
#    z 0.048130 -0.043540 2.080000 
# 
# From -- ./inp_files/513811.got.cif
#   From: 2010.05.17/outbox.cif.g08.bks.cpg/sg2_257_cif.got.tgz:513811.got - 2010.06.03 11:33:40.
