data_PCOD9097602
_publ_section_title
;
Structure prediction by ZEFSAII (Michael W. Deem and Ramdas Pophale) SiO2 
 PCOD9097602
Probable space group: P -1
;
_chemical_formula_sum "Si O2"
_cell_formula_units_Z 16
_cell_length_a 18.230667
_cell_length_b 7.460421
_cell_length_c 17.972058
_cell_angle_alpha 124.189287
_cell_angle_beta 160.768266
_cell_angle_gamma 55.598250
_cell_volume 660.667328
_symmetry_space_group_name_H-M "P -1"
_symmetry_group_IT_number 2
_symmetry_cell_setting 'triclinic'
loop_
_space_group_symop_operation_xyz
x,y,z
-x,-y,-z
loop_
_atom_site_type_symbol
_atom_site_label
_atom_site_fract_x
_atom_site_fract_y
_atom_site_fract_z
Si Si1 0.089117 0.284084 0.906992
Si Si2 0.206510 0.272072 0.276985
Si Si3 0.277591 0.946276 0.734364
Si Si4 0.618525 0.416053 0.670231
Si Si5 0.200779 0.627354 0.814868
Si Si6 0.986379 0.960336 0.086082
Si Si7 0.702333 0.720469 0.302486
Si Si8 0.033870 0.280224 0.678715
O O1 0.064387 0.267688 0.792203
O O2 0.903132 0.488369 0.796778
O O3 0.061840 0.076502 0.883162
O O4 0.309005 0.379187 0.168812
O O5 0.457009 0.300699 0.542304
O O6 0.062794 0.185893 0.185366
O O7 0.205372 0.106410 0.167990
O O8 0.290356 0.082247 0.702429
O O9 0.117301 0.039511 0.671180
O O10 0.218375 0.708823 0.595329
O O11 0.500000 0.000000 0.000000
O O12 0.500000 0.500000 0.500000
O O13 0.815470 0.228532 0.792444
O O14 0.250608 0.499912 0.754086
O O15 0.174869 0.450025 0.813777
O O16 0.933665 0.729261 0.574196
O O17 0.438491 0.730605 0.080062
#
# Coordination Sequence:
#
# PCOD9097602 Si02
#       8
#     2   2   2   2   2   2   2   2
#     4  11  22  40  58  90 129 163 204 258 317 372
#     4  10  20  37  61  89 120 165 206 252 302 373
#     4  10  23  41  63  87 117 164 213 262 326 393
#     4  11  18  36  63  90 123 168 206 249 306 377
#     4   9  19  36  59  89 116 155 204 262 319 380
#     4  10  20  36  61  89 124 160 207 250 304 370
#     4   9  19  35  63  87 115 153 210 263 314 386
#     4  10  24  40  60  86 123 162 207 269 327 385
#
# _framework density 24.217938
#
# number of rings (size 3 to 8) (size 9 to 14) (size 15 to 20)
#    0.000    2.000    2.500    1.125   10.500    1.000 
#    2.250    0.000    0.000    0.000    0.000    0.000 
#    0.000    0.000    0.000    0.000    0.000    0.000 
#
# Total GULP energy -89103.827475 kJ/mol
# GULP energy per Si atom -5568.989217 kJ/mol
# Density = 2.416282 g / cm^3
# Si number density = 24.217938 Si / 1000 Ang^3
#
#
#
# Elastic Constant Matrix: (Units=GPa)
#
#
# Indices 1 2 3 4 5 6 
#
# 1 136.2416 31.5410 75.1985 29.1456 -4.5754 34.3816
# 2 31.5410 36.9097 34.5051 12.4418 4.9042 23.6698
# 3 75.1985 34.5051 150.5253 27.8227 10.3766 15.0220
# 4 29.1456 12.4418 27.8227 32.2046 10.4967 2.9466
# 5 -4.5754 4.9042 10.3766 10.4967 36.4381 9.7851
# 6 34.3816 23.6698 15.0220 2.9466 9.7851 36.3716
#
#
#
# Elastic Compliance Matrix: (Units=1/GPa)
#
#
# Indices 1 2 3 4 5 6 
#
# 1 0.019608 0.009824 -0.007340 -0.017830 0.014938 -0.024472
# 2 0.009824 0.070210 -0.012077 -0.026285 0.016866 -0.052398
# 3 -0.007340 -0.012077 0.012020 0.001948 -0.006336 0.011380
# 4 -0.017830 -0.026285 0.001948 0.061005 -0.026307 0.035290
# 5 0.014938 0.016866 -0.006336 -0.026307 0.045159 -0.032498
# 6 -0.024472 -0.052398 0.011380 0.035290 -0.032498 0.085910
#
#
# Mechanical properties :
#
#
# Convention : Reuss Voigt Hill
#
# Bulk Modulus (GPa) = 12.09889 67.35174 39.72532
# Shear Modulus (GPa) = 14.67793 33.16499 23.92146
#
# Velocity S-wave (km/s) = 2.46453 3.70461 3.14627
# Velocity P-wave (km/s) = 3.62012 6.79484 5.44404
#
# Compressibility (1/GPa) = 0.08265223
#
# Stress axis : x y z
#
# Youngs Moduli (GPa) = 50.99899 14.24302 83.19740
#
# Poissons Ratio (x) = -0.13993 0.61065
# Poissons Ratio (y) = -0.50104 1.00481
# Poissons Ratio (z) = 0.37432 0.17202
#
# Static dielectric constant tensor:
#      x y z
#    x 1.872470 0.025070 -0.221250 
#    y 0.025070 1.955310 0.205170 
#    z -0.221250 0.205170 0.896660 
# 
# From -- ./inp_files/575457.got.cif
#   From: 2010.05.17/outbox.cif.g08.bks.cpg/sg2_288_cif.got.tgz:575457.got - 2010.06.03 11:33:40.
