data_PCOD9097740
_publ_section_title
;
Structure prediction by ZEFSAII (Michael W. Deem and Ramdas Pophale) SiO2 
 PCOD9097740
Probable space group: P -1
;
_chemical_formula_sum "Si O2"
_cell_formula_units_Z 14
_cell_length_a 22.711927
_cell_length_b 9.312497
_cell_length_c 12.718884
_cell_angle_alpha 132.958264
_cell_angle_beta 39.986046
_cell_angle_gamma 153.330168
_cell_volume 775.859975
_symmetry_space_group_name_H-M "P -1"
_symmetry_group_IT_number 2
_symmetry_cell_setting 'triclinic'
loop_
_space_group_symop_operation_xyz
x,y,z
-x,-y,-z
loop_
_atom_site_type_symbol
_atom_site_label
_atom_site_fract_x
_atom_site_fract_y
_atom_site_fract_z
Si Si1 0.884070 0.378592 0.784576
Si Si2 0.853785 0.730015 0.635452
Si Si3 0.796692 0.564831 0.864553
Si Si4 0.672830 0.824186 0.952573
Si Si5 0.218681 0.819470 0.585002
Si Si6 0.355119 0.275105 0.820435
Si Si7 0.316778 0.032775 0.325125
O O1 0.889737 0.611488 0.850866
O O2 0.042246 0.570481 0.702866
O O3 0.756117 0.129233 0.922048
O O4 0.823387 0.156795 0.654112
O O5 0.884967 0.744602 0.724155
O O6 0.757260 0.763712 0.780807
O O7 0.767394 0.391967 0.544110
O O8 0.000000 0.000000 0.500000
O O9 0.674175 0.188566 0.816192
O O10 0.723453 0.644079 0.037283
O O11 0.500000 0.500000 0.000000
O O12 0.685172 0.880135 0.088089
O O13 0.298498 0.048532 0.689281
O O14 0.281495 0.007036 0.482100
O O15 0.532531 0.609341 0.737521
#
# Coordination Sequence:
#
# PCOD9097740 Si02
#       7
#     2   2   2   2   2   2   2
#     4  10  20  36  62  81 116 151 203 226 282 349
#     4  10  20  37  60  85 115 157 197 234 286 355
#     4   8  20  35  60  84 112 152 202 223 282 354
#     4  11  21  39  63  83 114 160 199 235 282 357
#     4  11  22  35  59  91 118 147 191 250 294 330
#     4  11  21  37  59  89 118 149 189 246 298 332
#     4   9  19  36  60  80 112 154 196 229 280 354
#
# _framework density 18.044494
#
# number of rings (size 3 to 8) (size 9 to 14) (size 15 to 20)
#    0.857    1.143    2.857    1.286    0.000    2.286 
#    0.000    0.714    3.143    0.000    0.000    0.000 
#    0.000    0.000    0.000    0.000    0.000    0.000 
#
# Total GULP energy -78002.360831 kJ/mol
# GULP energy per Si atom -5571.597202 kJ/mol
# Density = 1.800342 g / cm^3
# Si number density = 18.044494 Si / 1000 Ang^3
#
#
#
# Elastic Constant Matrix: (Units=GPa)
#
#
# Indices 1 2 3 4 5 6 
#
# 1 53.0314 9.7177 -2.6513 -4.9055 13.4458 -9.9652
# 2 9.7177 40.5908 14.1294 -6.8773 11.2612 -5.9467
# 3 -2.6513 14.1294 36.4933 -10.6197 18.8207 -2.1746
# 4 -4.9055 -6.8773 -10.6197 29.9202 3.6390 8.8756
# 5 13.4458 11.2612 18.8207 3.6390 27.4781 -1.6211
# 6 -9.9652 -5.9467 -2.1746 8.8756 -1.6211 26.6044
#
#
#
# Elastic Compliance Matrix: (Units=1/GPa)
#
#
# Indices 1 2 3 4 5 6 
#
# 1 0.032104 -0.003848 0.026418 0.016155 -0.034021 0.005862
# 2 -0.003848 0.030984 -0.008483 0.003093 -0.005212 0.003442
# 3 0.026418 -0.008483 0.080182 0.040273 -0.069889 -0.003141
# 4 0.016155 0.003093 0.040273 0.060440 -0.045522 -0.012903
# 5 -0.034021 -0.005212 -0.069889 -0.045522 0.109205 0.002220
# 6 0.005862 0.003442 -0.003141 -0.012903 0.002220 0.044736
#
#
# Mechanical properties :
#
#
# Convention : Reuss Voigt Hill
#
# Bulk Modulus (GPa) = 5.83273 19.16746 12.50010
# Shear Modulus (GPa) = 12.93242 24.06185 18.49713
#
# Velocity S-wave (km/s) = 2.68002 3.65564 3.20517
# Velocity P-wave (km/s) = 3.57996 5.33513 4.54311
#
# Compressibility (1/GPa) = 0.17144632
#
# Stress axis : x y z
#
# Youngs Moduli (GPa) = 31.14838 32.27447 12.47161
#
# Poissons Ratio (x) = 0.12418 -0.32948
# Poissons Ratio (y) = 0.11985 0.10580
# Poissons Ratio (z) = -0.82289 0.27378
#
# Static dielectric constant tensor:
#      x y z
#    x 1.651020 -0.025150 0.002330 
#    y -0.025150 1.602870 -0.005100 
#    z 0.002330 -0.005100 1.607350 
# 
# From -- ./inp_files/216499.got.cif
#   From: 2010.05.17/outbox.cif.g08.bks.cpg/sg2_109_cif.got.tgz:216499.got - 2010.06.03 11:33:40.
