data_PCOD9097725
_publ_section_title
;
Structure prediction by ZEFSAII (Michael W. Deem and Ramdas Pophale) SiO2 
 PCOD9097725
Probable space group: P -1
;
_chemical_formula_sum "Si O2"
_cell_formula_units_Z 14
_cell_length_a 5.530800
_cell_length_b 14.717987
_cell_length_c 9.640200
_cell_angle_alpha 92.056689
_cell_angle_beta 77.081560
_cell_angle_gamma 71.770514
_cell_volume 721.721764
_symmetry_space_group_name_H-M "P -1"
_symmetry_group_IT_number 2
_symmetry_cell_setting 'triclinic'
loop_
_space_group_symop_operation_xyz
x,y,z
-x,-y,-z
loop_
_atom_site_type_symbol
_atom_site_label
_atom_site_fract_x
_atom_site_fract_y
_atom_site_fract_z
Si Si1 0.375712 0.898397 0.337190
Si Si2 0.582080 0.370397 0.343177
Si Si3 0.076993 0.107593 0.404842
Si Si4 0.866659 0.179453 0.147588
Si Si5 0.234430 0.260098 0.533111
Si Si6 0.475584 0.112126 0.994601
Si Si7 0.177578 0.558437 0.418906
O O1 0.609526 0.822658 0.386185
O O2 0.109208 0.892867 0.441246
O O3 0.330606 0.012156 0.365899
O O4 0.417214 0.874434 0.169819
O O5 0.744346 0.292017 0.209140
O O6 0.413705 0.314221 0.442197
O O7 0.407830 0.474404 0.310389
O O8 0.729788 0.400685 0.452803
O O9 0.148708 0.203366 0.418374
O O10 0.920531 0.117708 0.281368
O O11 0.661441 0.145115 0.080431
O O12 0.160012 0.162975 0.050217
O O13 0.992500 0.345731 0.633863
O O14 0.500000 0.000000 0.000000
O O15 0.000000 0.500000 0.500000
#
# Coordination Sequence:
#
# PCOD9097725 Si02
#       7
#     2   2   2   2   2   2   2
#     4  11  25  38  60  93 132 173 220 262 330 381
#     4  10  20  36  61  99 121 164 215 274 328 380
#     4  11  23  38  65  92 126 171 222 277 313 383
#     4  12  24  44  66  91 134 171 220 266 321 385
#     4  11  19  37  62  94 128 162 212 277 329 377
#     4  12  28  43  63  92 137 182 217 264 321 394
#     4   9  19  33  61  96 127 153 209 284 329 376
#
# _framework density 19.398057999999999
#
# number of rings (size 3 to 8) (size 9 to 14) (size 15 to 20)
#    0.000    1.143    4.286    1.714    4.000    1.143 
#    0.000    0.000    0.000    1.714    0.000    0.000 
#    0.000    0.000    0.000    0.000    0.000    0.000 
#
# Total GULP energy -78037.457322 kJ/mol
# GULP energy per Si atom -5574.104094 kJ/mol
# Density = 1.935391 g / cm^3
# Si number density = 19.398058 Si / 1000 Ang^3
#
#
#
# Elastic Constant Matrix: (Units=GPa)
#
#
# Indices 1 2 3 4 5 6 
#
# 1 108.5974 56.5804 54.0526 21.8699 7.4849 4.8760
# 2 56.5804 155.0502 42.1882 38.9056 5.4060 -37.7976
# 3 54.0526 42.1882 111.6237 13.1514 -3.4003 -7.6432
# 4 21.8699 38.9056 13.1514 32.9651 -2.1070 -4.2469
# 5 7.4849 5.4060 -3.4003 -2.1070 23.9166 7.5398
# 6 4.8760 -37.7976 -7.6432 -4.2469 7.5398 51.9631
#
#
#
# Elastic Compliance Matrix: (Units=1/GPa)
#
#
# Indices 1 2 3 4 5 6 
#
# 1 0.015673 -0.004296 -0.005980 -0.003844 -0.003456 -0.005288
# 2 -0.004296 0.014343 -0.001332 -0.012603 -0.006525 0.010557
# 3 -0.005980 -0.001332 0.012426 0.000943 0.003720 0.000958
# 4 -0.003844 -0.012603 0.000943 0.047232 0.010335 -0.006308
# 5 -0.003456 -0.006525 0.003720 0.010335 0.049005 -0.010141
# 6 -0.005288 0.010557 0.000958 -0.006308 -0.010141 0.028517
#
#
# Mechanical properties :
#
#
# Convention : Reuss Voigt Hill
#
# Bulk Modulus (GPa) = 52.01380 75.65709 63.83544
# Shear Modulus (GPa) = 25.40399 36.59896 31.00148
#
# Velocity S-wave (km/s) = 3.62279 4.34837 4.00205
# Velocity P-wave (km/s) = 6.66120 8.01861 7.37122
#
# Compressibility (1/GPa) = 0.01922567
#
# Stress axis : x y z
#
# Youngs Moduli (GPa) = 63.80411 69.71916 80.47931
#
# Poissons Ratio (x) = 0.29954 0.48128
# Poissons Ratio (y) = 0.27413 0.10716
# Poissons Ratio (z) = 0.38156 0.09283
#
# Static dielectric constant tensor:
#      x y z
#    x 1.764170 -0.051320 -0.005090 
#    y -0.051320 1.750710 0.042560 
#    z -0.005090 0.042560 1.690940 
# 
# From -- ./inp_files/56972.got.cif
#   From: 2010.05.17/outbox.cif.g08.bks.cpg/sg2_29_cif.got.tgz:56972.got - 2010.06.03 11:33:40.
