data_PCOD9097552
_publ_section_title
;
Structure prediction by ZEFSAII (Michael W. Deem and Ramdas Pophale) SiO2 
 PCOD9097552
Probable space group: P -1
;
_chemical_formula_sum "Si O2"
_cell_formula_units_Z 16
_cell_length_a 16.328578
_cell_length_b 9.934898
_cell_length_c 8.158061
_cell_angle_alpha 88.339804
_cell_angle_beta 138.403845
_cell_angle_gamma 111.261812
_cell_volume 753.427868
_symmetry_space_group_name_H-M "P -1"
_symmetry_group_IT_number 2
_symmetry_cell_setting 'triclinic'
loop_
_space_group_symop_operation_xyz
x,y,z
-x,-y,-z
loop_
_atom_site_type_symbol
_atom_site_label
_atom_site_fract_x
_atom_site_fract_y
_atom_site_fract_z
Si Si1 0.420743 0.056296 0.002755
Si Si2 0.038485 0.123843 0.410676
Si Si3 0.142593 0.405441 0.777797
Si Si4 0.883031 0.184467 0.912612
Si Si5 0.294144 0.687227 0.467981
Si Si6 0.193307 0.709288 0.684059
Si Si7 0.746138 0.882861 0.506670
Si Si8 0.203670 0.354155 0.230449
O O1 0.367364 0.148463 0.804326
O O2 0.287731 0.891567 0.869691
O O3 0.541637 0.171710 0.305338
O O4 0.500000 0.000000 0.000000
O O5 0.142735 0.297167 0.634280
O O6 0.110050 0.074824 0.378329
O O7 0.000000 0.000000 0.500000
O O8 0.910344 0.130844 0.129536
O O9 0.213877 0.586633 0.827309
O O10 0.973805 0.343635 0.558485
O O11 0.202715 0.373416 0.033705
O O12 0.814117 0.292918 0.813928
O O13 0.776135 0.033257 0.650294
O O14 0.038378 0.271418 0.052097
O O15 0.236544 0.691828 0.563850
O O16 0.282841 0.524114 0.424535
O O17 0.726029 0.745391 0.600731
#
# Coordination Sequence:
#
# PCOD9097552 Si02
#       8
#     2   2   2   2   2   2   2   2
#     4  10  20  40  63  86 115 159 207 239 293 353
#     4  11  22  34  58  92 126 155 190 245 315 353
#     4  11  22  36  59  92 126 157 186 252 309 348
#     4  11  20  36  62  91 119 153 202 248 295 352
#     4  11  22  38  63  90 118 161 204 247 285 356
#     4  10  20  36  61  87 122 157 198 243 298 352
#     4  11  21  39  63  88 119 158 198 251 296 359
#     4  11  22  36  60  93 123 149 203 251 301 345
#
# _framework density 21.236274000000002
#
# number of rings (size 3 to 8) (size 9 to 14) (size 15 to 20)
#    0.000    1.250    3.750    5.625    3.500    0.500 
#    0.000    0.625    0.000    3.750    0.000    0.000 
#    0.000    0.000    0.000    0.000    0.000    0.000 
#
# Total GULP energy -89413.363812 kJ/mol
# GULP energy per Si atom -5588.335238 kJ/mol
# Density = 2.118794 g / cm^3
# Si number density = 21.236274 Si / 1000 Ang^3
#
#
#
# Elastic Constant Matrix: (Units=GPa)
#
#
# Indices 1 2 3 4 5 6 
#
# 1 27.8338 10.4523 0.0037 1.2891 -11.3730 7.4159
# 2 10.4523 128.7970 34.6317 -27.6799 0.8117 1.9269
# 3 0.0037 34.6317 65.1218 -11.0332 2.8100 8.7619
# 4 1.2891 -27.6799 -11.0332 37.7906 -3.1295 -17.3982
# 5 -11.3730 0.8117 2.8100 -3.1295 21.8418 -2.1981
# 6 7.4159 1.9269 8.7619 -17.3982 -2.1981 22.3770
#
#
#
# Elastic Compliance Matrix: (Units=1/GPa)
#
#
# Indices 1 2 3 4 5 6 
#
# 1 0.061469 -0.011416 0.006050 -0.024289 0.024323 -0.038253
# 2 -0.011416 0.013919 -0.006948 0.016869 -0.001310 0.018292
# 3 0.006050 -0.006948 0.019981 -0.006070 -0.001450 -0.014092
# 4 -0.024289 0.016869 -0.006070 0.066036 0.003069 0.060618
# 5 0.024323 -0.001310 -0.001450 0.003069 0.059206 0.000822
# 6 -0.038253 0.018292 -0.014092 0.060618 0.000822 0.108521
#
#
# Mechanical properties :
#
#
# Convention : Reuss Voigt Hill
#
# Bulk Modulus (GPa) = 14.13630 34.65867 24.39749
# Shear Modulus (GPa) = 13.25064 28.17953 20.71508
#
# Velocity S-wave (km/s) = 2.50063 3.64669 3.12662
# Velocity P-wave (km/s) = 3.87411 5.83841 4.95458
#
# Compressibility (1/GPa) = 0.07073986
#
# Stress axis : x y z
#
# Youngs Moduli (GPa) = 16.26828 71.84563 50.04834
#
# Poissons Ratio (x) = 0.82020 -0.30278
# Poissons Ratio (y) = 0.18572 0.34774
# Poissons Ratio (z) = -0.09842 0.49918
#
# Static dielectric constant tensor:
#      x y z
#    x 1.769200 0.018530 -0.003760 
#    y 0.018530 1.815120 -0.029080 
#    z -0.003760 -0.029080 1.796820 
# 
# From -- ./inp_files/282063.got.cif
#   From: 2010.05.17/outbox.cif.g08.bks.cpg/sg2_142_cif.got.tgz:282063.got - 2010.06.03 11:33:40.
