data_PCOD9097913
_publ_section_title
;
Structure prediction by ZEFSAII (Michael W. Deem and Ramdas Pophale) SiO2 
 PCOD9097913
Probable space group: P -1
;
_chemical_formula_sum "Si O2"
_cell_formula_units_Z 16
_cell_length_a 19.391486
_cell_length_b 5.328326
_cell_length_c 18.083382
_cell_angle_alpha 76.996570
_cell_angle_beta 20.729600
_cell_angle_gamma 74.164774
_cell_volume 633.748343
_symmetry_space_group_name_H-M "P -1"
_symmetry_group_IT_number 2
_symmetry_cell_setting 'triclinic'
loop_
_space_group_symop_operation_xyz
x,y,z
-x,-y,-z
loop_
_atom_site_type_symbol
_atom_site_label
_atom_site_fract_x
_atom_site_fract_y
_atom_site_fract_z
Si Si1 0.794875 0.630674 0.054216
Si Si2 0.346444 0.063872 0.040404
Si Si3 0.676451 0.235877 0.782832
Si Si4 0.559851 0.137766 0.187588
Si Si5 0.884712 0.693763 0.538869
Si Si6 0.827163 0.847138 0.157085
Si Si7 0.117593 0.542293 0.174800
Si Si8 0.530393 0.714190 0.578932
O O1 0.888530 0.656510 0.038269
O O2 0.585399 0.530318 0.283379
O O3 0.734852 0.918596 0.060787
O O4 0.921885 0.463450 0.873230
O O5 0.456505 0.216222 0.978885
O O6 0.487601 0.987496 0.833156
O O7 0.302101 0.819622 0.147417
O O8 0.152088 0.250896 0.193356
O O9 0.811467 0.979850 0.627529
O O10 0.721148 0.513877 0.697363
O O11 0.416916 0.213743 0.394847
O O12 0.665311 0.379687 0.047048
O O13 0.000000 0.500000 0.500000
O O14 0.985699 0.713241 0.356377
O O15 0.717459 0.706086 0.339305
O O16 0.646062 0.065025 0.291736
O O17 0.000000 0.000000 0.000000
#
# Coordination Sequence:
#
# PCOD9097913 Si02
#       8
#     2   2   2   2   2   2   2   2
#     4   9  19  37  60  87 119 166 209 252 316 388
#     4  10  22  39  61  88 118 166 208 265 321 386
#     4  11  26  39  62  92 128 160 215 276 325 380
#     4   9  19  37  62  83 116 165 208 247 315 386
#     4  12  24  41  60  92 123 166 211 270 326 382
#     4  10  20  36  62  93 122 158 206 259 318 385
#     4  10  21  37  66  82 121 167 212 256 322 388
#     4   9  19  38  60  87 123 164 203 258 315 389
#
# _framework density 25.246614999999998
#
# number of rings (size 3 to 8) (size 9 to 14) (size 15 to 20)
#    0.000    2.000    1.250    1.500    5.250    1.500 
#    2.250    0.000    0.000    0.000    0.000    0.000 
#    0.000    0.000    0.000    0.000    0.000    0.000 
#
# Total GULP energy -89382.666526 kJ/mol
# GULP energy per Si atom -5586.416658 kJ/mol
# Density = 2.518915 g / cm^3
# Si number density = 25.246615 Si / 1000 Ang^3
#
#
#
# Elastic Constant Matrix: (Units=GPa)
#
#
# Indices 1 2 3 4 5 6 
#
# 1 124.2504 27.0443 69.9598 9.5386 47.3716 31.2084
# 2 27.0443 95.1021 40.4496 4.0706 12.5904 7.1146
# 3 69.9598 40.4496 133.4735 6.4336 34.6194 10.7016
# 4 9.5386 4.0706 6.4336 41.6575 4.8281 4.2538
# 5 47.3716 12.5904 34.6194 4.8281 45.1849 5.3429
# 6 31.2084 7.1146 10.7016 4.2538 5.3429 38.6601
#
#
#
# Elastic Compliance Matrix: (Units=1/GPa)
#
#
# Indices 1 2 3 4 5 6 
#
# 1 0.020330 -0.000436 -0.005477 -0.000691 -0.015431 -0.012606
# 2 -0.000436 0.012161 -0.003299 -0.000459 -0.000250 -0.000888
# 3 -0.005477 -0.003299 0.011897 -0.000166 -0.002688 0.002125
# 4 -0.000691 -0.000459 -0.000166 0.024586 -0.001432 -0.001819
# 5 -0.015431 -0.000250 -0.002688 -0.001432 0.039654 0.007924
# 6 -0.012606 -0.000888 0.002125 -0.001819 0.007924 0.034723
#
#
# Mechanical properties :
#
#
# Convention : Reuss Voigt Hill
#
# Bulk Modulus (GPa) = 38.51428 69.74815 54.13122
# Shear Modulus (GPa) = 29.33752 39.45867 34.39809
#
# Velocity S-wave (km/s) = 3.41257 3.95768 3.69519
# Velocity P-wave (km/s) = 5.55120 6.96929 6.30027
#
# Compressibility (1/GPa) = 0.02596440
#
# Stress axis : x y z
#
# Youngs Moduli (GPa) = 49.18883 82.22833 84.05197
#
# Poissons Ratio (x) = 0.03586 0.46037
# Poissons Ratio (y) = 0.02145 0.27727
# Poissons Ratio (z) = 0.26942 0.27125
#
# Static dielectric constant tensor:
#      x y z
#    x 2.032460 0.024450 -0.012230 
#    y 0.024450 2.046000 0.016750 
#    z -0.012230 0.016750 2.033640 
# 
# From -- ./inp_files/120080.got.cif
#   From: 2010.05.17/outbox.cif.g08.bks.cpg/sg2_61_cif.got.tgz:120080.got - 2010.06.03 11:33:40.
