data_PCOD9097894
_publ_section_title
;
Structure prediction by ZEFSAII (Michael W. Deem and Ramdas Pophale) SiO2 
 PCOD9097894
Probable space group: P -1
;
_chemical_formula_sum "Si O2"
_cell_formula_units_Z 16
_cell_length_a 8.934865
_cell_length_b 12.125699
_cell_length_c 7.940914
_cell_angle_alpha 116.724745
_cell_angle_beta 64.551269
_cell_angle_gamma 113.041336
_cell_volume 672.598279
_symmetry_space_group_name_H-M "P -1"
_symmetry_group_IT_number 2
_symmetry_cell_setting 'triclinic'
loop_
_space_group_symop_operation_xyz
x,y,z
-x,-y,-z
loop_
_atom_site_type_symbol
_atom_site_label
_atom_site_fract_x
_atom_site_fract_y
_atom_site_fract_z
Si Si1 0.577480 0.146848 0.358232
Si Si2 0.215956 0.481184 0.619622
Si Si3 0.035062 0.731010 0.196943
Si Si4 0.345296 0.886469 0.332182
Si Si5 0.518235 0.670158 0.734514
Si Si6 0.198624 0.164068 0.100980
Si Si7 0.064263 0.693704 0.773644
Si Si8 0.078578 0.034426 0.715437
O O1 0.577777 0.163400 0.571972
O O2 0.490246 0.241867 0.364215
O O3 0.774939 0.184052 0.232666
O O4 0.486506 0.001273 0.261987
O O5 0.331024 0.575268 0.768756
O O6 0.351871 0.417899 0.421803
O O7 0.137833 0.574722 0.605821
O O8 0.068367 0.373068 0.697980
O O9 0.231567 0.782422 0.193927
O O10 0.953565 0.853261 0.308640
O O11 0.016065 0.675529 0.980018
O O12 0.205872 0.958186 0.524399
O O13 0.606998 0.766997 0.903338
O O14 0.088003 0.270885 0.227439
O O15 0.163673 0.099714 0.891577
O O16 0.103279 0.059275 0.209850
#
# Coordination Sequence:
#
# PCOD9097894 Si02
#       8
#     2   2   2   2   2   2   2   2
#     4  10  22  40  58  90 125 151 200 248 295 359
#     4  10  22  40  62  86 120 157 211 246 285 354
#     4  11  22  38  64  91 120 160 197 247 303 347
#     4  11  21  38  61  92 123 157 194 247 301 357
#     4  10  21  41  62  87 120 163 199 247 299 346
#     4  10  20  38  63  92 118 157 196 241 308 352
#     4  10  22  41  61  87 123 157 202 248 288 358
#     4  10  20  36  62  92 122 150 197 247 292 371
#
# _framework density 23.788343999999999
#
# number of rings (size 3 to 8) (size 9 to 14) (size 15 to 20)
#    0.000    1.750    1.250    3.000    0.000    1.000 
#   13.500    2.500    0.000    0.000    0.000    0.000 
#    0.000    0.000    0.000    0.000    0.000    0.000 
#
# Total GULP energy -89551.459979 kJ/mol
# GULP energy per Si atom -5596.966249 kJ/mol
# Density = 2.373420 g / cm^3
# Si number density = 23.788344 Si / 1000 Ang^3
#
#
#
# Elastic Constant Matrix: (Units=GPa)
#
#
# Indices 1 2 3 4 5 6 
#
# 1 103.7111 49.3814 13.0107 18.1421 13.6684 11.2721
# 2 49.3814 115.5004 5.9458 -0.7421 12.5289 -0.4557
# 3 13.0107 5.9458 37.6737 12.6341 12.0299 -5.1077
# 4 18.1421 -0.7421 12.6341 25.1165 6.7517 -8.4648
# 5 13.6684 12.5289 12.0299 6.7517 36.5330 15.4181
# 6 11.2721 -0.4557 -5.1077 -8.4648 15.4181 50.9580
#
#
#
# Elastic Compliance Matrix: (Units=1/GPa)
#
#
# Indices 1 2 3 4 5 6 
#
# 1 0.016151 -0.007210 -0.001393 -0.014128 0.002389 -0.006846
# 2 -0.007210 0.012366 -0.000081 0.008539 -0.005055 0.004645
# 3 -0.001393 -0.000081 0.035303 -0.012039 -0.011040 0.005187
# 4 -0.014128 0.008539 -0.012039 0.065422 -0.012836 0.016746
# 5 0.002389 -0.005055 -0.011040 -0.012836 0.041074 -0.016240
# 6 -0.006846 0.004645 0.005187 0.016746 -0.016240 0.029395
#
#
# Mechanical properties :
#
#
# Convention : Reuss Voigt Hill
#
# Bulk Modulus (GPa) = 21.52780 43.72902 32.62841
# Shear Modulus (GPa) = 21.49944 35.09132 28.29538
#
# Velocity S-wave (km/s) = 3.00956 3.84493 3.45260
# Velocity P-wave (km/s) = 4.59847 6.17526 5.44425
#
# Compressibility (1/GPa) = 0.04645156
#
# Stress axis : x y z
#
# Youngs Moduli (GPa) = 61.91683 80.86392 28.32586
#
# Poissons Ratio (x) = 0.58306 0.03946
# Poissons Ratio (y) = 0.44644 0.00230
# Poissons Ratio (z) = 0.08625 0.00656
#
# Static dielectric constant tensor:
#      x y z
#    x 1.908210 0.001360 0.007120 
#    y 0.001360 1.876060 0.053850 
#    z 0.007120 0.053850 1.952390 
# 
# From -- ./inp_files/181483.got.cif
#   From: 2010.05.17/outbox.cif.g08.bks.cpg/sg2_91_cif.got.tgz:181483.got - 2010.06.03 11:33:40.
