data_PCOD9097405
_publ_section_title
;
Structure prediction by ZEFSAII (Michael W. Deem and Ramdas Pophale) SiO2 
 PCOD9097405
Probable space group: P -1
;
_chemical_formula_sum "Si O2"
_cell_formula_units_Z 16
_cell_length_a 9.178405
_cell_length_b 18.699156
_cell_length_c 9.069641
_cell_angle_alpha 69.349305
_cell_angle_beta 107.616527
_cell_angle_gamma 145.310212
_cell_volume 828.760607
_symmetry_space_group_name_H-M "P -1"
_symmetry_group_IT_number 2
_symmetry_cell_setting 'triclinic'
loop_
_space_group_symop_operation_xyz
x,y,z
-x,-y,-z
loop_
_atom_site_type_symbol
_atom_site_label
_atom_site_fract_x
_atom_site_fract_y
_atom_site_fract_z
Si Si1 0.536748 0.968838 0.188047
Si Si2 0.487751 0.321413 0.465792
Si Si3 0.698497 0.236127 0.522736
Si Si4 0.802794 0.769388 0.256377
Si Si5 0.259954 0.132569 0.058159
Si Si6 0.742166 0.574071 0.418687
Si Si7 0.046391 0.087449 0.334107
Si Si8 0.593984 0.947261 0.714770
O O1 0.333034 0.824223 0.290159
O O2 0.540339 0.033073 0.272408
O O3 0.795024 0.023398 0.234893
O O4 0.500000 0.000000 0.000000
O O5 0.616537 0.291394 0.486788
O O6 0.388009 0.284632 0.630148
O O7 0.658713 0.464542 0.385541
O O8 0.222661 0.220053 0.369841
O O9 0.518529 0.124201 0.424719
O O10 0.991574 0.343966 0.482647
O O11 0.800888 0.678992 0.286352
O O12 0.693496 0.771448 0.082263
O O13 0.097301 0.910449 0.289723
O O14 0.205163 0.121588 0.220158
O O15 0.452101 0.139027 0.116608
O O16 0.000000 0.000000 0.000000
O O17 0.500000 0.500000 0.500000
O O18 0.000000 0.000000 0.500000
#
# Coordination Sequence:
#
# PCOD9097405 Si02
#       8
#     2   2   2   2   2   2   2   2
#     4  12  25  36  62 101 137 157 199 263 329 379
#     4  11  23  40  65  89 121 168 218 256 303 384
#     4  12  23  40  65  91 127 162 212 261 316 372
#     4  10  21  39  63  91 127 164 203 256 324 370
#     4  10  20  36  60  90 130 161 193 249 326 379
#     4  10  24  42  64  87 120 169 219 259 307 372
#     4  12  22  39  63  98 127 164 208 260 318 378
#     4  11  22  37  63  96 125 160 204 260 316 381
#
# _framework density 19.305938999999999
#
# number of rings (size 3 to 8) (size 9 to 14) (size 15 to 20)
#    0.000    1.000    3.750    4.500    5.250    0.000 
#    0.000    0.625    0.000    3.000    0.000    0.000 
#    0.000    0.000    0.000    0.000    0.000    0.000 
#
# Total GULP energy -89113.082675 kJ/mol
# GULP energy per Si atom -5569.567667 kJ/mol
# Density = 1.926200 g / cm^3
# Si number density = 19.305939 Si / 1000 Ang^3
#
#
#
# Elastic Constant Matrix: (Units=GPa)
#
#
# Indices 1 2 3 4 5 6 
#
# 1 96.3269 29.2576 15.7432 -4.7342 14.6054 -10.3188
# 2 29.2576 101.3167 39.8608 -6.5565 14.6405 -18.0542
# 3 15.7432 39.8608 98.6579 4.0259 14.4928 -13.7072
# 4 -4.7342 -6.5565 4.0259 12.1792 -3.3970 4.5627
# 5 14.6054 14.6405 14.4928 -3.3970 30.2659 1.4971
# 6 -10.3188 -18.0542 -13.7072 4.5627 1.4971 42.8737
#
#
#
# Elastic Compliance Matrix: (Units=1/GPa)
#
#
# Indices 1 2 3 4 5 6 
#
# 1 0.012081 -0.002356 -0.000104 0.001482 -0.004567 0.001884
# 2 -0.002356 0.013703 -0.004547 0.005980 -0.002802 0.003211
# 3 -0.000104 -0.004547 0.013741 -0.009994 -0.005636 0.003714
# 4 0.001482 0.005980 -0.009994 0.096866 0.012597 -0.011069
# 5 -0.004567 -0.002802 -0.005636 0.012597 0.041052 -0.006855
# 6 0.001884 0.003211 0.003714 -0.011069 -0.006855 0.027735
#
#
# Mechanical properties :
#
#
# Convention : Reuss Voigt Hill
#
# Bulk Modulus (GPa) = 39.19641 51.78052 45.48847
# Shear Modulus (GPa) = 21.95911 31.15976 26.55943
#
# Velocity S-wave (km/s) = 3.37624 4.02182 3.71308
# Velocity P-wave (km/s) = 5.96200 6.96031 6.48041
#
# Compressibility (1/GPa) = 0.02551254
#
# Stress axis : x y z
#
# Youngs Moduli (GPa) = 82.77373 72.97451 72.77298
#
# Poissons Ratio (x) = 0.17195 0.00754
# Poissons Ratio (y) = 0.19504 0.33088
# Poissons Ratio (z) = 0.00857 0.33180
#
# Static dielectric constant tensor:
#      x y z
#    x 1.628770 0.153840 0.134470 
#    y 0.153840 1.580650 -0.175370 
#    z 0.134470 -0.175370 1.563490 
# 
# From -- ./inp_files/217338.got.cif
#   From: 2010.05.17/outbox.cif.g08.bks.cpg/sg2_109_cif.got.tgz:217338.got - 2010.06.03 11:33:40.
