data_PCOD9097831
_publ_section_title
;
Structure prediction by ZEFSAII (Michael W. Deem and Ramdas Pophale) SiO2 
 PCOD9097831
Probable space group: P -1
;
_chemical_formula_sum "Si O2"
_cell_formula_units_Z 16
_cell_length_a 10.728148
_cell_length_b 18.172334
_cell_length_c 12.529352
_cell_angle_alpha 32.609644
_cell_angle_beta 43.094368
_cell_angle_gamma 28.969675
_cell_volume 637.373742
_symmetry_space_group_name_H-M "P -1"
_symmetry_group_IT_number 2
_symmetry_cell_setting 'triclinic'
loop_
_space_group_symop_operation_xyz
x,y,z
-x,-y,-z
loop_
_atom_site_type_symbol
_atom_site_label
_atom_site_fract_x
_atom_site_fract_y
_atom_site_fract_z
Si Si1 0.271446 0.784810 0.117578
Si Si2 0.397799 0.124348 0.249115
Si Si3 0.264128 0.769350 0.814467
Si Si4 0.736441 0.711749 0.650604
Si Si5 0.528568 0.026371 0.071943
Si Si6 0.481387 0.409152 0.349299
Si Si7 0.039049 0.605474 0.252222
Si Si8 0.745065 0.198071 0.664246
O O1 0.357017 0.622795 0.181847
O O2 0.248357 0.723813 0.323561
O O3 0.470931 0.801210 0.950593
O O4 0.000000 0.000000 0.000000
O O5 0.207419 0.261270 0.298335
O O6 0.608467 0.907622 0.429510
O O7 0.324941 0.109755 0.193092
O O8 0.505964 0.720008 0.777628
O O9 0.323068 0.716966 0.716286
O O10 0.181187 0.663692 0.037289
O O11 0.028091 0.995879 0.705420
O O12 0.965074 0.509813 0.695284
O O13 0.590244 0.151120 0.864364
O O14 0.785241 0.809375 0.207523
O O15 0.500000 0.000000 0.000000
O O16 0.234109 0.454311 0.407735
O O17 0.613788 0.310100 0.500005
#
# Coordination Sequence:
#
# PCOD9097831 Si02
#       8
#     2   2   2   2   2   2   2   2
#     4  11  21  39  61  83 120 160 196 240 294 351
#     4  10  21  37  59  84 118 156 189 241 293 344
#     4  10  20  37  62  88 119 152 190 243 301 347
#     4  10  20  36  62  90 117 147 202 240 287 352
#     4  10  23  41  58  81 123 160 191 239 298 353
#     4  11  20  35  62  92 114 146 199 251 287 345
#     4  10  21  38  62  89 111 156 200 239 294 350
#     4  10  22  37  58  91 115 152 198 242 297 344
#
# _framework density 25.103012
#
# number of rings (size 3 to 8) (size 9 to 14) (size 15 to 20)
#    0.000    1.750    0.000    6.750    3.500    0.500 
#    2.250    0.625    8.250    0.000    0.000    0.000 
#    0.000    0.000    0.000    0.000    0.000    0.000 
#
# Total GULP energy -89301.046952 kJ/mol
# GULP energy per Si atom -5581.315434 kJ/mol
# Density = 2.504588 g / cm^3
# Si number density = 25.103012 Si / 1000 Ang^3
#
#
#
# Elastic Constant Matrix: (Units=GPa)
#
#
# Indices 1 2 3 4 5 6 
#
# 1 51.1452 37.1445 19.4652 13.7309 21.8822 33.3955
# 2 37.1445 101.1916 35.5505 26.4845 17.8453 54.2407
# 3 19.4652 35.5505 76.0003 12.6667 16.0293 24.1390
# 4 13.7309 26.4845 12.6667 32.9386 17.0598 14.3074
# 5 21.8822 17.8453 16.0293 17.0598 43.4334 4.4857
# 6 33.3955 54.2407 24.1390 14.3074 4.4857 50.3194
#
#
#
# Elastic Compliance Matrix: (Units=1/GPa)
#
#
# Indices 1 2 3 4 5 6 
#
# 1 0.050265 0.004957 0.001729 0.004473 -0.025779 -0.038507
# 2 0.004957 0.027785 -0.002171 -0.006925 -0.007337 -0.029575
# 3 0.001729 -0.002171 0.016948 0.000270 -0.005668 -0.006509
# 4 0.004473 -0.006925 0.000270 0.045728 -0.016731 -0.007143
# 5 -0.025779 -0.007337 -0.005668 -0.016731 0.044746 0.028505
# 6 -0.038507 -0.029575 -0.006509 -0.007143 0.028505 0.079921
#
#
# Mechanical properties :
#
#
# Convention : Reuss Voigt Hill
#
# Bulk Modulus (GPa) = 9.61268 45.85083 27.73175
# Shear Modulus (GPa) = 17.17980 34.41673 25.79827
#
# Velocity S-wave (km/s) = 2.61889 3.70675 3.20925
# Velocity P-wave (km/s) = 3.60311 6.05183 4.98031
#
# Compressibility (1/GPa) = 0.10402924
#
# Stress axis : x y z
#
# Youngs Moduli (GPa) = 19.89437 35.99087 59.00269
#
# Poissons Ratio (x) = -0.17842 -0.10202
# Poissons Ratio (y) = -0.09862 0.12810
# Poissons Ratio (z) = -0.03440 0.07814
#
# Static dielectric constant tensor:
#      x y z
#    x 1.942510 -0.329260 0.086100 
#    y -0.329260 1.625460 0.015340 
#    z 0.086100 0.015340 2.075550 
# 
# From -- ./inp_files/346014.got.cif
#   From: 2010.05.17/outbox.cif.g08.bks.cpg/sg2_174_cif.got.tgz:346014.got - 2010.06.03 11:33:40.
