data_PCOD9097189
_publ_section_title
;
Structure prediction by ZEFSAII (Michael W. Deem and Ramdas Pophale) SiO2 
 PCOD9097189
Probable space group: P -1
;
_chemical_formula_sum "Si O2"
_cell_formula_units_Z 14
_cell_length_a 12.098216
_cell_length_b 11.905798
_cell_length_c 9.282925
_cell_angle_alpha 45.563619
_cell_angle_beta 143.138047
_cell_angle_gamma 119.095836
_cell_volume 564.147907
_symmetry_space_group_name_H-M "P -1"
_symmetry_group_IT_number 2
_symmetry_cell_setting 'triclinic'
loop_
_space_group_symop_operation_xyz
x,y,z
-x,-y,-z
loop_
_atom_site_type_symbol
_atom_site_label
_atom_site_fract_x
_atom_site_fract_y
_atom_site_fract_z
Si Si1 0.546600 0.170824 0.944595
Si Si2 0.277484 0.202051 0.005243
Si Si3 0.839105 0.103027 0.833240
Si Si4 0.853557 0.653079 0.548729
Si Si5 0.089141 0.835904 0.823071
Si Si6 0.645482 0.303801 0.207549
Si Si7 0.107319 0.443286 0.811215
O O1 0.358528 0.301270 0.655238
O O2 0.692832 0.213992 0.944407
O O3 0.653256 0.169868 0.210687
O O4 0.500000 0.000000 0.000000
O O5 0.432913 0.311169 0.032569
O O6 0.319194 0.010875 0.216382
O O7 0.143466 0.239230 0.691111
O O8 0.199091 0.265057 0.022037
O O9 0.760343 0.251430 0.518187
O O10 0.913923 0.137370 0.035095
O O11 0.000000 0.000000 0.000000
O O12 0.978540 0.709225 0.751711
O O13 0.956446 0.484984 0.743038
O O14 0.000000 0.000000 0.500000
O O15 0.727502 0.451224 0.093173
O O16 0.000000 0.500000 0.500000
#
# Coordination Sequence:
#
# PCOD9097189 Si02
#       7
#     2   2   2   2   2   2   2
#     4  11  21  34  63  93 124 161 210 261 314 371
#     4  10  21  38  63  95 124 168 212 258 312 382
#     4  12  24  38  62  96 129 163 204 268 332 362
#     4  10  20  36  59  92 116 162 219 254 296 370
#     4  12  20  38  61  88 128 163 209 258 313 375
#     4  11  22  39  61  99 129 158 213 270 315 369
#     4  10  20  38  65  90 126 168 215 256 304 381
#
# _framework density 24.816185999999998
#
# number of rings (size 3 to 8) (size 9 to 14) (size 15 to 20)
#    0.000    1.143    4.286    4.286    0.000    0.000 
#    0.000    0.000    0.000    8.571    0.000    0.000 
#    0.000    0.000    0.000    0.000    0.000    0.000 
#
# Total GULP energy -78197.048675 kJ/mol
# GULP energy per Si atom -5585.503477 kJ/mol
# Density = 2.475970 g / cm^3
# Si number density = 24.816186 Si / 1000 Ang^3
#
#
#
# Elastic Constant Matrix: (Units=GPa)
#
#
# Indices 1 2 3 4 5 6 
#
# 1 177.0155 50.7722 54.6733 18.9760 13.9122 -36.3207
# 2 50.7722 133.4718 54.6277 23.5644 -1.2409 -17.3686
# 3 54.6733 54.6277 54.0998 27.1062 -15.0604 -9.7132
# 4 18.9760 23.5644 27.1062 40.6962 -3.9875 -8.3135
# 5 13.9122 -1.2409 -15.0604 -3.9875 40.1615 11.3723
# 6 -36.3207 -17.3686 -9.7132 -8.3135 11.3723 51.9301
#
#
#
# Elastic Compliance Matrix: (Units=1/GPa)
#
#
# Indices 1 2 3 4 5 6 
#
# 1 0.017635 0.006829 -0.033659 0.011156 -0.021615 0.014842
# 2 0.006829 0.017144 -0.030630 0.007710 -0.015203 0.009345
# 3 -0.033659 -0.030630 0.116693 -0.045064 0.059092 -0.032115
# 4 0.011156 0.007710 -0.045064 0.045761 -0.019839 0.013623
# 5 -0.021615 -0.015203 0.059092 -0.019839 0.059272 -0.025306
# 6 0.014842 0.009345 -0.032115 0.013623 -0.025306 0.034478
#
#
# Mechanical properties :
#
#
# Convention : Reuss Voigt Hill
#
# Bulk Modulus (GPa) = 27.35918 76.08149 51.72033
# Shear Modulus (GPa) = 11.95919 40.19182 26.07550
#
# Velocity S-wave (km/s) = 2.19763 4.02877 3.24504
# Velocity P-wave (km/s) = 4.18188 7.23643 5.90990
#
# Compressibility (1/GPa) = 0.03655081
#
# Stress axis : x y z
#
# Youngs Moduli (GPa) = 56.70625 58.32775 8.56951
#
# Poissons Ratio (x) = -0.39830 0.28844
# Poissons Ratio (y) = -0.38723 0.26248
# Poissons Ratio (z) = 1.90869 1.78658
#
# Static dielectric constant tensor:
#      x y z
#    x 2.054640 0.049720 0.060070 
#    y 0.049720 2.033540 -0.027190 
#    z 0.060070 -0.027190 2.025260 
# 
# From -- ./inp_files/261859.got.cif
#   From: 2010.05.17/outbox.cif.g08.bks.cpg/sg2_131_cif.got.tgz:261859.got - 2010.06.03 11:33:40.
