data_PCOD9097796
_publ_section_title
;
Structure prediction by ZEFSAII (Michael W. Deem and Ramdas Pophale) SiO2 
 PCOD9097796
Probable space group: P -1
;
_chemical_formula_sum "Si O2"
_cell_formula_units_Z 16
_cell_length_a 12.242930
_cell_length_b 8.880204
_cell_length_c 12.046560
_cell_angle_alpha 51.750894
_cell_angle_beta 61.647327
_cell_angle_gamma 103.441503
_cell_volume 586.437779
_symmetry_space_group_name_H-M "P -1"
_symmetry_group_IT_number 2
_symmetry_cell_setting 'triclinic'
loop_
_space_group_symop_operation_xyz
x,y,z
-x,-y,-z
loop_
_atom_site_type_symbol
_atom_site_label
_atom_site_fract_x
_atom_site_fract_y
_atom_site_fract_z
Si Si1 0.738155 0.008216 0.070258
Si Si2 0.689807 0.480811 0.664582
Si Si3 0.308542 0.629481 0.044461
Si Si4 0.222192 0.816875 0.276034
Si Si5 0.856557 0.727429 0.072458
Si Si6 0.124299 0.097139 0.246119
Si Si7 0.282754 0.106024 0.632783
Si Si8 0.370780 0.912578 0.499023
O O1 0.690435 0.007858 0.964369
O O2 0.811308 0.312298 0.924591
O O3 0.843777 0.925330 0.042322
O O4 0.623083 0.848218 0.316053
O O5 0.698880 0.296412 0.674216
O O6 0.614841 0.576158 0.593382
O O7 0.612373 0.332524 0.889824
O O8 0.909338 0.801188 0.443947
O O9 0.488727 0.857227 0.771380
O O10 0.164580 0.293285 0.232716
O O11 0.000000 0.500000 0.500000
O O12 0.212370 0.992697 0.275971
O O13 0.754046 0.423159 0.315163
O O14 0.776197 0.681625 0.009130
O O15 0.067728 0.896976 0.869777
O O16 0.265121 0.959971 0.595453
O O17 0.500000 0.000000 0.500000
#
# Coordination Sequence:
#
# PCOD9097796 Si02
#       8
#     2   2   2   2   2   2   2   2
#     4  10  20  36  62  88 118 154 197 243 287 351
#     4   9  20  35  56  85 119 153 194 245 290 340
#     4  11  21  37  59  88 117 158 197 237 294 352
#     4   8  16  32  55  85 117 152 191 240 285 346
#     4  10  21  37  61  92 115 151 197 248 295 336
#     4   9  16  33  59  87 117 151 196 240 289 347
#     4  11  22  40  60  88 121 154 195 248 289 345
#     4  12  23  40  60  86 121 158 195 243 291 356
#
# _framework density 27.283370000000001
#
# number of rings (size 3 to 8) (size 9 to 14) (size 15 to 20)
#    0.000    2.000    2.500    1.875    0.000    2.000 
#    0.000    1.250    0.000    1.500    0.000    0.000 
#    0.000    0.000    0.000    0.000    0.000    0.000 
#
# Total GULP energy -89299.045574 kJ/mol
# GULP energy per Si atom -5581.190348 kJ/mol
# Density = 2.722127 g / cm^3
# Si number density = 27.283370 Si / 1000 Ang^3
#
#
#
# Elastic Constant Matrix: (Units=GPa)
#
#
# Indices 1 2 3 4 5 6 
#
# 1 66.6233 33.5503 31.9998 0.0938 18.0435 -10.5980
# 2 33.5503 199.7479 64.8679 -32.3650 14.6395 -19.7205
# 3 31.9998 64.8679 184.0647 -12.0349 18.4096 -5.4611
# 4 0.0938 -32.3650 -12.0349 52.0692 -1.5743 7.2783
# 5 18.0435 14.6395 18.4096 -1.5743 51.6126 5.8319
# 6 -10.5980 -19.7205 -5.4611 7.2783 5.8319 35.4332
#
#
#
# Elastic Compliance Matrix: (Units=1/GPa)
#
#
# Indices 1 2 3 4 5 6 
#
# 1 0.019721 -0.002028 -0.002083 -0.002818 -0.006348 0.006073
# 2 -0.002028 0.006725 -0.001647 0.003459 -0.000765 0.002298
# 3 -0.002083 -0.001647 0.006501 0.000517 -0.001055 -0.000470
# 4 -0.002818 0.003459 0.000517 0.021996 0.000887 -0.003502
# 5 -0.006348 -0.000765 -0.001055 0.000887 0.022943 -0.006446
# 6 0.006073 0.002298 -0.000470 -0.003502 -0.006446 0.033025
#
#
# Mechanical properties :
#
#
# Convention : Reuss Voigt Hill
#
# Bulk Modulus (GPa) = 46.66014 79.03022 62.84518
# Shear Modulus (GPa) = 38.58947 49.15753 43.87350
#
# Velocity S-wave (km/s) = 3.76492 4.24930 4.01442
# Velocity P-wave (km/s) = 6.00323 7.28730 6.67620
#
# Compressibility (1/GPa) = 0.02143157
#
# Stress axis : x y z
#
# Youngs Moduli (GPa) = 50.70842 148.69785 153.83187
#
# Poissons Ratio (x) = 0.30152 0.32043
# Poissons Ratio (y) = 0.10282 0.25330
# Poissons Ratio (z) = 0.10563 0.24485
#
# Static dielectric constant tensor:
#      x y z
#    x 2.340750 -0.012350 -0.102240 
#    y -0.012350 2.502570 0.076530 
#    z -0.102240 0.076530 2.232970 
# 
# From -- ./inp_files/529291.got.cif
#   From: 2010.05.17/outbox.cif.g08.bks.cpg/sg2_265_cif.got.tgz:529291.got - 2010.06.03 11:33:40.
