data_PCOD9097948
_publ_section_title
;
Structure prediction by ZEFSAII (Michael W. Deem and Ramdas Pophale) SiO2 
 PCOD9097948
Probable space group: P -1
;
_chemical_formula_sum "Si O2"
_cell_formula_units_Z 15
_cell_length_a 8.573269
_cell_length_b 18.113864
_cell_length_c 14.725633
_cell_angle_alpha 149.675652
_cell_angle_beta 140.322844
_cell_angle_gamma 37.207472
_cell_volume 672.427733
_symmetry_space_group_name_H-M "P -1"
_symmetry_group_IT_number 2
_symmetry_cell_setting 'triclinic'
loop_
_space_group_symop_operation_xyz
x,y,z
-x,-y,-z
loop_
_atom_site_type_symbol
_atom_site_label
_atom_site_fract_x
_atom_site_fract_y
_atom_site_fract_z
Si Si1 0.299118 0.898086 0.493609
Si Si2 0.517516 0.106350 0.705525
Si Si3 0.856855 0.451094 0.570725
Si Si4 0.500000 0.000000 0.000000
Si Si5 0.473952 0.723760 0.813713
Si Si6 0.861831 0.161847 0.052589
Si Si7 0.664957 0.727626 0.640732
Si Si8 0.570593 0.648136 0.207489
O O1 0.476840 0.777137 0.521920
O O2 0.329513 0.789544 0.302203
O O3 0.418638 0.027866 0.659112
O O4 0.000000 0.000000 0.500000
O O5 0.363817 0.283384 0.784096
O O6 0.500000 0.000000 0.500000
O O7 0.793116 0.111836 0.870069
O O8 0.718520 0.567633 0.717804
O O9 0.778691 0.300558 0.370815
O O10 0.741067 0.556876 0.540926
O O11 0.169944 0.398453 0.663240
O O12 0.500383 0.115861 0.035398
O O13 0.487201 0.143075 0.213298
O O14 0.407198 0.733449 0.901131
O O15 0.061505 0.248753 0.228333
O O16 0.000000 0.000000 0.000000
O O17 0.500000 0.500000 0.000000
#
# Coordination Sequence:
#
# PCOD9097948 Si02
#       8
#     2   2   2   1   2   2   2   2
#     4  11  25  44  66 100 132 175 227 282 335 394
#     4  10  24  42  65  96 133 178 218 275 340 393
#     4  10  24  43  65  97 134 178 215 272 339 409
#     4  10  20  36  62  94 130 166 216 268 326 386
#     4  10  22  39  64  98 132 164 226 271 334 386
#     4  12  21  39  68  98 127 163 230 282 320 385
#     4  11  23  40  67  99 132 174 225 278 333 397
#     4  11  25  46  66  92 138 183 223 267 343 410
#
# _framework density 22.307229
#
# number of rings (size 3 to 8) (size 9 to 14) (size 15 to 20)
#    0.000    1.333    2.667    1.600    1.867   11.733 
#    0.000    1.333    0.000    0.000    0.000    0.000 
#    0.000    0.000    0.000    0.000    0.000    0.000 
#
# Total GULP energy -83515.784054 kJ/mol
# GULP energy per Si atom -5567.718937 kJ/mol
# Density = 2.225646 g / cm^3
# Si number density = 22.307229 Si / 1000 Ang^3
#
#
#
# Elastic Constant Matrix: (Units=GPa)
#
#
# Indices 1 2 3 4 5 6 
#
# 1 69.2454 20.9110 4.6173 1.9342 -11.3841 -2.2112
# 2 20.9110 98.4850 29.2579 -3.0580 4.4882 15.0448
# 3 4.6173 29.2579 88.4843 14.7809 2.9741 -7.7510
# 4 1.9342 -3.0580 14.7809 35.1741 10.1284 3.8874
# 5 -11.3841 4.4882 2.9741 10.1284 37.0561 5.3977
# 6 -2.2112 15.0448 -7.7510 3.8874 5.3977 37.8589
#
#
#
# Elastic Compliance Matrix: (Units=1/GPa)
#
#
# Indices 1 2 3 4 5 6 
#
# 1 0.017089 -0.004899 0.001442 -0.004134 0.006458 0.002744
# 2 -0.004899 0.014445 -0.006030 0.005822 -0.003285 -0.007390
# 3 0.001442 -0.006030 0.015054 -0.007972 0.001240 0.006204
# 4 -0.004134 0.005822 -0.007972 0.036188 -0.010289 -0.006436
# 5 0.006458 -0.003285 0.001240 -0.010289 0.032316 -0.001614
# 6 0.002744 -0.007390 0.006204 -0.006436 -0.001614 0.031672
#
#
# Mechanical properties :
#
#
# Convention : Reuss Voigt Hill
#
# Bulk Modulus (GPa) = 36.21347 40.64301 38.42824
# Shear Modulus (GPa) = 28.58088 35.44638 32.01363
#
# Velocity S-wave (km/s) = 3.58332 3.99056 3.79241
# Velocity P-wave (km/s) = 5.77836 6.28427 6.03662
#
# Compressibility (1/GPa) = 0.02761403
#
# Stress axis : x y z
#
# Youngs Moduli (GPa) = 58.51574 69.22880 66.42926
#
# Poissons Ratio (x) = 0.33914 -0.09579
# Poissons Ratio (y) = 0.28666 0.40058
# Poissons Ratio (z) = -0.08438 0.41746
#
# Static dielectric constant tensor:
#      x y z
#    x 1.985270 -0.029760 -0.060880 
#    y -0.029760 1.846780 0.010770 
#    z -0.060880 0.010770 1.778970 
# 
# From -- ./inp_files/507356.got.cif
#   From: 2010.05.17/outbox.cif.g08.bks.cpg/sg2_254_cif.got.tgz:507356.got - 2010.06.03 11:33:40.
