data_PCOD9097207
_publ_section_title
;
Structure prediction by ZEFSAII (Michael W. Deem and Ramdas Pophale) SiO2 
 PCOD9097207
Probable space group: P -1
;
_chemical_formula_sum "Si O2"
_cell_formula_units_Z 16
_cell_length_a 15.851698
_cell_length_b 8.089725
_cell_length_c 11.237466
_cell_angle_alpha 141.323418
_cell_angle_beta 135.024418
_cell_angle_gamma 45.559463
_cell_volume 599.763405
_symmetry_space_group_name_H-M "P -1"
_symmetry_group_IT_number 2
_symmetry_cell_setting 'triclinic'
loop_
_space_group_symop_operation_xyz
x,y,z
-x,-y,-z
loop_
_atom_site_type_symbol
_atom_site_label
_atom_site_fract_x
_atom_site_fract_y
_atom_site_fract_z
Si Si1 0.977633 0.520871 0.727307
Si Si2 0.247015 0.134474 0.877615
Si Si3 0.883779 0.895917 0.633843
Si Si4 0.284203 0.545865 0.560624
Si Si5 0.319119 0.628910 0.153394
Si Si6 0.481873 0.254696 0.426676
Si Si7 0.339864 0.327599 0.761708
Si Si8 0.067569 0.176110 0.920221
O O1 0.866045 0.390189 0.553575
O O2 0.930396 0.793413 0.919750
O O3 0.113892 0.312178 0.782263
O O4 0.972294 0.648521 0.664209
O O5 0.312187 0.829510 0.718168
O O6 0.329615 0.334712 0.063041
O O7 0.198354 0.075703 0.925227
O O8 0.805503 0.150507 0.787025
O O9 0.775480 0.796742 0.412242
O O10 0.972628 0.007452 0.702452
O O11 0.345012 0.336868 0.396256
O O12 0.332126 0.435115 0.678282
O O13 0.429471 0.741802 0.368265
O O14 0.323130 0.556978 0.977262
O O15 0.500000 0.500000 0.500000
O O16 0.534343 0.943902 0.250037
O O17 0.000000 0.500000 0.000000
#
# Coordination Sequence:
#
# PCOD9097207 Si02
#       8
#     2   2   2   2   2   2   2   2
#     4  10  22  39  65  93 136 179 215 273 331 395
#     4  11  24  38  64  99 136 176 225 272 333 401
#     4  10  21  42  67  97 138 179 223 269 338 396
#     4  11  25  44  65 101 133 177 227 279 334 397
#     4  11  24  44  68 102 131 177 226 273 341 398
#     4  11  26  47  73  97 132 172 224 287 340 400
#     4  10  25  45  70  98 133 176 225 283 333 400
#     4  10  20  36  59  93 132 175 213 271 325 390
#
# _framework density 26.677182999999999
#
# number of rings (size 3 to 8) (size 9 to 14) (size 15 to 20)
#    0.000    1.500    2.500    1.875    3.500    6.500 
#    0.000    2.500    0.000    0.000    0.000    0.000 
#    0.000    0.000    0.000    0.000    0.000    0.000 
#
# Total GULP energy -89687.961744 kJ/mol
# GULP energy per Si atom -5605.497609 kJ/mol
# Density = 2.661646 g / cm^3
# Si number density = 26.677183 Si / 1000 Ang^3
#
#
#
# Elastic Constant Matrix: (Units=GPa)
#
#
# Indices 1 2 3 4 5 6 
#
# 1 117.7469 23.9919 22.9043 1.4385 -19.0067 -9.6249
# 2 23.9919 81.7231 17.7345 14.9698 -6.3518 1.2871
# 3 22.9043 17.7345 99.4751 5.8417 -13.7879 -6.9914
# 4 1.4385 14.9698 5.8417 26.7404 1.8051 -7.4578
# 5 -19.0067 -6.3518 -13.7879 1.8051 53.5802 13.1868
# 6 -9.6249 1.2871 -6.9914 -7.4578 13.1868 31.6677
#
#
#
# Elastic Compliance Matrix: (Units=1/GPa)
#
#
# Indices 1 2 3 4 5 6 
#
# 1 0.009854 -0.002792 -0.001416 0.001846 0.002165 0.002329
# 2 -0.002792 0.015397 -0.001612 -0.009618 0.001952 -0.004908
# 3 -0.001416 -0.001612 0.011083 -0.001310 0.001968 0.000954
# 4 0.001846 -0.009618 -0.001310 0.047352 -0.005933 0.014285
# 5 0.002165 0.001952 0.001968 -0.005933 0.022801 -0.009879
# 6 0.002329 -0.004908 0.000954 0.014285 -0.009879 0.040174
#
#
# Mechanical properties :
#
#
# Convention : Reuss Voigt Hill
#
# Bulk Modulus (GPa) = 40.49484 47.57850 44.03667
# Shear Modulus (GPa) = 30.02443 38.01863 34.02153
#
# Velocity S-wave (km/s) = 3.35845 3.77919 3.57501
# Velocity P-wave (km/s) = 5.50013 6.07591 5.79517
#
# Compressibility (1/GPa) = 0.02469450
#
# Stress axis : x y z
#
# Youngs Moduli (GPa) = 101.47684 64.94910 90.22986
#
# Poissons Ratio (x) = 0.18136 0.12775
# Poissons Ratio (y) = 0.28336 0.14541
# Poissons Ratio (z) = 0.14367 0.10467
#
# Static dielectric constant tensor:
#      x y z
#    x 2.108460 0.018710 -0.079820 
#    y 0.018710 2.064940 -0.034150 
#    z -0.079820 -0.034150 2.177360 
# 
# From -- ./inp_files/448407.got.cif
#   From: 2010.05.17/outbox.cif.g08.bks.cpg/sg2_225_cif.got.tgz:448407.got - 2010.06.03 11:33:40.
