data_PCOD9097342
_publ_section_title
;
Structure prediction by ZEFSAII (Michael W. Deem and Ramdas Pophale) SiO2 
 PCOD9097342
Probable space group: P -1
;
_chemical_formula_sum "Si O2"
_cell_formula_units_Z 14
_cell_length_a 24.468772
_cell_length_b 16.116770
_cell_length_c 11.851038
_cell_angle_alpha 36.008856
_cell_angle_beta 150.475896
_cell_angle_gamma 163.167134
_cell_volume 657.475034
_symmetry_space_group_name_H-M "P -1"
_symmetry_group_IT_number 2
_symmetry_cell_setting 'triclinic'
loop_
_space_group_symop_operation_xyz
x,y,z
-x,-y,-z
loop_
_atom_site_type_symbol
_atom_site_label
_atom_site_fract_x
_atom_site_fract_y
_atom_site_fract_z
Si Si1 0.537556 0.690419 0.512198
Si Si2 0.190229 0.165962 0.971574
Si Si3 0.941564 0.248966 0.225652
Si Si4 0.067977 0.313132 0.129952
Si Si5 0.535535 0.239454 0.195547
Si Si6 0.789888 0.258395 0.673786
Si Si7 0.210050 0.102292 0.462751
O O1 0.330012 0.565384 0.300317
O O2 0.411877 0.407402 0.554592
O O3 0.695329 0.900453 0.456829
O O4 0.686832 0.813366 0.752727
O O5 0.356269 0.485379 0.907339
O O6 0.099575 0.993613 0.883261
O O7 0.953254 0.965175 0.817015
O O8 0.029127 0.287022 0.222502
O O9 0.095365 0.544549 0.225676
O O10 0.940662 0.134925 0.449791
O O11 0.676402 0.992245 0.015476
O O12 0.978383 0.357740 0.861640
O O13 0.702437 0.294183 0.406184
O O14 0.424683 0.071100 0.302597
#
# Coordination Sequence:
#
# PCOD9097342 Si02
#       7
#     2   2   2   2   2   2   2
#     4  10  22  40  62  87 125 158 198 251 302 351
#     4  11  21  38  61  94 121 154 202 251 301 355
#     4  11  21  40  62  89 121 160 204 243 296 363
#     4  10  24  38  60  95 126 151 197 257 301 350
#     4  10  20  36  60  88 116 166 193 243 296 361
#     4  10  22  40  57  87 128 161 201 237 300 366
#     4  10  21  40  61  89 118 164 202 240 298 365
#
# _framework density 21.293582000000001
#
# number of rings (size 3 to 8) (size 9 to 14) (size 15 to 20)
#    0.000    1.714    2.857    2.143    0.000    9.143 
#    0.000    0.714    0.000    1.714    0.000    0.000 
#    0.000    0.000    0.000    0.000    0.000    0.000 
#
# Total GULP energy -78065.310999 kJ/mol
# GULP energy per Si atom -5576.093643 kJ/mol
# Density = 2.124512 g / cm^3
# Si number density = 21.293582 Si / 1000 Ang^3
#
#
#
# Elastic Constant Matrix: (Units=GPa)
#
#
# Indices 1 2 3 4 5 6 
#
# 1 98.6912 28.1625 52.4202 1.9220 19.6667 0.0741
# 2 28.1625 35.3021 -3.4053 20.9428 6.5846 -26.9607
# 3 52.4202 -3.4053 142.9484 23.5696 33.4079 -9.3074
# 4 1.9220 20.9428 23.5696 29.7077 -3.5123 4.1689
# 5 19.6667 6.5846 33.4079 -3.5123 29.2967 7.9355
# 6 0.0741 -26.9607 -9.3074 4.1689 7.9355 10.5994
#
#
#
# Elastic Compliance Matrix: (Units=1/GPa)
#
#
# Indices 1 2 3 4 5 6 
#
# 1 0.012635 0.000660 -0.001125 -0.002925 -0.010251 0.009429
# 2 0.000660 -0.000394 -0.007280 0.011160 0.015652 -0.023506
# 3 -0.001125 -0.007280 0.006841 0.001095 -0.002227 -0.011265
# 4 -0.002925 0.011160 0.001095 0.020721 -0.006342 0.025966
# 5 -0.010251 0.015652 -0.002227 -0.006342 0.035533 0.013819
# 6 0.009429 -0.023506 -0.011265 0.025966 0.013819 0.004038
#
#
# Mechanical properties :
#
#
# Convention : Reuss Voigt Hill
#
# Bulk Modulus (GPa) = 278.36987 47.92184 163.14585
# Shear Modulus (GPa) = 52.04932 27.23837 39.64385
#
# Velocity S-wave (km/s) = 4.94942 3.58045 4.31951
# Velocity P-wave (km/s) = 12.79358 6.29658 10.08272
#
# Compressibility (1/GPa) = 0.00359234
#
# Stress axis : x y z
#
# Youngs Moduli (GPa) = 79.14743 -2539.97485 146.17222
#
# Poissons Ratio (x) = 1.67757 0.16451
# Poissons Ratio (y) = -0.05227 1.06413
# Poissons Ratio (z) = 0.08908 -18.49087
#
# Static dielectric constant tensor:
#      x y z
#    x 1.788780 0.031710 0.028030 
#    y 0.031710 1.804570 -0.019440 
#    z 0.028030 -0.019440 1.851230 
# 
# From -- ./inp_files/475149.got.cif
#   From: 2010.05.17/outbox.cif.g08.bks.cpg/sg2_238_cif.got.tgz:475149.got - 2010.06.03 11:33:40.
