data_PCOD9097703
_publ_section_title
;
Structure prediction by ZEFSAII (Michael W. Deem and Ramdas Pophale) SiO2 
 PCOD9097703
Probable space group: P -1
;
_chemical_formula_sum "Si O2"
_cell_formula_units_Z 14
_cell_length_a 7.758024
_cell_length_b 8.405945
_cell_length_c 9.911310
_cell_angle_alpha 66.955732
_cell_angle_beta 88.789160
_cell_angle_gamma 86.660494
_cell_volume 593.763362
_symmetry_space_group_name_H-M "P -1"
_symmetry_group_IT_number 2
_symmetry_cell_setting 'triclinic'
loop_
_space_group_symop_operation_xyz
x,y,z
-x,-y,-z
loop_
_atom_site_type_symbol
_atom_site_label
_atom_site_fract_x
_atom_site_fract_y
_atom_site_fract_z
Si Si1 0.330042 0.341012 0.472184
Si Si2 0.121369 0.647863 0.398067
Si Si3 0.317763 0.867517 0.506728
Si Si4 0.814197 0.779266 0.203765
Si Si5 0.793593 0.805793 0.733202
Si Si6 0.815923 0.135768 0.199100
Si Si7 0.203257 0.469286 0.969432
O O1 0.301249 0.547467 0.389517
O O2 0.513089 0.257419 0.453850
O O3 0.289065 0.287074 0.642897
O O4 0.192606 0.270546 0.391831
O O5 0.161409 0.767142 0.482247
O O6 0.000000 0.500000 0.500000
O O7 0.017298 0.744175 0.249140
O O8 0.267434 0.924526 0.639010
O O9 0.328356 0.023296 0.347772
O O10 0.778534 0.653000 0.122316
O O11 0.786184 0.988600 0.136142
O O12 0.977712 0.853008 0.777051
O O13 0.718697 0.653753 0.873331
O O14 0.742585 0.333234 0.109249
O O15 0.000000 0.500000 0.000000
#
# Coordination Sequence:
#
# PCOD9097703 Si02
#       7
#     2   2   2   2   2   2   2
#     4  11  23  39  66  95 132 168 218 270 318 384
#     4  10  20  36  61  96 123 158 216 268 313 373
#     4  12  22  39  67  98 129 171 216 266 326 384
#     4  11  21  41  69  95 127 172 221 268 323 390
#     4  11  22  41  62  95 130 167 217 268 320 383
#     4  11  21  40  70  93 129 173 219 266 329 382
#     4  10  24  42  63  95 135 165 214 276 328 382
#
# _framework density 23.578416000000001
#
# number of rings (size 3 to 8) (size 9 to 14) (size 15 to 20)
#    0.000    1.143    2.857    6.429    0.000    2.286 
#    2.571    1.429    0.000    0.000    0.000    0.000 
#    0.000    0.000    0.000    0.000    0.000    0.000 
#
# Total GULP energy -78157.171894 kJ/mol
# GULP energy per Si atom -5582.655135 kJ/mol
# Density = 2.352475 g / cm^3
# Si number density = 23.578416 Si / 1000 Ang^3
#
#
#
# Elastic Constant Matrix: (Units=GPa)
#
#
# Indices 1 2 3 4 5 6 
#
# 1 29.9938 16.3856 14.6769 -9.8664 7.8602 3.7621
# 2 16.3856 182.3218 66.0887 -10.4727 0.1497 7.1998
# 3 14.6769 66.0887 90.1343 -15.6262 -12.0551 -4.1108
# 4 -9.8664 -10.4727 -15.6262 43.7574 -2.7748 2.8610
# 5 7.8602 0.1497 -12.0551 -2.7748 8.2119 -1.7420
# 6 3.7621 7.1998 -4.1108 2.8610 -1.7420 35.1571
#
#
#
# Elastic Compliance Matrix: (Units=1/GPa)
#
#
# Indices 1 2 3 4 5 6 
#
# 1 0.098321 0.009220 -0.046795 -0.001341 -0.168973 -0.026144
# 2 0.009220 0.009565 -0.013132 -0.001852 -0.030139 -0.005823
# 3 -0.046795 -0.013132 0.047069 0.009601 0.121281 0.018428
# 4 -0.001341 -0.001852 0.009601 0.027059 0.024695 0.000667
# 5 -0.168973 -0.030139 0.121281 0.024695 0.483254 0.060369
# 6 -0.026144 -0.005823 0.018428 0.000667 0.060369 0.037526
#
#
# Mechanical properties :
#
#
# Convention : Reuss Voigt Hill
#
# Bulk Modulus (GPa) = 18.67717 55.19469 36.93593
# Shear Modulus (GPa) = 6.08234 31.11185 18.59710
#
# Velocity S-wave (km/s) = 1.60786 3.63644 2.81149
# Velocity P-wave (km/s) = 3.37423 6.41026 5.12235
#
# Compressibility (1/GPa) = 0.05354130
#
# Stress axis : x y z
#
# Youngs Moduli (GPa) = 10.17081 104.55173 21.24557
#
# Poissons Ratio (x) = -0.96399 0.99418
# Poissons Ratio (y) = -0.09378 0.27900
# Poissons Ratio (z) = 0.47594 1.37297
#
# Static dielectric constant tensor:
#      x y z
#    x 1.966070 0.028580 0.006950 
#    y 0.028580 2.034440 -0.034640 
#    z 0.006950 -0.034640 1.877780 
# 
# From -- ./inp_files/157403.got.cif
#   From: 2010.05.17/outbox.cif.g08.bks.cpg/sg2_79_cif.got.tgz:157403.got - 2010.06.03 11:33:40.
