data_PCOD9097709
_publ_section_title
;
Structure prediction by ZEFSAII (Michael W. Deem and Ramdas Pophale) SiO2 
 PCOD9097709
Probable space group: P -1
;
_chemical_formula_sum "Si O2"
_cell_formula_units_Z 16
_cell_length_a 4.937556
_cell_length_b 15.751337
_cell_length_c 15.878392
_cell_angle_alpha 139.984105
_cell_angle_beta 82.934878
_cell_angle_gamma 98.224506
_cell_volume 785.706558
_symmetry_space_group_name_H-M "P -1"
_symmetry_group_IT_number 2
_symmetry_cell_setting 'triclinic'
loop_
_space_group_symop_operation_xyz
x,y,z
-x,-y,-z
loop_
_atom_site_type_symbol
_atom_site_label
_atom_site_fract_x
_atom_site_fract_y
_atom_site_fract_z
Si Si1 0.677358 0.874676 0.412589
Si Si2 0.272690 0.982456 0.167237
Si Si3 0.668891 0.242647 0.527019
Si Si4 0.173503 0.087677 0.990055
Si Si5 0.026656 0.009403 0.649795
Si Si6 0.483812 0.344799 0.257747
Si Si7 0.644836 0.721052 0.609202
Si Si8 0.997349 0.520723 0.367768
O O1 0.492722 0.761921 0.381945
O O2 0.888710 0.921805 0.513205
O O3 0.500000 0.000000 0.500000
O O4 0.822668 0.865519 0.309762
O O5 0.582538 0.977311 0.119268
O O6 0.062831 0.887538 0.048915
O O7 0.205457 0.134701 0.270207
O O8 0.196174 0.955568 0.246897
O O9 0.776333 0.096243 0.399624
O O10 0.497718 0.267416 0.467509
O O11 0.900010 0.363108 0.612281
O O12 0.337448 0.213735 0.122022
O O13 0.000000 0.000000 0.000000
O O14 0.543020 0.312140 0.328185
O O15 0.766413 0.411514 0.260944
O O16 0.257570 0.450842 0.337779
O O17 0.849865 0.606210 0.507902
#
# Coordination Sequence:
#
# PCOD9097709 Si02
#       8
#     2   2   2   2   2   2   2   2
#     4   9  19  34  58  93 139 162 191 246 330 409
#     4  12  24  40  69  90 127 166 216 260 319 372
#     4  11  20  37  59  96 134 165 200 246 332 395
#     4  12  27  46  62  87 119 179 224 269 306 351
#     4  10  20  36  61  96 134 161 200 257 321 402
#     4  12  28  42  60  85 129 173 228 262 302 365
#     4  12  24  38  64  93 128 164 212 259 326 377
#     4  12  25  41  61  92 127 171 210 266 317 383
#
# _framework density 20.363837
#
# number of rings (size 3 to 8) (size 9 to 14) (size 15 to 20)
#    0.000    0.750    5.000    2.625    5.250    0.000 
#    0.000    0.000    0.000    0.000    0.000    5.250 
#    0.000    0.000    0.000    0.000    0.000    0.000 
#
# Total GULP energy -89260.531689 kJ/mol
# GULP energy per Si atom -5578.783231 kJ/mol
# Density = 2.031749 g / cm^3
# Si number density = 20.363837 Si / 1000 Ang^3
#
#
#
# Elastic Constant Matrix: (Units=GPa)
#
#
# Indices 1 2 3 4 5 6 
#
# 1 109.6819 57.5671 23.7079 -8.9907 4.8827 16.3595
# 2 57.5671 134.1596 56.4630 -14.3602 12.4527 40.5744
# 3 23.7079 56.4630 61.5449 -0.4030 -3.5662 16.6132
# 4 -8.9907 -14.3602 -0.4030 24.5550 12.8838 -2.4863
# 5 4.8827 12.4527 -3.5662 12.8838 26.3766 5.1927
# 6 16.3595 40.5744 16.6132 -2.4863 5.1927 54.4711
#
#
#
# Elastic Compliance Matrix: (Units=1/GPa)
#
#
# Indices 1 2 3 4 5 6 
#
# 1 0.011839 -0.004572 -0.000488 0.002356 -0.001295 0.000230
# 2 -0.004572 0.025507 -0.020810 0.025093 -0.024736 -0.007777
# 3 -0.000488 -0.020810 0.036787 -0.026129 0.027531 0.000610
# 4 0.002356 0.025093 -0.026129 0.085665 -0.057253 -0.002062
# 5 -0.001295 -0.024736 0.027531 -0.057253 0.081512 0.000033
# 6 0.000230 -0.007777 0.000610 -0.002062 0.000033 0.023799
#
#
# Mechanical properties :
#
#
# Convention : Reuss Voigt Hill
#
# Bulk Modulus (GPa) = 44.65374 64.54027 54.59700
# Shear Modulus (GPa) = 15.41720 32.25710 23.83715
#
# Velocity S-wave (km/s) = 2.75451 3.98432 3.42506
# Velocity P-wave (km/s) = 5.66498 7.27521 6.52000
#
# Compressibility (1/GPa) = 0.02239454
#
# Stress axis : x y z
#
# Youngs Moduli (GPa) = 84.46868 39.20422 27.18324
#
# Poissons Ratio (x) = 0.17923 0.01326
# Poissons Ratio (y) = 0.38616 0.56568
# Poissons Ratio (z) = 0.04121 0.81584
#
# Static dielectric constant tensor:
#      x y z
#    x 1.882770 -0.013550 0.000050 
#    y -0.013550 1.843310 -0.022120 
#    z 0.000050 -0.022120 1.762300 
# 
# From -- ./inp_files/483977.got.cif
#   From: 2010.05.17/outbox.cif.g08.bks.cpg/sg2_242_cif.got.tgz:483977.got - 2010.06.03 11:33:40.
