data_PCOD9097084
_publ_section_title
;
Structure prediction by ZEFSAII (Michael W. Deem and Ramdas Pophale) SiO2 
 PCOD9097084
Probable space group: P -1
;
_chemical_formula_sum "Si O2"
_cell_formula_units_Z 16
_cell_length_a 11.660961
_cell_length_b 8.343375
_cell_length_c 15.300539
_cell_angle_alpha 74.188727
_cell_angle_beta 37.768369
_cell_angle_gamma 57.370695
_cell_volume 732.929586
_symmetry_space_group_name_H-M "P -1"
_symmetry_group_IT_number 2
_symmetry_cell_setting 'triclinic'
loop_
_space_group_symop_operation_xyz
x,y,z
-x,-y,-z
loop_
_atom_site_type_symbol
_atom_site_label
_atom_site_fract_x
_atom_site_fract_y
_atom_site_fract_z
Si Si1 0.295270 0.915840 0.170940
Si Si2 0.052946 0.357007 0.177759
Si Si3 0.896179 0.822461 0.004176
Si Si4 0.934824 0.824078 0.467224
Si Si5 0.012421 0.539024 0.610741
Si Si6 0.715393 0.430135 0.076367
Si Si7 0.520696 0.260532 0.096434
Si Si8 0.498239 0.793213 0.252503
O O1 0.421492 0.772539 0.035078
O O2 0.436025 0.883202 0.178014
O O3 0.101625 0.879997 0.319218
O O4 0.208851 0.135995 0.157653
O O5 0.979608 0.300949 0.140814
O O6 0.913764 0.472886 0.331424
O O7 0.166823 0.470490 0.057368
O O8 0.706199 0.048063 0.059709
O O9 0.735582 0.752041 0.145210
O O10 0.083452 0.769821 0.970158
O O11 0.044154 0.686738 0.508960
O O12 0.894574 0.679451 0.453148
O O13 0.706247 0.036049 0.594036
O O14 0.741326 0.649952 0.751155
O O15 0.572479 0.402360 0.096281
O O16 0.553009 0.575239 0.230068
#
# Coordination Sequence:
#
# PCOD9097084 Si02
#       8
#     2   2   2   2   2   2   2   2
#     4  11  22  36  61  92 122 151 188 240 309 346
#     4  10  20  36  59  86 119 149 192 244 286 348
#     4  10  21  39  61  87 116 155 201 247 286 334
#     4  11  23  37  56  92 128 155 180 235 307 371
#     4  11  22  38  61  92 120 152 192 237 308 347
#     4  11  23  36  62  88 116 158 202 243 287 334
#     4  11  21  39  62  91 117 149 200 250 284 347
#     4  11  20  37  58  86 121 154 188 237 291 355
#
# _framework density 21.830200000000001
#
# number of rings (size 3 to 8) (size 9 to 14) (size 15 to 20)
#    0.000    1.250    2.500    5.250    0.000    5.000 
#    0.000    0.000    0.000   13.500    0.000    0.000 
#    0.000    0.000    0.000    0.000    0.000    0.000 
#
# Total GULP energy -89272.609188 kJ/mol
# GULP energy per Si atom -5579.538074 kJ/mol
# Density = 2.178051 g / cm^3
# Si number density = 21.830200 Si / 1000 Ang^3
#
#
#
# Elastic Constant Matrix: (Units=GPa)
#
#
# Indices 1 2 3 4 5 6 
#
# 1 69.9281 18.5386 20.8999 3.7613 -6.2845 1.7977
# 2 18.5386 98.2779 25.4599 17.3867 -1.5550 -2.2802
# 3 20.8999 25.4599 102.9412 14.4492 9.5940 3.5942
# 4 3.7613 17.3867 14.4492 34.3099 7.8168 8.0570
# 5 -6.2845 -1.5550 9.5940 7.8168 22.3997 7.5087
# 6 1.7977 -2.2802 3.5942 8.0570 7.5087 34.8355
#
#
#
# Elastic Compliance Matrix: (Units=1/GPa)
#
#
# Indices 1 2 3 4 5 6 
#
# 1 0.016538 -0.002127 -0.003334 -0.000393 0.006731 -0.002009
# 2 -0.002127 0.012293 -0.002053 -0.006199 0.002631 0.001993
# 3 -0.003334 -0.002053 0.011727 -0.002425 -0.005443 0.000562
# 4 -0.000393 -0.006199 -0.002425 0.037232 -0.010308 -0.006525
# 5 0.006731 0.002631 -0.005443 -0.010308 0.055742 -0.009244
# 6 -0.002009 0.001993 0.000562 -0.006525 -0.009244 0.032384
#
#
# Mechanical properties :
#
#
# Convention : Reuss Voigt Hill
#
# Bulk Modulus (GPa) = 39.16830 44.54934 41.85882
# Shear Modulus (GPa) = 26.39166 32.05895 29.22531
#
# Velocity S-wave (km/s) = 3.48077 3.83634 3.66287
# Velocity P-wave (km/s) = 5.84256 6.33047 6.09140
#
# Compressibility (1/GPa) = 0.02553085
#
# Stress axis : x y z
#
# Youngs Moduli (GPa) = 60.46595 81.34791 85.27389
#
# Poissons Ratio (x) = 0.17299 0.28428
# Poissons Ratio (y) = 0.12859 0.17509
# Poissons Ratio (z) = 0.20158 0.16703
#
# Static dielectric constant tensor:
#      x y z
#    x 1.791320 0.031210 0.023740 
#    y 0.031210 1.893700 0.017510 
#    z 0.023740 0.017510 1.835150 
# 
# From -- ./inp_files/298652.got.cif
#   From: 2010.05.17/outbox.cif.g08.bks.cpg/sg2_150_cif.got.tgz:298652.got - 2010.06.03 11:33:40.
