data_PCOD9097228
_publ_section_title
;
Structure prediction by ZEFSAII (Michael W. Deem and Ramdas Pophale) SiO2 
 PCOD9097228
Probable space group: P -1
;
_chemical_formula_sum "Si O2"
_cell_formula_units_Z 12
_cell_length_a 6.594179
_cell_length_b 15.500226
_cell_length_c 12.800914
_cell_angle_alpha 145.616403
_cell_angle_beta 137.021028
_cell_angle_gamma 41.658108
_cell_volume 467.504777
_symmetry_space_group_name_H-M "P -1"
_symmetry_group_IT_number 2
_symmetry_cell_setting 'triclinic'
loop_
_space_group_symop_operation_xyz
x,y,z
-x,-y,-z
loop_
_atom_site_type_symbol
_atom_site_label
_atom_site_fract_x
_atom_site_fract_y
_atom_site_fract_z
Si Si1 0.303252 0.299133 0.552390
Si Si2 0.358764 0.722524 0.732666
Si Si3 0.310294 0.206926 0.699127
Si Si4 0.306574 0.875924 0.655413
Si Si5 0.025936 0.921978 0.096613
Si Si6 0.505874 0.599374 0.875979
O O1 0.921323 0.350834 0.451417
O O2 0.376288 0.257479 0.659308
O O3 0.465741 0.152754 0.384752
O O4 0.445803 0.434692 0.708361
O O5 0.461677 0.741900 0.672510
O O6 0.589643 0.627066 0.816305
O O7 0.172713 0.917349 0.883179
O O8 0.842772 0.252783 0.083655
O O9 0.009611 0.153226 0.531019
O O10 0.269605 0.356472 0.912625
O O11 0.186368 0.047624 0.846491
O O12 0.359640 0.930090 0.272404
#
# Coordination Sequence:
#
# PCOD9097228 Si02
#       6
#     2   2   2   2   2   2
#     4  11  21  35  59  82 109 141 181 222 269 321
#     4   9  20  39  58  75 112 145 180 217 270 322
#     4   9  20  37  57  78 114 138 182 217 276 312
#     4   9  20  36  57  83 104 145 181 219 268 320
#     4   8  19  37  58  77 107 147 177 219 269 317
#     4  10  20  36  60  78 109 148 175 223 273 312
#
# _framework density 25.668185999999999
#
# number of rings (size 3 to 8) (size 9 to 14) (size 15 to 20)
#    2.000    0.667    0.000    2.000    0.000    2.000 
#    0.000    2.500    7.333    0.000    0.000    0.000 
#    0.000    0.000    0.000    0.000    0.000    0.000 
#
# Total GULP energy -67014.688691 kJ/mol
# GULP energy per Si atom -5584.557391 kJ/mol
# Density = 2.560976 g / cm^3
# Si number density = 25.668186 Si / 1000 Ang^3
#
#
#
# Elastic Constant Matrix: (Units=GPa)
#
#
# Indices 1 2 3 4 5 6 
#
# 1 81.5141 32.4727 35.7384 -22.2927 -8.0118 9.6881
# 2 32.4727 69.3422 20.1897 -14.5898 -5.0459 7.2537
# 3 35.7384 20.1897 90.0604 -19.7296 -9.3363 2.2799
# 4 -22.2927 -14.5898 -19.7296 50.4388 -2.1501 -15.4771
# 5 -8.0118 -5.0459 -9.3363 -2.1501 40.4300 -6.7543
# 6 9.6881 7.2537 2.2799 -15.4771 -6.7543 21.1812
#
#
#
# Elastic Compliance Matrix: (Units=1/GPa)
#
#
# Indices 1 2 3 4 5 6 
#
# 1 0.018250 -0.005968 -0.004871 0.003704 0.001511 -0.002591
# 2 -0.005968 0.018157 -0.001267 0.001500 0.000522 -0.002090
# 3 -0.004871 -0.001267 0.014681 0.005226 0.003553 0.006033
# 4 0.003704 0.001500 0.005226 0.031127 0.007521 0.022372
# 5 0.001511 0.000522 0.003553 0.007521 0.028549 0.013347
# 6 -0.002591 -0.002090 0.006033 0.022372 0.013347 0.069066
#
#
# Mechanical properties :
#
#
# Convention : Reuss Voigt Hill
#
# Bulk Modulus (GPa) = 37.20570 46.41316 41.80943
# Shear Modulus (GPa) = 23.47426 32.57774 28.02600
#
# Velocity S-wave (km/s) = 3.02740 3.56643 3.30791
# Velocity P-wave (km/s) = 5.17170 5.92288 5.55999
#
# Compressibility (1/GPa) = 0.02687760
#
# Stress axis : x y z
#
# Youngs Moduli (GPa) = 54.79397 55.07533 68.11591
#
# Poissons Ratio (x) = 0.32869 0.33176
# Poissons Ratio (y) = 0.32701 0.08627
# Poissons Ratio (z) = 0.26688 0.06976
#
# Static dielectric constant tensor:
#      x y z
#    x 1.974780 -0.061580 -0.027800 
#    y -0.061580 2.024390 0.016710 
#    z -0.027800 0.016710 2.041160 
# 
# From -- ./inp_files/63057.got.cif
#   From: 2010.05.17/outbox.cif.g08.bks.cpg/sg2_32_cif.got.tgz:63057.got - 2010.06.03 11:33:40.
