data_PCOD9097106
_publ_section_title
;
Structure prediction by ZEFSAII (Michael W. Deem and Ramdas Pophale) SiO2 
 PCOD9097106
Probable space group: P -1
;
_chemical_formula_sum "Si O2"
_cell_formula_units_Z 16
_cell_length_a 7.891144
_cell_length_b 15.001112
_cell_length_c 14.490985
_cell_angle_alpha 43.980177
_cell_angle_beta 127.091485
_cell_angle_gamma 134.617320
_cell_volume 831.176649
_symmetry_space_group_name_H-M "P -1"
_symmetry_group_IT_number 2
_symmetry_cell_setting 'triclinic'
loop_
_space_group_symop_operation_xyz
x,y,z
-x,-y,-z
loop_
_atom_site_type_symbol
_atom_site_label
_atom_site_fract_x
_atom_site_fract_y
_atom_site_fract_z
Si Si1 0.147049 0.199427 0.488425
Si Si2 0.760172 0.185545 0.585468
Si Si3 0.668249 0.291396 0.661132
Si Si4 0.490391 0.646384 0.858217
Si Si5 0.261773 0.118673 0.387034
Si Si6 0.013988 0.410225 0.352473
Si Si7 0.290993 0.966897 0.034036
Si Si8 0.744590 0.903155 0.886386
O O1 0.387151 0.242981 0.593742
O O2 0.180862 0.159003 0.425784
O O3 0.112149 0.341328 0.360331
O O4 0.931851 0.049122 0.572275
O O5 0.756864 0.292757 0.584738
O O6 0.515334 0.125057 0.490398
O O7 0.967968 0.293181 0.505863
O O8 0.764574 0.046669 0.734935
O O9 0.807722 0.434698 0.661469
O O10 0.708626 0.167193 0.813673
O O11 0.687576 0.759465 0.764722
O O12 0.231733 0.598246 0.760204
O O13 0.546087 0.754134 0.883911
O O14 0.500000 0.500000 0.000000
O O15 0.011779 0.916754 0.951360
O O16 0.500000 0.000000 0.000000
O O17 0.328266 0.085728 0.039082
#
# Coordination Sequence:
#
# PCOD9097106 Si02
#       8
#     2   2   2   2   2   2   2   2
#     4  10  20  36  59  87 119 151 192 247 297 349
#     4   9  19  36  63  85 110 154 199 246 294 346
#     4  10  21  37  55  86 120 153 191 243 301 353
#     4  11  23  40  61  84 119 160 197 244 298 358
#     4   9  20  38  59  87 117 150 199 244 291 355
#     4  11  21  36  57  88 118 149 196 241 297 363
#     4  10  23  40  60  88 119 156 201 249 292 361
#     4  10  21  41  62  88 116 159 209 240 301 361
#
# _framework density 19.249818000000001
#
# number of rings (size 3 to 8) (size 9 to 14) (size 15 to 20)
#    0.000    2.000    0.000    3.000    3.500    3.000 
#    2.250    0.625    0.000    0.000    0.000    0.000 
#    0.000    0.000    0.000    0.000    0.000    0.000 
#
# Total GULP energy -89129.979295 kJ/mol
# GULP energy per Si atom -5570.623706 kJ/mol
# Density = 1.920600 g / cm^3
# Si number density = 19.249818 Si / 1000 Ang^3
#
#
#
# Elastic Constant Matrix: (Units=GPa)
#
#
# Indices 1 2 3 4 5 6 
#
# 1 80.0184 43.9248 28.8995 -3.8511 5.6660 -5.8826
# 2 43.9248 163.4306 37.5641 -2.0495 4.7182 -14.3367
# 3 28.8995 37.5641 94.6249 -1.5462 11.4451 -3.3941
# 4 -3.8511 -2.0495 -1.5462 17.5193 -4.8641 7.0093
# 5 5.6660 4.7182 11.4451 -4.8641 26.4631 -0.9897
# 6 -5.8826 -14.3367 -3.3941 7.0093 -0.9897 11.2205
#
#
#
# Elastic Compliance Matrix: (Units=1/GPa)
#
#
# Indices 1 2 3 4 5 6 
#
# 1 0.015777 -0.003261 -0.003309 0.001757 -0.000971 0.001921
# 2 -0.003261 0.008380 -0.001960 -0.004476 -0.000353 0.011169
# 3 -0.003309 -0.001960 0.012909 -0.001106 -0.004731 -0.000061
# 4 0.001757 -0.004476 -0.001106 0.083074 0.014084 -0.055786
# 5 -0.000971 -0.000353 -0.004731 0.014084 0.042415 -0.007448
# 6 0.001921 0.011169 -0.000061 -0.055786 -0.007448 0.138575
#
#
# Mechanical properties :
#
#
# Convention : Reuss Voigt Hill
#
# Bulk Modulus (GPa) = 49.98869 62.09452 56.04161
# Shear Modulus (GPa) = 15.39130 26.21962 20.80546
#
# Velocity S-wave (km/s) = 2.83071 3.69463 3.29114
# Velocity P-wave (km/s) = 6.05877 7.10828 6.60440
#
# Compressibility (1/GPa) = 0.02000452
#
# Stress axis : x y z
#
# Youngs Moduli (GPa) = 63.38424 119.33478 77.46697
#
# Poissons Ratio (x) = 0.38918 0.25632
# Poissons Ratio (y) = 0.20671 0.15187
# Poissons Ratio (z) = 0.20972 0.23394
#
# Static dielectric constant tensor:
#      x y z
#    x 1.783360 -0.046160 -0.016930 
#    y -0.046160 1.680870 0.025230 
#    z -0.016930 0.025230 1.659430 
# 
# From -- ./inp_files/209352.got.cif
#   From: 2010.05.17/outbox.cif.g08.bks.cpg/sg2_105_cif.got.tgz:209352.got - 2010.06.03 11:33:40.
