data_PCOD9097155
_publ_section_title
;
Structure prediction by ZEFSAII (Michael W. Deem and Ramdas Pophale) SiO2 
 PCOD9097155
Probable space group: P -1
;
_chemical_formula_sum "Si O2"
_cell_formula_units_Z 14
_cell_length_a 9.861397
_cell_length_b 12.404653
_cell_length_c 24.336735
_cell_angle_alpha 150.062283
_cell_angle_beta 24.884376
_cell_angle_gamma 145.158582
_cell_volume 616.618608
_symmetry_space_group_name_H-M "P -1"
_symmetry_group_IT_number 2
_symmetry_cell_setting 'triclinic'
loop_
_space_group_symop_operation_xyz
x,y,z
-x,-y,-z
loop_
_atom_site_type_symbol
_atom_site_label
_atom_site_fract_x
_atom_site_fract_y
_atom_site_fract_z
Si Si1 0.826805 0.269697 0.522054
Si Si2 0.198467 0.489708 0.066398
Si Si3 0.716978 0.781019 0.385026
Si Si4 0.401850 0.467133 0.458427
Si Si5 0.709774 0.113378 0.133804
Si Si6 0.940754 0.292669 0.969215
Si Si7 0.706772 0.891659 0.810204
O O1 0.514095 0.314953 0.623412
O O2 0.022558 0.443043 0.568649
O O3 0.081445 0.237246 0.364519
O O4 0.731307 0.040457 0.488407
O O5 0.071521 0.720112 0.214598
O O6 0.897444 0.335240 0.136457
O O7 0.208882 0.365314 0.950146
O O8 0.500000 0.500000 0.000000
O O9 0.582662 0.664016 0.439602
O O10 0.500000 0.500000 0.500000
O O11 0.486985 0.222462 0.306039
O O12 0.511649 0.993725 0.102524
O O13 0.000000 0.000000 0.000000
O O14 0.571475 0.243498 0.108554
O O15 0.000000 0.500000 0.000000
O O16 0.947731 0.069378 0.834840
#
# Coordination Sequence:
#
# PCOD9097155 Si02
#       7
#     2   2   2   2   2   2   2
#     4  10  21  41  69  83 124 171 209 260 309 380
#     4  10  22  38  60  88 124 159 205 258 314 375
#     4  10  22  42  62  91 119 168 217 250 317 380
#     4  10  22  41  61  96 127 159 210 267 321 377
#     4   9  20  38  60  86 120 166 201 245 321 378
#     4  10  20  36  59  89 123 154 203 254 305 366
#     4   9  20  38  57  89 117 154 209 249 302 367
#
# _framework density 22.704471999999999
#
# number of rings (size 3 to 8) (size 9 to 14) (size 15 to 20)
#    0.000    2.286    0.000    2.143    6.000    0.571 
#   10.286    5.714    0.000    0.000    0.000    0.000 
#    0.000    0.000    0.000    0.000    0.000    0.000 
#
# Total GULP energy -78056.046631 kJ/mol
# GULP energy per Si atom -5575.431902 kJ/mol
# Density = 2.265280 g / cm^3
# Si number density = 22.704472 Si / 1000 Ang^3
#
#
#
# Elastic Constant Matrix: (Units=GPa)
#
#
# Indices 1 2 3 4 5 6 
#
# 1 196.1633 49.4578 38.7172 -2.5609 2.5651 20.6877
# 2 49.4578 126.5242 1.5733 3.1658 13.2098 -17.2677
# 3 38.7172 1.5733 50.3598 1.2303 -11.3653 -0.1744
# 4 -2.5609 3.1658 1.2303 23.8639 10.2797 -4.5298
# 5 2.5651 13.2098 -11.3653 10.2797 34.3395 5.3347
# 6 20.6877 -17.2677 -0.1744 -4.5298 5.3347 42.7095
#
#
#
# Elastic Compliance Matrix: (Units=1/GPa)
#
#
# Indices 1 2 3 4 5 6 
#
# 1 0.007751 -0.003593 -0.006046 0.000966 -0.000704 -0.005041
# 2 -0.003593 0.010706 0.001295 0.001564 -0.004955 0.006859
# 3 -0.006046 0.001295 0.027020 -0.006484 0.010596 0.001552
# 4 0.000966 0.001564 -0.006484 0.052163 -0.019698 0.008131
# 5 -0.000704 -0.004955 0.010596 -0.019698 0.041872 -0.008938
# 6 -0.005041 0.006859 0.001552 0.008131 -0.008938 0.030614
#
#
# Mechanical properties :
#
#
# Convention : Reuss Voigt Hill
#
# Bulk Modulus (GPa) = 34.73601 61.39377 48.06489
# Shear Modulus (GPa) = 25.45667 39.06918 32.26293
#
# Velocity S-wave (km/s) = 3.35209 4.15272 3.77370
# Velocity P-wave (km/s) = 5.50586 7.07761 6.34062
#
# Compressibility (1/GPa) = 0.02878856
#
# Stress axis : x y z
#
# Youngs Moduli (GPa) = 129.02189 93.40156 37.00918
#
# Poissons Ratio (x) = 0.33561 0.22377
# Poissons Ratio (y) = 0.46360 -0.04794
# Poissons Ratio (z) = 0.78013 -0.12098
#
# Static dielectric constant tensor:
#      x y z
#    x 1.835280 -0.016480 0.034770 
#    y -0.016480 1.917820 0.024230 
#    z 0.034770 0.024230 2.005050 
# 
# From -- ./inp_files/285230.got.cif
#   From: 2010.05.17/outbox.cif.g08.bks.cpg/sg2_143_cif.got.tgz:285230.got - 2010.06.03 11:33:40.
