data_PCOD9097813
_publ_section_title
;
Structure prediction by ZEFSAII (Michael W. Deem and Ramdas Pophale) SiO2 
 PCOD9097813
Probable space group: P -1
;
_chemical_formula_sum "Si O2"
_cell_formula_units_Z 14
_cell_length_a 9.231346
_cell_length_b 9.086885
_cell_length_c 12.616217
_cell_angle_alpha 104.247674
_cell_angle_beta 116.611539
_cell_angle_gamma 122.775918
_cell_volume 604.577107
_symmetry_space_group_name_H-M "P -1"
_symmetry_group_IT_number 2
_symmetry_cell_setting 'triclinic'
loop_
_space_group_symop_operation_xyz
x,y,z
-x,-y,-z
loop_
_atom_site_type_symbol
_atom_site_label
_atom_site_fract_x
_atom_site_fract_y
_atom_site_fract_z
Si Si1 0.144657 0.328985 0.871230
Si Si2 0.713821 0.021803 0.220314
Si Si3 0.278418 0.095016 0.224809
Si Si4 0.943236 0.143009 0.116127
Si Si5 0.165223 0.624702 0.789461
Si Si6 0.573932 0.645728 0.214889
Si Si7 0.206636 0.439488 0.577729
O O1 0.210954 0.543023 0.887107
O O2 0.241778 0.289916 0.802860
O O3 0.302993 0.411760 0.044389
O O4 0.861949 0.099941 0.765762
O O5 0.747553 0.955398 0.109254
O O6 0.635001 0.129234 0.165565
O O7 0.986670 0.244579 0.394045
O O8 0.588207 0.837273 0.238787
O O9 0.571499 0.312152 0.360089
O O10 0.169799 0.189430 0.211854
O O11 0.177672 0.961652 0.056064
O O12 0.993540 0.352922 0.203388
O O13 0.094586 0.460160 0.641962
O O14 0.667526 0.624545 0.344775
#
# Coordination Sequence:
#
# PCOD9097813 Si02
#       7
#     2   2   2   2   2   2   2
#     4  10  20  37  61  88 120 149 200 241 292 338
#     4  10  21  40  60  88 118 157 194 241 285 359
#     4  11  21  39  59  91 117 155 192 250 281 355
#     4   9  21  37  61  82 123 150 200 233 296 335
#     4   9  22  39  61  86 117 161 189 247 284 353
#     4  10  20  36  62  89 113 156 198 246 279 348
#     4  11  23  37  64  88 121 149 200 237 301 339
#
# _framework density 23.156680999999999
#
# number of rings (size 3 to 8) (size 9 to 14) (size 15 to 20)
#    0.857    1.143    1.429    2.571    4.000    3.429 
#    0.000    2.143    0.000    0.000    0.000    0.000 
#    0.000    0.000    0.000    0.000    0.000    0.000 
#
# Total GULP energy -77956.397354 kJ/mol
# GULP energy per Si atom -5568.314097 kJ/mol
# Density = 2.310398 g / cm^3
# Si number density = 23.156681 Si / 1000 Ang^3
#
#
#
# Elastic Constant Matrix: (Units=GPa)
#
#
# Indices 1 2 3 4 5 6 
#
# 1 78.1972 20.6107 14.2440 3.0167 -0.1322 1.0186
# 2 20.6107 127.5567 39.6467 -3.5931 10.8652 -9.2904
# 3 14.2440 39.6467 78.4431 4.1948 9.4153 7.8225
# 4 3.0167 -3.5931 4.1948 31.6085 1.0375 13.0218
# 5 -0.1322 10.8652 9.4153 1.0375 16.6303 4.5264
# 6 1.0186 -9.2904 7.8225 13.0218 4.5264 31.3389
#
#
#
# Elastic Compliance Matrix: (Units=1/GPa)
#
#
# Indices 1 2 3 4 5 6 
#
# 1 0.013671 -0.001973 -0.001680 -0.001190 0.002555 -0.000484
# 2 -0.001973 0.010501 -0.004799 0.000082 -0.005565 0.005145
# 3 -0.001680 -0.004799 0.016559 -0.000542 -0.004979 -0.004557
# 4 -0.001190 0.000082 -0.000542 0.038379 0.002223 -0.016070
# 5 0.002555 -0.005565 -0.004979 0.002223 0.069588 -0.011464
# 6 -0.000484 0.005145 -0.004557 -0.016070 -0.011464 0.042921
#
#
# Mechanical properties :
#
#
# Convention : Reuss Voigt Hill
#
# Bulk Modulus (GPa) = 41.96734 48.13331 45.05033
# Shear Modulus (GPa) = 23.09837 29.89524 26.49681
#
# Velocity S-wave (km/s) = 3.16172 3.59694 3.38633
# Velocity P-wave (km/s) = 5.61170 6.17104 5.89800
#
# Compressibility (1/GPa) = 0.02382805
#
# Stress axis : x y z
#
# Youngs Moduli (GPa) = 73.14849 95.22908 60.38841
#
# Poissons Ratio (x) = 0.18791 0.10144
# Poissons Ratio (y) = 0.14434 0.28978
# Poissons Ratio (z) = 0.12287 0.45696
#
# Static dielectric constant tensor:
#      x y z
#    x 1.917710 -0.044450 0.015420 
#    y -0.044450 1.959540 0.019060 
#    z 0.015420 0.019060 1.865880 
# 
# From -- ./inp_files/495278.got.cif
#   From: 2010.05.17/outbox.cif.g08.bks.cpg/sg2_248_cif.got.tgz:495278.got - 2010.06.03 11:33:40.
