data_PCOD9097138
_publ_section_title
;
Structure prediction by ZEFSAII (Michael W. Deem and Ramdas Pophale) SiO2 
 PCOD9097138
Probable space group: P -1
;
_chemical_formula_sum "Si O2"
_cell_formula_units_Z 13
_cell_length_a 17.287596
_cell_length_b 11.651842
_cell_length_c 11.572221
_cell_angle_alpha 135.331713
_cell_angle_beta 153.369358
_cell_angle_gamma 29.992444
_cell_volume 501.219629
_symmetry_space_group_name_H-M "P -1"
_symmetry_group_IT_number 2
_symmetry_cell_setting 'triclinic'
loop_
_space_group_symop_operation_xyz
x,y,z
-x,-y,-z
loop_
_atom_site_type_symbol
_atom_site_label
_atom_site_fract_x
_atom_site_fract_y
_atom_site_fract_z
Si Si1 0.317612 0.877983 0.204181
Si Si2 0.776568 0.737615 0.216190
Si Si3 0.583084 0.544870 0.908271
Si Si4 0.276520 0.990788 0.970830
Si Si5 0.318962 0.991270 0.524379
Si Si6 0.089202 0.529435 0.256617
Si Si7 0.500000 0.500000 0.500000
O O1 0.290519 0.704065 0.051556
O O2 0.235261 0.003113 0.061297
O O3 0.194818 0.044665 0.271718
O O4 0.617949 0.696938 0.491415
O O5 0.943430 0.588143 0.220661
O O6 0.856649 0.819419 0.472525
O O7 0.753153 0.584092 0.139088
O O8 0.500000 0.000000 0.000000
O O9 0.482464 0.568936 0.662651
O O10 0.389794 0.751448 0.892938
O O11 0.472747 0.006518 0.218396
O O12 0.010853 0.219753 0.722226
O O13 0.438885 0.735808 0.543016
O O14 0.000000 0.500000 0.000000
#
# Coordination Sequence:
#
# PCOD9097138 Si02
#       7
#     2   2   2   2   2   2   1
#     4  11  24  39  66  97 123 163 215 259 307 374
#     4  11  18  40  64  86 125 170 203 253 319 373
#     4  10  21  37  65  91 125 171 205 256 316 373
#     4  11  21  42  62  89 134 163 205 259 322 364
#     4  10  19  35  62  87 121 170 201 250 314 370
#     4  12  23  38  67  97 119 164 216 261 307 370
#     4  10  16  30  58  96 112 154 226 236 296 382
#
# _framework density 25.936733
#
# number of rings (size 3 to 8) (size 9 to 14) (size 15 to 20)
#    0.000    1.231    6.154    0.923    2.154    0.615 
#    0.000    3.077    0.000    4.615    0.000    0.000 
#    0.000    0.000    0.000    0.000    0.000    0.000 
#
# Total GULP energy -72540.989543 kJ/mol
# GULP energy per Si atom -5580.076119 kJ/mol
# Density = 2.587770 g / cm^3
# Si number density = 25.936733 Si / 1000 Ang^3
#
#
#
# Elastic Constant Matrix: (Units=GPa)
#
#
# Indices 1 2 3 4 5 6 
#
# 1 145.1532 29.0401 13.3622 21.7768 -24.0573 5.1078
# 2 29.0401 88.8902 23.1516 33.3012 2.1508 -2.8349
# 3 13.3622 23.1516 57.8264 31.3613 -1.3430 -12.5818
# 4 21.7768 33.3012 31.3613 55.3640 -6.0085 -9.5038
# 5 -24.0573 2.1508 -1.3430 -6.0085 33.0788 8.3365
# 6 5.1078 -2.8349 -12.5818 -9.5038 8.3365 62.6748
#
#
#
# Elastic Compliance Matrix: (Units=1/GPa)
#
#
# Indices 1 2 3 4 5 6 
#
# 1 0.008842 -0.002493 -0.000684 -0.001200 0.006868 -0.002066
# 2 -0.002493 0.015549 -0.001380 -0.008064 -0.004341 -0.000016
# 3 -0.000684 -0.001380 0.025899 -0.013252 -0.002655 0.003536
# 4 -0.001200 -0.008064 -0.013252 0.031601 0.004536 0.001261
# 5 0.006868 -0.004341 -0.002655 0.004536 0.037637 -0.005607
# 6 -0.002066 -0.000016 0.003536 0.001261 -0.005607 0.017770
#
#
# Mechanical properties :
#
#
# Convention : Reuss Voigt Hill
#
# Bulk Modulus (GPa) = 24.28606 46.99750 35.64178
# Shear Modulus (GPa) = 31.22321 45.31123 38.26722
#
# Velocity S-wave (km/s) = 3.47338 4.18424 3.84527
# Velocity P-wave (km/s) = 5.04675 6.44230 5.78675
#
# Compressibility (1/GPa) = 0.04117589
#
# Stress axis : x y z
#
# Youngs Moduli (GPa) = 113.09686 64.31113 38.61194
#
# Poissons Ratio (x) = 0.16032 0.02642
# Poissons Ratio (y) = 0.28193 0.05329
# Poissons Ratio (z) = 0.07738 0.08875
#
# Static dielectric constant tensor:
#      x y z
#    x 2.054240 -0.067440 0.062440 
#    y -0.067440 2.066050 -0.051370 
#    z 0.062440 -0.051370 2.135610 
# 
# From -- ./inp_files/465155.got.cif
#   From: 2010.05.17/outbox.cif.g08.bks.cpg/sg2_233_cif.got.tgz:465155.got - 2010.06.03 11:33:40.
