data_PCOD9097844
_publ_section_title
;
Structure prediction by ZEFSAII (Michael W. Deem and Ramdas Pophale) SiO2 
 PCOD9097844
Probable space group: P -1
;
_chemical_formula_sum "Si O2"
_cell_formula_units_Z 14
_cell_length_a 15.565720
_cell_length_b 7.287614
_cell_length_c 6.876450
_cell_angle_alpha 89.426814
_cell_angle_beta 135.295360
_cell_angle_gamma 101.112904
_cell_volume 529.244487
_symmetry_space_group_name_H-M "P -1"
_symmetry_group_IT_number 2
_symmetry_cell_setting 'triclinic'
loop_
_space_group_symop_operation_xyz
x,y,z
-x,-y,-z
loop_
_atom_site_type_symbol
_atom_site_label
_atom_site_fract_x
_atom_site_fract_y
_atom_site_fract_z
Si Si1 0.741075 0.060721 0.727175
Si Si2 0.308686 0.452204 0.830751
Si Si3 0.775456 0.004607 0.322045
Si Si4 0.796299 0.485761 0.966104
Si Si5 0.520761 0.984723 0.801320
Si Si6 0.044371 0.119512 0.869998
Si Si7 0.425446 0.538374 0.621697
O O1 0.784186 0.278740 0.862934
O O2 0.590246 0.957813 0.495983
O O3 0.761010 0.058279 0.524958
O O4 0.830554 0.948856 0.976394
O O5 0.268721 0.223586 0.762268
O O6 0.321495 0.509741 0.626463
O O7 0.207125 0.508849 0.805144
O O8 0.456717 0.542748 0.131619
O O9 0.671236 0.073716 0.026876
O O10 0.925288 0.073552 0.534945
O O11 0.662042 0.535273 0.701122
O O12 0.906049 0.652159 0.047240
O O13 0.485986 0.761589 0.701704
O O14 0.500000 0.000000 0.000000
O O15 0.000000 0.000000 0.000000
#
# Coordination Sequence:
#
# PCOD9097844 Si02
#       7
#     2   2   2   2   2   2   2
#     4   9  19  37  61  89 122 161 209 262 314 368
#     4  10  20  36  62  90 120 164 208 255 316 376
#     4   9  18  35  58  84 120 164 202 247 311 373
#     4  11  22  38  62  91 123 162 212 261 310 373
#     4   8  15  31  57  85 114 154 204 253 306 366
#     4  10  21  37  60  88 125 168 208 253 312 377
#     4   9  18  35  59  87 122 159 204 257 313 373
#
# _framework density 26.4528
#
# number of rings (size 3 to 8) (size 9 to 14) (size 15 to 20)
#    0.000    2.571    0.000    2.143    0.000    4.000 
#    0.000    7.857    0.000   23.143    0.000    0.000 
#    0.000    0.000    0.000    0.000    0.000    0.000 
#
# Total GULP energy -78256.972602 kJ/mol
# GULP energy per Si atom -5589.783757 kJ/mol
# Density = 2.639259 g / cm^3
# Si number density = 26.452800 Si / 1000 Ang^3
#
#
#
# Elastic Constant Matrix: (Units=GPa)
#
#
# Indices 1 2 3 4 5 6 
#
# 1 106.4306 37.6198 35.4260 18.5891 -7.4563 4.1346
# 2 37.6198 118.6646 53.5340 37.0642 6.8737 0.6466
# 3 35.4260 53.5340 197.4646 1.9618 36.8768 -1.5243
# 4 18.5891 37.0642 1.9618 52.0294 -6.0648 4.4854
# 5 -7.4563 6.8737 36.8768 -6.0648 44.3787 -4.1611
# 6 4.1346 0.6466 -1.5243 4.4854 -4.1611 39.2505
#
#
#
# Elastic Compliance Matrix: (Units=1/GPa)
#
#
# Indices 1 2 3 4 5 6 
#
# 1 0.011543 -0.002320 -0.002128 -0.001899 0.003747 -0.000646
# 2 -0.002320 0.013232 -0.002858 -0.008694 -0.001179 0.000784
# 3 -0.002128 -0.002858 0.007269 0.001878 -0.005723 -0.000268
# 4 -0.001899 -0.008694 0.001878 0.026556 0.002879 -0.002313
# 5 0.003747 -0.001179 -0.005723 0.002879 0.028693 0.002115
# 6 -0.000646 0.000784 -0.000268 -0.002313 0.002115 0.026011
#
#
# Mechanical properties :
#
#
# Convention : Reuss Voigt Hill
#
# Bulk Modulus (GPa) = 57.36736 75.07993 66.22365
# Shear Modulus (GPa) = 37.38957 46.86370 42.12664
#
# Velocity S-wave (km/s) = 3.76366 4.21360 3.99497
# Velocity P-wave (km/s) = 6.37343 7.21920 6.80946
#
# Compressibility (1/GPa) = 0.01743151
#
# Stress axis : x y z
#
# Youngs Moduli (GPa) = 86.63003 75.57558 137.57044
#
# Poissons Ratio (x) = 0.17534 0.29272
# Poissons Ratio (y) = 0.20099 0.39324
# Poissons Ratio (z) = 0.18433 0.21603
#
# Static dielectric constant tensor:
#      x y z
#    x 2.269450 -0.016100 0.091130 
#    y -0.016100 2.095740 0.044230 
#    z 0.091130 0.044230 2.211070 
# 
# From -- ./inp_files/326346.got.cif
#   From: 2010.05.17/outbox.cif.g08.bks.cpg/sg2_164_cif.got.tgz:326346.got - 2010.06.03 11:33:40.
