data_PCOD9097303
_publ_section_title
;
Structure prediction by ZEFSAII (Michael W. Deem and Ramdas Pophale) SiO2 
 PCOD9097303
Probable space group: P -1
;
_chemical_formula_sum "Si O2"
_cell_formula_units_Z 12
_cell_length_a 12.670657
_cell_length_b 6.418318
_cell_length_c 11.914430
_cell_angle_alpha 72.465468
_cell_angle_beta 37.916304
_cell_angle_gamma 75.117771
_cell_volume 567.449501
_symmetry_space_group_name_H-M "P -1"
_symmetry_group_IT_number 2
_symmetry_cell_setting 'triclinic'
loop_
_space_group_symop_operation_xyz
x,y,z
-x,-y,-z
loop_
_atom_site_type_symbol
_atom_site_label
_atom_site_fract_x
_atom_site_fract_y
_atom_site_fract_z
Si Si1 0.401358 0.178605 0.628997
Si Si2 0.524091 0.295245 0.863271
Si Si3 0.330833 0.572378 0.490128
Si Si4 0.274237 0.013943 0.995532
Si Si5 0.001054 0.802872 0.622504
Si Si6 0.766072 0.440617 0.814101
O O1 0.288414 0.342951 0.618424
O O2 0.559240 0.303797 0.531209
O O3 0.500000 0.000000 0.500000
O O4 0.294431 0.097870 0.838607
O O5 0.543173 0.461826 0.716768
O O6 0.702979 0.315979 0.775832
O O7 0.453118 0.075673 0.901108
O O8 0.381242 0.382484 0.055315
O O9 0.178909 0.730151 0.545097
O O10 0.128252 0.128996 0.177614
O O11 0.234364 0.759454 0.066964
O O12 0.932331 0.584228 0.656139
O O13 0.000000 0.000000 0.500000
#
# Coordination Sequence:
#
# PCOD9097303 Si02
#       6
#     2   2   2   2   2   2
#     4  10  22  41  66  87 111 158 209 249 293 346
#     4   9  19  35  59  87 117 155 199 246 292 349
#     4  10  22  40  60  87 123 154 198 252 293 348
#     4  10  21  38  59  88 121 155 199 246 295 353
#     4  11  25  40  58  90 128 160 193 243 305 362
#     4  10  20  36  60  86 119 159 198 242 301 357
#
# _framework density 21.147258999999998
#
# number of rings (size 3 to 8) (size 9 to 14) (size 15 to 20)
#    0.000    2.000    0.000    2.500    0.000   14.000 
#    0.000    1.667    0.000    0.000    0.000    0.000 
#    0.000    0.000    0.000    0.000    0.000    0.000 
#
# Total GULP energy -66861.357024 kJ/mol
# GULP energy per Si atom -5571.779752 kJ/mol
# Density = 2.109913 g / cm^3
# Si number density = 21.147259 Si / 1000 Ang^3
#
#
#
# Elastic Constant Matrix: (Units=GPa)
#
#
# Indices 1 2 3 4 5 6 
#
# 1 93.3168 36.9669 44.3920 -9.3347 8.8750 -18.9111
# 2 36.9669 84.7850 49.9645 -19.6300 15.2809 -18.5344
# 3 44.3920 49.9645 102.5555 -12.1184 20.4098 -4.9069
# 4 -9.3347 -19.6300 -12.1184 48.8728 1.9523 2.7190
# 5 8.8750 15.2809 20.4098 1.9523 39.7358 -1.5938
# 6 -18.9111 -18.5344 -4.9069 2.7190 -1.5938 28.5619
#
#
#
# Elastic Compliance Matrix: (Units=1/GPa)
#
#
# Indices 1 2 3 4 5 6 
#
# 1 0.015762 -0.001694 -0.005608 0.000462 0.000323 0.008348
# 2 -0.001694 0.021522 -0.007788 0.005943 -0.003759 0.010731
# 3 -0.005608 -0.007788 0.016639 0.000454 -0.004570 -0.006207
# 4 0.000462 0.005943 0.000454 0.023094 -0.003683 0.001837
# 5 0.000323 -0.003759 -0.004570 -0.003683 0.029026 -0.001040
# 6 0.008348 0.010731 -0.006207 0.001837 -0.001040 0.046203
#
#
# Mechanical properties :
#
#
# Convention : Reuss Voigt Hill
#
# Bulk Modulus (GPa) = 42.11816 60.36712 51.24264
# Shear Modulus (GPa) = 26.26857 33.38969 29.82913
#
# Velocity S-wave (km/s) = 3.52827 3.97787 3.75979
# Velocity P-wave (km/s) = 6.04633 7.05024 6.56750
#
# Compressibility (1/GPa) = 0.02374273
#
# Stress axis : x y z
#
# Youngs Moduli (GPa) = 63.44315 46.46334 60.10045
#
# Poissons Ratio (x) = 0.07872 0.33703
# Poissons Ratio (y) = 0.10749 0.46808
# Poissons Ratio (z) = 0.35577 0.36187
#
# Static dielectric constant tensor:
#      x y z
#    x 1.789410 0.008980 0.004460 
#    y 0.008980 1.783090 -0.010260 
#    z 0.004460 -0.010260 1.848490 
# 
# From -- ./inp_files/19007.got.cif
#   From: 2010.05.17/outbox.cif.g08.bks.cpg/sg2_10_cif.got.tgz:19007.got - 2010.06.03 11:33:40.
