data_PCOD9097462
_publ_section_title
;
Structure prediction by ZEFSAII (Michael W. Deem and Ramdas Pophale) SiO2 
 PCOD9097462
Probable space group: P -1
;
_chemical_formula_sum "Si O2"
_cell_formula_units_Z 14
_cell_length_a 10.934614
_cell_length_b 11.417907
_cell_length_c 5.418237
_cell_angle_alpha 77.218945
_cell_angle_beta 100.020034
_cell_angle_gamma 114.420189
_cell_volume 598.088976
_symmetry_space_group_name_H-M "P -1"
_symmetry_group_IT_number 2
_symmetry_cell_setting 'triclinic'
loop_
_space_group_symop_operation_xyz
x,y,z
-x,-y,-z
loop_
_atom_site_type_symbol
_atom_site_label
_atom_site_fract_x
_atom_site_fract_y
_atom_site_fract_z
Si Si1 0.663669 0.824028 0.957504
Si Si2 0.797899 0.345116 0.894159
Si Si3 0.025159 0.370291 0.286926
Si Si4 0.702207 0.103148 0.624782
Si Si5 0.158645 0.340475 0.830866
Si Si6 0.410534 0.587458 0.905666
Si Si7 0.571794 0.946110 0.257393
O O1 0.531786 0.724060 0.816213
O O2 0.709671 0.970854 0.802791
O O3 0.774222 0.763292 0.048668
O O4 0.616404 0.838469 0.210482
O O5 0.901948 0.473821 0.737137
O O6 0.781144 0.225360 0.765437
O O7 0.665079 0.371495 0.912161
O O8 0.869926 0.334872 0.181839
O O9 0.064708 0.309844 0.569780
O O10 0.086174 0.342943 0.063322
O O11 0.554226 0.110156 0.579266
O O12 0.700228 0.064994 0.354833
O O13 0.280000 0.484228 0.764933
O O14 0.500000 0.500000 0.000000
O O15 0.500000 0.000000 0.000000
#
# Coordination Sequence:
#
# PCOD9097462 Si02
#       7
#     2   2   2   2   2   2   2
#     4  10  20  38  62  93 131 163 204 262 324 388
#     4  10  21  41  66  89 126 162 220 266 311 379
#     4  10  24  44  65  94 119 176 220 264 312 364
#     4  10  20  36  60  94 123 168 205 259 320 384
#     4  10  23  43  65  92 131 167 216 264 314 377
#     4   9  19  38  61  96 123 163 199 262 326 382
#     4   9  19  34  52  88 126 158 199 243 318 381
#
# _framework density 23.407889000000001
#
# number of rings (size 3 to 8) (size 9 to 14) (size 15 to 20)
#    0.000    2.286    1.429    0.000    2.000    8.571 
#    7.714    7.857    0.000    0.000    0.000    0.000 
#    0.000    0.000    0.000    0.000    0.000    0.000 
#
# Total GULP energy -77941.564303 kJ/mol
# GULP energy per Si atom -5567.254593 kJ/mol
# Density = 2.335461 g / cm^3
# Si number density = 23.407889 Si / 1000 Ang^3
#
#
#
# Elastic Constant Matrix: (Units=GPa)
#
#
# Indices 1 2 3 4 5 6 
#
# 1 99.9845 47.1470 38.8367 -0.3350 15.4468 -27.2247
# 2 47.1470 160.1653 55.9921 7.8950 17.1316 -26.2446
# 3 38.8367 55.9921 135.1702 9.6371 10.3821 -14.4919
# 4 -0.3350 7.8950 9.6371 31.8153 -1.5511 3.1154
# 5 15.4468 17.1316 10.3821 -1.5511 12.0740 0.4879
# 6 -27.2247 -26.2446 -14.4919 3.1154 0.4879 35.2444
#
#
#
# Elastic Compliance Matrix: (Units=1/GPa)
#
#
# Indices 1 2 3 4 5 6 
#
# 1 0.017739 0.000061 -0.001883 -0.001641 -0.021915 0.013422
# 2 0.000061 0.009538 -0.002073 -0.003007 -0.012487 0.006735
# 3 -0.001883 -0.002073 0.009336 -0.002592 -0.003056 0.001113
# 4 -0.001641 -0.003007 -0.002592 0.034358 0.013322 -0.007793
# 5 -0.021915 -0.012487 -0.003056 0.013322 0.134149 -0.030518
# 6 0.013422 0.006735 0.001113 -0.007793 -0.030518 0.045326
#
#
# Mechanical properties :
#
#
# Convention : Reuss Voigt Hill
#
# Bulk Modulus (GPa) = 34.69354 75.47462 55.08408
# Shear Modulus (GPa) = 18.66760 32.71635 25.69197
#
# Velocity S-wave (km/s) = 2.82705 3.74259 3.31657
# Velocity P-wave (km/s) = 5.05072 7.14067 6.18462
#
# Compressibility (1/GPa) = 0.02882381
#
# Stress axis : x y z
#
# Youngs Moduli (GPa) = 56.37275 104.84600 107.10752
#
# Poissons Ratio (x) = -0.00636 0.20165
# Poissons Ratio (y) = -0.00342 0.22201
# Poissons Ratio (z) = 0.10613 0.21732
#
# Static dielectric constant tensor:
#      x y z
#    x 1.952470 0.077750 -0.070000 
#    y 0.077750 1.995140 0.036250 
#    z -0.070000 0.036250 2.007280 
# 
# From -- ./inp_files/66609.got.cif
#   From: 2010.05.17/outbox.cif.g08.bks.cpg/sg2_34_cif.got.tgz:66609.got - 2010.06.03 11:33:40.
