data_PCOD9097604
_publ_section_title
;
Structure prediction by ZEFSAII (Michael W. Deem and Ramdas Pophale) SiO2 
 PCOD9097604
Probable space group: P -1
;
_chemical_formula_sum "Si O2"
_cell_formula_units_Z 16
_cell_length_a 8.676846
_cell_length_b 10.436625
_cell_length_c 8.473696
_cell_angle_alpha 116.463196
_cell_angle_beta 72.077862
_cell_angle_gamma 96.373026
_cell_volume 653.308394
_symmetry_space_group_name_H-M "P -1"
_symmetry_group_IT_number 2
_symmetry_cell_setting 'triclinic'
loop_
_space_group_symop_operation_xyz
x,y,z
-x,-y,-z
loop_
_atom_site_type_symbol
_atom_site_label
_atom_site_fract_x
_atom_site_fract_y
_atom_site_fract_z
Si Si1 0.403797 0.937145 0.348789
Si Si2 0.797382 0.220586 0.167237
Si Si3 0.527668 0.380440 0.792210
Si Si4 0.179047 0.461012 0.352724
Si Si5 0.868887 0.038573 0.339570
Si Si6 0.175725 0.208491 0.993575
Si Si7 0.255486 0.027983 0.158800
Si Si8 0.668343 0.541909 0.395563
O O1 0.467984 0.775143 0.216121
O O2 0.214481 0.923282 0.449393
O O3 0.385890 0.041639 0.262929
O O4 0.500000 0.000000 0.500000
O O5 0.775611 0.144064 0.300672
O O6 0.762986 0.389249 0.260933
O O7 0.986559 0.184912 0.069560
O O8 0.719168 0.134871 0.002576
O O9 0.694827 0.415586 0.664681
O O10 0.380047 0.388260 0.716521
O O11 0.500000 0.500000 0.000000
O O12 0.183291 0.370954 0.139795
O O13 0.249246 0.376999 0.440091
O O14 0.000000 0.500000 0.500000
O O15 0.063549 0.051637 0.279245
O O16 0.813118 0.878504 0.220840
O O17 0.275826 0.122672 0.048841
O O18 0.500000 0.500000 0.500000
#
# Coordination Sequence:
#
# PCOD9097604 Si02
#       8
#     2   2   2   2   2   2   2   2
#     4  12  26  41  60  88 132 169 216 250 312 392
#     4   9  16  37  63  90 118 149 210 263 320 364
#     4  11  27  46  64  90 139 179 206 260 331 382
#     4  11  22  40  70  96 124 164 224 271 314 375
#     4   9  19  38  63  90 119 160 205 264 320 372
#     4   9  19  35  66  95 119 150 213 274 314 366
#     4   9  20  38  64  88 118 162 202 266 323 370
#     4  10  20  36  61  89 124 170 210 255 317 381
#
# _framework density 24.490728000000001
#
# number of rings (size 3 to 8) (size 9 to 14) (size 15 to 20)
#    0.000    2.000    1.250    4.125    5.250    0.000 
#    0.000    1.875    0.000    0.000    0.000    0.000 
#    0.000    0.000    0.000    0.000    0.000    0.000 
#
# Total GULP energy -89182.475107 kJ/mol
# GULP energy per Si atom -5573.904694 kJ/mol
# Density = 2.443499 g / cm^3
# Si number density = 24.490728 Si / 1000 Ang^3
#
#
#
# Elastic Constant Matrix: (Units=GPa)
#
#
# Indices 1 2 3 4 5 6 
#
# 1 103.7752 31.3249 24.2289 -15.2265 7.8225 -13.8668
# 2 31.3249 72.0824 10.1418 2.3859 -5.8412 -16.5417
# 3 24.2289 10.1418 66.3258 15.8429 -4.3547 -12.8585
# 4 -15.2265 2.3859 15.8429 37.9493 -3.1836 5.1064
# 5 7.8225 -5.8412 -4.3547 -3.1836 44.9135 -9.2981
# 6 -13.8668 -16.5417 -12.8585 5.1064 -9.2981 41.3153
#
#
#
# Elastic Compliance Matrix: (Units=1/GPa)
#
#
# Indices 1 2 3 4 5 6 
#
# 1 0.014628 -0.006391 -0.007178 0.009201 -0.003812 -0.001879
# 2 -0.006391 0.018703 0.002674 -0.005507 0.005070 0.007997
# 3 -0.007178 0.002674 0.022315 -0.013093 0.004541 0.008246
# 4 0.009201 -0.005507 -0.013093 0.036750 -0.002711 -0.008344
# 5 -0.003812 0.005070 0.004541 -0.002711 0.025544 0.008247
# 6 -0.001879 0.007997 0.008246 -0.008344 0.008247 0.032229
#
#
# Mechanical properties :
#
#
# Convention : Reuss Voigt Hill
#
# Bulk Modulus (GPa) = 29.53964 41.50830 35.52397
# Shear Modulus (GPa) = 27.28592 36.60146 31.94369
#
# Velocity S-wave (km/s) = 3.34148 3.87007 3.61545
# Velocity P-wave (km/s) = 5.19376 6.07909 5.65378
#
# Compressibility (1/GPa) = 0.03385281
#
# Stress axis : x y z
#
# Youngs Moduli (GPa) = 68.36326 53.46861 44.81333
#
# Poissons Ratio (x) = 0.34173 0.32169
# Poissons Ratio (y) = 0.43693 -0.11981
# Poissons Ratio (z) = 0.49074 -0.14295
#
# Static dielectric constant tensor:
#      x y z
#    x 1.975470 0.019190 -0.006390 
#    y 0.019190 1.936250 -0.042960 
#    z -0.006390 -0.042960 2.049430 
# 
# From -- ./inp_files/182365.got.cif
#   From: 2010.05.17/outbox.cif.g08.bks.cpg/sg2_92_cif.got.tgz:182365.got - 2010.06.03 11:33:40.
