data_PCOD9097829
_publ_section_title
;
Structure prediction by ZEFSAII (Michael W. Deem and Ramdas Pophale) SiO2 
 PCOD9097829
Probable space group: P -1
;
_chemical_formula_sum "Si O2"
_cell_formula_units_Z 16
_cell_length_a 8.958273
_cell_length_b 15.105414
_cell_length_c 7.966442
_cell_angle_alpha 102.568535
_cell_angle_beta 109.218832
_cell_angle_gamma 37.071596
_cell_volume 611.695509
_symmetry_space_group_name_H-M "P -1"
_symmetry_group_IT_number 2
_symmetry_cell_setting 'triclinic'
loop_
_space_group_symop_operation_xyz
x,y,z
-x,-y,-z
loop_
_atom_site_type_symbol
_atom_site_label
_atom_site_fract_x
_atom_site_fract_y
_atom_site_fract_z
Si Si1 0.492573 0.471361 0.220946
Si Si2 0.222450 0.315706 0.311050
Si Si3 0.565298 0.776933 0.003777
Si Si4 0.305272 0.909929 0.407826
Si Si5 0.995869 0.302331 0.705512
Si Si6 0.910994 0.812718 0.675011
Si Si7 0.354415 0.422471 0.833605
Si Si8 0.899439 0.940184 0.236087
O O1 0.303563 0.534113 0.330515
O O2 0.529286 0.563183 0.255107
O O3 0.784503 0.301296 0.244322
O O4 0.337778 0.500346 0.017708
O O5 0.339927 0.300723 0.175883
O O6 0.408521 0.251921 0.509526
O O7 0.196359 0.216535 0.253969
O O8 0.930302 0.477860 0.282864
O O9 0.319739 0.947415 0.936488
O O10 0.502280 0.726071 0.089471
O O11 0.805562 0.719993 0.146727
O O12 0.212130 0.984410 0.589811
O O13 0.262390 0.019294 0.326882
O O14 0.121886 0.912743 0.282934
O O15 0.086626 0.237635 0.526049
O O16 0.011895 0.202418 0.776725
#
# Coordination Sequence:
#
# PCOD9097829 Si02
#       8
#     2   2   2   2   2   2   2   2
#     4  10  21  39  62  87 120 151 197 246 284 347
#     4  10  20  36  62  90 114 152 200 241 282 347
#     4  11  21  39  64  85 118 155 197 239 293 347
#     4   9  18  37  61  84 116 155 200 236 286 348
#     4  11  22  39  59  89 124 152 187 244 307 340
#     4  10  21  38  60  90 119 154 195 241 293 344
#     4  10  21  39  62  90 114 154 203 239 283 348
#     4   9  20  37  58  88 114 154 196 245 285 347
#
# _framework density 26.156803
#
# number of rings (size 3 to 8) (size 9 to 14) (size 15 to 20)
#    0.000    2.000    1.250    2.250    0.000    1.000 
#    4.500    1.875    0.000    0.000    0.000    0.000 
#    0.000    0.000    0.000    0.000    0.000    0.000 
#
# Total GULP energy -89602.783751 kJ/mol
# GULP energy per Si atom -5600.173984 kJ/mol
# Density = 2.609727 g / cm^3
# Si number density = 26.156803 Si / 1000 Ang^3
#
#
#
# Elastic Constant Matrix: (Units=GPa)
#
#
# Indices 1 2 3 4 5 6 
#
# 1 68.1485 28.7512 46.6711 -10.5808 1.0789 -11.6339
# 2 28.7512 81.3703 31.1076 -21.5492 -2.4923 -7.1854
# 3 46.6711 31.1076 78.3118 -21.8728 -4.4636 -9.4093
# 4 -10.5808 -21.5492 -21.8728 36.1902 -8.1680 1.4367
# 5 1.0789 -2.4923 -4.4636 -8.1680 37.8148 -9.9094
# 6 -11.6339 -7.1854 -9.4093 1.4367 -9.9094 42.6924
#
#
#
# Elastic Compliance Matrix: (Units=1/GPa)
#
#
# Indices 1 2 3 4 5 6 
#
# 1 0.027043 -0.004893 -0.015537 -0.005266 -0.003408 0.002508
# 2 -0.004893 0.016991 -0.000939 0.008845 0.003542 0.001844
# 3 -0.015537 -0.000939 0.026580 0.012414 0.006894 0.002649
# 4 -0.005266 0.008845 0.012414 0.041462 0.012266 0.004242
# 5 -0.003408 0.003542 0.006894 0.012266 0.032413 0.008298
# 6 0.002508 0.001844 0.002649 0.004242 0.008298 0.026784
#
#
# Mechanical properties :
#
#
# Convention : Reuss Voigt Hill
#
# Bulk Modulus (GPa) = 35.87273 48.98783 42.43028
# Shear Modulus (GPa) = 22.39101 31.42620 26.90860
#
# Velocity S-wave (km/s) = 2.92897 3.46996 3.21088
# Velocity P-wave (km/s) = 5.01824 5.90113 5.47750
#
# Compressibility (1/GPa) = 0.02787633
#
# Stress axis : x y z
#
# Youngs Moduli (GPa) = 36.97833 58.85340 37.62172
#
# Poissons Ratio (x) = 0.28798 0.58452
# Poissons Ratio (y) = 0.18094 0.03534
# Poissons Ratio (z) = 0.57452 0.05528
#
# Static dielectric constant tensor:
#      x y z
#    x 1.995390 -0.005740 -0.016300 
#    y -0.005740 2.077230 0.010820 
#    z -0.016300 0.010820 2.008350 
# 
# From -- ./inp_files/207877.got.cif
#   From: 2010.05.17/outbox.cif.g08.bks.cpg/sg2_104_cif.got.tgz:207877.got - 2010.06.03 11:33:40.
