data_PCOD9097873
_publ_section_title
;
Structure prediction by ZEFSAII (Michael W. Deem and Ramdas Pophale) SiO2 
 PCOD9097873
Probable space group: P -1
;
_chemical_formula_sum "Si O2"
_cell_formula_units_Z 13
_cell_length_a 9.552046
_cell_length_b 8.275563
_cell_length_c 11.869481
_cell_angle_alpha 109.918875
_cell_angle_beta 126.172921
_cell_angle_gamma 110.738375
_cell_volume 485.520277
_symmetry_space_group_name_H-M "P -1"
_symmetry_group_IT_number 2
_symmetry_cell_setting 'triclinic'
loop_
_space_group_symop_operation_xyz
x,y,z
-x,-y,-z
loop_
_atom_site_type_symbol
_atom_site_label
_atom_site_fract_x
_atom_site_fract_y
_atom_site_fract_z
Si Si1 0.493482 0.729526 0.359778
Si Si2 0.749839 0.261668 0.552835
Si Si3 0.926491 0.859900 0.688428
Si Si4 0.526008 0.207770 0.220767
Si Si5 0.539184 0.833033 0.065563
Si Si6 0.825874 0.582652 0.059181
Si Si7 0.000000 0.000000 0.000000
O O1 0.443246 0.774829 0.468234
O O2 0.230094 0.500562 0.116813
O O3 0.634251 0.985775 0.420409
O O4 0.674596 0.697479 0.455870
O O5 0.747497 0.353746 0.453848
O O6 0.000797 0.415260 0.782315
O O7 0.160011 0.933969 0.758346
O O8 0.039489 0.137794 0.811886
O O9 0.889222 0.803517 0.789669
O O10 0.580964 0.312095 0.145713
O O11 0.283042 0.125478 0.138682
O O12 0.452598 0.956549 0.096442
O O13 0.449950 0.630233 0.066192
#
# Coordination Sequence:
#
# PCOD9097873 Si02
#       7
#     2   2   2   2   2   2   1
#     4  10  20  37  61  93 122 158 203 252 300 357
#     4  10  20  36  62  91 121 162 201 253 302 351
#     4  10  22  40  64  90 123 162 200 252 302 354
#     4  10  20  40  65  88 120 166 204 244 310 352
#     4  10  22  39  62  91 125 166 197 246 304 369
#     4  11  22  37  61  94 126 157 202 249 301 365
#     4  10  20  40  68  84 120 158 206 256 296 358
#
# _framework density 26.775404000000002
#
# number of rings (size 3 to 8) (size 9 to 14) (size 15 to 20)
#    0.000    1.846    3.077    0.923    0.000    2.462 
#    2.769    0.769   10.154    0.000    0.000    0.000 
#    0.000    0.000    0.000    0.000    0.000    0.000 
#
# Total GULP energy -72517.229476 kJ/mol
# GULP energy per Si atom -5578.248421 kJ/mol
# Density = 2.671446 g / cm^3
# Si number density = 26.775404 Si / 1000 Ang^3
#
#
#
# Elastic Constant Matrix: (Units=GPa)
#
#
# Indices 1 2 3 4 5 6 
#
# 1 118.1046 10.9940 34.6429 1.5739 13.6680 8.4709
# 2 10.9940 72.5308 33.8755 -7.9310 -0.9223 9.9715
# 3 34.6429 33.8755 153.5606 -28.3766 5.2210 -0.3897
# 4 1.5739 -7.9310 -28.3766 47.5704 1.2405 -4.4529
# 5 13.6680 -0.9223 5.2210 1.2405 30.6714 -14.3828
# 6 8.4709 9.9715 -0.3897 -4.4529 -14.3828 24.1201
#
#
#
# Elastic Compliance Matrix: (Units=1/GPa)
#
#
# Indices 1 2 3 4 5 6 
#
# 1 0.011044 0.000630 -0.002841 -0.002661 -0.009029 -0.010060
# 2 0.000630 0.016658 -0.003772 -0.000273 -0.003487 -0.009298
# 3 -0.002841 -0.003772 0.008897 0.005161 0.001586 0.004600
# 4 -0.002661 -0.000273 0.005161 0.024758 0.002737 0.007333
# 5 -0.009029 -0.003487 0.001586 0.002737 0.053518 0.037056
# 6 -0.010060 -0.009298 0.004600 0.007333 0.037056 0.072361
#
#
# Mechanical properties :
#
#
# Convention : Reuss Voigt Hill
#
# Bulk Modulus (GPa) = 40.59795 55.91341 48.25568
# Shear Modulus (GPa) = 24.10665 38.11795 31.11230
#
# Velocity S-wave (km/s) = 3.00380 3.77718 3.41247
# Velocity P-wave (km/s) = 5.21783 6.32064 5.79553
#
# Compressibility (1/GPa) = 0.02463178
#
# Stress axis : x y z
#
# Youngs Moduli (GPa) = 90.55099 60.03208 112.40215
#
# Poissons Ratio (x) = -0.03782 0.31930
# Poissons Ratio (y) = -0.05705 0.42403
# Poissons Ratio (z) = 0.25723 0.22647
#
# Static dielectric constant tensor:
#      x y z
#    x 2.059910 -0.015380 0.001020 
#    y -0.015380 2.186250 -0.008480 
#    z 0.001020 -0.008480 2.136990 
# 
# From -- ./inp_files/94535.got.cif
#   From: 2010.05.17/outbox.cif.g08.bks.cpg/sg2_48_cif.got.tgz:94535.got - 2010.06.03 11:33:40.
