data_PCOD9097083
_publ_section_title
;
Structure prediction by ZEFSAII (Michael W. Deem and Ramdas Pophale) SiO2 
 PCOD9097083
Probable space group: P -1
;
_chemical_formula_sum "Si O2"
_cell_formula_units_Z 16
_cell_length_a 9.426567
_cell_length_b 18.032253
_cell_length_c 20.636276
_cell_angle_alpha 150.499906
_cell_angle_beta 149.969183
_cell_angle_gamma 39.366155
_cell_volume 861.732324
_symmetry_space_group_name_H-M "P -1"
_symmetry_group_IT_number 2
_symmetry_cell_setting 'triclinic'
loop_
_space_group_symop_operation_xyz
x,y,z
-x,-y,-z
loop_
_atom_site_type_symbol
_atom_site_label
_atom_site_fract_x
_atom_site_fract_y
_atom_site_fract_z
Si Si1 0.173175 0.742396 0.886791
Si Si2 0.544551 0.226905 0.708572
Si Si3 0.981104 0.967463 0.878717
Si Si4 0.268294 0.455379 0.026506
Si Si5 0.116346 0.051448 0.326472
Si Si6 0.502195 0.892631 0.856938
Si Si7 0.240571 0.390432 0.821840
Si Si8 0.768431 0.574568 0.693787
O O1 0.473297 0.650896 0.920928
O O2 0.002536 0.815733 0.813713
O O3 0.980872 0.631674 0.766290
O O4 0.209701 0.890447 0.058943
O O5 0.614567 0.386769 0.829606
O O6 0.372525 0.141043 0.521888
O O7 0.353950 0.249487 0.715427
O O8 0.821154 0.121985 0.759085
O O9 0.910460 0.941495 0.756318
O O10 0.298907 0.027255 0.053503
O O11 0.194622 0.374063 0.867709
O O12 0.000000 0.500000 0.000000
O O13 0.826299 0.117818 0.295964
O O14 0.650518 0.726537 0.799848
O O15 0.500000 0.000000 0.000000
O O16 0.959491 0.466878 0.734896
O O17 0.500000 0.500000 0.000000
O O18 0.500000 0.500000 0.500000
#
# Coordination Sequence:
#
# PCOD9097083 Si02
#       8
#     2   2   2   2   2   2   2   2
#     4  10  20  39  58  86 118 157 197 249 296 369
#     4  10  21  37  62  85 117 157 200 245 299 358
#     4   9  20  36  60  82 116 156 194 242 305 348
#     4  11  24  37  61  87 118 153 200 247 299 357
#     4  10  20  36  59  86 118 150 198 251 295 354
#     4   9  20  31  57  84 110 149 200 240 287 356
#     4  10  20  38  63  81 114 160 200 238 294 360
#     4  11  21  37  61  90 118 155 206 252 301 360
#
# _framework density 18.567250999999999
#
# number of rings (size 3 to 8) (size 9 to 14) (size 15 to 20)
#    0.000    2.000    2.500    1.500   10.500    1.000 
#    2.250    0.625    0.000    2.250    0.000    0.000 
#    0.000    0.000    0.000    0.000    0.000    0.000 
#
# Total GULP energy -89162.635793 kJ/mol
# GULP energy per Si atom -5572.664737 kJ/mol
# Density = 1.852499 g / cm^3
# Si number density = 18.567251 Si / 1000 Ang^3
#
#
#
# Elastic Constant Matrix: (Units=GPa)
#
#
# Indices 1 2 3 4 5 6 
#
# 1 82.0828 27.3593 16.5629 -4.7298 -7.3402 -14.5584
# 2 27.3593 89.1761 11.1394 -10.2445 6.9623 -16.6502
# 3 16.5629 11.1394 50.3063 -9.9522 -10.7590 4.8406
# 4 -4.7298 -10.2445 -9.9522 27.3955 0.4340 -0.8407
# 5 -7.3402 6.9623 -10.7590 0.4340 19.5269 -4.4502
# 6 -14.5584 -16.6502 4.8406 -0.8407 -4.4502 36.7925
#
#
#
# Elastic Compliance Matrix: (Units=1/GPa)
#
#
# Indices 1 2 3 4 5 6 
#
# 1 0.015793 -0.003849 -0.003443 0.000107 0.006726 0.005776
# 2 -0.003849 0.014729 -0.003283 0.003915 -0.007511 0.004755
# 3 -0.003443 -0.003283 0.026489 0.007450 0.013267 -0.004558
# 4 0.000107 0.003915 0.007450 0.040718 0.002310 0.002044
# 5 0.006726 -0.007511 0.013267 0.002310 0.064912 0.005421
# 6 0.005776 0.004755 -0.004558 0.002044 0.005421 0.032919
#
#
# Mechanical properties :
#
#
# Convention : Reuss Voigt Hill
#
# Bulk Modulus (GPa) = 27.88772 36.85426 32.37099
# Shear Modulus (GPa) = 21.86610 27.84321 24.85466
#
# Velocity S-wave (km/s) = 3.43544 3.87665 3.66270
# Velocity P-wave (km/s) = 5.54877 6.31902 5.94638
#
# Compressibility (1/GPa) = 0.03585807
#
# Stress axis : x y z
#
# Youngs Moduli (GPa) = 63.32011 67.89325 37.75156
#
# Poissons Ratio (x) = 0.26135 0.12999
# Poissons Ratio (y) = 0.24375 0.12395
# Poissons Ratio (z) = 0.21804 0.22292
#
# Static dielectric constant tensor:
#      x y z
#    x 1.666070 -0.020920 -0.004500 
#    y -0.020920 1.661620 0.002880 
#    z -0.004500 0.002880 1.657290 
# 
# From -- ./inp_files/477019.got.cif
#   From: 2010.05.17/outbox.cif.g08.bks.cpg/sg2_239_cif.got.tgz:477019.got - 2010.06.03 11:33:40.
