data_PCOD9097029
_publ_section_title
;
Structure prediction by ZEFSAII (Michael W. Deem and Ramdas Pophale) SiO2 
 PCOD9097029
Probable space group: P -1
;
_chemical_formula_sum "Si O2"
_cell_formula_units_Z 16
_cell_length_a 6.048122
_cell_length_b 22.591828
_cell_length_c 9.750234
_cell_angle_alpha 138.448836
_cell_angle_beta 118.508863
_cell_angle_gamma 74.220018
_cell_volume 768.168048
_symmetry_space_group_name_H-M "P -1"
_symmetry_group_IT_number 2
_symmetry_cell_setting 'triclinic'
loop_
_space_group_symop_operation_xyz
x,y,z
-x,-y,-z
loop_
_atom_site_type_symbol
_atom_site_label
_atom_site_fract_x
_atom_site_fract_y
_atom_site_fract_z
Si Si1 0.542434 0.881464 0.983357
Si Si2 0.407290 0.207804 0.431993
Si Si3 0.584322 0.940295 0.605548
Si Si4 0.221557 0.626570 0.252234
Si Si5 0.876047 0.270138 0.315282
Si Si6 0.307998 0.469430 0.181489
Si Si7 0.787944 0.429373 0.388084
Si Si8 0.908474 0.056521 0.694911
O O1 0.488192 0.852899 0.760968
O O2 0.356455 0.811683 0.899439
O O3 0.840011 0.874258 0.081124
O O4 0.494172 0.981711 0.182269
O O5 0.371866 0.147120 0.450483
O O6 0.598927 0.300891 0.658146
O O7 0.139354 0.233340 0.349323
O O8 0.353066 0.913573 0.383340
O O9 0.828291 0.989908 0.682493
O O10 0.164608 0.675195 0.462124
O O11 0.352834 0.541209 0.193952
O O12 0.957214 0.591361 0.038546
O O13 0.875806 0.336278 0.300468
O O14 0.542686 0.417551 0.195881
O O15 0.275668 0.524755 0.407354
O O16 0.000000 0.500000 0.500000
O O17 0.000000 0.000000 0.500000
#
# Coordination Sequence:
#
# PCOD9097029 Si02
#       8
#     2   2   2   2   2   2   2   2
#     4  10  21  38  58  80 111 150 188 234 281 329
#     4  11  22  36  57  85 116 145 185 237 283 329
#     4  10  21  38  59  82 109 150 194 229 280 339
#     4   9  20  38  57  82 114 147 185 231 276 326
#     4  10  22  36  54  84 115 146 187 230 276 334
#     4   9  19  38  60  81 111 149 187 224 272 337
#     4  10  20  36  59  84 112 147 184 225 278 333
#     4   9  20  38  57  78 107 144 187 235 279 327
#
# _framework density 20.828773999999999
#
# number of rings (size 3 to 8) (size 9 to 14) (size 15 to 20)
#    0.000    2.250    0.000    1.875    0.000    9.000 
#    0.000   11.250    0.000    0.000    0.000    0.000 
#    0.000    0.000    0.000    0.000    0.000    0.000 
#
# Total GULP energy -89307.440503 kJ/mol
# GULP energy per Si atom -5581.715031 kJ/mol
# Density = 2.078137 g / cm^3
# Si number density = 20.828774 Si / 1000 Ang^3
#
#
#
# Elastic Constant Matrix: (Units=GPa)
#
#
# Indices 1 2 3 4 5 6 
#
# 1 68.0454 66.6099 16.8102 5.9816 24.7208 6.0333
# 2 66.6099 201.4846 53.5873 3.7881 37.3482 6.4774
# 3 16.8102 53.5873 84.7898 2.0952 36.3810 -2.3928
# 4 5.9816 3.7881 2.0952 20.6952 3.5999 5.4308
# 5 24.7208 37.3482 36.3810 3.5999 36.3491 1.4824
# 6 6.0333 6.4774 -2.3928 5.4308 1.4824 22.9643
#
#
#
# Elastic Compliance Matrix: (Units=1/GPa)
#
#
# Indices 1 2 3 4 5 6 
#
# 1 0.026966 -0.007394 0.006597 -0.003544 -0.016897 -0.002383
# 2 -0.007394 0.008441 -0.004096 0.001252 0.000380 -0.001186
# 3 0.006597 -0.004096 0.023394 -0.000294 -0.023804 0.003466
# 4 -0.003544 0.001252 -0.000294 0.052802 -0.003333 -0.011725
# 5 -0.016897 0.000380 -0.023804 -0.003333 0.062825 -0.001415
# 6 -0.002383 -0.001186 0.003466 -0.011725 -0.001415 0.047732
#
#
# Mechanical properties :
#
#
# Convention : Reuss Voigt Hill
#
# Bulk Modulus (GPa) = 20.40225 69.81495 45.10860
# Shear Modulus (GPa) = 20.13831 30.48923 25.31377
#
# Velocity S-wave (km/s) = 3.11279 3.83012 3.48994
# Velocity P-wave (km/s) = 4.76821 7.29047 6.15982
#
# Compressibility (1/GPa) = 0.04901421
#
# Stress axis : x y z
#
# Youngs Moduli (GPa) = 37.08416 118.46582 42.74691
#
# Poissons Ratio (x) = 0.87594 -0.28201
# Poissons Ratio (y) = 0.27420 0.17510
# Poissons Ratio (z) = -0.24465 0.48526
#
# Static dielectric constant tensor:
#      x y z
#    x 1.749680 -0.010160 -0.016330 
#    y -0.010160 1.728140 0.003040 
#    z -0.016330 0.003040 1.776190 
# 
# From -- ./inp_files/47356.got.cif
#   From: 2010.05.17/outbox.cif.g08.bks.cpg/sg2_24_cif.got.tgz:47356.got - 2010.06.03 11:33:40.
