data_PCOD9097010
_publ_section_title
;
Structure prediction by ZEFSAII (Michael W. Deem and Ramdas Pophale) SiO2 
 PCOD9097010
Probable space group: P -1
;
_chemical_formula_sum "Si O2"
_cell_formula_units_Z 16
_cell_length_a 11.791427
_cell_length_b 11.953671
_cell_length_c 7.819474
_cell_angle_alpha 96.555174
_cell_angle_beta 118.621423
_cell_angle_gamma 128.427905
_cell_volume 606.921687
_symmetry_space_group_name_H-M "P -1"
_symmetry_group_IT_number 2
_symmetry_cell_setting 'triclinic'
loop_
_space_group_symop_operation_xyz
x,y,z
-x,-y,-z
loop_
_atom_site_type_symbol
_atom_site_label
_atom_site_fract_x
_atom_site_fract_y
_atom_site_fract_z
Si Si1 0.281223 0.410209 0.351231
Si Si2 0.886481 0.075276 0.886120
Si Si3 0.749158 0.228178 0.834730
Si Si4 0.661856 0.140077 0.372633
Si Si5 0.285623 0.558858 0.043824
Si Si6 0.514052 0.744603 0.771060
Si Si7 0.346096 0.290445 0.819776
Si Si8 0.008665 0.802053 0.409048
O O1 0.500000 0.500000 0.500000
O O2 0.251204 0.468369 0.176009
O O3 0.331437 0.533543 0.558813
O O4 0.097714 0.194236 0.163474
O O5 0.856569 0.184658 0.945065
O O6 0.924628 0.104168 0.714194
O O7 0.671186 0.874832 0.750782
O O8 0.761181 0.250655 0.642474
O O9 0.805534 0.380239 0.992539
O O10 0.521768 0.054589 0.711259
O O11 0.580929 0.198503 0.233670
O O12 0.802780 0.145030 0.376554
O O13 0.527200 0.706589 0.210446
O O14 0.158898 0.407287 0.785062
O O15 0.657188 0.782201 0.020952
O O16 0.125939 0.192712 0.595421
O O17 0.500000 0.500000 0.000000
#
# Coordination Sequence:
#
# PCOD9097010 Si02
#       8
#     2   2   2   2   2   2   2   2
#     4  11  22  35  61  93 116 148 204 253 279 354
#     4   9  21  36  59  95 118 146 199 250 301 342
#     4   9  17  34  58  85 119 146 187 251 296 348
#     4   9  18  33  58  92 110 143 205 247 290 337
#     4  10  20  36  59  82 119 161 189 235 303 354
#     4  11  21  39  66  86 119 157 193 254 298 335
#     4  10  22  41  58  80 124 167 189 228 308 367
#     4   9  19  34  59  84 120 154 191 243 293 356
#
# _framework density 26.362544
#
# number of rings (size 3 to 8) (size 9 to 14) (size 15 to 20)
#    0.000    2.250    1.250    3.000    1.750    3.500 
#    0.000    5.625    8.250    0.000    0.000    0.000 
#    0.000    0.000    0.000    0.000    0.000    0.000 
#
# Total GULP energy -89353.374656 kJ/mol
# GULP energy per Si atom -5584.585916 kJ/mol
# Density = 2.630254 g / cm^3
# Si number density = 26.362544 Si / 1000 Ang^3
#
#
#
# Elastic Constant Matrix: (Units=GPa)
#
#
# Indices 1 2 3 4 5 6 
#
# 1 96.3892 19.8751 17.1658 3.0564 40.5886 3.9654
# 2 19.8751 53.6729 11.4414 4.1420 -6.5437 -4.4581
# 3 17.1658 11.4414 58.8232 19.0418 13.3356 -0.1292
# 4 3.0564 4.1420 19.0418 40.2117 0.5826 6.7253
# 5 40.5886 -6.5437 13.3356 0.5826 41.6045 -0.9067
# 6 3.9654 -4.4581 -0.1292 6.7253 -0.9067 38.6929
#
#
#
# Elastic Compliance Matrix: (Units=1/GPa)
#
#
# Indices 1 2 3 4 5 6 
#
# 1 0.023696 -0.012551 0.001330 -0.000020 -0.025615 -0.004467
# 2 -0.012551 0.027172 -0.005728 -0.000214 0.018463 0.004868
# 3 0.001330 -0.005728 0.023299 -0.010556 -0.009499 0.000894
# 4 -0.000020 -0.000214 -0.010556 0.030742 0.002822 -0.005335
# 5 -0.025615 0.018463 -0.009499 0.002822 0.055055 0.005520
# 6 -0.004467 0.004868 0.000894 -0.005335 0.005520 0.027923
#
#
# Mechanical properties :
#
#
# Convention : Reuss Voigt Hill
#
# Bulk Modulus (GPa) = 24.83328 33.98331 29.40829
# Shear Modulus (GPa) = 21.25783 34.79535 28.02659
#
# Velocity S-wave (km/s) = 2.84274 3.63695 3.26409
# Velocity P-wave (km/s) = 4.49614 5.52769 5.03838
#
# Compressibility (1/GPa) = 0.04026855
#
# Stress axis : x y z
#
# Youngs Moduli (GPa) = 42.20057 36.80284 42.92099
#
# Poissons Ratio (x) = 0.46190 -0.05708
# Poissons Ratio (y) = 0.52965 0.24586
# Poissons Ratio (z) = -0.05612 0.21082
#
# Static dielectric constant tensor:
#      x y z
#    x 2.147890 0.019380 0.028200 
#    y 0.019380 1.834650 -0.198010 
#    z 0.028200 -0.198010 1.869740 
# 
# From -- ./inp_files/262577.got.cif
#   From: 2010.05.17/outbox.cif.g08.bks.cpg/sg2_132_cif.got.tgz:262577.got - 2010.06.03 11:33:40.
