data_PCOD9097800
_publ_section_title
;
Structure prediction by ZEFSAII (Michael W. Deem and Ramdas Pophale) SiO2 
 PCOD9097800
Probable space group: P -1
;
_chemical_formula_sum "Si O2"
_cell_formula_units_Z 16
_cell_length_a 5.496846
_cell_length_b 19.793895
_cell_length_c 7.900493
_cell_angle_alpha 91.684733
_cell_angle_beta 116.679955
_cell_angle_gamma 67.259637
_cell_volume 697.451409
_symmetry_space_group_name_H-M "P -1"
_symmetry_group_IT_number 2
_symmetry_cell_setting 'triclinic'
loop_
_space_group_symop_operation_xyz
x,y,z
-x,-y,-z
loop_
_atom_site_type_symbol
_atom_site_label
_atom_site_fract_x
_atom_site_fract_y
_atom_site_fract_z
Si Si1 0.213069 0.613594 0.298249
Si Si2 0.228282 0.733282 0.843118
Si Si3 0.645089 0.079275 0.000010
Si Si4 0.825972 0.761429 0.062057
Si Si5 0.850717 0.525960 0.639395
Si Si6 0.375394 0.006348 0.688251
Si Si7 0.271225 0.585063 0.931560
Si Si8 0.114479 0.113976 0.338754
O O1 0.499036 0.575238 0.503687
O O2 0.069122 0.553629 0.253444
O O3 0.307212 0.609648 0.132569
O O4 0.008978 0.701030 0.259082
O O5 0.545684 0.739624 0.937356
O O6 0.294620 0.647780 0.824106
O O7 0.036090 0.753101 0.962615
O O8 0.003945 0.798888 0.658044
O O9 0.332210 0.152061 0.931203
O O10 0.899321 0.107701 0.122050
O O11 0.703559 0.018265 0.160335
O O12 0.609036 0.042690 0.812001
O O13 0.000000 0.500000 0.500000
O O14 0.972225 0.577168 0.782989
O O15 0.114703 0.067115 0.501676
O O16 0.552202 0.931591 0.631030
O O17 0.500000 0.500000 0.000000
#
# Coordination Sequence:
#
# PCOD9097800 Si02
#       8
#     2   2   2   2   2   2   2   2
#     4  10  23  40  63  89 125 166 208 256 319 369
#     4  10  22  40  64  92 126 166 213 256 318 372
#     4  10  20  37  60  89 119 161 208 251 309 371
#     4  10  21  41  65  89 128 169 205 262 315 370
#     4  11  22  40  61  94 122 159 211 262 306 374
#     4  10  20  36  62  88 119 161 209 249 314 372
#     4  11  21  40  66  90 122 169 208 255 312 379
#     4  10  20  38  59  87 124 160 202 259 311 364
#
# _framework density 22.940664999999999
#
# number of rings (size 3 to 8) (size 9 to 14) (size 15 to 20)
#    0.000    1.750    2.500    1.875    1.750    1.000 
#    2.250    2.500    2.750    0.000    0.000    0.000 
#    0.000    0.000    0.000    0.000    0.000    0.000 
#
# Total GULP energy -89170.363602 kJ/mol
# GULP energy per Si atom -5573.147725 kJ/mol
# Density = 2.288845 g / cm^3
# Si number density = 22.940665 Si / 1000 Ang^3
#
#
#
# Elastic Constant Matrix: (Units=GPa)
#
#
# Indices 1 2 3 4 5 6 
#
# 1 65.8721 13.3040 9.6961 -3.5428 -0.1524 8.9388
# 2 13.3040 109.7266 48.6038 -34.2914 -2.5230 6.3521
# 3 9.6961 48.6038 85.4684 -24.7746 8.0816 3.3547
# 4 -3.5428 -34.2914 -24.7746 47.7449 10.5137 -2.2558
# 5 -0.1524 -2.5230 8.0816 10.5137 14.9992 5.4790
# 6 8.9388 6.3521 3.3547 -2.2558 5.4790 33.2713
#
#
#
# Elastic Compliance Matrix: (Units=1/GPa)
#
#
# Indices 1 2 3 4 5 6 
#
# 1 0.016267 -0.001392 -0.001738 -0.001753 0.003804 -0.004675
# 2 -0.001392 0.014127 -0.006120 0.006412 0.001734 -0.001557
# 3 -0.001738 -0.006120 0.020356 0.010839 -0.020992 0.003775
# 4 -0.001753 0.006412 0.010839 0.038931 -0.034429 0.006463
# 5 0.003804 0.001734 -0.020992 -0.034429 0.109612 -0.019621
# 6 -0.004675 -0.001557 0.003775 0.006463 -0.019621 0.034898
#
#
# Mechanical properties :
#
#
# Convention : Reuss Voigt Hill
#
# Bulk Modulus (GPa) = 31.00814 44.91944 37.96379
# Shear Modulus (GPa) = 18.97952 31.83395 25.40673
#
# Velocity S-wave (km/s) = 2.87946 3.72918 3.33152
# Velocity P-wave (km/s) = 4.95994 6.17783 5.60208
#
# Compressibility (1/GPa) = 0.03224960
#
# Stress axis : x y z
#
# Youngs Moduli (GPa) = 61.47483 70.78587 49.12465
#
# Poissons Ratio (x) = 0.09855 0.08539
# Poissons Ratio (y) = 0.08559 0.30064
# Poissons Ratio (z) = 0.10685 0.43320
#
# Static dielectric constant tensor:
#      x y z
#    x 1.964150 0.055980 0.040600 
#    y 0.055980 1.940140 -0.059020 
#    z 0.040600 -0.059020 1.862160 
# 
# From -- ./inp_files/112199.got.cif
#   From: 2010.05.17/outbox.cif.g08.bks.cpg/sg2_57_cif.got.tgz:112199.got - 2010.06.03 11:33:40.
