data_PCOD9097247
_publ_section_title
;
Structure prediction by ZEFSAII (Michael W. Deem and Ramdas Pophale) SiO2 
 PCOD9097247
Probable space group: P -1
;
_chemical_formula_sum "Si O2"
_cell_formula_units_Z 14
_cell_length_a 12.337189
_cell_length_b 12.757671
_cell_length_c 15.545361
_cell_angle_alpha 26.813722
_cell_angle_beta 44.610310
_cell_angle_gamma 38.969648
_cell_volume 692.728180
_symmetry_space_group_name_H-M "P -1"
_symmetry_group_IT_number 2
_symmetry_cell_setting 'triclinic'
loop_
_space_group_symop_operation_xyz
x,y,z
-x,-y,-z
loop_
_atom_site_type_symbol
_atom_site_label
_atom_site_fract_x
_atom_site_fract_y
_atom_site_fract_z
Si Si1 0.988044 0.868658 0.012309
Si Si2 0.261855 0.403276 0.634620
Si Si3 0.949177 0.340547 0.578799
Si Si4 0.909568 0.006008 0.636150
Si Si5 0.627640 0.969986 0.725267
Si Si6 0.778758 0.066378 0.389979
Si Si7 0.367611 0.542976 0.965418
O O1 0.858407 0.739535 0.175134
O O2 0.178419 0.659597 0.030134
O O3 0.931731 0.103407 0.805243
O O4 0.000000 0.000000 0.000000
O O5 0.227984 0.468421 0.505223
O O6 0.194026 0.688049 0.505739
O O7 0.459299 0.213201 0.677417
O O8 0.000000 0.500000 0.500000
O O9 0.106223 0.214042 0.513976
O O10 0.775990 0.895537 0.768152
O O11 0.000000 0.000000 0.500000
O O12 0.065321 0.863825 0.719751
O O13 0.688052 0.041639 0.546924
O O14 0.586366 0.732301 0.902105
O O15 0.655804 0.254971 0.247395
O O16 0.500000 0.500000 0.000000
#
# Coordination Sequence:
#
# PCOD9097247 Si02
#       7
#     2   2   2   2   2   2   2
#     4  11  21  36  59  83 120 161 197 244 295 357
#     4  11  22  38  59  91 121 155 199 245 305 358
#     4  10  20  36  60  83 115 161 202 238 295 358
#     4   9  19  41  67  85 115 160 207 249 298 350
#     4  11  23  39  62  90 123 160 198 254 299 358
#     4   9  22  41  60  88 118 160 203 249 302 351
#     4  11  24  39  59  91 123 156 204 248 304 358
#
# _framework density 20.209948000000001
#
# number of rings (size 3 to 8) (size 9 to 14) (size 15 to 20)
#    0.000    1.714    1.429    3.857    2.000    3.429 
#    0.000    4.286    0.000   12.857    0.000    0.000 
#    0.000    0.000    0.000    0.000    0.000    0.000 
#
# Total GULP energy -78068.746450 kJ/mol
# GULP energy per Si atom -5576.339032 kJ/mol
# Density = 2.016395 g / cm^3
# Si number density = 20.209948 Si / 1000 Ang^3
#
#
#
# Elastic Constant Matrix: (Units=GPa)
#
#
# Indices 1 2 3 4 5 6 
#
# 1 102.8168 -9.5517 9.1047 -8.2018 -0.2573 2.2726
# 2 -9.5517 40.7921 -12.7497 0.8837 -1.2646 4.2698
# 3 9.1047 -12.7497 67.1703 -0.9489 3.2556 -7.2905
# 4 -8.2018 0.8837 -0.9489 25.7669 2.6948 -0.7867
# 5 -0.2573 -1.2646 3.2556 2.6948 30.9078 -8.5113
# 6 2.2726 4.2698 -7.2905 -0.7867 -8.5113 35.1487
#
#
#
# Elastic Compliance Matrix: (Units=1/GPa)
#
#
# Indices 1 2 3 4 5 6 
#
# 1 0.010294 0.002122 -0.001057 0.003162 -0.000307 -0.001146
# 2 0.002122 0.026680 0.004510 -0.000146 -0.000029 -0.002453
# 3 -0.001057 0.004510 0.016223 0.000274 -0.000815 0.002694
# 4 0.003162 -0.000146 0.000274 0.040198 -0.003537 -0.000087
# 5 -0.000307 -0.000029 -0.000815 -0.003537 0.035018 0.008255
# 6 -0.001146 -0.002453 0.002694 -0.000087 0.008255 0.031378
#
#
# Mechanical properties :
#
#
# Convention : Reuss Voigt Hill
#
# Bulk Modulus (GPa) = 15.54141 20.48732 18.01437
# Shear Modulus (GPa) = 29.39603 33.29639 31.34621
#
# Velocity S-wave (km/s) = 3.81797 4.06337 3.94258
# Velocity P-wave (km/s) = 5.20985 5.67221 5.44594
#
# Compressibility (1/GPa) = 0.06434421
#
# Stress axis : x y z
#
# Youngs Moduli (GPa) = 97.14789 37.48137 61.64228
#
# Poissons Ratio (x) = -0.07953 0.06518
# Poissons Ratio (y) = -0.20612 -0.27799
# Poissons Ratio (z) = 0.10272 -0.16903
#
# Static dielectric constant tensor:
#      x y z
#    x 1.751150 0.002680 0.000730 
#    y 0.002680 1.723750 0.013500 
#    z 0.000730 0.013500 1.717980 
# 
# From -- ./inp_files/253289.got.cif
#   From: 2010.05.17/outbox.cif.g08.bks.cpg/sg2_127_cif.got.tgz:253289.got - 2010.06.03 11:33:40.
