data_PCOD9097295
_publ_section_title
;
Structure prediction by ZEFSAII (Michael W. Deem and Ramdas Pophale) SiO2 
 PCOD9097295
Probable space group: P -1
;
_chemical_formula_sum "Si O2"
_cell_formula_units_Z 16
_cell_length_a 18.871967
_cell_length_b 13.228478
_cell_length_c 9.958393
_cell_angle_alpha 46.923935
_cell_angle_beta 33.344348
_cell_angle_gamma 28.450458
_cell_volume 638.285253
_symmetry_space_group_name_H-M "P -1"
_symmetry_group_IT_number 2
_symmetry_cell_setting 'triclinic'
loop_
_space_group_symop_operation_xyz
x,y,z
-x,-y,-z
loop_
_atom_site_type_symbol
_atom_site_label
_atom_site_fract_x
_atom_site_fract_y
_atom_site_fract_z
Si Si1 0.142088 0.527330 0.804043
Si Si2 0.670180 0.634346 0.637813
Si Si3 0.908062 0.657304 0.743857
Si Si4 0.767894 0.041439 0.932722
Si Si5 0.164078 0.005238 0.578873
Si Si6 0.412967 0.286848 0.831650
Si Si7 0.739367 0.286094 0.986739
Si Si8 0.613144 0.326558 0.668327
O O1 0.273470 0.414395 0.564233
O O2 0.269866 0.476043 0.777406
O O3 0.100440 0.407034 0.038425
O O4 0.956694 0.785578 0.852641
O O5 0.860547 0.556463 0.474925
O O6 0.678626 0.468452 0.825819
O O7 0.443567 0.869276 0.810265
O O8 0.878602 0.845169 0.606654
O O9 0.718623 0.739365 0.900016
O O10 0.773920 0.127377 0.980599
O O11 0.742231 0.170603 0.732996
O O12 0.364957 0.905664 0.414609
O O13 0.239204 0.801533 0.576196
O O14 0.947362 0.158474 0.846178
O O15 0.462356 0.328457 0.851268
O O16 0.548018 0.427092 0.257252
#
# Coordination Sequence:
#
# PCOD9097295 Si02
#       8
#     2   2   2   2   2   2   2   2
#     4  10  22  38  56  86 124 142 188 228 288 341
#     4  10  20  36  60  86 112 150 189 232 282 333
#     4   9  18  36  61  86 115 148 185 229 282 346
#     4  11  22  38  60  83 113 152 191 240 276 322
#     4   9  18  37  62  83 109 153 185 229 287 324
#     4   8  20  37  58  84 117 148 183 232 282 342
#     4  10  21  37  61  85 109 146 204 236 266 333
#     4   9  19  36  58  83 112 141 196 232 270 335
#
# _framework density 25.067163999999998
#
# number of rings (size 3 to 8) (size 9 to 14) (size 15 to 20)
#    1.500    1.000    0.000    3.750    0.000    3.500 
#    2.250    9.375    0.000    0.000    0.000    0.000 
#    0.000    0.000    0.000    0.000    0.000    0.000 
#
# Total GULP energy -89120.672214 kJ/mol
# GULP energy per Si atom -5570.042013 kJ/mol
# Density = 2.501011 g / cm^3
# Si number density = 25.067164 Si / 1000 Ang^3
#
#
#
# Elastic Constant Matrix: (Units=GPa)
#
#
# Indices 1 2 3 4 5 6 
#
# 1 43.8508 27.3412 5.3907 6.8889 -12.4621 -12.1176
# 2 27.3412 86.7369 40.4740 14.8808 1.2672 -24.4935
# 3 5.3907 40.4740 85.9676 12.1944 -9.7467 -20.3813
# 4 6.8889 14.8808 12.1944 52.3778 -12.6777 -6.2928
# 5 -12.4621 1.2672 -9.7467 -12.6777 40.7459 4.5898
# 6 -12.1176 -24.4935 -20.3813 -6.2928 4.5898 31.8835
#
#
#
# Elastic Compliance Matrix: (Units=1/GPa)
#
#
# Indices 1 2 3 4 5 6 
#
# 1 0.034913 -0.012676 0.006453 0.001222 0.012306 0.006126
# 2 -0.012676 0.022339 -0.008377 -0.003924 -0.008636 0.007458
# 3 0.006453 -0.008377 0.017334 -0.000414 0.005551 0.006217
# 4 0.001222 -0.003924 -0.000414 0.021935 0.007167 0.000483
# 5 0.012306 -0.008636 0.005551 0.007167 0.032318 -0.001647
# 6 0.006126 0.007458 0.006217 0.000483 -0.001647 0.043728
#
#
# Mechanical properties :
#
#
# Convention : Reuss Voigt Hill
#
# Bulk Modulus (GPa) = 22.03359 40.32967 31.18163
# Shear Modulus (GPa) = 23.05263 34.55806 28.80535
#
# Velocity S-wave (km/s) = 3.03584 3.71700 3.39355
# Velocity P-wave (km/s) = 4.59318 5.87750 5.27458
#
# Compressibility (1/GPa) = 0.04538525
#
# Stress axis : x y z
#
# Youngs Moduli (GPa) = 28.64275 44.76476 57.69159
#
# Poissons Ratio (x) = 0.56743 -0.37227
# Poissons Ratio (y) = 0.36307 0.48328
# Poissons Ratio (z) = -0.18483 0.37500
#
# Static dielectric constant tensor:
#      x y z
#    x 2.065790 -0.023030 -0.100630 
#    y -0.023030 1.976990 -0.004920 
#    z -0.100630 -0.004920 2.081000 
# 
# From -- ./inp_files/471924.got.cif
#   From: 2010.05.17/outbox.cif.g08.bks.cpg/sg2_236_cif.got.tgz:471924.got - 2010.06.03 11:33:40.
