data_PCOD9097999
_publ_section_title
;
Structure prediction by ZEFSAII (Michael W. Deem and Ramdas Pophale) SiO2 
 PCOD9097999
Probable space group: P -1
;
_chemical_formula_sum "Si O2"
_cell_formula_units_Z 16
_cell_length_a 8.386896
_cell_length_b 11.164649
_cell_length_c 13.564736
_cell_angle_alpha 110.401622
_cell_angle_beta 92.260280
_cell_angle_gamma 42.594611
_cell_volume 757.032186
_symmetry_space_group_name_H-M "P -1"
_symmetry_group_IT_number 2
_symmetry_cell_setting 'triclinic'
loop_
_space_group_symop_operation_xyz
x,y,z
-x,-y,-z
loop_
_atom_site_type_symbol
_atom_site_label
_atom_site_fract_x
_atom_site_fract_y
_atom_site_fract_z
Si Si1 0.533865 0.145929 0.756979
Si Si2 0.680128 0.301203 0.157000
Si Si3 0.146806 0.522668 0.725662
Si Si4 0.527606 0.295861 0.503086
Si Si5 0.695902 0.474949 0.629287
Si Si6 0.637200 0.942903 0.885514
Si Si7 0.186508 0.887890 0.090928
Si Si8 0.752214 0.922373 0.503404
O O1 0.288415 0.338340 0.748234
O O2 0.481657 0.075050 0.821108
O O3 0.663988 0.187676 0.825725
O O4 0.734618 0.971246 0.632298
O O5 0.755463 0.396111 0.219815
O O6 0.414823 0.437539 0.239789
O O7 0.701331 0.277264 0.033056
O O8 0.886341 0.074680 0.142563
O O9 0.266686 0.430968 0.594448
O O10 0.850864 0.711532 0.790758
O O11 0.637043 0.365246 0.560417
O O12 0.457592 0.345533 0.401365
O O13 0.720178 0.068762 0.477933
O O14 0.992664 0.307562 0.580233
O O15 0.766903 0.000405 0.923512
O O16 0.500000 0.000000 0.000000
O O17 0.500000 0.000000 0.500000
#
# Coordination Sequence:
#
# PCOD9097999 Si02
#       8
#     2   2   2   2   2   2   2   2
#     4   9  20  36  56  76 105 155 181 218 282 335
#     4   9  17  35  56  85 113 133 183 238 273 327
#     4   9  17  33  56  79 107 143 179 224 281 334
#     4   9  20  37  61  87 108 151 193 235 287 338
#     4  10  20  36  63  86 113 148 191 237 287 337
#     4   9  18  34  52  76 104 145 186 224 265 327
#     4   8  18  35  55  80 110 143 177 228 283 324
#     4  11  23  40  55  85 122 150 190 236 282 341
#
# _framework density 21.135164
#
# number of rings (size 3 to 8) (size 9 to 14) (size 15 to 20)
#    0.750    2.000    0.000    1.125    3.500    1.500 
#    6.750    0.000    0.000    0.000    0.000    0.000 
#    0.000    0.000    0.000    0.000    0.000    0.000 
#
# Total GULP energy -89138.317861 kJ/mol
# GULP energy per Si atom -5571.144866 kJ/mol
# Density = 2.108706 g / cm^3
# Si number density = 21.135164 Si / 1000 Ang^3
#
#
#
# Elastic Constant Matrix: (Units=GPa)
#
#
# Indices 1 2 3 4 5 6 
#
# 1 29.7854 2.8731 4.3229 -2.1855 -10.0812 -7.6886
# 2 2.8731 60.0831 16.3043 -9.2455 -15.3251 6.7229
# 3 4.3229 16.3043 92.0222 0.9839 -9.7778 -7.3684
# 4 -2.1855 -9.2455 0.9839 24.5223 -3.8773 -4.2055
# 5 -10.0812 -15.3251 -9.7778 -3.8773 28.8732 -1.1092
# 6 -7.6886 6.7229 -7.3684 -4.2055 -1.1092 21.9119
#
#
#
# Elastic Compliance Matrix: (Units=1/GPa)
#
#
# Indices 1 2 3 4 5 6 
#
# 1 0.045514 0.002183 0.000938 0.011154 0.019586 0.018748
# 2 0.002183 0.022821 -0.003256 0.010168 0.012956 -0.004723
# 3 0.000938 -0.003256 0.012152 -0.000227 0.002896 0.005517
# 4 0.011154 0.010168 -0.000227 0.050120 0.016374 0.011166
# 5 0.019586 0.012956 0.002896 0.016374 0.051899 0.009641
# 6 0.018748 -0.004723 0.005517 0.011166 0.009641 0.058152
#
#
# Mechanical properties :
#
#
# Convention : Reuss Voigt Hill
#
# Bulk Modulus (GPa) = 12.46624 25.43234 18.94929
# Shear Modulus (GPa) = 18.68007 25.62082 22.15045
#
# Velocity S-wave (km/s) = 2.97617 3.48550 3.24085
# Velocity P-wave (km/s) = 4.20966 5.31578 4.79473
#
# Compressibility (1/GPa) = 0.08021664
#
# Stress axis : x y z
#
# Youngs Moduli (GPa) = 21.97140 43.82010 82.29291
#
# Poissons Ratio (x) = -0.09567 -0.07720
# Poissons Ratio (y) = -0.04797 0.26796
# Poissons Ratio (z) = -0.02061 0.14268
#
# Static dielectric constant tensor:
#      x y z
#    x 1.821080 -0.002790 0.026270 
#    y -0.002790 1.772740 0.015930 
#    z 0.026270 0.015930 1.782600 
# 
# From -- ./inp_files/500566.got.cif
#   From: 2010.05.17/outbox.cif.g08.bks.cpg/sg2_251_cif.got.tgz:500566.got - 2010.06.03 11:33:40.
