data_PCOD9097414
_publ_section_title
;
Structure prediction by ZEFSAII (Michael W. Deem and Ramdas Pophale) SiO2 
 PCOD9097414
Probable space group: P -1
;
_chemical_formula_sum "Si O2"
_cell_formula_units_Z 16
_cell_length_a 24.581227
_cell_length_b 5.276318
_cell_length_c 9.124837
_cell_angle_alpha 116.513699
_cell_angle_beta 129.315999
_cell_angle_gamma 87.681957
_cell_volume 767.451155
_symmetry_space_group_name_H-M "P -1"
_symmetry_group_IT_number 2
_symmetry_cell_setting 'triclinic'
loop_
_space_group_symop_operation_xyz
x,y,z
-x,-y,-z
loop_
_atom_site_type_symbol
_atom_site_label
_atom_site_fract_x
_atom_site_fract_y
_atom_site_fract_z
Si Si1 0.960724 0.192947 0.636410
Si Si2 0.399765 0.490651 0.473023
Si Si3 0.449652 0.693527 0.918644
Si Si4 0.200826 0.187746 0.280070
Si Si5 0.886969 0.824124 0.143510
Si Si6 0.451698 0.051097 0.292971
Si Si7 0.260548 0.662210 0.269399
Si Si8 0.926250 0.776937 0.735902
O O1 0.927366 0.446575 0.688269
O O2 0.051243 0.325484 0.829530
O O3 0.928964 0.083198 0.394110
O O4 0.937231 0.894383 0.619027
O O5 0.397799 0.500473 0.648932
O O6 0.391110 0.177022 0.295527
O O7 0.484112 0.693742 0.623435
O O8 0.339270 0.634920 0.352666
O O9 0.500000 0.500000 0.000000
O O10 0.500000 0.000000 0.000000
O O11 0.420960 0.788807 0.048879
O O12 0.243132 0.516339 0.365644
O O13 0.151579 0.199672 0.337232
O O14 0.251563 0.984039 0.332241
O O15 0.138775 0.043676 0.009986
O O16 0.809384 0.573472 0.999990
O O17 0.500000 0.000000 0.500000
O O18 0.000000 0.000000 0.000000
#
# Coordination Sequence:
#
# PCOD9097414 Si02
#       8
#     2   2   2   2   2   2   2   2
#     4  11  23  34  64  86 117 148 203 254 299 333
#     4  10  22  38  62  88 123 164 195 250 306 354
#     4  10  20  36  60  91 121 148 192 246 295 352
#     4  10  22  38  60  79 117 152 200 231 293 364
#     4   9  23  38  59  86 115 156 201 242 295 363
#     4  10  20  36  64  94 118 151 207 249 296 359
#     4  10  22  39  62  80 118 163 195 231 300 365
#     4  12  21  37  57  89 113 149 192 256 299 345
#
# _framework density 20.848231999999999
#
# number of rings (size 3 to 8) (size 9 to 14) (size 15 to 20)
#    0.750    1.000    2.500    1.875    3.500    1.000 
#    0.000    2.500    2.750    0.000    0.000    0.000 
#    0.000    0.000    0.000    0.000    0.000    0.000 
#
# Total GULP energy -89085.441859 kJ/mol
# GULP energy per Si atom -5567.840116 kJ/mol
# Density = 2.080078 g / cm^3
# Si number density = 20.848232 Si / 1000 Ang^3
#
#
#
# Elastic Constant Matrix: (Units=GPa)
#
#
# Indices 1 2 3 4 5 6 
#
# 1 65.5070 28.3775 44.1760 1.1525 -5.2642 -26.1423
# 2 28.3775 116.7016 28.9938 -12.9053 0.7510 -26.2127
# 3 44.1760 28.9938 62.8713 -9.4746 -15.1648 -17.4583
# 4 1.1525 -12.9053 -9.4746 25.2593 -4.3662 0.2693
# 5 -5.2642 0.7510 -15.1648 -4.3662 36.5980 -1.6728
# 6 -26.1423 -26.2127 -17.4583 0.2693 -1.6728 44.9261
#
#
#
# Elastic Compliance Matrix: (Units=1/GPa)
#
#
# Indices 1 2 3 4 5 6 
#
# 1 0.037833 -0.001724 -0.026571 -0.013844 -0.006704 0.010517
# 2 -0.001724 0.011063 -0.002000 0.004842 -0.000515 0.004626
# 3 -0.026571 -0.002000 0.042265 0.018805 0.015988 0.000278
# 4 -0.013844 0.004842 0.018805 0.051796 0.011982 0.002212
# 5 -0.006704 -0.000515 0.015988 0.011982 0.034572 0.003227
# 6 0.010517 0.004626 0.000278 0.002212 0.003227 0.031293
#
#
# Mechanical properties :
#
#
# Convention : Reuss Voigt Hill
#
# Bulk Modulus (GPa) = 32.71081 49.79716 41.25398
# Shear Modulus (GPa) = 17.88256 30.92554 24.40405
#
# Velocity S-wave (km/s) = 2.93191 3.85563 3.42505
# Velocity P-wave (km/s) = 5.21397 6.61502 5.95584
#
# Compressibility (1/GPa) = 0.03057094
#
# Stress axis : x y z
#
# Youngs Moduli (GPa) = 26.43212 90.39245 23.66007
#
# Poissons Ratio (x) = 0.15582 0.62867
# Poissons Ratio (y) = 0.04556 0.04733
# Poissons Ratio (z) = 0.70232 0.18082
#
# Static dielectric constant tensor:
#      x y z
#    x 1.784630 0.007590 -0.013960 
#    y 0.007590 1.814970 0.042690 
#    z -0.013960 0.042690 1.797930 
# 
# From -- ./inp_files/340715.got.cif
#   From: 2010.05.17/outbox.cif.g08.bks.cpg/sg2_171_cif.got.tgz:340715.got - 2010.06.03 11:33:40.
