data_PCOD9097603
_publ_section_title
;
Structure prediction by ZEFSAII (Michael W. Deem and Ramdas Pophale) SiO2 
 PCOD9097603
Probable space group: P -1
;
_chemical_formula_sum "Si O2"
_cell_formula_units_Z 15
_cell_length_a 6.419359
_cell_length_b 17.789007
_cell_length_c 12.963547
_cell_angle_alpha 25.690281
_cell_angle_beta 111.073597
_cell_angle_gamma 99.741864
_cell_volume 553.233426
_symmetry_space_group_name_H-M "P -1"
_symmetry_group_IT_number 2
_symmetry_cell_setting 'triclinic'
loop_
_space_group_symop_operation_xyz
x,y,z
-x,-y,-z
loop_
_atom_site_type_symbol
_atom_site_label
_atom_site_fract_x
_atom_site_fract_y
_atom_site_fract_z
Si Si1 0.181366 0.187969 0.268602
Si Si2 0.392338 0.105570 0.044258
Si Si3 0.088662 0.986453 0.695266
Si Si4 0.284947 0.476489 0.185359
Si Si5 0.811915 0.690536 0.435233
Si Si6 0.500000 0.500000 0.500000
Si Si7 0.394406 0.783137 0.597167
Si Si8 0.700654 0.530301 0.298462
O O1 0.447299 0.189785 0.312376
O O2 0.185752 0.039269 0.541057
O O3 0.060155 0.141606 0.203405
O O4 0.989425 0.381573 0.039968
O O5 0.374083 0.937542 0.314257
O O6 0.277896 0.132124 0.877093
O O7 0.273879 0.288945 0.869333
O O8 0.667586 0.102559 0.085080
O O9 0.879167 0.171277 0.475553
O O10 0.279686 0.306642 0.468155
O O11 0.428998 0.403654 0.196335
O O12 0.438480 0.582758 0.136174
O O13 0.704071 0.554841 0.526326
O O14 0.098610 0.586657 0.601760
O O15 0.686075 0.413092 0.540888
#
# Coordination Sequence:
#
# PCOD9097603 Si02
#       8
#     2   2   2   2   2   1   2   2
#     4  10  22  43  64  89 122 159 214 259 303 369
#     4  10  21  39  61  93 124 160 208 252 300 374
#     4  10  22  41  66  91 122 159 205 264 310 359
#     4  11  24  41  61  95 128 161 207 255 303 376
#     4  10  22  37  63  92 129 165 205 249 307 365
#     4   8  16  32  52  86 116 150 204 248 274 348
#     4  11  25  39  65  93 123 165 204 255 322 357
#     4  10  20  36  61  89 124 165 206 247 305 356
#
# _framework density 27.113330000000001
#
# number of rings (size 3 to 8) (size 9 to 14) (size 15 to 20)
#    0.000    1.867    1.333    2.400    1.867    7.467 
#    0.000    1.333    0.000    0.000    0.000    0.000 
#    0.000    0.000    0.000    0.000    0.000    0.000 
#
# Total GULP energy -83668.461767 kJ/mol
# GULP energy per Si atom -5577.897451 kJ/mol
# Density = 2.705162 g / cm^3
# Si number density = 27.113330 Si / 1000 Ang^3
#
#
#
# Elastic Constant Matrix: (Units=GPa)
#
#
# Indices 1 2 3 4 5 6 
#
# 1 96.2609 24.3184 15.9320 14.1389 21.2521 -27.7833
# 2 24.3184 71.1898 10.7580 -12.6546 2.1679 -23.4572
# 3 15.9320 10.7580 86.0298 7.9273 18.6162 -7.7293
# 4 14.1389 -12.6546 7.9273 31.9087 -8.7229 5.9999
# 5 21.2521 2.1679 18.6162 -8.7229 52.5089 0.8593
# 6 -27.7833 -23.4572 -7.7293 5.9999 0.8593 46.0455
#
#
#
# Elastic Compliance Matrix: (Units=1/GPa)
#
#
# Indices 1 2 3 4 5 6 
#
# 1 0.020113 -0.005994 0.002235 -0.017301 -0.011754 0.011931
# 2 -0.005994 0.019964 -0.003060 0.011751 0.004566 0.004424
# 3 0.002235 -0.003060 0.014244 -0.008372 -0.007275 0.003407
# 4 -0.017301 0.011751 -0.008372 0.053290 0.018553 -0.013149
# 5 -0.011754 0.004566 -0.007275 0.018553 0.029421 -0.008954
# 6 0.011931 0.004424 0.003407 -0.013149 -0.008954 0.033622
#
#
# Mechanical properties :
#
#
# Convention : Reuss Voigt Hill
#
# Bulk Modulus (GPa) = 24.58077 39.49969 32.04023
# Shear Modulus (GPa) = 25.27099 39.59076 32.43088
#
# Velocity S-wave (km/s) = 3.05626 3.82540 3.46225
# Velocity P-wave (km/s) = 4.64111 5.84051 5.27501
#
# Compressibility (1/GPa) = 0.04068222
#
# Stress axis : x y z
#
# Youngs Moduli (GPa) = 49.71945 50.08926 70.20280
#
# Poissons Ratio (x) = 0.30026 -0.15688
# Poissons Ratio (y) = 0.29804 0.21481
# Poissons Ratio (z) = -0.11110 0.15327
#
# Static dielectric constant tensor:
#      x y z
#    x 2.238470 0.049890 -0.145480 
#    y 0.049890 2.210190 0.039030 
#    z -0.145480 0.039030 2.305990 
# 
# From -- ./inp_files/97349.got.cif
#   From: 2010.05.17/outbox.cif.g08.bks.cpg/sg2_49_cif.got.tgz:97349.got - 2010.06.03 11:33:40.
