data_PCOD9097927
_publ_section_title
;
Structure prediction by ZEFSAII (Michael W. Deem and Ramdas Pophale) SiO2 
 PCOD9097927
Probable space group: P -1
;
_chemical_formula_sum "Si O2"
_cell_formula_units_Z 16
_cell_length_a 9.126045
_cell_length_b 23.663756
_cell_length_c 8.780228
_cell_angle_alpha 29.719755
_cell_angle_beta 62.714285
_cell_angle_gamma 55.695855
_cell_volume 774.287798
_symmetry_space_group_name_H-M "P -1"
_symmetry_group_IT_number 2
_symmetry_cell_setting 'triclinic'
loop_
_space_group_symop_operation_xyz
x,y,z
-x,-y,-z
loop_
_atom_site_type_symbol
_atom_site_label
_atom_site_fract_x
_atom_site_fract_y
_atom_site_fract_z
Si Si1 0.933136 0.335012 0.207639
Si Si2 0.843731 0.962317 0.597680
Si Si3 0.533827 0.933786 0.300027
Si Si4 0.766361 0.659341 0.737150
Si Si5 0.771679 0.507409 0.586660
Si Si6 0.865440 0.950909 0.265621
Si Si7 0.915097 0.677794 0.287131
Si Si8 0.407731 0.535960 0.793221
O O1 0.767517 0.344107 0.373538
O O2 0.066579 0.378973 0.138165
O O3 0.036786 0.196674 0.432474
O O4 0.852212 0.420946 0.899719
O O5 0.830822 0.995939 0.348263
O O6 0.652874 0.029212 0.611261
O O7 0.897945 0.815534 0.937900
O O8 0.000000 0.000000 0.500000
O O9 0.628633 0.788682 0.563020
O O10 0.676778 0.977287 0.214185
O O11 0.500000 0.000000 0.000000
O O12 0.835239 0.676062 0.496482
O O13 0.667847 0.565175 0.988396
O O14 0.808971 0.629322 0.325273
O O15 0.562495 0.541054 0.599694
O O16 0.885496 0.424397 0.589616
O O17 0.000000 0.000000 0.000000
O O18 0.500000 0.500000 0.000000
#
# Coordination Sequence:
#
# PCOD9097927 Si02
#       8
#     2   2   2   2   2   2   2   2
#     4  10  21  39  64  90 125 165 210 261 322 378
#     4  12  26  43  67  94 135 176 218 279 327 390
#     4  11  24  42  66  95 127 172 224 267 332 389
#     4  11  22  38  65  91 129 166 211 264 324 382
#     4  10  22  40  66  94 125 171 212 259 325 381
#     4  11  25  44  66  96 129 174 222 277 328 394
#     4  11  22  40  65  92 131 164 213 260 329 380
#     4  10  20  36  62  94 118 164 210 257 309 386
#
# _framework density 20.664151
#
# number of rings (size 3 to 8) (size 9 to 14) (size 15 to 20)
#    0.000    1.250    5.000    1.500    3.500    3.000 
#    0.000    0.625    0.000    0.000    0.000    0.000 
#    0.000    0.000    0.000    0.000    0.000    0.000 
#
# Total GULP energy -89423.927449 kJ/mol
# GULP energy per Si atom -5588.995466 kJ/mol
# Density = 2.061712 g / cm^3
# Si number density = 20.664151 Si / 1000 Ang^3
#
#
#
# Elastic Constant Matrix: (Units=GPa)
#
#
# Indices 1 2 3 4 5 6 
#
# 1 155.6918 81.4243 34.3066 6.0767 -9.0972 -20.9093
# 2 81.4243 171.3175 33.9243 13.8547 -10.3956 -25.9185
# 3 34.3066 33.9243 62.1563 4.2781 -11.6257 -3.5598
# 4 6.0767 13.8547 4.2781 29.7029 -3.9243 -3.2739
# 5 -9.0972 -10.3956 -11.6257 -3.9243 30.1843 5.9780
# 6 -20.9093 -25.9185 -3.5598 -3.2739 5.9780 42.1606
#
#
#
# Elastic Compliance Matrix: (Units=1/GPa)
#
#
# Indices 1 2 3 4 5 6 
#
# 1 0.009191 -0.003457 -0.003087 0.000421 0.000009 0.002204
# 2 -0.003457 0.008663 -0.002452 -0.002625 0.000023 0.003197
# 3 -0.003087 -0.002452 0.020235 -0.000545 0.006399 -0.002280
# 4 0.000421 -0.002625 -0.000545 0.035430 0.003459 0.000810
# 5 0.000009 0.000023 0.006399 0.003459 0.036928 -0.004409
# 6 0.002204 0.003197 -0.002280 0.000810 -0.004409 0.027273
#
#
# Mechanical properties :
#
#
# Convention : Reuss Voigt Hill
#
# Bulk Modulus (GPa) = 49.76118 76.49734 63.12926
# Shear Modulus (GPa) = 30.78602 36.37692 33.58147
#
# Velocity S-wave (km/s) = 3.86402 4.20025 4.03564
# Velocity P-wave (km/s) = 6.63632 7.78605 7.23406
#
# Compressibility (1/GPa) = 0.02009599
#
# Stress axis : x y z
#
# Youngs Moduli (GPa) = 108.79771 115.43078 49.42022
#
# Poissons Ratio (x) = 0.39907 0.15257
# Poissons Ratio (y) = 0.37614 0.12118
# Poissons Ratio (z) = 0.33589 0.28304
#
# Static dielectric constant tensor:
#      x y z
#    x 1.640770 0.002750 -0.002750 
#    y 0.002750 1.821400 -0.023240 
#    z -0.002750 -0.023240 1.763830 
# 
# From -- ./inp_files/225155.got.cif
#   From: 2010.05.17/outbox.cif.g08.bks.cpg/sg2_113_cif.got.tgz:225155.got - 2010.06.03 11:33:40.
