data_PCOD9097566
_publ_section_title
;
Structure prediction by ZEFSAII (Michael W. Deem and Ramdas Pophale) SiO2 
 PCOD9097566
Probable space group: P -1
;
_chemical_formula_sum "Si O2"
_cell_formula_units_Z 14
_cell_length_a 9.166065
_cell_length_b 23.085007
_cell_length_c 17.267506
_cell_angle_alpha 21.494084
_cell_angle_beta 40.328750
_cell_angle_gamma 30.308296
_cell_volume 658.843609
_symmetry_space_group_name_H-M "P -1"
_symmetry_group_IT_number 2
_symmetry_cell_setting 'triclinic'
loop_
_space_group_symop_operation_xyz
x,y,z
-x,-y,-z
loop_
_atom_site_type_symbol
_atom_site_label
_atom_site_fract_x
_atom_site_fract_y
_atom_site_fract_z
Si Si1 0.594901 0.039032 0.150030
Si Si2 0.508885 0.486978 0.306176
Si Si3 0.744088 0.318126 0.683856
Si Si4 0.529109 0.801036 0.833147
Si Si5 0.402813 0.724107 0.746256
Si Si6 0.142869 0.258742 0.372732
Si Si7 0.257459 0.897099 0.415752
O O1 0.417287 0.993715 0.228678
O O2 0.922484 0.825822 0.304191
O O3 0.419434 0.152475 0.159672
O O4 0.660703 0.173107 0.913663
O O5 0.259190 0.595338 0.338085
O O6 0.611645 0.281515 0.478467
O O7 0.794786 0.416635 0.326504
O O8 0.449671 0.654218 0.060557
O O9 0.500000 0.500000 0.500000
O O10 0.792831 0.713729 0.775506
O O11 0.266190 0.026355 0.623936
O O12 0.665257 0.714612 0.684187
O O13 0.340850 0.785337 0.604909
O O14 0.500000 0.500000 0.000000
O O15 0.096022 0.912831 0.678268
#
# Coordination Sequence:
#
# PCOD9097566 Si02
#       7
#     2   2   2   2   2   2   2
#     4  10  22  41  64  87 126 162 206 261 306 359
#     4  11  24  38  64  89 127 162 205 253 312 362
#     4  10  23  42  65  91 113 165 218 256 304 366
#     4  10  20  36  61  88 121 164 201 248 301 364
#     4  11  25  37  60  93 133 167 202 246 309 371
#     4  11  21  36  61  91 123 165 208 245 295 382
#     4  11  24  41  58  95 129 162 201 257 312 367
#
# _framework density 21.249352999999999
#
# number of rings (size 3 to 8) (size 9 to 14) (size 15 to 20)
#    0.000    1.429    1.429    3.857    6.000    0.571 
#    0.000    0.714    0.000    0.000    0.000    0.000 
#    0.000    0.000    0.000    0.000    0.000    0.000 
#
# Total GULP energy -78268.858779 kJ/mol
# GULP energy per Si atom -5590.632770 kJ/mol
# Density = 2.120099 g / cm^3
# Si number density = 21.249353 Si / 1000 Ang^3
#
#
#
# Elastic Constant Matrix: (Units=GPa)
#
#
# Indices 1 2 3 4 5 6 
#
# 1 98.7797 31.0745 39.2829 -4.6723 -22.7920 3.1111
# 2 31.0745 50.7570 12.9411 1.3510 -10.9201 16.3034
# 3 39.2829 12.9411 101.7050 -12.6443 -2.9243 9.0759
# 4 -4.6723 1.3510 -12.6443 26.6442 4.0133 1.8511
# 5 -22.7920 -10.9201 -2.9243 4.0133 35.0460 -10.4972
# 6 3.1111 16.3034 9.0759 1.8511 -10.4972 31.6478
#
#
#
# Elastic Compliance Matrix: (Units=1/GPa)
#
#
# Indices 1 2 3 4 5 6 
#
# 1 0.017868 -0.009767 -0.006333 -0.001624 0.010868 0.008791
# 2 -0.009767 0.030041 0.001083 -0.001477 -0.001273 -0.015162
# 3 -0.006333 0.001083 0.013299 0.006324 -0.005140 -0.005824
# 4 -0.001624 -0.001477 0.006324 0.041863 -0.007532 -0.005840
# 5 0.010868 -0.001273 -0.005140 -0.007532 0.040070 0.014793
# 6 0.008791 -0.015162 -0.005824 -0.005840 0.014793 0.045463
#
#
# Mechanical properties :
#
#
# Convention : Reuss Voigt Hill
#
# Bulk Modulus (GPa) = 32.07816 46.42654 39.25235
# Shear Modulus (GPa) = 21.83135 29.86381 25.84758
#
# Velocity S-wave (km/s) = 3.20877 3.75293 3.49147
# Velocity P-wave (km/s) = 5.37188 6.37771 5.89628
#
# Compressibility (1/GPa) = 0.03117386
#
# Stress axis : x y z
#
# Youngs Moduli (GPa) = 55.96461 33.28829 75.19496
#
# Poissons Ratio (x) = 0.32513 0.47619
# Poissons Ratio (y) = 0.54661 -0.08142
# Poissons Ratio (z) = 0.35441 -0.03605
#
# Static dielectric constant tensor:
#      x y z
#    x 1.760430 0.028020 0.002620 
#    y 0.028020 1.772630 -0.007150 
#    z 0.002620 -0.007150 1.782340 
# 
# From -- ./inp_files/563276.got.cif
#   From: 2010.05.17/outbox.cif.g08.bks.cpg/sg2_282_cif.got.tgz:563276.got - 2010.06.03 11:33:40.
