data_PCOD9097745
_publ_section_title
;
Structure prediction by ZEFSAII (Michael W. Deem and Ramdas Pophale) SiO2 
 PCOD9097745
Probable space group: P -1
;
_chemical_formula_sum "Si O2"
_cell_formula_units_Z 14
_cell_length_a 6.614826
_cell_length_b 24.440114
_cell_length_c 5.439926
_cell_angle_alpha 110.762868
_cell_angle_beta 72.892025
_cell_angle_gamma 136.919044
_cell_volume 560.828476
_symmetry_space_group_name_H-M "P -1"
_symmetry_group_IT_number 2
_symmetry_cell_setting 'triclinic'
loop_
_space_group_symop_operation_xyz
x,y,z
-x,-y,-z
loop_
_atom_site_type_symbol
_atom_site_label
_atom_site_fract_x
_atom_site_fract_y
_atom_site_fract_z
Si Si1 0.160223 0.902119 0.227313
Si Si2 0.731669 0.205747 0.903804
Si Si3 0.117695 0.957720 0.831444
Si Si4 0.372205 0.774155 0.526806
Si Si5 0.190799 0.613599 0.346047
Si Si6 0.305061 0.517624 0.029032
Si Si7 0.837148 0.636624 0.749906
O O1 0.101678 0.822730 0.169435
O O2 0.039544 0.916236 0.523887
O O3 0.520460 0.972169 0.201954
O O4 0.053237 0.904186 0.005070
O O5 0.561374 0.178150 0.665695
O O6 0.531207 0.179380 0.175175
O O7 0.975015 0.304395 0.989427
O O8 0.000000 0.000000 0.000000
O O9 0.413651 0.711967 0.399622
O O10 0.009081 0.706408 0.588680
O O11 0.011538 0.565445 0.082866
O O12 0.942417 0.591430 0.582075
O O13 0.308251 0.572504 0.301340
O O14 0.497079 0.578727 0.824557
O O15 0.500000 0.500000 0.000000
#
# Coordination Sequence:
#
# PCOD9097745 Si02
#       7
#     2   2   2   2   2   2   2
#     4  10  20  36  62  83 116 154 183 230 280 316
#     4   9  17  35  58  80 108 149 184 225 277 333
#     4  10  21  37  57  90 118 149 188 228 270 330
#     4   8  18  34  55  75 112 142 181 234 276 329
#     4   8  20  34  48  80 106 137 185 232 276 341
#     4  11  18  32  57  75 105 144 185 229 286 330
#     4   8  20  33  53  75 109 140 177 232 279 329
#
# _framework density 24.963068
#
# number of rings (size 3 to 8) (size 9 to 14) (size 15 to 20)
#    1.714    0.857    0.000    2.571    0.000    0.571 
#    0.000    7.143    0.000    0.000    0.000    0.000 
#    0.000    0.000    0.000    0.000    0.000    0.000 
#
# Total GULP energy -78035.978603 kJ/mol
# GULP energy per Si atom -5573.998472 kJ/mol
# Density = 2.490625 g / cm^3
# Si number density = 24.963068 Si / 1000 Ang^3
#
#
#
# Elastic Constant Matrix: (Units=GPa)
#
#
# Indices 1 2 3 4 5 6 
#
# 1 105.8437 32.3359 69.0320 -1.7825 -19.8342 -17.9879
# 2 32.3359 60.1952 49.1795 4.5228 -10.5021 -22.9231
# 3 69.0320 49.1795 185.9661 -3.6899 -10.9542 -28.1081
# 4 -1.7825 4.5228 -3.6899 42.5466 -6.5658 -10.1422
# 5 -19.8342 -10.5021 -10.9542 -6.5658 49.3779 0.6491
# 6 -17.9879 -22.9231 -28.1081 -10.1422 0.6491 35.7603
#
#
#
# Elastic Compliance Matrix: (Units=1/GPa)
#
#
# Indices 1 2 3 4 5 6 
#
# 1 0.014105 -0.002795 -0.003773 0.001915 0.004452 0.002800
# 2 -0.002795 0.026729 -0.003899 0.000276 0.003567 0.012676
# 3 -0.003773 -0.003899 0.008192 0.001501 -0.000361 0.002473
# 4 0.001915 0.000276 0.001501 0.026733 0.004587 0.009818
# 5 0.004452 0.003567 -0.000361 0.004587 0.023261 0.005121
# 6 0.002800 0.012676 0.002473 0.009818 0.005121 0.042134
#
#
# Mechanical properties :
#
#
# Convention : Reuss Voigt Hill
#
# Bulk Modulus (GPa) = 35.60028 72.56664 54.08346
# Shear Modulus (GPa) = 29.16252 38.96746 34.06499
#
# Velocity S-wave (km/s) = 3.42164 3.95524 3.69808
# Velocity P-wave (km/s) = 5.46830 7.07045 6.32035
#
# Compressibility (1/GPa) = 0.02808967
#
# Stress axis : x y z
#
# Youngs Moduli (GPa) = 70.89589 37.41274 122.07687
#
# Poissons Ratio (x) = 0.10458 0.46063
# Poissons Ratio (y) = 0.19817 0.47603
# Poissons Ratio (z) = 0.26751 0.14589
#
# Static dielectric constant tensor:
#      x y z
#    x 2.024980 0.039940 0.011280 
#    y 0.039940 2.061300 -0.020680 
#    z 0.011280 -0.020680 2.001330 
# 
# From -- ./inp_files/13572.got.cif
#   From: 2010.05.17/outbox.cif.g08.bks.cpg/sg2_7_cif.got.tgz:13572.got - 2010.06.03 11:33:40.
