data_PCOD9097669
_publ_section_title
;
Structure prediction by ZEFSAII (Michael W. Deem and Ramdas Pophale) SiO2 
 PCOD9097669
Probable space group: P -1
;
_chemical_formula_sum "Si O2"
_cell_formula_units_Z 16
_cell_length_a 25.815336
_cell_length_b 9.131673
_cell_length_c 9.487094
_cell_angle_alpha 44.380779
_cell_angle_beta 27.610470
_cell_angle_gamma 40.946693
_cell_volume 671.648001
_symmetry_space_group_name_H-M "P -1"
_symmetry_group_IT_number 2
_symmetry_cell_setting 'triclinic'
loop_
_space_group_symop_operation_xyz
x,y,z
-x,-y,-z
loop_
_atom_site_type_symbol
_atom_site_label
_atom_site_fract_x
_atom_site_fract_y
_atom_site_fract_z
Si Si1 0.261792 0.562371 0.567387
Si Si2 0.039543 0.918604 0.299079
Si Si3 0.795020 0.947957 0.768072
Si Si4 0.591895 0.928974 0.456309
Si Si5 0.235393 0.246588 0.317447
Si Si6 0.993122 0.390235 0.943658
Si Si7 0.515558 0.785428 0.208561
Si Si8 0.712385 0.246263 0.327884
O O1 0.371189 0.335447 0.412032
O O2 0.277041 0.611498 0.660294
O O3 0.245415 0.791363 0.365504
O O4 0.137732 0.523402 0.869280
O O5 0.935813 0.841134 0.540924
O O6 0.180563 0.777175 0.024891
O O7 0.000000 0.000000 0.500000
O O8 0.018976 0.133790 0.100132
O O9 0.764955 0.814262 0.803799
O O10 0.714237 0.950075 0.094629
O O11 0.500000 0.000000 0.500000
O O12 0.535038 0.098077 0.601959
O O13 0.101466 0.401241 0.581094
O O14 0.263260 0.007789 0.496958
O O15 0.340428 0.334539 0.043370
O O16 0.000000 0.500000 0.000000
O O17 0.425509 0.669052 0.451960
O O18 0.500000 0.000000 0.000000
#
# Coordination Sequence:
#
# PCOD9097669 Si02
#       8
#     2   2   2   2   2   2   2   2
#     4  10  24  43  68 100 129 175 227 274 342 398
#     4  10  20  36  61  92 133 173 216 277 337 384
#     4  10  21  42  66  96 132 177 219 277 335 393
#     4  12  25  44  70 101 136 173 229 280 333 400
#     4   9  18  38  63  90 129 173 221 261 337 394
#     4  10  22  38  63  98 129 173 223 277 331 403
#     4  10  21  39  68  95 131 187 214 269 342 395
#     4   9  19  39  63  92 130 178 217 269 335 398
#
# _framework density 23.821999999999999
#
# number of rings (size 3 to 8) (size 9 to 14) (size 15 to 20)
#    0.000    2.000    1.250    1.500    7.000    3.500 
#    2.250    1.875    0.000    0.000    0.000    0.000 
#    0.000    0.000    0.000    0.000    0.000    0.000 
#
# Total GULP energy -89499.745637 kJ/mol
# GULP energy per Si atom -5593.734102 kJ/mol
# Density = 2.376778 g / cm^3
# Si number density = 23.822000 Si / 1000 Ang^3
#
#
#
# Elastic Constant Matrix: (Units=GPa)
#
#
# Indices 1 2 3 4 5 6 
#
# 1 130.5875 21.7107 38.7225 5.7099 -32.6100 -4.9855
# 2 21.7107 77.3976 9.5964 -2.3287 -7.8833 -29.7868
# 3 38.7225 9.5964 109.8364 -8.5849 -9.4190 -11.9576
# 4 5.7099 -2.3287 -8.5849 30.5654 0.5925 -1.3209
# 5 -32.6100 -7.8833 -9.4190 0.5925 51.5825 6.5777
# 6 -4.9855 -29.7868 -11.9576 -1.3209 6.5777 32.2006
#
#
#
# Elastic Compliance Matrix: (Units=1/GPa)
#
#
# Indices 1 2 3 4 5 6 
#
# 1 0.010996 -0.003924 -0.003807 -0.003751 0.006310 -0.004783
# 2 -0.003924 0.021684 0.001906 0.003840 -0.001492 0.020622
# 3 -0.003807 0.001906 0.011156 0.004251 -0.000849 0.005664
# 4 -0.003751 0.003840 0.004251 0.035226 -0.002236 0.006452
# 5 0.006310 -0.001492 -0.000849 -0.002236 0.023740 -0.005660
# 6 -0.004783 0.020622 0.005664 0.006452 -0.005660 0.052915
#
#
# Mechanical properties :
#
#
# Convention : Reuss Voigt Hill
#
# Bulk Modulus (GPa) = 31.06759 50.87562 40.97161
# Shear Modulus (GPa) = 28.07491 39.38915 33.73203
#
# Velocity S-wave (km/s) = 3.43669 4.07071 3.76706
# Velocity P-wave (km/s) = 5.36821 6.59524 6.01310
#
# Compressibility (1/GPa) = 0.03218788
#
# Stress axis : x y z
#
# Youngs Moduli (GPa) = 90.94353 46.11590 89.63768
#
# Poissons Ratio (x) = 0.18094 0.34121
# Poissons Ratio (y) = 0.35682 -0.17084
# Poissons Ratio (z) = 0.34619 -0.08789
#
# Static dielectric constant tensor:
#      x y z
#    x 1.876110 -0.025970 -0.007430 
#    y -0.025970 1.929490 -0.014120 
#    z -0.007430 -0.014120 1.904260 
# 
# From -- ./inp_files/352013.got.cif
#   From: 2010.05.17/outbox.cif.g08.bks.cpg/sg2_177_cif.got.tgz:352013.got - 2010.06.03 11:33:40.
