data_PCOD9097665
_publ_section_title
;
Structure prediction by ZEFSAII (Michael W. Deem and Ramdas Pophale) SiO2 
 PCOD9097665
Probable space group: P -1
;
_chemical_formula_sum "Si O2"
_cell_formula_units_Z 16
_cell_length_a 9.755573
_cell_length_b 13.044467
_cell_length_c 9.421053
_cell_angle_alpha 84.349127
_cell_angle_beta 43.032599
_cell_angle_gamma 73.402149
_cell_volume 772.809883
_symmetry_space_group_name_H-M "P -1"
_symmetry_group_IT_number 2
_symmetry_cell_setting 'triclinic'
loop_
_space_group_symop_operation_xyz
x,y,z
-x,-y,-z
loop_
_atom_site_type_symbol
_atom_site_label
_atom_site_fract_x
_atom_site_fract_y
_atom_site_fract_z
Si Si1 0.545426 0.746029 0.693880
Si Si2 0.721565 0.872331 0.748412
Si Si3 0.723077 0.755129 0.265493
Si Si4 0.807140 0.271543 0.552980
Si Si5 0.211855 0.493641 0.426031
Si Si6 0.808602 0.294039 0.208847
Si Si7 0.544896 0.111975 0.779679
Si Si8 0.778377 0.522064 0.242599
O O1 0.553686 0.830526 0.795026
O O2 0.708039 0.757133 0.445921
O O3 0.620796 0.623828 0.715884
O O4 0.329306 0.762383 0.770160
O O5 0.953197 0.787146 0.568742
O O6 0.704695 0.991274 0.689086
O O7 0.644428 0.880171 0.968084
O O8 0.560481 0.857143 0.298716
O O9 0.656966 0.647646 0.288538
O O10 0.957910 0.734910 0.030874
O O11 0.731974 0.395071 0.650459
O O12 0.822828 0.268988 0.368796
O O13 0.660120 0.200254 0.717030
O O14 0.175310 0.491277 0.623571
O O15 0.000000 0.500000 0.500000
O O16 0.693539 0.425506 0.269804
O O17 0.000000 0.500000 0.000000
#
# Coordination Sequence:
#
# PCOD9097665 Si02
#       8
#     2   2   2   2   2   2   2   2
#     4  11  23  39  62  94 126 155 198 255 308 354
#     4  11  25  44  62  88 126 156 209 265 296 353
#     4  10  20  38  61  89 122 159 206 244 296 363
#     4  11  21  41  67  88 123 165 203 245 308 366
#     4  10  20  36  61  92 126 157 191 249 311 359
#     4  10  20  37  62  91 124 160 199 244 302 366
#     4  11  24  42  67  87 114 171 215 241 304 367
#     4   8  18  32  56  83 120 158 193 231 292 360
#
# _framework density 20.703671
#
# number of rings (size 3 to 8) (size 9 to 14) (size 15 to 20)
#    0.000    1.750    3.750    0.375    1.750    3.000 
#    2.250    1.250    0.000    0.000    0.000    0.000 
#    0.000    0.000    0.000    0.000    0.000    0.000 
#
# Total GULP energy -89319.307928 kJ/mol
# GULP energy per Si atom -5582.456746 kJ/mol
# Density = 2.065655 g / cm^3
# Si number density = 20.703671 Si / 1000 Ang^3
#
#
#
# Elastic Constant Matrix: (Units=GPa)
#
#
# Indices 1 2 3 4 5 6 
#
# 1 89.1659 27.1895 -2.9503 -10.4445 -4.1854 4.5400
# 2 27.1895 116.8309 11.0898 -19.5740 5.2067 -6.2164
# 3 -2.9503 11.0898 35.6442 -6.9152 -9.2039 -8.9894
# 4 -10.4445 -19.5740 -6.9152 14.9842 6.8805 2.1393
# 5 -4.1854 5.2067 -9.2039 6.8805 18.1882 -2.0717
# 6 4.5400 -6.2164 -8.9894 2.1393 -2.0717 27.8261
#
#
#
# Elastic Compliance Matrix: (Units=1/GPa)
#
#
# Indices 1 2 3 4 5 6 
#
# 1 0.013065 -0.002522 0.003343 0.006336 0.002808 -0.001893
# 2 -0.002522 0.013695 -0.004364 0.020966 -0.014714 -0.000646
# 3 0.003343 -0.004364 0.039119 0.002680 0.022232 0.012567
# 4 0.006336 0.020966 0.002680 0.124624 -0.051345 -0.008888
# 5 0.002808 -0.014714 0.022232 -0.051345 0.092135 0.014244
# 6 -0.001893 -0.000646 0.012567 -0.008888 0.014244 0.041905
#
#
# Mechanical properties :
#
#
# Convention : Reuss Voigt Hill
#
# Bulk Modulus (GPa) = 17.00924 34.69988 25.85456
# Shear Modulus (GPa) = 14.23571 25.95385 20.09478
#
# Velocity S-wave (km/s) = 2.62505 3.54444 3.11881
# Velocity P-wave (km/s) = 4.17387 5.79201 5.04820
#
# Compressibility (1/GPa) = 0.05879156
#
# Stress axis : x y z
#
# Youngs Moduli (GPa) = 76.53987 73.02063 25.56271
#
# Poissons Ratio (x) = 0.18418 -0.08545
# Poissons Ratio (y) = 0.19305 0.11157
# Poissons Ratio (z) = -0.25586 0.31870
#
# Static dielectric constant tensor:
#      x y z
#    x 1.720120 -0.005180 -0.012240 
#    y -0.005180 1.770080 -0.013780 
#    z -0.012240 -0.013780 1.724410 
# 
# From -- ./inp_files/187228.got.cif
#   From: 2010.05.17/outbox.cif.g08.bks.cpg/sg2_94_cif.got.tgz:187228.got - 2010.06.03 11:33:40.
