data_PCOD9097806
_publ_section_title
;
Structure prediction by ZEFSAII (Michael W. Deem and Ramdas Pophale) SiO2 
 PCOD9097806
Probable space group: P -1
;
_chemical_formula_sum "Si O2"
_cell_formula_units_Z 16
_cell_length_a 17.299377
_cell_length_b 23.214060
_cell_length_c 5.198159
_cell_angle_alpha 69.082464
_cell_angle_beta 61.481036
_cell_angle_gamma 20.519126
_cell_volume 614.782363
_symmetry_space_group_name_H-M "P -1"
_symmetry_group_IT_number 2
_symmetry_cell_setting 'triclinic'
loop_
_space_group_symop_operation_xyz
x,y,z
-x,-y,-z
loop_
_atom_site_type_symbol
_atom_site_label
_atom_site_fract_x
_atom_site_fract_y
_atom_site_fract_z
Si Si1 0.600274 0.988199 0.174696
Si Si2 0.792104 0.325458 0.820308
Si Si3 0.541945 0.164090 0.000327
Si Si4 0.282529 0.482652 0.322923
Si Si5 0.583915 0.270692 0.688774
Si Si6 0.763158 0.289129 0.425300
Si Si7 0.762223 0.659332 0.310350
Si Si8 0.852625 0.724644 0.946556
O O1 0.640365 0.031565 0.131253
O O2 0.390761 0.126806 0.070541
O O3 0.500000 0.000000 0.500000
O O4 0.841019 0.799340 0.972216
O O5 0.809615 0.386594 0.726282
O O6 0.901911 0.227364 0.542423
O O7 0.500000 0.500000 0.000000
O O8 0.889127 0.223587 0.065502
O O9 0.331028 0.310308 0.325240
O O10 0.684267 0.136523 0.801616
O O11 0.442107 0.221633 0.773703
O O12 0.503848 0.331045 0.421399
O O13 0.077014 0.574615 0.632479
O O14 0.354932 0.424054 0.007413
O O15 0.723027 0.242575 0.585989
O O16 0.500000 0.500000 0.500000
O O17 0.819034 0.692887 0.257079
O O18 0.000000 0.500000 0.000000
#
# Coordination Sequence:
#
# PCOD9097806 Si02
#       8
#     2   2   2   2   2   2   2   2
#     4  10  21  43  57  69 103 144 199 224 262 306
#     4  10  16  31  49  75 111 145 167 200 257 331
#     4  11  23  35  55  77 101 146 179 221 260 311
#     4  12  22  33  54  86 116 135 178 217 269 328
#     4  12  21  33  52  85 118 136 174 216 265 335
#     4  10  16  31  49  71 112 148 165 195 260 326
#     4  11  21  37  52  77 113 137 169 211 281 326
#     4  10  23  36  58  78 100 149 181 231 263 306
#
# _framework density 26.025466999999999
#
# number of rings (size 3 to 8) (size 9 to 14) (size 15 to 20)
#    0.000    1.250    6.250    2.625    1.750    1.000 
#    0.000    0.000    0.000    0.000    0.000    1.750 
#    0.000    0.000    0.000    0.000    0.000    0.000 
#
# Total GULP energy -89285.616283 kJ/mol
# GULP energy per Si atom -5580.351018 kJ/mol
# Density = 2.596623 g / cm^3
# Si number density = 26.025467 Si / 1000 Ang^3
#
#
#
# Elastic Constant Matrix: (Units=GPa)
#
#
# Indices 1 2 3 4 5 6 
#
# 1 81.0309 39.2318 39.9133 -15.0455 -15.4651 31.0980
# 2 39.2318 56.4535 18.6581 -12.2424 -14.3328 27.0941
# 3 39.9133 18.6581 139.8023 -30.0721 -3.1917 14.4618
# 4 -15.0455 -12.2424 -30.0721 39.8701 14.9798 -18.4308
# 5 -15.4651 -14.3328 -3.1917 14.9798 63.9736 -12.5969
# 6 31.0980 27.0941 14.4618 -18.4308 -12.5969 44.8122
#
#
#
# Elastic Compliance Matrix: (Units=1/GPa)
#
#
# Indices 1 2 3 4 5 6 
#
# 1 0.022879 -0.010217 -0.004852 -0.002970 0.001962 -0.008805
# 2 -0.010217 0.030562 -0.000077 -0.000438 0.002332 -0.010888
# 3 -0.004852 -0.000077 0.009847 0.007599 -0.001923 0.002820
# 4 -0.002970 -0.000438 0.007599 0.038466 -0.006726 0.013804
# 5 0.001962 0.002332 -0.001923 -0.006726 0.018143 0.000183
# 6 -0.008805 -0.010888 0.002820 0.013804 0.000183 0.039827
#
#
# Mechanical properties :
#
#
# Convention : Reuss Voigt Hill
#
# Bulk Modulus (GPa) = 30.30486 52.54369 41.42427
# Shear Modulus (GPa) = 24.87399 41.69676 33.28537
#
# Velocity S-wave (km/s) = 3.09488 4.00703 3.58013
# Velocity P-wave (km/s) = 4.94375 6.45303 5.74814
#
# Compressibility (1/GPa) = 0.03299801
#
# Stress axis : x y z
#
# Youngs Moduli (GPa) = 43.70787 32.72088 101.55050
#
# Poissons Ratio (x) = 0.33430 0.49269
# Poissons Ratio (y) = 0.44654 0.00779
# Poissons Ratio (z) = 0.21206 0.00251
#
# Static dielectric constant tensor:
#      x y z
#    x 2.075330 -0.027140 0.052390 
#    y -0.027140 2.061050 -0.014470 
#    z 0.052390 -0.014470 2.054030 
# 
# From -- ./inp_files/78081.got.cif
#   From: 2010.05.17/outbox.cif.g08.bks.cpg/sg2_40_cif.got.tgz:78081.got - 2010.06.03 11:33:40.
