data_PCOD9097792
_publ_section_title
;
Structure prediction by ZEFSAII (Michael W. Deem and Ramdas Pophale) SiO2 
 PCOD9097792
Probable space group: P -1
;
_chemical_formula_sum "Si O2"
_cell_formula_units_Z 14
_cell_length_a 7.242434
_cell_length_b 9.495383
_cell_length_c 19.774178
_cell_angle_alpha 52.669044
_cell_angle_beta 144.110055
_cell_angle_gamma 134.124204
_cell_volume 569.341358
_symmetry_space_group_name_H-M "P -1"
_symmetry_group_IT_number 2
_symmetry_cell_setting 'triclinic'
loop_
_space_group_symop_operation_xyz
x,y,z
-x,-y,-z
loop_
_atom_site_type_symbol
_atom_site_label
_atom_site_fract_x
_atom_site_fract_y
_atom_site_fract_z
Si Si1 0.218917 0.770780 0.137150
Si Si2 0.346717 0.114766 0.635523
Si Si3 0.150244 0.667014 0.399120
Si Si4 0.332560 0.159929 0.221895
Si Si5 0.567887 0.409373 0.857249
Si Si6 0.260458 0.788718 0.548458
Si Si7 0.680916 0.877059 0.020209
O O1 0.441499 0.773259 0.267556
O O2 0.182842 0.598870 0.125810
O O3 0.861791 0.774428 0.055864
O O4 0.419819 0.979065 0.096061
O O5 0.557293 0.250761 0.595595
O O6 0.383850 0.910785 0.702305
O O7 0.041417 0.908524 0.466934
O O8 0.817984 0.691344 0.262738
O O9 0.989430 0.433701 0.434557
O O10 0.284154 0.771815 0.480289
O O11 0.396252 0.382590 0.166784
O O12 0.383160 0.141424 0.322952
O O13 0.986384 0.021531 0.119240
O O14 0.588864 0.281734 0.963620
#
# Coordination Sequence:
#
# PCOD9097792 Si02
#       7
#     2   2   2   2   2   2   2
#     4  10  21  38  68  86 118 163 198 242 303 354
#     4  11  20  40  60  88 122 158 195 246 297 351
#     4  10  20  36  62  88 116 157 199 239 300 352
#     4  10  23  38  62  93 121 152 206 246 289 361
#     4  11  20  41  63  86 124 158 195 249 299 347
#     4  10  21  37  60  89 119 156 199 244 291 360
#     4  10  22  44  60  89 122 156 201 249 293 355
#
# _framework density 24.589818000000001
#
# number of rings (size 3 to 8) (size 9 to 14) (size 15 to 20)
#    0.000    1.714    4.286    1.286    0.000    1.143 
#    0.000   10.714    0.000    0.000    0.000    0.000 
#    0.000    0.000    0.000    0.000    0.000    0.000 
#
# Total GULP energy -78371.850380 kJ/mol
# GULP energy per Si atom -5597.989313 kJ/mol
# Density = 2.453385 g / cm^3
# Si number density = 24.589818 Si / 1000 Ang^3
#
#
#
# Elastic Constant Matrix: (Units=GPa)
#
#
# Indices 1 2 3 4 5 6 
#
# 1 111.7143 54.3767 46.1778 -3.9637 -23.8257 -14.2824
# 2 54.3767 98.4053 29.7400 7.1105 -16.4833 -18.0718
# 3 46.1778 29.7400 124.8936 4.4042 -27.5356 16.6218
# 4 -3.9637 7.1105 4.4042 42.8900 -0.7796 2.1059
# 5 -23.8257 -16.4833 -27.5356 -0.7796 39.8313 4.3638
# 6 -14.2824 -18.0718 16.6218 2.1059 4.3638 19.7316
#
#
#
# Elastic Compliance Matrix: (Units=1/GPa)
#
#
# Indices 1 2 3 4 5 6 
#
# 1 0.015533 -0.004612 -0.005697 0.002283 0.002276 0.011072
# 2 -0.004612 0.017465 -0.004803 -0.003692 -0.000817 0.017279
# 3 -0.005697 -0.004803 0.016370 -0.000067 0.008571 -0.024201
# 4 0.002283 -0.003692 -0.000067 0.024377 0.000755 -0.004441
# 5 0.002276 -0.000817 0.008571 0.000755 0.033584 -0.013829
# 6 0.011072 0.017279 -0.024201 -0.004441 -0.013829 0.098439
#
#
# Mechanical properties :
#
#
# Convention : Reuss Voigt Hill
#
# Bulk Modulus (GPa) = 52.23597 66.17801 59.20699
# Shear Modulus (GPa) = 20.62924 34.13850 27.38387
#
# Velocity S-wave (km/s) = 2.89958 3.73006 3.34072
# Velocity P-wave (km/s) = 5.70080 6.74702 6.24586
#
# Compressibility (1/GPa) = 0.01914390
#
# Stress axis : x y z
#
# Youngs Moduli (GPa) = 64.37868 57.25676 61.08738
#
# Poissons Ratio (x) = 0.26406 0.34802
# Poissons Ratio (y) = 0.29691 0.29341
# Poissons Ratio (z) = 0.36678 0.27501
#
# Static dielectric constant tensor:
#      x y z
#    x 1.931900 0.010780 -0.013620 
#    y 0.010780 1.994100 0.001900 
#    z -0.013620 0.001900 1.938400 
# 
# From -- ./inp_files/556107.got.cif
#   From: 2010.05.17/outbox.cif.g08.bks.cpg/sg2_279_cif.got.tgz:556107.got - 2010.06.03 11:33:40.
