data_PCOD9097921
_publ_section_title
;
Structure prediction by ZEFSAII (Michael W. Deem and Ramdas Pophale) SiO2 
 PCOD9097921
Probable space group: P -1
;
_chemical_formula_sum "Si O2"
_cell_formula_units_Z 16
_cell_length_a 9.737849
_cell_length_b 8.291098
_cell_length_c 9.249101
_cell_angle_alpha 88.284809
_cell_angle_beta 55.439304
_cell_angle_gamma 99.826058
_cell_volume 598.508600
_symmetry_space_group_name_H-M "P -1"
_symmetry_group_IT_number 2
_symmetry_cell_setting 'triclinic'
loop_
_space_group_symop_operation_xyz
x,y,z
-x,-y,-z
loop_
_atom_site_type_symbol
_atom_site_label
_atom_site_fract_x
_atom_site_fract_y
_atom_site_fract_z
Si Si1 0.965267 0.143013 0.219010
Si Si2 0.961707 0.330297 0.937492
Si Si3 0.689478 0.323882 0.904432
Si Si4 0.308765 0.328649 0.050879
Si Si5 0.586981 0.051849 0.793047
Si Si6 0.371481 0.108669 0.508384
Si Si7 0.884382 0.461640 0.425600
Si Si8 0.513440 0.665726 0.327485
O O1 0.895865 0.288452 0.341189
O O2 0.822298 0.977390 0.328810
O O3 0.991372 0.193204 0.034010
O O4 0.159523 0.164258 0.157637
O O5 0.057933 0.386717 0.727948
O O6 0.762879 0.272942 0.010599
O O7 0.000000 0.500000 0.000000
O O8 0.760513 0.520828 0.844930
O O9 0.487589 0.318023 0.014468
O O10 0.737106 0.204166 0.756020
O O11 0.354143 0.392442 0.856085
O O12 0.477438 0.155625 0.761934
O O13 0.625874 0.916478 0.665149
O O14 0.500000 0.000000 0.000000
O O15 0.435092 0.287305 0.540300
O O16 0.500000 0.000000 0.500000
O O17 0.679469 0.437357 0.572301
O O18 0.000000 0.500000 0.500000
#
# Coordination Sequence:
#
# PCOD9097921 Si02
#       8
#     2   2   2   2   2   2   2   2
#     4  11  22  38  65  91 128 163 216 268 306 376
#     4  10  21  35  61  96 121 161 210 269 313 359
#     4  10  20  36  62  93 128 164 209 257 323 384
#     4  10  21  38  60  96 129 171 202 254 339 387
#     4  10  21  35  62  92 114 164 219 261 294 371
#     4  10  21  39  60  94 120 168 216 263 307 373
#     4  11  20  36  60  93 126 163 216 265 309 374
#     4  10  22  39  61  93 127 168 208 256 324 380
#
# _framework density 26.733117
#
# number of rings (size 3 to 8) (size 9 to 14) (size 15 to 20)
#    0.000    1.750    5.000    1.500    5.250    0.500 
#    0.000    0.625    0.000    3.000    0.000    0.000 
#    0.000    0.000    0.000    0.000    0.000    0.000 
#
# Total GULP energy -89341.740919 kJ/mol
# GULP energy per Si atom -5583.858807 kJ/mol
# Density = 2.667227 g / cm^3
# Si number density = 26.733117 Si / 1000 Ang^3
#
#
#
# Elastic Constant Matrix: (Units=GPa)
#
#
# Indices 1 2 3 4 5 6 
#
# 1 109.0795 36.9080 45.3647 1.1593 3.9631 41.3078
# 2 36.9080 104.3708 54.8703 21.5308 10.8255 35.5667
# 3 45.3647 54.8703 185.9982 6.2796 10.9998 25.4208
# 4 1.1593 21.5308 6.2796 51.4607 14.2304 2.9646
# 5 3.9631 10.8255 10.9998 14.2304 47.6323 -5.7756
# 6 41.3078 35.5667 25.4208 2.9646 -5.7756 53.1114
#
#
#
# Elastic Compliance Matrix: (Units=1/GPa)
#
#
# Indices 1 2 3 4 5 6 
#
# 1 0.013927 -0.000703 -0.001762 0.001368 -0.002193 -0.009833
# 2 -0.000703 0.015515 -0.002952 -0.004991 -0.002314 -0.008403
# 3 -0.001762 -0.002952 0.006710 0.000718 -0.000948 -0.000007
# 4 0.001368 -0.004991 0.000718 0.023073 -0.006040 -0.000010
# 5 -0.002193 -0.002314 -0.000948 -0.006040 0.024540 0.006714
# 6 -0.009833 -0.008403 -0.000007 -0.000010 0.006714 0.032838
#
#
# Mechanical properties :
#
#
# Convention : Reuss Voigt Hill
#
# Bulk Modulus (GPa) = 39.49647 74.85940 57.17793
# Shear Modulus (GPa) = 36.79875 47.92791 42.36333
#
# Velocity S-wave (km/s) = 3.71418 4.23877 3.98512
# Velocity P-wave (km/s) = 5.76194 7.21246 6.52761
#
# Compressibility (1/GPa) = 0.02531872
#
# Stress axis : x y z
#
# Youngs Moduli (GPa) = 71.80330 64.45477 149.03675
#
# Poissons Ratio (x) = 0.04528 0.26262
# Poissons Ratio (y) = 0.05044 0.43991
# Poissons Ratio (z) = 0.12653 0.19025
#
# Static dielectric constant tensor:
#      x y z
#    x 2.114940 -0.017190 0.016180 
#    y -0.017190 2.356480 -0.037080 
#    z 0.016180 -0.037080 2.212810 
# 
# From -- ./inp_files/258860.got.cif
#   From: 2010.05.17/outbox.cif.g08.bks.cpg/sg2_130_cif.got.tgz:258860.got - 2010.06.03 11:33:40.
