data_PCOD9097408
_publ_section_title
;
Structure prediction by ZEFSAII (Michael W. Deem and Ramdas Pophale) SiO2 
 PCOD9097408
Probable space group: P -1
;
_chemical_formula_sum "Si O2"
_cell_formula_units_Z 16
_cell_length_a 11.857677
_cell_length_b 24.830415
_cell_length_c 18.513749
_cell_angle_alpha 156.293415
_cell_angle_beta 151.335792
_cell_angle_gamma 24.887969
_cell_volume 886.247052
_symmetry_space_group_name_H-M "P -1"
_symmetry_group_IT_number 2
_symmetry_cell_setting 'triclinic'
loop_
_space_group_symop_operation_xyz
x,y,z
-x,-y,-z
loop_
_atom_site_type_symbol
_atom_site_label
_atom_site_fract_x
_atom_site_fract_y
_atom_site_fract_z
Si Si1 0.551877 0.338159 0.301325
Si Si2 0.896843 0.684805 0.661551
Si Si3 0.688625 0.037632 0.379958
Si Si4 0.315511 0.159205 0.995596
Si Si5 0.228769 0.811137 0.914225
Si Si6 0.576937 0.922837 0.325340
Si Si7 0.873844 0.909991 0.606095
Si Si8 0.085995 0.124487 0.961414
O O1 0.500000 0.500000 0.500000
O O2 0.307780 0.317117 0.167373
O O3 0.615815 0.289778 0.193850
O O4 0.834222 0.207944 0.338943
O O5 0.574521 0.790554 0.582366
O O6 0.928820 0.748207 0.834999
O O7 0.000000 0.500000 0.500000
O O8 0.071508 0.733619 0.767774
O O9 0.635708 0.997135 0.380581
O O10 0.000000 0.000000 0.500000
O O11 0.679035 0.918026 0.171713
O O12 0.088203 0.174772 0.942510
O O13 0.612399 0.033985 0.046069
O O14 0.451149 0.820957 0.101718
O O15 0.000000 0.000000 0.000000
O O16 0.836622 0.841399 0.426216
O O17 0.349686 0.055325 0.415148
O O18 0.867404 0.072034 0.786276
#
# Coordination Sequence:
#
# PCOD9097408 Si02
#       8
#     2   2   2   2   2   2   2   2
#     4  11  22  36  58  89 124 156 196 254 311 360
#     4  11  23  37  61  93 122 157 207 261 306 360
#     4  11  21  38  61  86 119 162 205 246 307 376
#     4   9  18  33  55  80 112 155 198 236 293 367
#     4  12  19  42  67  86 117 171 219 246 293 382
#     4  11  20  36  66  88 111 155 219 253 289 360
#     4  10  20  36  60  91 113 152 211 256 294 360
#     4   9  17  34  56  81 113 153 198 247 293 361
#
# _framework density 18.053657000000001
#
# number of rings (size 3 to 8) (size 9 to 14) (size 15 to 20)
#    0.000    1.500    5.000    1.500    1.750    1.000 
#    0.000    1.875    0.000    1.500    0.000    0.000 
#    0.000    0.000    0.000    0.000    0.000    0.000 
#
# Total GULP energy -89101.958268 kJ/mol
# GULP energy per Si atom -5568.872392 kJ/mol
# Density = 1.801257 g / cm^3
# Si number density = 18.053657 Si / 1000 Ang^3
#
#
#
# Elastic Constant Matrix: (Units=GPa)
#
#
# Indices 1 2 3 4 5 6 
#
# 1 148.0294 32.7128 53.4299 6.6536 3.2188 15.2479
# 2 32.7128 29.4057 25.6444 -7.7627 6.6968 5.3823
# 3 53.4299 25.6444 92.7979 9.9347 7.1032 7.9979
# 4 6.6536 -7.7627 9.9347 37.0045 4.7512 -1.8604
# 5 3.2188 6.6968 7.1032 4.7512 37.2267 -8.7108
# 6 15.2479 5.3823 7.9979 -1.8604 -8.7108 18.7349
#
#
#
# Elastic Compliance Matrix: (Units=1/GPa)
#
#
# Indices 1 2 3 4 5 6 
#
# 1 0.010439 -0.009512 -0.002659 -0.003479 0.000669 -0.004663
# 2 -0.009512 0.066346 -0.013145 0.020394 -0.013542 -0.009979
# 3 -0.002659 -0.013145 0.016870 -0.006883 -0.000226 -0.002050
# 4 -0.003479 0.020394 -0.006883 0.034614 -0.006384 0.000380
# 5 0.000669 -0.013542 -0.000226 -0.006384 0.034510 0.018854
# 6 -0.004663 -0.009979 -0.002050 0.000380 0.018854 0.069718
#
#
# Mechanical properties :
#
#
# Convention : Reuss Voigt Hill
#
# Bulk Modulus (GPa) = 23.24220 54.86745 39.05483
# Shear Modulus (GPa) = 16.80840 29.15628 22.98234
#
# Velocity S-wave (km/s) = 3.05458 4.02304 3.57179
# Velocity P-wave (km/s) = 5.03414 7.21367 6.22011
#
# Compressibility (1/GPa) = 0.04302518
#
# Stress axis : x y z
#
# Youngs Moduli (GPa) = 95.79247 15.07244 59.27550
#
# Poissons Ratio (x) = 0.14336 0.15761
# Poissons Ratio (y) = 0.91114 0.77917
# Poissons Ratio (z) = 0.25470 0.19813
#
# Static dielectric constant tensor:
#      x y z
#    x 1.709930 0.314280 0.073650 
#    y 0.314280 3.417600 0.161160 
#    z 0.073650 0.161160 1.673900 
# 
# From -- ./inp_files/260583.got.cif
#   From: 2010.05.17/outbox.cif.g08.bks.cpg/sg2_131_cif.got.tgz:260583.got - 2010.06.03 11:33:40.
