data_PCOD9097926
_publ_section_title
;
Structure prediction by ZEFSAII (Michael W. Deem and Ramdas Pophale) SiO2 
 PCOD9097926
Probable space group: P -1
;
_chemical_formula_sum "Si O2"
_cell_formula_units_Z 16
_cell_length_a 8.688722
_cell_length_b 8.019216
_cell_length_c 13.625261
_cell_angle_alpha 84.021190
_cell_angle_beta 53.073044
_cell_angle_gamma 107.624394
_cell_volume 670.378633
_symmetry_space_group_name_H-M "P -1"
_symmetry_group_IT_number 2
_symmetry_cell_setting 'triclinic'
loop_
_space_group_symop_operation_xyz
x,y,z
-x,-y,-z
loop_
_atom_site_type_symbol
_atom_site_label
_atom_site_fract_x
_atom_site_fract_y
_atom_site_fract_z
Si Si1 0.190492 0.004548 0.858692
Si Si2 0.529854 0.732834 0.727468
Si Si3 0.179182 0.652208 0.990466
Si Si4 0.347225 0.848128 0.379760
Si Si5 0.900397 0.655779 0.627214
Si Si6 0.986367 0.362456 0.725386
Si Si7 0.424613 0.715309 0.557852
Si Si8 0.070739 0.025442 0.681253
O O1 0.230041 0.846779 0.906857
O O2 0.442659 0.168214 0.740924
O O3 0.098168 0.966247 0.785649
O O4 0.000000 0.000000 0.000000
O O5 0.401105 0.642731 0.882765
O O6 0.690998 0.643471 0.654591
O O7 0.376918 0.701363 0.693025
O O8 0.648722 0.958955 0.669019
O O9 0.000000 0.500000 0.000000
O O10 0.093560 0.647525 0.131456
O O11 0.376667 0.839715 0.487684
O O12 0.097925 0.700399 0.474454
O O13 0.871436 0.472985 0.709073
O O14 0.970003 0.840849 0.661512
O O15 0.246617 0.504704 0.607144
O O16 0.943959 0.152280 0.726470
O O17 0.685153 0.820031 0.450575
#
# Coordination Sequence:
#
# PCOD9097926 Si02
#       8
#     2   2   2   2   2   2   2   2
#     4  10  20  36  62  94 118 157 210 265 304 359
#     4  11  21  37  65  92 122 169 212 250 313 378
#     4  11  21  37  64  91 121 160 212 261 307 369
#     4   9  20  35  65  93 117 162 209 258 312 361
#     4  11  24  40  65  89 130 172 202 253 318 380
#     4  11  23  40  62  92 126 164 210 260 312 367
#     4  10  20  36  64  95 120 157 213 265 309 355
#     4  11  22  39  64  91 130 160 207 262 316 363
#
# _framework density 23.867111000000001
#
# number of rings (size 3 to 8) (size 9 to 14) (size 15 to 20)
#    0.000    1.500    3.750    1.875    7.000    0.500 
#    0.000    1.250   13.750    0.000    0.000    0.000 
#    0.000    0.000    0.000    0.000    0.000    0.000 
#
# Total GULP energy -89151.264801 kJ/mol
# GULP energy per Si atom -5571.954050 kJ/mol
# Density = 2.381279 g / cm^3
# Si number density = 23.867111 Si / 1000 Ang^3
#
#
#
# Elastic Constant Matrix: (Units=GPa)
#
#
# Indices 1 2 3 4 5 6 
#
# 1 69.3632 50.4835 42.0371 3.9954 10.9993 -17.4296
# 2 50.4835 93.5149 39.7652 4.6565 9.0251 -9.8544
# 3 42.0371 39.7652 143.5524 8.1882 8.0085 -9.4973
# 4 3.9954 4.6565 8.1882 31.6864 -7.1093 3.0932
# 5 10.9993 9.0251 8.0085 -7.1093 37.8426 2.4950
# 6 -17.4296 -9.8544 -9.4973 3.0932 2.4950 30.9085
#
#
#
# Elastic Compliance Matrix: (Units=1/GPa)
#
#
# Indices 1 2 3 4 5 6 
#
# 1 0.030485 -0.012580 -0.004017 -0.003680 -0.006548 0.012842
# 2 -0.012580 0.017941 -0.001344 -0.000614 -0.000341 -0.001698
# 3 -0.004017 -0.001344 0.008663 -0.001706 -0.000678 0.000193
# 4 -0.003680 -0.000614 -0.001706 0.035179 0.008648 -0.007013
# 5 -0.006548 -0.000341 -0.000678 0.008648 0.030663 -0.007350
# 6 0.012842 -0.001698 0.000193 -0.007013 -0.007350 0.040409
#
#
# Mechanical properties :
#
#
# Convention : Reuss Voigt Hill
#
# Bulk Modulus (GPa) = 47.15859 63.44471 55.30165
# Shear Modulus (GPa) = 24.23750 31.69714 27.96732
#
# Velocity S-wave (km/s) = 3.19018 3.64822 3.42686
# Velocity P-wave (km/s) = 5.77679 6.66230 6.23529
#
# Compressibility (1/GPa) = 0.02120504
#
# Stress axis : x y z
#
# Youngs Moduli (GPa) = 32.80279 55.73812 115.43649
#
# Poissons Ratio (x) = 0.70121 0.46375
# Poissons Ratio (y) = 0.41267 0.15517
# Poissons Ratio (z) = 0.13178 0.07492
#
# Static dielectric constant tensor:
#      x y z
#    x 1.971320 -0.001340 -0.080920 
#    y -0.001340 1.928320 0.098660 
#    z -0.080920 0.098660 2.077540 
# 
# From -- ./inp_files/492443.got.cif
#   From: 2010.05.17/outbox.cif.g08.bks.cpg/sg2_247_cif.got.tgz:492443.got - 2010.06.03 11:33:40.
