data_PCOD9097572
_publ_section_title
;
Structure prediction by ZEFSAII (Michael W. Deem and Ramdas Pophale) SiO2 
 PCOD9097572
Probable space group: P -1
;
_chemical_formula_sum "Si O2"
_cell_formula_units_Z 16
_cell_length_a 5.057253
_cell_length_b 12.636820
_cell_length_c 15.486691
_cell_angle_alpha 62.023553
_cell_angle_beta 63.194350
_cell_angle_gamma 78.021828
_cell_volume 780.123997
_symmetry_space_group_name_H-M "P -1"
_symmetry_group_IT_number 2
_symmetry_cell_setting 'triclinic'
loop_
_space_group_symop_operation_xyz
x,y,z
-x,-y,-z
loop_
_atom_site_type_symbol
_atom_site_label
_atom_site_fract_x
_atom_site_fract_y
_atom_site_fract_z
Si Si1 0.914497 0.861142 0.724134
Si Si2 0.467019 0.079373 0.388962
Si Si3 0.330806 0.578309 0.193605
Si Si4 0.849285 0.883169 0.026727
Si Si5 0.478274 0.787402 0.966670
Si Si6 0.766202 0.413551 0.518411
Si Si7 0.679242 0.682551 0.254249
Si Si8 0.131583 0.317228 0.341258
O O1 0.206226 0.915655 0.701779
O O2 0.684754 0.808749 0.846212
O O3 0.018142 0.751234 0.690318
O O4 0.239068 0.048170 0.356951
O O5 0.353090 0.212474 0.379407
O O6 0.500000 0.000000 0.500000
O O7 0.555886 0.591512 0.234760
O O8 0.280730 0.438769 0.238324
O O9 0.011401 0.637332 0.245215
O O10 0.463104 0.658250 0.065738
O O11 0.140187 0.811141 0.980761
O O12 0.610505 0.877798 0.986682
O O13 0.709720 0.809452 0.154636
O O14 0.000000 0.000000 0.000000
O O15 0.500000 0.500000 0.500000
O O16 0.584222 0.316410 0.638225
O O17 0.000000 0.500000 0.500000
O O18 0.921770 0.355700 0.435366
#
# Coordination Sequence:
#
# PCOD9097572 Si02
#       8
#     2   2   2   2   2   2   2   2
#     4  10  23  40  64  88 124 163 211 253 315 371
#     4  10  23  43  62  84 126 164 215 263 310 356
#     4  10  20  36  61  88 124 159 195 255 307 382
#     4  10  21  39  64  90 121 161 211 261 312 376
#     4  10  21  40  63  90 126 163 200 258 323 366
#     4  12  22  36  61  89 127 161 205 257 315 376
#     4  10  20  37  56  88 125 159 200 251 320 360
#     4  10  24  36  65  89 126 163 214 247 323 369
#
# _framework density 20.50956
#
# number of rings (size 3 to 8) (size 9 to 14) (size 15 to 20)
#    0.750    1.000    2.500    1.500    3.500    0.500 
#    2.250    1.875    2.750    0.000    0.000    0.000 
#    0.000    0.000    0.000    0.000    0.000    0.000 
#
# Total GULP energy -89109.355788 kJ/mol
# GULP energy per Si atom -5569.334737 kJ/mol
# Density = 2.046288 g / cm^3
# Si number density = 20.509560 Si / 1000 Ang^3
#
#
#
# Elastic Constant Matrix: (Units=GPa)
#
#
# Indices 1 2 3 4 5 6 
#
# 1 101.4908 12.8812 18.3270 1.7026 -12.5087 -4.8064
# 2 12.8812 20.3678 8.2492 -0.9188 8.4837 -4.9504
# 3 18.3270 8.2492 108.3735 20.2254 -9.5480 -14.1428
# 4 1.7026 -0.9188 20.2254 23.1519 -0.7743 -6.8324
# 5 -12.5087 8.4837 -9.5480 -0.7743 27.3918 0.3430
# 6 -4.8064 -4.9504 -14.1428 -6.8324 0.3430 22.0712
#
#
#
# Elastic Compliance Matrix: (Units=1/GPa)
#
#
# Indices 1 2 3 4 5 6 
#
# 1 0.012545 -0.011867 -0.000288 -0.000999 0.009283 -0.000568
# 2 -0.011867 0.076848 -0.007227 0.013518 -0.031541 0.014696
# 3 -0.000288 -0.007227 0.012694 -0.010205 0.006203 0.003195
# 4 -0.000999 0.013518 -0.010205 0.056593 -0.006774 0.013900
# 5 0.009283 -0.031541 0.006203 -0.006774 0.052536 -0.003992
# 6 -0.000568 0.014696 0.003195 0.013900 -0.003992 0.054893
#
#
# Mechanical properties :
#
#
# Convention : Reuss Voigt Hill
#
# Bulk Modulus (GPa) = 15.79161 34.34965 25.07063
# Shear Modulus (GPa) = 15.33832 27.24129 21.28981
#
# Velocity S-wave (km/s) = 2.73767 3.64843 3.22536
# Velocity P-wave (km/s) = 4.20826 5.87644 5.11087
#
# Compressibility (1/GPa) = 0.06332476
#
# Stress axis : x y z
#
# Youngs Moduli (GPa) = 79.71166 13.01263 78.77685
#
# Poissons Ratio (x) = 0.15442 0.02269
# Poissons Ratio (y) = 0.94593 0.56929
# Poissons Ratio (z) = 0.02296 0.09404
#
# Static dielectric constant tensor:
#      x y z
#    x 1.776140 0.015450 0.015810 
#    y 0.015450 1.730790 -0.025110 
#    z 0.015810 -0.025110 1.854240 
# 
# From -- ./inp_files/549944.got.cif
#   From: 2010.05.17/outbox.cif.g08.bks.cpg/sg2_275_cif.got.tgz:549944.got - 2010.06.03 11:33:40.
