data_PCOD9097441
_publ_section_title
;
Structure prediction by ZEFSAII (Michael W. Deem and Ramdas Pophale) SiO2 
 PCOD9097441
Probable space group: P -1
;
_chemical_formula_sum "Si O2"
_cell_formula_units_Z 15
_cell_length_a 14.415540
_cell_length_b 6.700734
_cell_length_c 11.210947
_cell_angle_alpha 86.601273
_cell_angle_beta 146.860592
_cell_angle_gamma 87.350646
_cell_volume 581.776443
_symmetry_space_group_name_H-M "P -1"
_symmetry_group_IT_number 2
_symmetry_cell_setting 'triclinic'
loop_
_space_group_symop_operation_xyz
x,y,z
-x,-y,-z
loop_
_atom_site_type_symbol
_atom_site_label
_atom_site_fract_x
_atom_site_fract_y
_atom_site_fract_z
Si Si1 0.343479 0.428622 0.765849
Si Si2 0.839245 0.484548 0.199383
Si Si3 0.392419 0.086135 0.656318
Si Si4 0.529241 0.366912 0.304731
Si Si5 0.567903 0.762723 0.556208
Si Si6 0.005329 0.830734 0.789461
Si Si7 0.000000 0.500000 0.000000
Si Si8 0.915111 0.764886 0.070609
O O1 0.191178 0.466991 0.696182
O O2 0.397106 0.200967 0.782124
O O3 0.324273 0.566083 0.621926
O O4 0.500000 0.500000 0.000000
O O5 0.941454 0.265055 0.278827
O O6 0.650912 0.494937 0.933995
O O7 0.909520 0.659841 0.195397
O O8 0.435844 0.234257 0.591001
O O9 0.193611 0.065635 0.426087
O O10 0.494748 0.860115 0.757435
O O11 0.533471 0.351787 0.453320
O O12 0.769144 0.708780 0.819129
O O13 0.500000 0.000000 0.500000
O O14 0.018311 0.639422 0.896182
O O15 0.111690 0.996943 0.944715
O O16 0.071769 0.673249 0.158396
#
# Coordination Sequence:
#
# PCOD9097441 Si02
#       8
#     2   2   2   2   2   2   1   2
#     4  10  23  43  65  88 124 168 216 265 317 358
#     4   9  22  40  62  92 121 166 220 257 298 382
#     4  11  23  39  62  96 127 162 212 262 306 383
#     4   9  21  41  64  91 124 163 207 263 321 364
#     4   9  19  37  58  93 125 149 204 255 304 380
#     4  11  23  39  64  93 131 169 203 251 318 376
#     4  10  20  36  60  92 126 164 202 238 300 392
#     4  10  20  39  63  89 128 167 197 249 320 369
#
# _framework density 25.783102
#
# number of rings (size 3 to 8) (size 9 to 14) (size 15 to 20)
#    0.000    2.133    1.333    0.400    0.000   12.800 
#    2.400    1.333    0.000    0.000    0.000    0.000 
#    0.000    0.000    0.000    0.000    0.000    0.000 
#
# Total GULP energy -83632.129549 kJ/mol
# GULP energy per Si atom -5575.475303 kJ/mol
# Density = 2.572442 g / cm^3
# Si number density = 25.783102 Si / 1000 Ang^3
#
#
#
# Elastic Constant Matrix: (Units=GPa)
#
#
# Indices 1 2 3 4 5 6 
#
# 1 188.2492 32.7631 8.1509 14.7193 -35.5163 -11.3290
# 2 32.7631 96.2455 -4.3570 13.6239 -20.4518 -17.7916
# 3 8.1509 -4.3570 74.5885 0.5570 2.2194 -13.0732
# 4 14.7193 13.6239 0.5570 25.5952 -7.7604 -16.1589
# 5 -35.5163 -20.4518 2.2194 -7.7604 40.9669 13.1852
# 6 -11.3290 -17.7916 -13.0732 -16.1589 13.1852 35.6755
#
#
#
# Elastic Compliance Matrix: (Units=1/GPa)
#
#
# Indices 1 2 3 4 5 6 
#
# 1 0.006706 -0.001187 -0.001355 -0.003018 0.005479 -0.002351
# 2 -0.001187 0.012705 0.001511 -0.002466 0.003436 0.004126
# 3 -0.001355 0.001511 0.015320 0.004418 -0.003369 0.009183
# 4 -0.003018 -0.002466 0.004418 0.058195 -0.001547 0.026361
# 5 0.005479 0.003436 -0.003369 -0.001547 0.034364 -0.011182
# 6 -0.002351 0.004126 0.009183 0.026361 -0.011182 0.048780
#
#
# Mechanical properties :
#
#
# Convention : Reuss Voigt Hill
#
# Bulk Modulus (GPa) = 30.61017 48.02191 39.31604
# Shear Modulus (GPa) = 26.45221 41.94926 34.20074
#
# Velocity S-wave (km/s) = 3.20652 4.03799 3.64604
# Velocity P-wave (km/s) = 5.06034 6.35659 5.74514
#
# Compressibility (1/GPa) = 0.03266888
#
# Stress axis : x y z
#
# Youngs Moduli (GPa) = 149.12943 78.71184 65.27402
#
# Poissons Ratio (x) = 0.09344 0.08842
# Poissons Ratio (y) = 0.17703 -0.09864
# Poissons Ratio (z) = 0.20202 -0.11894
#
# Static dielectric constant tensor:
#      x y z
#    x 1.961330 -0.028830 -0.084900 
#    y -0.028830 2.094000 0.096640 
#    z -0.084900 0.096640 1.959790 
# 
# From -- ./inp_files/441230.got.cif
#   From: 2010.05.17/outbox.cif.g08.bks.cpg/sg2_221_cif.got.tgz:441230.got - 2010.06.03 11:33:40.
