data_PCOD9097190
_publ_section_title
;
Structure prediction by ZEFSAII (Michael W. Deem and Ramdas Pophale) SiO2 
 PCOD9097190
Probable space group: P -1
;
_chemical_formula_sum "Si O2"
_cell_formula_units_Z 14
_cell_length_a 10.395417
_cell_length_b 10.854736
_cell_length_c 8.235867
_cell_angle_alpha 44.170094
_cell_angle_beta 69.558732
_cell_angle_gamma 79.273868
_cell_volume 603.815682
_symmetry_space_group_name_H-M "P -1"
_symmetry_group_IT_number 2
_symmetry_cell_setting 'triclinic'
loop_
_space_group_symop_operation_xyz
x,y,z
-x,-y,-z
loop_
_atom_site_type_symbol
_atom_site_label
_atom_site_fract_x
_atom_site_fract_y
_atom_site_fract_z
Si Si1 0.591281 0.340497 0.131437
Si Si2 0.007709 0.663204 0.559916
Si Si3 0.999593 0.035976 0.160433
Si Si4 0.313174 0.168840 0.970670
Si Si5 0.259875 0.559763 0.719173
Si Si6 0.466763 0.888744 0.334381
Si Si7 0.828833 0.323307 0.852373
O O1 0.714863 0.423883 0.115765
O O2 0.521514 0.178761 0.422450
O O3 0.500000 0.500000 0.000000
O O4 0.666143 0.291763 0.980922
O O5 0.101932 0.578688 0.729526
O O6 0.118839 0.704487 0.325765
O O7 0.889379 0.524692 0.672313
O O8 0.953609 0.851382 0.445577
O O9 0.152747 0.098896 0.093095
O O10 0.899500 0.190648 0.067321
O O11 0.000000 0.000000 0.000000
O O12 0.393342 0.067106 0.169581
O O13 0.312667 0.379152 0.800312
O O14 0.392282 0.119547 0.818264
O O15 0.359170 0.731361 0.452907
#
# Coordination Sequence:
#
# PCOD9097190 Si02
#       7
#     2   2   2   2   2   2   2
#     4  10  24  43  59  90 129 158 200 255 313 363
#     4  10  20  38  66  91 115 160 211 247 296 364
#     4  10  20  36  59  92 119 153 203 252 295 352
#     4  11  19  40  65  90 120 160 210 253 290 364
#     4  10  21  39  63  90 119 161 207 246 305 355
#     4   9  23  38  61  89 122 157 209 247 303 356
#     4  10  22  39  62  87 125 161 198 255 308 353
#
# _framework density 23.185884999999999
#
# number of rings (size 3 to 8) (size 9 to 14) (size 15 to 20)
#    0.857    1.143    2.857    0.429    2.000    0.571 
#    5.143    2.143    0.000    0.000    0.000    0.000 
#    0.000    0.000    0.000    0.000    0.000    0.000 
#
# Total GULP energy -78147.713483 kJ/mol
# GULP energy per Si atom -5581.979535 kJ/mol
# Density = 2.313311 g / cm^3
# Si number density = 23.185885 Si / 1000 Ang^3
#
#
#
# Elastic Constant Matrix: (Units=GPa)
#
#
# Indices 1 2 3 4 5 6 
#
# 1 56.3153 21.4943 21.1435 -12.9146 16.5426 -11.6009
# 2 21.4943 54.2515 29.0007 -20.1359 -3.1842 -17.4586
# 3 21.1435 29.0007 84.7294 -7.7991 17.9021 -26.3493
# 4 -12.9146 -20.1359 -7.7991 44.9519 -0.9599 -1.3990
# 5 16.5426 -3.1842 17.9021 -0.9599 21.2939 -3.4478
# 6 -11.6009 -17.4586 -26.3493 -1.3990 -3.4478 34.9666
#
#
#
# Elastic Compliance Matrix: (Units=1/GPa)
#
#
# Indices 1 2 3 4 5 6 
#
# 1 0.031971 -0.014731 0.005084 0.002947 -0.030503 0.004193
# 2 -0.014731 0.040364 -0.012393 0.012631 0.029989 0.009389
# 3 0.005084 -0.012393 0.022955 -0.000282 -0.023418 0.010477
# 4 0.002947 0.012631 -0.000282 0.029019 0.002517 0.008481
# 5 -0.030503 0.029989 -0.023418 0.002517 0.094396 -0.003385
# 6 0.004193 0.009389 0.010477 0.008481 -0.003385 0.042579
#
#
# Mechanical properties :
#
#
# Convention : Reuss Voigt Hill
#
# Bulk Modulus (GPa) = 19.52759 37.61925 28.57342
# Shear Modulus (GPa) = 15.50702 28.48632 21.99667
#
# Velocity S-wave (km/s) = 2.58895 3.50895 3.08345
# Velocity P-wave (km/s) = 4.16861 5.71640 5.00273
#
# Compressibility (1/GPa) = 0.05120959
#
# Stress axis : x y z
#
# Youngs Moduli (GPa) = 31.27855 24.77463 43.56261
#
# Poissons Ratio (x) = 0.36497 -0.22148
# Poissons Ratio (y) = 0.46078 0.53987
# Poissons Ratio (z) = -0.15903 0.30703
#
# Static dielectric constant tensor:
#      x y z
#    x 1.848610 0.006610 0.024450 
#    y 0.006610 1.904660 0.009880 
#    z 0.024450 0.009880 1.937920 
# 
# From -- ./inp_files/255704.got.cif
#   From: 2010.05.17/outbox.cif.g08.bks.cpg/sg2_128_cif.got.tgz:255704.got - 2010.06.03 11:33:40.
