data_PCOD9097687
_publ_section_title
;
Structure prediction by ZEFSAII (Michael W. Deem and Ramdas Pophale) SiO2 
 PCOD9097687
Probable space group: P -1
;
_chemical_formula_sum "Si O2"
_cell_formula_units_Z 16
_cell_length_a 12.813365
_cell_length_b 10.537013
_cell_length_c 10.273913
_cell_angle_alpha 120.962940
_cell_angle_beta 145.226323
_cell_angle_gamma 65.085366
_cell_volume 678.391216
_symmetry_space_group_name_H-M "P -1"
_symmetry_group_IT_number 2
_symmetry_cell_setting 'triclinic'
loop_
_space_group_symop_operation_xyz
x,y,z
-x,-y,-z
loop_
_atom_site_type_symbol
_atom_site_label
_atom_site_fract_x
_atom_site_fract_y
_atom_site_fract_z
Si Si1 0.534705 0.176302 0.650869
Si Si2 0.895858 0.145901 0.515650
Si Si3 0.207504 0.578899 0.909525
Si Si4 0.548916 0.116027 0.996358
Si Si5 0.354401 0.363683 0.775621
Si Si6 0.487245 0.561338 0.663728
Si Si7 0.572059 0.152825 0.381712
Si Si8 0.943240 0.465735 0.775345
O O1 0.712158 0.255369 0.945063
O O2 0.374167 0.265766 0.611976
O O3 0.565577 0.220221 0.553732
O O4 0.500000 0.000000 0.500000
O O5 0.747164 0.174798 0.265233
O O6 0.776355 0.125429 0.516610
O O7 0.007993 0.296638 0.726142
O O8 0.000000 0.000000 0.500000
O O9 0.366102 0.503330 0.122654
O O10 0.186209 0.461208 0.707094
O O11 0.034517 0.576099 0.825236
O O12 0.412628 0.243073 0.879865
O O13 0.500000 0.000000 0.000000
O O14 0.540935 0.998823 0.809148
O O15 0.500000 0.500000 0.000000
O O16 0.500000 0.500000 0.500000
O O17 0.487556 0.264844 0.248843
O O18 0.275143 0.536288 0.469430
O O19 0.000000 0.500000 0.000000
#
# Coordination Sequence:
#
# PCOD9097687 Si02
#       8
#     2   2   2   2   2   2   2   2
#     4  11  21  38  62  90 120 168 222 251 310 391
#     4  10  23  36  59  96 130 162 205 270 332 379
#     4  11  22  39  64  91 127 162 212 261 323 381
#     4  10  20  37  62  92 124 154 214 266 320 377
#     4  10  22  37  62  93 122 172 214 257 319 387
#     4  11  20  37  63  98 126 158 207 264 330 384
#     4  10  20  36  61  94 121 159 214 264 310 390
#     4  11  22  36  58  94 131 160 201 261 326 387
#
# _framework density 23.585211999999999
#
# number of rings (size 3 to 8) (size 9 to 14) (size 15 to 20)
#    0.000    1.500    3.750    3.000    5.250    0.000 
#    0.000    0.000    0.000   23.250    0.000    0.000 
#    0.000    0.000    0.000    0.000    0.000    0.000 
#
# Total GULP energy -89110.712229 kJ/mol
# GULP energy per Si atom -5569.419514 kJ/mol
# Density = 2.353153 g / cm^3
# Si number density = 23.585212 Si / 1000 Ang^3
#
#
#
# Elastic Constant Matrix: (Units=GPa)
#
#
# Indices 1 2 3 4 5 6 
#
# 1 132.0337 35.9378 32.9792 10.0595 -16.6967 -15.3312
# 2 35.9378 124.2449 51.0782 36.4538 -1.9322 -4.9248
# 3 32.9792 51.0782 82.5203 27.2792 -5.1972 -16.2998
# 4 10.0595 36.4538 27.2792 57.1006 -6.7333 -2.6092
# 5 -16.6967 -1.9322 -5.1972 -6.7333 43.0637 12.1722
# 6 -15.3312 -4.9248 -16.2998 -2.6092 12.1722 34.5131
#
#
#
# Elastic Compliance Matrix: (Units=1/GPa)
#
#
# Indices 1 2 3 4 5 6 
#
# 1 0.009155 -0.001913 -0.002319 0.001134 0.002859 0.001776
# 2 -0.001913 0.012297 -0.005583 -0.005062 -0.001175 -0.001700
# 3 -0.002319 -0.005583 0.019649 -0.005272 -0.001773 0.007680
# 4 0.001134 -0.005062 -0.005272 0.023417 0.003891 -0.002310
# 5 0.002859 -0.001175 -0.001773 0.003891 0.027228 -0.009044
# 6 0.001776 -0.001700 0.007680 -0.002310 -0.009044 0.036163
#
#
# Mechanical properties :
#
#
# Convention : Reuss Voigt Hill
#
# Bulk Modulus (GPa) = 46.57486 64.30993 55.44239
# Shear Modulus (GPa) = 32.32141 41.52237 36.92189
#
# Velocity S-wave (km/s) = 3.70592 4.20041 3.96089
# Velocity P-wave (km/s) = 6.17269 7.13098 6.66907
#
# Compressibility (1/GPa) = 0.02147081
#
# Stress axis : x y z
#
# Youngs Moduli (GPa) = 109.22927 81.32124 50.89256
#
# Poissons Ratio (x) = 0.15554 0.11802
# Poissons Ratio (y) = 0.20892 0.28416
# Poissons Ratio (z) = 0.25331 0.45405
#
# Static dielectric constant tensor:
#      x y z
#    x 2.098580 -0.032440 -0.037370 
#    y -0.032440 1.976990 0.051270 
#    z -0.037370 0.051270 1.979080 
# 
# From -- ./inp_files/426760.got.cif
#   From: 2010.05.17/outbox.cif.g08.bks.cpg/sg2_214_cif.got.tgz:426760.got - 2010.06.03 11:33:40.
