data_PCOD9097054
_publ_section_title
;
Structure prediction by ZEFSAII (Michael W. Deem and Ramdas Pophale) SiO2 
 PCOD9097054
Probable space group: P -1
;
_chemical_formula_sum "Si O2"
_cell_formula_units_Z 16
_cell_length_a 8.461216
_cell_length_b 12.326931
_cell_length_c 8.196763
_cell_angle_alpha 96.578091
_cell_angle_beta 112.324871
_cell_angle_gamma 67.900807
_cell_volume 732.346435
_symmetry_space_group_name_H-M "P -1"
_symmetry_group_IT_number 2
_symmetry_cell_setting 'triclinic'
loop_
_space_group_symop_operation_xyz
x,y,z
-x,-y,-z
loop_
_atom_site_type_symbol
_atom_site_label
_atom_site_fract_x
_atom_site_fract_y
_atom_site_fract_z
Si Si1 0.769364 0.354965 0.159846
Si Si2 0.331318 0.521172 0.559003
Si Si3 0.004144 0.766328 0.399050
Si Si4 0.231851 0.996718 0.065971
Si Si5 0.182543 0.312278 0.431314
Si Si6 0.113757 0.804067 0.093924
Si Si7 0.519505 0.912774 0.642441
Si Si8 0.800057 0.119079 0.299255
O O1 0.639945 0.464898 0.232243
O O2 0.728550 0.244821 0.201419
O O3 0.978158 0.346267 0.281425
O O4 0.779981 0.321293 0.968032
O O5 0.500000 0.500000 0.500000
O O6 0.180567 0.647461 0.475467
O O7 0.244180 0.422496 0.485311
O O8 0.020563 0.790567 0.221943
O O9 0.025841 0.871303 0.534602
O O10 0.836384 0.738512 0.405209
O O11 0.236798 0.885370 0.158626
O O12 0.406369 0.030567 0.169788
O O13 0.194743 0.967913 0.861075
O O14 0.056273 0.111180 0.067922
O O15 0.328989 0.211290 0.368060
O O16 0.337755 0.893334 0.621913
O O17 0.500000 0.000000 0.500000
#
# Coordination Sequence:
#
# PCOD9097054 Si02
#       8
#     2   2   2   2   2   2   2   2
#     4   9  18  38  60  83 109 154 188 234 292 342
#     4  10  20  38  64  83 114 150 189 239 301 344
#     4  10  21  37  62  89 109 148 203 241 280 346
#     4  10  21  36  56  80 120 165 185 238 293 333
#     4  10  20  38  57  84 114 152 194 235 286 345
#     4  10  20  36  59  85 117 148 201 240 281 337
#     4  12  23  35  55  87 119 154 195 238 286 346
#     4   9  20  36  55  81 116 149 194 234 290 339
#
# _framework density 21.847581999999999
#
# number of rings (size 3 to 8) (size 9 to 14) (size 15 to 20)
#    0.000    2.250    1.250    4.125    3.500    0.500 
#    0.000    3.125    0.000    1.500    0.000    0.000 
#    0.000    0.000    0.000    0.000    0.000    0.000 
#
# Total GULP energy -89197.445007 kJ/mol
# GULP energy per Si atom -5574.840313 kJ/mol
# Density = 2.179786 g / cm^3
# Si number density = 21.847582 Si / 1000 Ang^3
#
#
#
# Elastic Constant Matrix: (Units=GPa)
#
#
# Indices 1 2 3 4 5 6 
#
# 1 120.2930 44.0660 24.7679 11.9349 -19.2227 15.6226
# 2 44.0660 99.0816 35.9013 33.4427 2.7600 6.5537
# 3 24.7679 35.9013 77.6583 25.6119 -24.9192 7.1910
# 4 11.9349 33.4427 25.6119 29.2666 1.1803 -2.7401
# 5 -19.2227 2.7600 -24.9192 1.1803 31.4170 2.3268
# 6 15.6226 6.5537 7.1910 -2.7401 2.3268 33.5828
#
#
#
# Elastic Compliance Matrix: (Units=1/GPa)
#
#
# Indices 1 2 3 4 5 6 
#
# 1 0.012881 -0.006127 0.004549 -0.003392 0.012669 -0.006925
# 2 -0.006127 0.020345 -0.004774 -0.016300 -0.008649 -0.000828
# 3 0.004549 -0.004774 0.035657 -0.030235 0.033629 -0.013617
# 4 -0.003392 -0.016300 -0.030235 0.083698 -0.029257 0.020089
# 5 0.012669 -0.008649 0.033629 -0.029257 0.069492 -0.018608
# 6 -0.006925 -0.000828 -0.013617 0.020089 -0.018608 0.039005
#
#
# Mechanical properties :
#
#
# Convention : Reuss Voigt Hill
#
# Bulk Modulus (GPa) = 17.80026 56.27814 37.03920
# Shear Modulus (GPa) = 17.09353 31.67311 24.38332
#
# Velocity S-wave (km/s) = 2.80017 3.81166 3.34438
# Velocity P-wave (km/s) = 4.31507 6.72213 5.64831
#
# Compressibility (1/GPa) = 0.05617897
#
# Stress axis : x y z
#
# Youngs Moduli (GPa) = 77.63236 49.15173 28.04531
#
# Poissons Ratio (x) = 0.30116 -0.12759
# Poissons Ratio (y) = 0.47567 0.13389
# Poissons Ratio (z) = -0.35318 0.23466
#
# Static dielectric constant tensor:
#      x y z
#    x 1.795580 -0.040430 -0.016450 
#    y -0.040430 1.832040 -0.008820 
#    z -0.016450 -0.008820 1.912120 
# 
# From -- ./inp_files/188704.got.cif
#   From: 2010.05.17/outbox.cif.g08.bks.cpg/sg2_95_cif.got.tgz:188704.got - 2010.06.03 11:33:40.
