data_PCOD9097136
_publ_section_title
;
Structure prediction by ZEFSAII (Michael W. Deem and Ramdas Pophale) SiO2 
 PCOD9097136
Probable space group: P -1
;
_chemical_formula_sum "Si O2"
_cell_formula_units_Z 14
_cell_length_a 28.143621
_cell_length_b 15.062798
_cell_length_c 15.662586
_cell_angle_alpha 160.429940
_cell_angle_beta 162.131412
_cell_angle_gamma 20.541008
_cell_volume 629.613533
_symmetry_space_group_name_H-M "P -1"
_symmetry_group_IT_number 2
_symmetry_cell_setting 'triclinic'
loop_
_space_group_symop_operation_xyz
x,y,z
-x,-y,-z
loop_
_atom_site_type_symbol
_atom_site_label
_atom_site_fract_x
_atom_site_fract_y
_atom_site_fract_z
Si Si1 0.082577 0.846133 0.691570
Si Si2 0.427404 0.814692 0.620524
Si Si3 0.160553 0.685177 0.946247
Si Si4 0.866228 0.795171 0.426928
Si Si5 0.404122 0.161134 0.236634
Si Si6 0.606304 0.511946 0.983986
Si Si7 0.983297 0.510851 0.082690
O O1 0.256533 0.677009 0.884867
O O2 0.933677 0.818755 0.470762
O O3 0.045655 0.181682 0.923052
O O4 0.081011 0.684762 0.454433
O O5 0.500000 0.500000 0.500000
O O6 0.565021 0.834696 0.808861
O O7 0.326287 0.021346 0.711470
O O8 0.275764 0.838995 0.318603
O O9 0.110406 0.520074 0.786428
O O10 0.283419 0.459683 0.883250
O O11 0.997934 0.867367 0.778659
O O12 0.210647 0.314606 0.067356
O O13 0.489779 0.824915 0.101683
O O14 0.497179 0.340160 0.606553
O O15 0.000000 0.500000 0.000000
#
# Coordination Sequence:
#
# PCOD9097136 Si02
#       7
#     2   2   2   2   2   2   2
#     4  11  25  43  73  99 128 173 223 266 317 401
#     4  11  22  33  54  89 131 169 212 251 309 379
#     4   9  20  35  55  86 130 176 201 249 297 374
#     4  10  20  36  59  88 126 167 213 246 304 373
#     4  11  23  42  65  95 134 177 210 275 331 374
#     4  10  21  43  66 100 135 171 219 263 317 382
#     4  12  27  50  69  95 129 170 216 279 346 392
#
# _framework density 22.235862999999998
#
# number of rings (size 3 to 8) (size 9 to 14) (size 15 to 20)
#    0.000    1.429    1.429    3.429    4.000    1.714 
#    0.000    4.286    0.000    0.000    0.000    0.000 
#    0.000    0.000    0.000    0.000    0.000    0.000 
#
# Total GULP energy -78271.765026 kJ/mol
# GULP energy per Si atom -5590.840359 kJ/mol
# Density = 2.218525 g / cm^3
# Si number density = 22.235863 Si / 1000 Ang^3
#
#
#
# Elastic Constant Matrix: (Units=GPa)
#
#
# Indices 1 2 3 4 5 6 
#
# 1 75.1687 41.0372 1.0302 -4.1275 -10.1182 -7.2327
# 2 41.0372 155.2101 46.3406 24.0234 -2.4382 -3.4488
# 3 1.0302 46.3406 83.3780 -0.1281 -2.4691 -7.9878
# 4 -4.1275 24.0234 -0.1281 35.4428 -0.0629 -0.0981
# 5 -10.1182 -2.4382 -2.4691 -0.0629 9.3847 7.9558
# 6 -7.2327 -3.4488 -7.9878 -0.0981 7.9558 19.2997
#
#
#
# Elastic Compliance Matrix: (Units=1/GPa)
#
#
# Indices 1 2 3 4 5 6 
#
# 1 0.020846 -0.007766 0.004652 0.007746 0.022476 -0.000876
# 2 -0.007766 0.011769 -0.006746 -0.008920 -0.006241 -0.001072
# 3 0.004652 -0.006746 0.016376 0.005195 0.002125 0.006466
# 4 0.007746 -0.008920 0.005195 0.035196 0.006998 0.000753
# 5 0.022476 -0.006241 0.002125 0.006998 0.188769 -0.069593
# 6 -0.000876 -0.001072 0.006466 0.000753 -0.069593 0.082663
#
#
# Mechanical properties :
#
#
# Convention : Reuss Voigt Hill
#
# Bulk Modulus (GPa) = 34.16384 54.50808 44.33596
# Shear Modulus (GPa) = 12.98379 27.84869 20.41624
#
# Velocity S-wave (km/s) = 2.41905 3.54280 3.03341
# Velocity P-wave (km/s) = 4.81664 6.42667 5.67900
#
# Compressibility (1/GPa) = 0.02927072
#
# Stress axis : x y z
#
# Youngs Moduli (GPa) = 47.97161 84.96757 61.06471
#
# Poissons Ratio (x) = 0.65984 -0.28408
# Poissons Ratio (y) = 0.37254 0.41197
# Poissons Ratio (z) = -0.22317 0.57323
#
# Static dielectric constant tensor:
#      x y z
#    x 1.832320 -0.028980 -0.045530 
#    y -0.028980 1.830270 0.011760 
#    z -0.045530 0.011760 1.883790 
# 
# From -- ./inp_files/34675.got.cif
#   From: 2010.05.17/outbox.cif.g08.bks.cpg/sg2_18_cif.got.tgz:34675.got - 2010.06.03 11:33:40.
