data_PCOD9097425
_publ_section_title
;
Structure prediction by ZEFSAII (Michael W. Deem and Ramdas Pophale) SiO2 
 PCOD9097425
Probable space group: P -1
;
_chemical_formula_sum "Si O2"
_cell_formula_units_Z 16
_cell_length_a 9.261019
_cell_length_b 14.523356
_cell_length_c 9.237846
_cell_angle_alpha 46.973533
_cell_angle_beta 68.053550
_cell_angle_gamma 90.295323
_cell_volume 778.008044
_symmetry_space_group_name_H-M "P -1"
_symmetry_group_IT_number 2
_symmetry_cell_setting 'triclinic'
loop_
_space_group_symop_operation_xyz
x,y,z
-x,-y,-z
loop_
_atom_site_type_symbol
_atom_site_label
_atom_site_fract_x
_atom_site_fract_y
_atom_site_fract_z
Si Si1 0.781197 0.132397 0.552020
Si Si2 0.401831 0.383757 0.544071
Si Si3 0.542873 0.837324 0.887747
Si Si4 0.313295 0.681057 0.407044
Si Si5 0.843943 0.750985 0.754458
Si Si6 0.263867 0.744272 0.868487
Si Si7 0.678097 0.532335 0.824356
Si Si8 0.111230 0.363067 0.841320
O O1 0.770801 0.222085 0.596768
O O2 0.742325 0.201734 0.347769
O O3 0.969186 0.134310 0.457117
O O4 0.642271 0.980964 0.772441
O O5 0.500000 0.500000 0.500000
O O6 0.537193 0.316783 0.540680
O O7 0.351043 0.442823 0.357760
O O8 0.228517 0.300241 0.779941
O O9 0.688321 0.791193 0.817229
O O10 0.422186 0.841163 0.797257
O O11 0.415773 0.736727 0.160587
O O12 0.179009 0.525215 0.609374
O O13 0.802505 0.666782 0.712231
O O14 0.860631 0.653457 0.981444
O O15 0.272575 0.595625 0.028296
O O16 0.082716 0.718191 0.034676
O O17 0.500000 0.500000 0.000000
#
# Coordination Sequence:
#
# PCOD9097425 Si02
#       8
#     2   2   2   2   2   2   2   2
#     4  11  25  43  62  88 126 171 213 249 296 366
#     4  10  20  36  60  91 128 157 190 250 320 371
#     4  12  24  42  64  87 126 174 209 246 301 374
#     4  11  22  39  66  90 123 161 207 254 314 369
#     4  11  23  41  64  93 125 161 210 257 308 367
#     4  11  23  39  63  93 126 156 205 260 311 368
#     4  12  21  34  62  95 122 153 202 257 315 364
#     4  10  21  39  63  95 124 156 195 264 328 361
#
# _framework density 20.565338000000001
#
# number of rings (size 3 to 8) (size 9 to 14) (size 15 to 20)
#    0.000    1.000    2.500    6.375    0.000    5.000 
#    0.000    0.000    0.000    1.500    0.000    0.000 
#    0.000    0.000    0.000    0.000    0.000    0.000 
#
# Total GULP energy -89345.845371 kJ/mol
# GULP energy per Si atom -5584.115336 kJ/mol
# Density = 2.051853 g / cm^3
# Si number density = 20.565338 Si / 1000 Ang^3
#
#
#
# Elastic Constant Matrix: (Units=GPa)
#
#
# Indices 1 2 3 4 5 6 
#
# 1 90.8343 10.1062 21.1236 4.0478 -24.5528 7.9088
# 2 10.1062 58.6557 15.5179 0.5240 -11.8935 7.5839
# 3 21.1236 15.5179 68.1995 11.0418 -14.3580 7.7821
# 4 4.0478 0.5240 11.0418 19.7089 -0.8672 -1.1733
# 5 -24.5528 -11.8935 -14.3580 -0.8672 36.0005 9.8678
# 6 7.9088 7.5839 7.7821 -1.1733 9.8678 33.3040
#
#
#
# Elastic Compliance Matrix: (Units=1/GPa)
#
#
# Indices 1 2 3 4 5 6 
#
# 1 0.015200 0.001133 -0.001174 -0.002391 0.012215 -0.007297
# 2 0.001133 0.020045 -0.002517 0.000610 0.008232 -0.006663
# 3 -0.001174 -0.002517 0.019703 -0.010772 0.007726 -0.006420
# 4 -0.002391 0.000610 -0.010772 0.057381 -0.006209 0.006807
# 5 0.012215 0.008232 0.007726 -0.006209 0.047479 -0.020867
# 6 -0.007297 -0.006663 -0.006420 0.006807 -0.020867 0.041199
#
#
# Mechanical properties :
#
#
# Convention : Reuss Voigt Hill
#
# Bulk Modulus (GPa) = 20.06818 34.57611 27.32215
# Shear Modulus (GPa) = 22.44844 29.19879 25.82362
#
# Velocity S-wave (km/s) = 3.30747 3.77212 3.54741
# Velocity P-wave (km/s) = 4.93612 5.98508 5.48573
#
# Compressibility (1/GPa) = 0.04983013
#
# Stress axis : x y z
#
# Youngs Moduli (GPa) = 65.79119 49.88876 50.75464
#
# Poissons Ratio (x) = -0.05654 0.05961
# Poissons Ratio (y) = -0.07457 0.12776
# Poissons Ratio (z) = 0.07727 0.12558
#
# Static dielectric constant tensor:
#      x y z
#    x 1.837740 0.001790 0.023570 
#    y 0.001790 1.772920 0.028470 
#    z 0.023570 0.028470 1.765420 
# 
# From -- ./inp_files/205536.got.cif
#   From: 2010.05.17/outbox.cif.g08.bks.cpg/sg2_103_cif.got.tgz:205536.got - 2010.06.03 11:33:40.
