data_PCOD9097258
_publ_section_title
;
Structure prediction by ZEFSAII (Michael W. Deem and Ramdas Pophale) SiO2 
 PCOD9097258
Probable space group: P -1
;
_chemical_formula_sum "Si O2"
_cell_formula_units_Z 12
_cell_length_a 9.329202
_cell_length_b 9.431567
_cell_length_c 19.196075
_cell_angle_alpha 152.685123
_cell_angle_beta 143.330295
_cell_angle_gamma 46.697647
_cell_volume 460.651733
_symmetry_space_group_name_H-M "P -1"
_symmetry_group_IT_number 2
_symmetry_cell_setting 'triclinic'
loop_
_space_group_symop_operation_xyz
x,y,z
-x,-y,-z
loop_
_atom_site_type_symbol
_atom_site_label
_atom_site_fract_x
_atom_site_fract_y
_atom_site_fract_z
Si Si1 0.598274 0.599135 0.257106
Si Si2 0.494020 0.826611 0.084619
Si Si3 0.746445 0.125177 0.447279
Si Si4 0.550358 0.492142 0.685092
Si Si5 0.952409 0.266999 0.042831
Si Si6 0.881288 0.698603 0.673150
O O1 0.609971 0.938885 0.375217
O O2 0.493962 0.605512 0.295682
O O3 0.859291 0.446903 0.298133
O O4 0.441318 0.388028 0.047562
O O5 0.654916 0.994824 0.280453
O O6 0.282455 0.636655 0.965564
O O7 0.428930 0.132558 0.150538
O O8 0.763411 0.494093 0.603431
O O9 0.000000 0.000000 0.500000
O O10 0.309697 0.370693 0.494229
O O11 0.833103 0.459544 0.762282
O O12 0.911883 0.057539 0.865643
O O13 0.000000 0.000000 0.000000
#
# Coordination Sequence:
#
# PCOD9097258 Si02
#       6
#     2   2   2   2   2   2
#     4  11  19  37  58  88 115 144 188 238 283 330
#     4  10  20  36  60  84 113 147 192 231 278 338
#     4   9  21  36  55  86 114 152 186 230 281 338
#     4  10  21  34  59  88 114 145 187 238 286 317
#     4  10  20  37  58  87 110 150 191 231 279 333
#     4  10  20  37  60  84 115 148 192 231 274 340
#
# _framework density 26.050049999999999
#
# number of rings (size 3 to 8) (size 9 to 14) (size 15 to 20)
#    0.000    2.000    3.333    1.500    0.000    6.000 
#    0.000    0.833    0.000    9.000    0.000    0.000 
#    0.000    0.000    0.000    0.000    0.000    0.000 
#
# Total GULP energy -66981.012431 kJ/mol
# GULP energy per Si atom -5581.751036 kJ/mol
# Density = 2.599076 g / cm^3
# Si number density = 26.050050 Si / 1000 Ang^3
#
#
#
# Elastic Constant Matrix: (Units=GPa)
#
#
# Indices 1 2 3 4 5 6 
#
# 1 86.7483 22.5033 15.4559 -37.2582 -4.5335 15.4472
# 2 22.5033 66.6890 26.9969 -20.1181 -14.0017 23.8480
# 3 15.4559 26.9969 168.3320 -14.4620 -13.7372 18.6878
# 4 -37.2582 -20.1181 -14.4620 41.8658 -4.6726 -20.5324
# 5 -4.5335 -14.0017 -13.7372 -4.6726 29.3456 -9.6081
# 6 15.4472 23.8480 18.6878 -20.5324 -9.6081 52.4862
#
#
#
# Elastic Compliance Matrix: (Units=1/GPa)
#
#
# Indices 1 2 3 4 5 6 
#
# 1 0.020064 -0.000448 0.000179 0.020234 0.007335 0.003493
# 2 -0.000448 0.021865 -0.001472 0.008667 0.009708 -0.004111
# 3 0.000179 -0.001472 0.006576 0.001702 0.002476 -0.000606
# 4 0.020234 0.008667 0.001702 0.056907 0.022308 0.015846
# 5 0.007335 0.009708 0.002476 0.022308 0.047838 0.010032
# 6 0.003493 -0.004111 -0.000606 0.015846 0.010032 0.028144
#
#
# Mechanical properties :
#
#
# Convention : Reuss Voigt Hill
#
# Bulk Modulus (GPa) = 22.21115 50.18682 36.19898
# Shear Modulus (GPa) = 25.01461 41.86040 33.43751
#
# Velocity S-wave (km/s) = 3.10216 4.01299 3.58661
# Velocity P-wave (km/s) = 4.62342 6.38588 5.57474
#
# Compressibility (1/GPa) = 0.04502244
#
# Stress axis : x y z
#
# Youngs Moduli (GPa) = 49.84136 45.73485 152.06948
#
# Poissons Ratio (x) = 0.02047 -0.02719
# Poissons Ratio (y) = 0.02231 0.22389
# Poissons Ratio (z) = -0.00891 0.06733
#
# Static dielectric constant tensor:
#      x y z
#    x 2.271660 -0.223730 0.077390 
#    y -0.223730 2.206250 -0.075250 
#    z 0.077390 -0.075250 2.104690 
# 
# From -- ./inp_files/150810.got.cif
#   From: 2010.05.17/outbox.cif.g08.bks.cpg/sg2_76_cif.got.tgz:150810.got - 2010.06.03 11:33:40.
