data_PCOD9097431
_publ_section_title
;
Structure prediction by ZEFSAII (Michael W. Deem and Ramdas Pophale) SiO2 
 PCOD9097431
Probable space group: P -1
;
_chemical_formula_sum "Si O2"
_cell_formula_units_Z 11
_cell_length_a 14.327846
_cell_length_b 22.981151
_cell_length_c 8.667639
_cell_angle_alpha 28.743531
_cell_angle_beta 140.199946
_cell_angle_gamma 159.900354
_cell_volume 444.663809
_symmetry_space_group_name_H-M "P -1"
_symmetry_group_IT_number 2
_symmetry_cell_setting 'triclinic'
loop_
_space_group_symop_operation_xyz
x,y,z
-x,-y,-z
loop_
_atom_site_type_symbol
_atom_site_label
_atom_site_fract_x
_atom_site_fract_y
_atom_site_fract_z
Si Si1 0.148474 0.153218 0.680048
Si Si2 0.725503 0.479842 0.561621
Si Si3 0.774736 0.303067 0.804009
Si Si4 0.500000 0.500000 0.000000
Si Si5 0.621366 0.836992 0.552880
Si Si6 0.817145 0.562724 0.838311
O O1 0.382327 0.226808 0.748790
O O2 0.285769 0.377408 0.386671
O O3 0.948097 0.048877 0.525839
O O4 0.000000 0.000000 0.000000
O O5 0.821472 0.431405 0.703751
O O6 0.732249 0.607263 0.173807
O O7 0.856094 0.581261 0.662399
O O8 0.464998 0.108191 0.786650
O O9 0.000000 0.500000 0.500000
O O10 0.881376 0.252054 0.124416
O O11 0.475909 0.347929 0.242381
O O12 0.428262 0.695926 0.792615
#
# Coordination Sequence:
#
# PCOD9097431 Si02
#       6
#     2   2   2   1   2   2
#     4  12  23  37  67  96 126 160 207 264 305 372
#     4  11  21  39  66  93 124 164 212 252 314 368
#     4   9  22  40  65  89 123 171 208 254 308 373
#     4  10  20  36  60  92 120 162 198 256 302 362
#     4  10  21  40  62  93 128 158 213 248 314 367
#     4  11  21  42  64  88 129 168 203 257 311 366
#
# _framework density 24.73779
#
# number of rings (size 3 to 8) (size 9 to 14) (size 15 to 20)
#    0.000    1.455    3.636    2.182    0.000    3.636 
#    0.000    0.909    8.000    0.000    0.000    0.000 
#    0.000    0.000    0.000    0.000    0.000    0.000 
#
# Total GULP energy -61245.272742 kJ/mol
# GULP energy per Si atom -5567.752067 kJ/mol
# Density = 2.468149 g / cm^3
# Si number density = 24.737790 Si / 1000 Ang^3
#
#
#
# Elastic Constant Matrix: (Units=GPa)
#
#
# Indices 1 2 3 4 5 6 
#
# 1 142.9111 9.6996 12.8981 3.3056 -8.3447 -6.7048
# 2 9.6996 127.0421 9.7828 43.0825 -6.1832 -19.6219
# 3 12.8981 9.7828 57.9944 24.1276 -9.6924 -6.5759
# 4 3.3056 43.0825 24.1276 34.7517 -3.6508 -6.4802
# 5 -8.3447 -6.1832 -9.6924 -3.6508 34.3161 11.0435
# 6 -6.7048 -19.6219 -6.5759 -6.4802 11.0435 38.0368
#
#
#
# Elastic Compliance Matrix: (Units=1/GPa)
#
#
# Indices 1 2 3 4 5 6 
#
# 1 0.007296 -0.001057 -0.002183 0.002328 0.001070 0.000449
# 2 -0.001057 0.016992 0.008980 -0.026098 0.000811 0.005450
# 3 -0.002183 0.008980 0.030279 -0.030879 0.005510 0.002622
# 4 0.002328 -0.026098 -0.030879 0.081349 -0.003028 -0.003653
# 5 0.001070 0.000811 0.005510 -0.003028 0.033584 -0.008707
# 6 0.000449 0.005450 0.002622 -0.003653 -0.008707 0.031540
#
#
# Mechanical properties :
#
#
# Convention : Reuss Voigt Hill
#
# Bulk Modulus (GPa) = 15.14082 43.63427 29.38755
# Shear Modulus (GPa) = 23.63223 41.12539 32.37881
#
# Velocity S-wave (km/s) = 3.09416 4.08174 3.62177
# Velocity P-wave (km/s) = 4.34729 6.31594 5.42172
#
# Compressibility (1/GPa) = 0.06604661
#
# Stress axis : x y z
#
# Youngs Moduli (GPa) = 137.06416 58.84992 33.02630
#
# Poissons Ratio (x) = 0.06221 0.07210
# Poissons Ratio (y) = 0.14489 -0.29658
# Poissons Ratio (z) = 0.29924 -0.52847
#
# Static dielectric constant tensor:
#      x y z
#    x 1.952640 0.044140 -0.087380 
#    y 0.044140 2.098410 0.017100 
#    z -0.087380 0.017100 2.018710 
# 
# From -- ./inp_files/20923.got.cif
#   From: 2010.05.17/outbox.cif.g08.bks.cpg/sg2_11_cif.got.tgz:20923.got - 2010.06.03 11:33:40.
