data_PCOD9097334
_publ_section_title
;
Structure prediction by ZEFSAII (Michael W. Deem and Ramdas Pophale) SiO2 
 PCOD9097334
Probable space group: P -1
;
_chemical_formula_sum "Si O2"
_cell_formula_units_Z 14
_cell_length_a 11.800040
_cell_length_b 11.900662
_cell_length_c 7.146534
_cell_angle_alpha 57.396031
_cell_angle_beta 101.542740
_cell_angle_gamma 135.250651
_cell_volume 566.281479
_symmetry_space_group_name_H-M "P -1"
_symmetry_group_IT_number 2
_symmetry_cell_setting 'triclinic'
loop_
_space_group_symop_operation_xyz
x,y,z
-x,-y,-z
loop_
_atom_site_type_symbol
_atom_site_label
_atom_site_fract_x
_atom_site_fract_y
_atom_site_fract_z
Si Si1 0.001834 0.418785 0.377764
Si Si2 0.651720 0.232437 0.365429
Si Si3 0.407975 0.247349 0.269292
Si Si4 0.683946 0.654320 0.165070
Si Si5 0.622220 0.229625 0.800615
Si Si6 0.984417 0.151649 0.851863
Si Si7 0.314452 0.138799 0.732483
O O1 0.192420 0.601712 0.198425
O O2 0.973261 0.239502 0.590464
O O3 0.000000 0.500000 0.500000
O O4 0.837762 0.334257 0.287072
O O5 0.558884 0.284009 0.204569
O O6 0.656074 0.259043 0.564844
O O7 0.500000 0.000000 0.500000
O O8 0.504220 0.445850 0.234586
O O9 0.305874 0.101935 0.542250
O O10 0.295059 0.206221 0.100808
O O11 0.826693 0.663518 0.173383
O O12 0.698194 0.720573 0.320917
O O13 0.495616 0.245497 0.774303
O O14 0.500000 0.000000 0.000000
O O15 0.000000 0.000000 0.000000
O O16 0.836338 0.062515 0.027215
#
# Coordination Sequence:
#
# PCOD9097334 Si02
#       7
#     2   2   2   2   2   2   2
#     4  10  20  38  62  91 121 165 215 254 311 385
#     4  10  22  37  63  87 126 164 203 259 320 368
#     4  10  22  37  59  91 118 164 206 255 308 376
#     4  10  21  38  61  86 125 161 207 252 317 371
#     4  10  21  37  63  92 119 164 217 258 311 380
#     4  10  21  35  62  91 118 162 206 252 314 377
#     4  10  20  36  60  87 120 159 208 255 310 369
#
# _framework density 24.722688999999999
#
# number of rings (size 3 to 8) (size 9 to 14) (size 15 to 20)
#    0.000    2.000    0.000    4.714    6.000    1.714 
#    0.000    0.714   12.571    0.000    0.000    0.000 
#    0.000    0.000    0.000    0.000    0.000    0.000 
#
# Total GULP energy -78003.866734 kJ/mol
# GULP energy per Si atom -5571.704767 kJ/mol
# Density = 2.466642 g / cm^3
# Si number density = 24.722689 Si / 1000 Ang^3
#
#
#
# Elastic Constant Matrix: (Units=GPa)
#
#
# Indices 1 2 3 4 5 6 
#
# 1 120.6294 52.9330 44.8991 -4.4618 -1.7391 49.8705
# 2 52.9330 91.2506 38.8439 -1.7172 -5.1633 34.8518
# 3 44.8991 38.8439 107.8844 -2.7539 1.7236 23.5273
# 4 -4.4618 -1.7172 -2.7539 48.7186 3.9471 6.3167
# 5 -1.7391 -5.1633 1.7236 3.9471 38.1999 -14.4403
# 6 49.8705 34.8518 23.5273 6.3167 -14.4403 56.8599
#
#
#
# Elastic Compliance Matrix: (Units=1/GPa)
#
#
# Indices 1 2 3 4 5 6 
#
# 1 0.015937 -0.003741 -0.002477 0.003139 -0.004595 -0.012176
# 2 -0.003741 0.016683 -0.003181 0.000809 -0.000019 -0.005723
# 3 -0.002477 -0.003181 0.011751 0.000612 -0.001595 -0.001213
# 4 0.003139 0.000809 0.000612 0.022195 -0.004784 -0.007183
# 5 -0.004595 -0.000019 -0.001595 -0.004784 0.031539 0.013243
# 6 -0.012176 -0.005723 -0.001213 -0.007183 0.013243 0.036437
#
#
# Mechanical properties :
#
#
# Convention : Reuss Voigt Hill
#
# Bulk Modulus (GPa) = 39.10294 65.90182 52.50238
# Shear Modulus (GPa) = 30.89020 40.96156 35.92588
#
# Velocity S-wave (km/s) = 3.53862 4.07485 3.81616
# Velocity P-wave (km/s) = 5.70497 6.98952 6.37966
#
# Compressibility (1/GPa) = 0.02557352
#
# Stress axis : x y z
#
# Youngs Moduli (GPa) = 62.74776 59.94156 85.09997
#
# Poissons Ratio (x) = 0.22424 0.21078
# Poissons Ratio (y) = 0.23474 0.27068
# Poissons Ratio (z) = 0.15541 0.19066
#
# Static dielectric constant tensor:
#      x y z
#    x 2.088710 0.039050 0.082500 
#    y 0.039050 2.052600 -0.102370 
#    z 0.082500 -0.102370 2.146030 
# 
# From -- ./inp_files/271862.got.cif
#   From: 2010.05.17/outbox.cif.g08.bks.cpg/sg2_136_cif.got.tgz:271862.got - 2010.06.03 11:33:40.
