data_PCOD9097519
_publ_section_title
;
Structure prediction by ZEFSAII (Michael W. Deem and Ramdas Pophale) SiO2 
 PCOD9097519
Probable space group: P -1
;
_chemical_formula_sum "Si O2"
_cell_formula_units_Z 16
_cell_length_a 13.639545
_cell_length_b 9.221463
_cell_length_c 8.091098
_cell_angle_alpha 93.640416
_cell_angle_beta 117.731765
_cell_angle_gamma 116.029806
_cell_volume 762.181859
_symmetry_space_group_name_H-M "P -1"
_symmetry_group_IT_number 2
_symmetry_cell_setting 'triclinic'
loop_
_space_group_symop_operation_xyz
x,y,z
-x,-y,-z
loop_
_atom_site_type_symbol
_atom_site_label
_atom_site_fract_x
_atom_site_fract_y
_atom_site_fract_z
Si Si1 0.214157 0.155206 0.279814
Si Si2 0.362089 0.315157 0.751764
Si Si3 0.275960 0.957397 0.097078
Si Si4 0.022435 0.908190 0.738529
Si Si5 0.276538 0.621831 0.987320
Si Si6 0.500537 0.831086 0.944854
Si Si7 0.887663 0.725011 0.297319
Si Si8 0.415065 0.462623 0.264032
O O1 0.286321 0.229506 0.515776
O O2 0.288918 0.281293 0.194293
O O3 0.077938 0.144841 0.192707
O O4 0.229551 0.996415 0.235822
O O5 0.259331 0.319395 0.789837
O O6 0.484585 0.500355 0.804101
O O7 0.411013 0.201297 0.863288
O O8 0.420522 0.113473 0.163688
O O9 0.163239 0.941070 0.887435
O O10 0.269388 0.779282 0.063892
O O11 0.956330 0.766026 0.532761
O O12 0.037096 0.087873 0.712055
O O13 0.354071 0.683411 0.875358
O O14 0.140008 0.442831 0.833706
O O15 0.361605 0.584225 0.180423
O O16 0.500000 0.000000 0.000000
O O17 0.500000 0.500000 0.500000
#
# Coordination Sequence:
#
# PCOD9097519 Si02
#       8
#     2   2   2   2   2   2   2   2
#     4  10  21  36  59  84 114 154 193 233 284 344
#     4   9  18  35  60  83 112 148 191 243 282 331
#     4  11  21  37  59  85 120 154 188 237 293 342
#     4  10  21  38  59  85 112 153 202 232 279 341
#     4  10  22  36  58  87 120 149 191 240 292 339
#     4   9  19  35  56  87 116 147 188 235 292 344
#     4  10  20  36  61  85 112 149 200 240 277 336
#     4   9  19  36  57  84 115 149 192 238 283 340
#
# _framework density 20.992366000000001
#
# number of rings (size 3 to 8) (size 9 to 14) (size 15 to 20)
#    0.000    2.250    1.250    1.125    1.750    1.500 
#    0.000   12.500    5.500    0.000    0.000    0.000 
#    0.000    0.000    0.000    0.000    0.000    0.000 
#
# Total GULP energy -89110.763600 kJ/mol
# GULP energy per Si atom -5569.422725 kJ/mol
# Density = 2.094459 g / cm^3
# Si number density = 20.992366 Si / 1000 Ang^3
#
#
#
# Elastic Constant Matrix: (Units=GPa)
#
#
# Indices 1 2 3 4 5 6 
#
# 1 75.2790 20.9401 -4.2290 -1.2257 -6.1171 -4.2125
# 2 20.9401 94.9824 16.8473 8.2476 -6.5538 -10.5506
# 3 -4.2290 16.8473 68.6951 4.7739 -0.3030 -7.5440
# 4 -1.2257 8.2476 4.7739 20.5117 5.3191 1.2404
# 5 -6.1171 -6.5538 -0.3030 5.3191 21.2079 2.6138
# 6 -4.2125 -10.5506 -7.5440 1.2404 2.6138 33.0107
#
#
#
# Elastic Compliance Matrix: (Units=1/GPa)
#
#
# Indices 1 2 3 4 5 6 
#
# 1 0.014606 -0.003318 0.001759 0.001003 0.002845 0.000942
# 2 -0.003318 0.012859 -0.002593 -0.006014 0.004119 0.002994
# 3 0.001759 -0.002593 0.015837 -0.002790 0.000250 0.003100
# 4 0.001003 -0.006014 -0.002790 0.056037 -0.015253 -0.003330
# 5 0.002845 0.004119 0.000250 -0.015253 0.053310 -0.001911
# 6 0.000942 0.002994 0.003100 -0.003330 -0.001911 0.032355
#
#
# Mechanical properties :
#
#
# Convention : Reuss Voigt Hill
#
# Bulk Modulus (GPa) = 28.57326 34.00815 31.29070
# Shear Modulus (GPa) = 24.39335 28.63929 26.51632
#
# Velocity S-wave (km/s) = 3.41253 3.69761 3.55793
# Velocity P-wave (km/s) = 5.40073 5.87071 5.64062
#
# Compressibility (1/GPa) = 0.03499776
#
# Stress axis : x y z
#
# Youngs Moduli (GPa) = 68.46496 77.76823 63.14424
#
# Poissons Ratio (x) = 0.25805 -0.11109
# Poissons Ratio (y) = 0.22718 0.16373
# Poissons Ratio (z) = -0.12045 0.20165
#
# Static dielectric constant tensor:
#      x y z
#    x 1.773190 0.036620 -0.001620 
#    y 0.036620 1.802080 0.038950 
#    z -0.001620 0.038950 1.792530 
# 
# From -- ./inp_files/252783.got.cif
#   From: 2010.05.17/outbox.cif.g08.bks.cpg/sg2_127_cif.got.tgz:252783.got - 2010.06.03 11:33:40.
