data_PCOD9097256
_publ_section_title
;
Structure prediction by ZEFSAII (Michael W. Deem and Ramdas Pophale) SiO2 
 PCOD9097256
Probable space group: P -1
;
_chemical_formula_sum "Si O2"
_cell_formula_units_Z 16
_cell_length_a 15.132023
_cell_length_b 16.414757
_cell_length_c 10.916245
_cell_angle_alpha 121.624763
_cell_angle_beta 139.046145
_cell_angle_gamma 25.943288
_cell_volume 654.517358
_symmetry_space_group_name_H-M "P -1"
_symmetry_group_IT_number 2
_symmetry_cell_setting 'triclinic'
loop_
_space_group_symop_operation_xyz
x,y,z
-x,-y,-z
loop_
_atom_site_type_symbol
_atom_site_label
_atom_site_fract_x
_atom_site_fract_y
_atom_site_fract_z
Si Si1 0.918917 0.572059 0.657352
Si Si2 0.022803 0.370981 0.808229
Si Si3 0.958874 0.977683 0.732897
Si Si4 0.627734 0.006398 0.291134
Si Si5 0.521044 0.374269 0.436233
Si Si6 0.752197 0.798623 0.459631
Si Si7 0.528079 0.632008 0.883568
Si Si8 0.797507 0.318289 0.078756
O O1 0.827533 0.572177 0.682439
O O2 0.069305 0.393898 0.588017
O O3 0.667347 0.793031 0.488691
O O4 0.199417 0.464393 0.898636
O O5 0.150519 0.203559 0.724224
O O6 0.816482 0.455241 0.761624
O O7 0.328323 0.224065 0.069291
O O8 0.279588 0.805572 0.868764
O O9 0.015934 0.897905 0.865131
O O10 0.823824 0.971447 0.513229
O O11 0.719150 0.213638 0.633756
O O12 0.523087 0.003525 0.292225
O O13 0.500000 0.500000 0.500000
O O14 0.632658 0.263940 0.334572
O O15 0.996743 0.723671 0.694539
O O16 0.676364 0.432361 0.911196
O O17 0.500000 0.500000 0.000000
#
# Coordination Sequence:
#
# PCOD9097256 Si02
#       8
#     2   2   2   2   2   2   2   2
#     4   9  17  31  54  83 110 138 176 223 275 322
#     4  10  21  36  54  79 111 144 181 228 276 326
#     4  10  20  37  60  82 108 146 187 227 278 332
#     4   9  18  35  59  81 105 142 186 227 273 328
#     4  12  26  39  53  79 115 149 187 233 279 328
#     4   8  15  29  53  86 109 131 177 227 268 320
#     4  10  20  36  60  84 112 147 186 228 272 330
#     4   8  16  33  58  85 111 141 182 229 274 324
#
# _framework density 24.445494
#
# number of rings (size 3 to 8) (size 9 to 14) (size 15 to 20)
#    0.000    2.500    0.000    1.875    0.000    6.000 
#    0.000    1.875    0.000    4.500    0.000    0.000 
#    0.000    0.000    0.000    0.000    0.000    0.000 
#
# Total GULP energy -89383.327898 kJ/mol
# GULP energy per Si atom -5586.457994 kJ/mol
# Density = 2.438986 g / cm^3
# Si number density = 24.445494 Si / 1000 Ang^3
#
#
#
# Elastic Constant Matrix: (Units=GPa)
#
#
# Indices 1 2 3 4 5 6 
#
# 1 125.4747 33.3401 17.1852 -4.8699 0.1163 31.4659
# 2 33.3401 80.8044 31.0363 5.0606 -4.8913 28.4582
# 3 17.1852 31.0363 38.9105 -7.3309 1.0613 9.0606
# 4 -4.8699 5.0606 -7.3309 31.7800 11.1544 -11.7133
# 5 0.1163 -4.8913 1.0613 11.1544 31.3214 -10.1433
# 6 31.4659 28.4582 9.0606 -11.7133 -10.1433 41.7954
#
#
#
# Elastic Compliance Matrix: (Units=1/GPa)
#
#
# Indices 1 2 3 4 5 6 
#
# 1 0.010353 -0.000883 -0.002208 -0.000744 -0.002256 -0.007471
# 2 -0.000883 0.029377 -0.022521 -0.018904 0.006174 -0.018255
# 3 -0.002208 -0.022521 0.046384 0.021074 -0.009144 0.010628
# 4 -0.000744 -0.018904 0.021074 0.052005 -0.015838 0.019594
# 5 -0.002256 0.006174 -0.009144 -0.015838 0.040420 0.004847
# 6 -0.007471 -0.018255 0.010628 0.019594 0.004847 0.046344
#
#
# Mechanical properties :
#
#
# Convention : Reuss Voigt Hill
#
# Bulk Modulus (GPa) = 28.66076 45.36809 37.01442
# Shear Modulus (GPa) = 17.37706 31.88790 24.63248
#
# Velocity S-wave (km/s) = 2.66907 3.61563 3.17779
# Velocity P-wave (km/s) = 4.60960 6.00246 5.35154
#
# Compressibility (1/GPa) = 0.03489091
#
# Stress axis : x y z
#
# Youngs Moduli (GPa) = 96.58663 34.04037 21.55925
#
# Poissons Ratio (x) = 0.03005 0.04759
# Poissons Ratio (y) = 0.08526 0.48554
# Poissons Ratio (z) = 0.21322 0.76663
#
# Static dielectric constant tensor:
#      x y z
#    x 1.950400 0.015930 -0.096230 
#    y 0.015930 1.968530 -0.027850 
#    z -0.096230 -0.027850 1.903670 
# 
# From -- ./inp_files/455823.got.cif
#   From: 2010.05.17/outbox.cif.g08.bks.cpg/sg2_228_cif.got.tgz:455823.got - 2010.06.03 11:33:40.
