data_PCOD9097257
_publ_section_title
;
Structure prediction by ZEFSAII (Michael W. Deem and Ramdas Pophale) SiO2 
 PCOD9097257
Probable space group: P -1
;
_chemical_formula_sum "Si O2"
_cell_formula_units_Z 16
_cell_length_a 5.900715
_cell_length_b 20.437797
_cell_length_c 7.693680
_cell_angle_alpha 123.289966
_cell_angle_beta 61.736910
_cell_angle_gamma 97.116185
_cell_volume 671.361431
_symmetry_space_group_name_H-M "P -1"
_symmetry_group_IT_number 2
_symmetry_cell_setting 'triclinic'
loop_
_space_group_symop_operation_xyz
x,y,z
-x,-y,-z
loop_
_atom_site_type_symbol
_atom_site_label
_atom_site_fract_x
_atom_site_fract_y
_atom_site_fract_z
Si Si1 0.122069 0.953988 0.657251
Si Si2 0.476073 0.344192 0.006805
Si Si3 0.180542 0.883750 0.175434
Si Si4 0.036859 0.258305 0.127779
Si Si5 0.772714 0.491663 0.707001
Si Si6 0.490981 0.620081 0.552621
Si Si7 0.355643 0.047992 0.961398
Si Si8 0.000980 0.333924 0.612831
O O1 0.159344 0.889070 0.398600
O O2 0.361284 0.985406 0.709636
O O3 0.966265 0.033246 0.734086
O O4 0.943757 0.927626 0.835838
O O5 0.337459 0.420051 0.054120
O O6 0.443245 0.377279 0.264562
O O7 0.305253 0.275019 0.971372
O O8 0.777660 0.319899 0.806995
O O9 0.488328 0.881978 0.029654
O O10 0.054499 0.817549 0.031066
O O11 0.802056 0.330738 0.274173
O O12 0.035709 0.268097 0.350958
O O13 0.536112 0.462097 0.646993
O O14 0.890249 0.422215 0.698503
O O15 0.000000 0.500000 0.500000
O O16 0.703605 0.660688 0.432910
O O17 0.500000 0.000000 0.000000
#
# Coordination Sequence:
#
# PCOD9097257 Si02
#       8
#     2   2   2   2   2   2   2   2
#     4   9  19  36  59  87 115 145 197 240 288 350
#     4  11  22  38  59  84 114 153 194 240 291 349
#     4  10  20  36  60  84 112 157 193 238 293 348
#     4  10  23  40  56  81 122 153 190 240 291 347
#     4  11  19  38  61  83 115 146 191 251 294 337
#     4  10  21  38  56  80 116 151 191 240 294 346
#     4   9  18  34  56  87 118 144 181 241 290 343
#     4  10  23  38  57  84 112 151 197 240 290 351
#
# _framework density 23.832169
#
# number of rings (size 3 to 8) (size 9 to 14) (size 15 to 20)
#    0.000    2.000    3.750    1.125    0.000    5.500 
#    0.000    3.750    0.000    0.000    0.000    0.000 
#    0.000    0.000    0.000    0.000    0.000    0.000 
#
# Total GULP energy -89362.441649 kJ/mol
# GULP energy per Si atom -5585.152603 kJ/mol
# Density = 2.377793 g / cm^3
# Si number density = 23.832169 Si / 1000 Ang^3
#
#
#
# Elastic Constant Matrix: (Units=GPa)
#
#
# Indices 1 2 3 4 5 6 
#
# 1 74.7783 22.4081 24.4853 -9.8396 10.8332 37.0837
# 2 22.4081 81.9894 55.2727 -2.6604 0.9105 52.3139
# 3 24.4853 55.2727 100.7510 -16.5384 12.3465 32.3149
# 4 -9.8396 -2.6604 -16.5384 36.9672 13.3648 -7.6908
# 5 10.8332 0.9105 12.3465 13.3648 38.5171 2.9097
# 6 37.0837 52.3139 32.3149 -7.6908 2.9097 58.0725
#
#
#
# Elastic Compliance Matrix: (Units=1/GPa)
#
#
# Indices 1 2 3 4 5 6 
#
# 1 0.022859 0.008417 -0.002514 0.003372 -0.005477 -0.020059
# 2 0.008417 0.048347 -0.019411 -0.015473 0.011158 -0.040734
# 3 -0.002514 -0.019411 0.021832 0.013727 -0.011300 0.009327
# 4 0.003372 -0.015473 0.013727 0.042681 -0.020611 0.010832
# 5 -0.005477 0.011158 -0.011300 -0.020611 0.038384 -0.004919
# 6 -0.020059 -0.040734 0.009327 0.010832 -0.004919 0.063215
#
#
# Mechanical properties :
#
#
# Convention : Reuss Voigt Hill
#
# Bulk Modulus (GPa) = 15.14694 51.31675 33.23185
# Shear Modulus (GPa) = 17.46162 37.06819 27.26490
#
# Velocity S-wave (km/s) = 2.70976 3.94811 3.38603
# Velocity P-wave (km/s) = 4.01994 6.50867 5.40937
#
# Compressibility (1/GPa) = 0.06601995
#
# Stress axis : x y z
#
# Youngs Moduli (GPa) = 43.74700 20.68372 45.80449
#
# Poissons Ratio (x) = -0.17408 0.11516
# Poissons Ratio (y) = -0.36820 0.88912
# Poissons Ratio (z) = 0.10999 0.40150
#
# Static dielectric constant tensor:
#      x y z
#    x 1.956080 -0.001780 -0.005110 
#    y -0.001780 1.947910 -0.000790 
#    z -0.005110 -0.000790 1.940240 
# 
# From -- ./inp_files/142338.got.cif
#   From: 2010.05.17/outbox.cif.g08.bks.cpg/sg2_72_cif.got.tgz:142338.got - 2010.06.03 11:33:40.
