data_PCOD9097361
_publ_section_title
;
Structure prediction by ZEFSAII (Michael W. Deem and Ramdas Pophale) SiO2 
 PCOD9097361
Probable space group: P -1
;
_chemical_formula_sum "Si O2"
_cell_formula_units_Z 12
_cell_length_a 9.262742
_cell_length_b 12.005529
_cell_length_c 8.885948
_cell_angle_alpha 86.823347
_cell_angle_beta 134.478938
_cell_angle_gamma 66.666397
_cell_volume 557.570701
_symmetry_space_group_name_H-M "P -1"
_symmetry_group_IT_number 2
_symmetry_cell_setting 'triclinic'
loop_
_space_group_symop_operation_xyz
x,y,z
-x,-y,-z
loop_
_atom_site_type_symbol
_atom_site_label
_atom_site_fract_x
_atom_site_fract_y
_atom_site_fract_z
Si Si1 0.824089 0.346690 0.568194
Si Si2 0.195645 0.895940 0.521869
Si Si3 0.761530 0.035667 0.954763
Si Si4 0.582022 0.813694 0.038235
Si Si5 0.872629 0.228239 0.925654
Si Si6 0.533703 0.394765 0.908180
O O1 0.750172 0.254122 0.442630
O O2 0.794562 0.335835 0.725403
O O3 0.660930 0.502830 0.373065
O O4 0.121019 0.262372 0.751232
O O5 0.450496 0.867303 0.773647
O O6 0.000000 0.000000 0.500000
O O7 0.025178 0.975780 0.243682
O O8 0.560270 0.074534 0.935565
O O9 0.702055 0.171452 0.816975
O O10 0.849820 0.910170 0.914170
O O11 0.531763 0.702587 0.062128
O O12 0.813205 0.299829 0.039851
O O13 0.500000 0.500000 0.000000
#
# Coordination Sequence:
#
# PCOD9097361 Si02
#       6
#     2   2   2   2   2   2
#     4  11  21  36  61  86 114 151 189 236 283 332
#     4   9  18  33  56  85 115 146 184 231 278 332
#     4   8  17  35  59  81 115 150 185 231 284 336
#     4  10  20  36  60  89 113 146 195 232 280 340
#     4   9  19  35  59  84 111 153 189 227 288 335
#     4  11  21  38  61  81 115 156 190 231 284 340
#
# _framework density 21.521932
#
# number of rings (size 3 to 8) (size 9 to 14) (size 15 to 20)
#    0.000    2.333    1.667    1.000    0.000    6.000 
#    0.000    1.667   18.333    0.000    0.000    0.000 
#    0.000    0.000    0.000    0.000    0.000    0.000 
#
# Total GULP energy -66812.752339 kJ/mol
# GULP energy per Si atom -5567.729362 kJ/mol
# Density = 2.147295 g / cm^3
# Si number density = 21.521932 Si / 1000 Ang^3
#
#
#
# Elastic Constant Matrix: (Units=GPa)
#
#
# Indices 1 2 3 4 5 6 
#
# 1 130.8650 27.6332 26.1305 5.9535 -3.0516 -20.4079
# 2 27.6332 91.9662 6.6037 4.5487 -1.3712 -25.0332
# 3 26.1305 6.6037 51.3770 -11.1196 4.8236 4.8087
# 4 5.9535 4.5487 -11.1196 31.3653 3.6134 -9.0442
# 5 -3.0516 -1.3712 4.8236 3.6134 28.0320 -8.0170
# 6 -20.4079 -25.0332 4.8087 -9.0442 -8.0170 43.0226
#
#
#
# Elastic Compliance Matrix: (Units=1/GPa)
#
#
# Indices 1 2 3 4 5 6 
#
# 1 0.010199 -0.000988 -0.006596 -0.003128 0.004058 0.005099
# 2 -0.000988 0.013688 -0.002506 -0.000698 0.003449 0.008272
# 3 -0.006596 -0.002506 0.026813 0.010086 -0.008785 -0.007101
# 4 -0.003128 -0.000698 0.010086 0.037946 -0.005897 0.003860
# 5 0.004058 0.003449 -0.008785 -0.005897 0.041836 0.011470
# 6 0.005099 0.008272 -0.007101 0.003860 0.011470 0.034218
#
#
# Mechanical properties :
#
#
# Convention : Reuss Voigt Hill
#
# Bulk Modulus (GPa) = 32.76447 43.88254 38.32351
# Shear Modulus (GPa) = 25.63406 34.74002 30.18704
#
# Velocity S-wave (km/s) = 3.45493 4.02203 3.74922
# Velocity P-wave (km/s) = 5.58320 6.48097 6.04876
#
# Compressibility (1/GPa) = 0.03052086
#
# Stress axis : x y z
#
# Youngs Moduli (GPa) = 98.04717 73.05729 37.29534
#
# Poissons Ratio (x) = 0.07216 0.24599
# Poissons Ratio (y) = 0.09684 0.09347
# Poissons Ratio (z) = 0.64669 0.18309
#
# Static dielectric constant tensor:
#      x y z
#    x 1.803720 -0.012310 -0.076310 
#    y -0.012310 1.858570 -0.026000 
#    z -0.076310 -0.026000 1.833500 
# 
# From -- ./inp_files/28828.got.cif
#   From: 2010.05.17/outbox.cif.g08.bks.cpg/sg2_15_cif.got.tgz:28828.got - 2010.06.03 11:33:40.
