data_PCOD9097597
_publ_section_title
;
Structure prediction by ZEFSAII (Michael W. Deem and Ramdas Pophale) SiO2 
 PCOD9097597
Probable space group: P -1
;
_chemical_formula_sum "Si O2"
_cell_formula_units_Z 16
_cell_length_a 11.064555
_cell_length_b 9.403582
_cell_length_c 9.330173
_cell_angle_alpha 64.055387
_cell_angle_beta 55.995891
_cell_angle_gamma 92.595398
_cell_volume 666.672723
_symmetry_space_group_name_H-M "P -1"
_symmetry_group_IT_number 2
_symmetry_cell_setting 'triclinic'
loop_
_space_group_symop_operation_xyz
x,y,z
-x,-y,-z
loop_
_atom_site_type_symbol
_atom_site_label
_atom_site_fract_x
_atom_site_fract_y
_atom_site_fract_z
Si Si1 0.505969 0.481364 0.172368
Si Si2 0.632539 0.884873 0.599796
Si Si3 0.038176 0.616622 0.564648
Si Si4 0.851330 0.854445 0.239525
Si Si5 0.869771 0.070768 0.796702
Si Si6 0.297435 0.522155 0.520143
Si Si7 0.480493 0.079490 0.816861
Si Si8 0.194753 0.238760 0.206312
O O1 0.502179 0.294552 0.285726
O O2 0.352088 0.495346 0.335390
O O3 0.500000 0.500000 0.000000
O O4 0.664054 0.636421 0.041405
O O5 0.748653 0.936327 0.363492
O O6 0.729617 0.833484 0.683774
O O7 0.550684 0.994662 0.685222
O O8 0.161384 0.804431 0.352007
O O9 0.134393 0.544683 0.638016
O O10 0.000000 0.500000 0.500000
O O11 0.898200 0.652054 0.717411
O O12 0.742714 0.674992 0.313244
O O13 0.964679 0.807694 0.297373
O O14 0.000000 0.000000 0.000000
O O15 0.902231 0.922737 0.755628
O O16 0.711849 0.986795 0.032974
O O17 0.433062 0.715066 0.365556
O O18 0.500000 0.000000 0.000000
#
# Coordination Sequence:
#
# PCOD9097597 Si02
#       8
#     2   2   2   2   2   2   2   2
#     4   9  17  31  51  82 126 158 183 222 304 390
#     4  10  20  36  61  89 123 164 195 242 310 372
#     4  12  21  31  56  94 129 153 191 251 313 376
#     4  11  26  47  63  78 120 179 221 246 288 355
#     4  12  23  37  60  94 128 158 196 254 313 370
#     4  11  21  38  57  90 123 156 197 251 306 370
#     4  12  21  34  64 101 133 146 184 256 330 377
#     4  11  20  33  56  96 130 152 191 244 327 377
#
# _framework density 23.999780999999999
#
# number of rings (size 3 to 8) (size 9 to 14) (size 15 to 20)
#    0.000    1.000    6.250    2.625    3.500    0.000 
#    0.000    1.875    0.000    0.000    0.000    0.000 
#    0.000    0.000    0.000    0.000    0.000    0.000 
#
# Total GULP energy -89097.672834 kJ/mol
# GULP energy per Si atom -5568.604552 kJ/mol
# Density = 2.394516 g / cm^3
# Si number density = 23.999781 Si / 1000 Ang^3
#
#
#
# Elastic Constant Matrix: (Units=GPa)
#
#
# Indices 1 2 3 4 5 6 
#
# 1 42.0655 20.3112 11.4676 5.2134 -14.1932 -4.1229
# 2 20.3112 162.7747 59.9900 14.0329 -14.2308 -11.2153
# 3 11.4676 59.9900 149.0997 4.2119 -20.4460 -0.0094
# 4 5.2134 14.0329 4.2119 45.0959 2.3245 -18.8985
# 5 -14.1932 -14.2308 -20.4460 2.3245 30.1387 2.9389
# 6 -4.1229 -11.2153 -0.0094 -18.8985 2.9389 24.6497
#
#
#
# Elastic Compliance Matrix: (Units=1/GPa)
#
#
# Indices 1 2 3 4 5 6 
#
# 1 0.029801 -0.002503 0.000694 -0.003693 0.013668 -0.000615
# 2 -0.002503 0.007786 -0.002862 -0.000880 0.000390 0.002402
# 3 0.000694 -0.002862 0.008558 -0.001489 0.005183 -0.002942
# 4 -0.003693 -0.000880 -0.001489 0.034539 -0.008409 0.026464
# 5 0.013668 0.000390 0.005183 -0.008409 0.044875 -0.009332
# 6 -0.000615 0.002402 -0.002942 0.026464 -0.009332 0.062959
#
#
# Mechanical properties :
#
#
# Convention : Reuss Voigt Hill
#
# Bulk Modulus (GPa) = 27.17256 59.71973 43.44614
# Shear Modulus (GPa) = 23.79509 37.45493 30.62501
#
# Velocity S-wave (km/s) = 3.15218 3.95477 3.57606
# Velocity P-wave (km/s) = 4.95932 6.76691 5.93237
#
# Compressibility (1/GPa) = 0.03680183
#
# Stress axis : x y z
#
# Youngs Moduli (GPa) = 33.55585 128.43776 116.85620
#
# Poissons Ratio (x) = 0.32152 -0.08106
# Poissons Ratio (y) = 0.08400 0.33440
# Poissons Ratio (z) = -0.02328 0.36754
#
# Static dielectric constant tensor:
#      x y z
#    x 3.097640 -0.440610 0.331970 
#    y -0.440610 2.145520 -0.197330 
#    z 0.331970 -0.197330 2.063630 
# 
# From -- ./inp_files/272822.got.cif
#   From: 2010.05.17/outbox.cif.g08.bks.cpg/sg2_137_cif.got.tgz:272822.got - 2010.06.03 11:33:40.
