data_PCOD9097818
_publ_section_title
;
Structure prediction by ZEFSAII (Michael W. Deem and Ramdas Pophale) SiO2 
 PCOD9097818
Probable space group: P -1
;
_chemical_formula_sum "Si O2"
_cell_formula_units_Z 13
_cell_length_a 8.511871
_cell_length_b 9.251904
_cell_length_c 10.700048
_cell_angle_alpha 137.820964
_cell_angle_beta 78.957398
_cell_angle_gamma 107.116450
_cell_volume 540.266823
_symmetry_space_group_name_H-M "P -1"
_symmetry_group_IT_number 2
_symmetry_cell_setting 'triclinic'
loop_
_space_group_symop_operation_xyz
x,y,z
-x,-y,-z
loop_
_atom_site_type_symbol
_atom_site_label
_atom_site_fract_x
_atom_site_fract_y
_atom_site_fract_z
Si Si1 0.141865 0.601877 0.943435
Si Si2 0.979561 0.212870 0.562056
Si Si3 0.500000 0.000000 0.000000
Si Si4 0.848340 0.897653 0.760987
Si Si5 0.497977 0.868208 0.654822
Si Si6 0.351049 0.705345 0.214421
Si Si7 0.618138 0.584671 0.760750
O O1 0.293137 0.641357 0.041071
O O2 0.124011 0.840706 0.049469
O O3 0.117767 0.422766 0.723578
O O4 0.000000 0.500000 0.000000
O O5 0.009951 0.163885 0.382159
O O6 0.804657 0.252997 0.655172
O O7 0.000000 0.000000 0.500000
O O8 0.583570 0.050687 0.159732
O O9 0.507245 0.263384 0.151908
O O10 0.682325 0.863814 0.676816
O O11 0.790905 0.743913 0.790527
O O12 0.417513 0.632283 0.459904
O O13 0.520102 0.061795 0.672969
O O14 0.394601 0.506738 0.156278
#
# Coordination Sequence:
#
# PCOD9097818 Si02
#       7
#     2   2   1   2   2   2   2
#     4   9  18  35  58  84 117 153 201 241 284 355
#     4  11  19  39  66  88 114 161 198 241 310 356
#     4  10  22  40  58  82 116 166 200 236 304 342
#     4  10  20  36  62  89 119 160 199 243 299 368
#     4  10  21  41  64  87 122 160 207 249 292 360
#     4  10  22  40  61  95 123 153 204 255 293 362
#     4  11  24  41  58  92 128 157 204 249 299 356
#
# _framework density 24.062186000000001
#
# number of rings (size 3 to 8) (size 9 to 14) (size 15 to 20)
#    0.000    1.846    4.615    2.308    0.000    8.615 
#    2.769    3.077    0.000    0.000    0.000    0.000 
#    0.000    0.000    0.000    0.000    0.000    0.000 
#
# Total GULP energy -72374.785978 kJ/mol
# GULP energy per Si atom -5567.291229 kJ/mol
# Density = 2.400742 g / cm^3
# Si number density = 24.062186 Si / 1000 Ang^3
#
#
#
# Elastic Constant Matrix: (Units=GPa)
#
#
# Indices 1 2 3 4 5 6 
#
# 1 33.6272 16.7628 12.6587 8.6842 -16.9724 5.2065
# 2 16.7628 185.0849 69.0558 35.4073 -6.1231 -0.0872
# 3 12.6587 69.0558 166.5077 32.4363 13.0678 4.0102
# 4 8.6842 35.4073 32.4363 51.6423 5.1639 -4.4997
# 5 -16.9724 -6.1231 13.0678 5.1639 27.8904 -1.0767
# 6 5.2065 -0.0872 4.0102 -4.4997 -1.0767 29.0909
#
#
#
# Elastic Compliance Matrix: (Units=1/GPa)
#
#
# Indices 1 2 3 4 5 6 
#
# 1 0.054349 0.000131 -0.004768 -0.010746 0.036965 -0.009363
# 2 0.000131 0.007160 -0.002533 -0.003701 0.003520 -0.000095
# 3 -0.004768 -0.002533 0.008405 -0.002115 -0.007039 -0.000901
# 4 -0.010746 -0.003701 -0.002115 0.026660 -0.011069 0.005918
# 5 0.036965 0.003520 -0.007039 -0.011069 0.064277 -0.004968
# 6 -0.009363 -0.000095 -0.000901 0.005918 -0.004968 0.036906
#
#
# Mechanical properties :
#
#
# Convention : Reuss Voigt Hill
#
# Bulk Modulus (GPa) = 17.99376 64.68605 41.33991
# Shear Modulus (GPa) = 21.68045 40.84089 31.26067
#
# Velocity S-wave (km/s) = 3.00495 4.12431 3.60830
# Velocity P-wave (km/s) = 4.41972 7.04422 5.88026
#
# Compressibility (1/GPa) = 0.05557481
#
# Stress axis : x y z
#
# Youngs Moduli (GPa) = 18.39945 139.65741 118.98009
#
# Poissons Ratio (x) = -0.01830 0.56734
# Poissons Ratio (y) = -0.00241 0.30133
# Poissons Ratio (z) = 0.08774 0.35370
#
# Static dielectric constant tensor:
#      x y z
#    x 2.102670 0.126550 -0.028010 
#    y 0.126550 2.069660 -0.012180 
#    z -0.028010 -0.012180 1.934190 
# 
# From -- ./inp_files/360335.got.cif
#   From: 2010.05.17/outbox.cif.g08.bks.cpg/sg2_181_cif.got.tgz:360335.got - 2010.06.03 11:33:40.
