data_PCOD9097375
_publ_section_title
;
Structure prediction by ZEFSAII (Michael W. Deem and Ramdas Pophale) SiO2 
 PCOD9097375
Probable space group: P -1
;
_chemical_formula_sum "Si O2"
_cell_formula_units_Z 10
_cell_length_a 5.245260
_cell_length_b 11.518935
_cell_length_c 12.223028
_cell_angle_alpha 45.634000
_cell_angle_beta 131.422265
_cell_angle_gamma 117.802309
_cell_volume 395.878397
_symmetry_space_group_name_H-M "P -1"
_symmetry_group_IT_number 2
_symmetry_cell_setting 'triclinic'
loop_
_space_group_symop_operation_xyz
x,y,z
-x,-y,-z
loop_
_atom_site_type_symbol
_atom_site_label
_atom_site_fract_x
_atom_site_fract_y
_atom_site_fract_z
Si Si1 0.823454 0.824150 0.541709
Si Si2 0.503104 0.814644 0.663978
Si Si3 0.449756 0.731243 0.101677
Si Si4 0.238007 0.375615 0.952122
Si Si5 0.397249 0.942950 0.159064
O O1 0.734419 0.737263 0.686716
O O2 0.489667 0.855892 0.355241
O O3 0.121039 0.744206 0.607685
O O4 0.000000 0.000000 0.500000
O O5 0.657290 0.789877 0.843638
O O6 0.500000 0.000000 0.500000
O O7 0.709720 0.644574 0.149415
O O8 0.145329 0.610355 0.125609
O O9 0.374561 0.895250 0.901552
O O10 0.515157 0.818926 0.178841
O O11 0.500000 0.500000 0.000000
O O12 0.000000 0.000000 0.000000
#
# Coordination Sequence:
#
# PCOD9097375 Si02
#       5
#     2   2   2   2   2
#     4  10  21  34  59  90 129 160 204 264 333 376
#     4  10  20  36  60  89 126 158 212 270 322 362
#     4  11  23  38  63  95 133 167 223 268 330 377
#     4  12  24  42  66  96 133 178 221 266 321 402
#     4  11  23  38  67 100 135 169 215 281 332 384
#
# _framework density 25.260285
#
# number of rings (size 3 to 8) (size 9 to 14) (size 15 to 20)
#    0.000    1.200    2.000    6.600    5.600    0.000 
#    0.000    0.000    0.000    7.200    0.000    0.000 
#    0.000    0.000    0.000    0.000    0.000    0.000 
#
# Total GULP energy -55773.628832 kJ/mol
# GULP energy per Si atom -5577.362883 kJ/mol
# Density = 2.520279 g / cm^3
# Si number density = 25.260285 Si / 1000 Ang^3
#
#
#
# Elastic Constant Matrix: (Units=GPa)
#
#
# Indices 1 2 3 4 5 6 
#
# 1 233.5319 46.9554 30.5661 16.0884 -29.0123 3.5091
# 2 46.9554 96.6910 -2.5456 -4.7131 -7.9620 -9.6631
# 3 30.5661 -2.5456 56.2661 29.3635 -5.2468 -19.3381
# 4 16.0884 -4.7131 29.3635 29.4684 -7.9283 -4.7864
# 5 -29.0123 -7.9620 -5.2468 -7.9283 37.2238 8.4248
# 6 3.5091 -9.6631 -19.3381 -4.7864 8.4248 40.0398
#
#
#
# Elastic Compliance Matrix: (Units=1/GPa)
#
#
# Indices 1 2 3 4 5 6 
#
# 1 0.006253 -0.003150 -0.006364 0.002965 0.005088 -0.005098
# 2 -0.003150 0.012509 0.003505 0.001001 -0.000240 0.005158
# 3 -0.006364 0.003505 0.054634 -0.049833 -0.012669 0.024499
# 4 0.002965 0.001001 -0.049833 0.083933 0.017386 -0.017711
# 5 0.005088 -0.000240 -0.012669 0.017386 0.035411 -0.011995
# 6 -0.005098 0.005158 0.024499 -0.017711 -0.011995 0.038906
#
#
# Mechanical properties :
#
#
# Convention : Reuss Voigt Hill
#
# Bulk Modulus (GPa) = 16.29291 59.60452 37.94871
# Shear Modulus (GPa) = 18.93065 42.11394 30.52229
#
# Velocity S-wave (km/s) = 2.74053 4.08757 3.47985
# Velocity P-wave (km/s) = 4.05931 6.77680 5.58583
#
# Compressibility (1/GPa) = 0.06137641
#
# Stress axis : x y z
#
# Youngs Moduli (GPa) = 159.92537 79.94370 18.30379
#
# Poissons Ratio (x) = 0.25183 0.11649
# Poissons Ratio (y) = 0.50378 -0.06416
# Poissons Ratio (z) = 1.01783 -0.28021
#
# Static dielectric constant tensor:
#      x y z
#    x 2.248720 -0.144150 0.125660 
#    y -0.144150 2.135390 -0.097630 
#    z 0.125660 -0.097630 2.034760 
# 
# From -- ./inp_files/21388.got.cif
#   From: 2010.05.17/outbox.cif.g08.bks.cpg/sg2_11_cif.got.tgz:21388.got - 2010.06.03 11:33:40.
