data_PCOD9097696
_publ_section_title
;
Structure prediction by ZEFSAII (Michael W. Deem and Ramdas Pophale) SiO2 
 PCOD9097696
Probable space group: P -1
;
_chemical_formula_sum "Si O2"
_cell_formula_units_Z 14
_cell_length_a 19.605172
_cell_length_b 11.114003
_cell_length_c 8.016643
_cell_angle_alpha 52.464078
_cell_angle_beta 141.125176
_cell_angle_gamma 148.198178
_cell_volume 570.440956
_symmetry_space_group_name_H-M "P -1"
_symmetry_group_IT_number 2
_symmetry_cell_setting 'triclinic'
loop_
_space_group_symop_operation_xyz
x,y,z
-x,-y,-z
loop_
_atom_site_type_symbol
_atom_site_label
_atom_site_fract_x
_atom_site_fract_y
_atom_site_fract_z
Si Si1 0.306930 0.495514 0.899810
Si Si2 0.217768 0.879623 0.508089
Si Si3 0.525849 0.044547 0.243787
Si Si4 0.993712 0.393504 0.347737
Si Si5 0.803364 0.807440 0.752113
Si Si6 0.833171 0.752635 0.474554
Si Si7 0.765706 0.331687 0.774965
O O1 0.464610 0.768135 0.941510
O O2 0.293287 0.370654 0.819136
O O3 0.141720 0.428982 0.619981
O O4 0.291537 0.411585 0.125338
O O5 0.376967 0.947570 0.715791
O O6 0.142484 0.795976 0.618509
O O7 0.071771 0.639849 0.332147
O O8 0.247660 0.085410 0.357654
O O9 0.647529 0.167164 0.534090
O O10 0.353472 0.793059 0.184825
O O11 0.889210 0.320820 0.046530
O O12 0.785628 0.774927 0.544846
O O13 0.000000 0.000000 0.000000
O O14 0.838637 0.577260 0.679008
O O15 0.000000 0.000000 0.500000
#
# Coordination Sequence:
#
# PCOD9097696 Si02
#       7
#     2   2   2   2   2   2   2
#     4  10  22  41  63  92 125 160 204 254 306 362
#     4  10  21  36  59  92 125 155 202 253 304 359
#     4   9  22  43  63  86 122 164 203 253 309 359
#     4  10  20  36  61  95 116 153 212 254 296 360
#     4  12  21  37  61  91 130 159 197 255 310 362
#     4  11  22  36  61  92 122 161 202 247 310 364
#     4  10  22  40  65  89 120 160 209 254 301 368
#
# _framework density 24.542418999999999
#
# number of rings (size 3 to 8) (size 9 to 14) (size 15 to 20)
#    0.000    1.714    2.857    0.857    4.000    6.857 
#    2.571    0.714    3.143    2.571    0.000    0.000 
#    0.000    0.000    0.000    0.000    0.000    0.000 
#
# Total GULP energy -78170.627628 kJ/mol
# GULP energy per Si atom -5583.616259 kJ/mol
# Density = 2.448656 g / cm^3
# Si number density = 24.542419 Si / 1000 Ang^3
#
#
#
# Elastic Constant Matrix: (Units=GPa)
#
#
# Indices 1 2 3 4 5 6 
#
# 1 91.9629 44.8142 0.1615 -13.5124 -14.5260 15.3262
# 2 44.8142 141.0479 31.3879 -28.1698 -9.9641 20.6885
# 3 0.1615 31.3879 47.5732 -4.4262 -5.7106 -2.3195
# 4 -13.5124 -28.1698 -4.4262 27.0346 -0.1218 -16.5565
# 5 -14.5260 -9.9641 -5.7106 -0.1218 44.0540 -5.3587
# 6 15.3262 20.6885 -2.3195 -16.5565 -5.3587 58.1237
#
#
#
# Elastic Compliance Matrix: (Units=1/GPa)
#
#
# Indices 1 2 3 4 5 6 
#
# 1 0.014153 -0.004338 0.003490 0.002564 0.004030 -0.000947
# 2 -0.004338 0.011889 -0.007053 0.008500 0.000256 -0.000925
# 3 0.003490 -0.007053 0.026274 0.000626 0.003343 0.003125
# 4 0.002564 0.008500 0.000626 0.054816 0.004503 0.012353
# 5 0.004030 0.000256 0.003343 0.004503 0.024842 0.002553
# 6 -0.000947 -0.000925 0.003125 0.012353 0.002553 0.021662
#
#
# Mechanical properties :
#
#
# Convention : Reuss Voigt Hill
#
# Bulk Modulus (GPa) = 27.38682 48.14568 37.76625
# Shear Modulus (GPa) = 27.53185 39.45715 33.49450
#
# Velocity S-wave (km/s) = 3.35297 4.01398 3.69827
# Velocity P-wave (km/s) = 5.11596 6.41425 5.80154
#
# Compressibility (1/GPa) = 0.03651392
#
# Stress axis : x y z
#
# Youngs Moduli (GPa) = 70.65835 84.11309 38.06098
#
# Poissons Ratio (x) = 0.36486 -0.13283
# Poissons Ratio (y) = 0.30649 0.26844
# Poissons Ratio (z) = -0.24660 0.59323
#
# Static dielectric constant tensor:
#      x y z
#    x 2.021070 -0.010550 -0.044260 
#    y -0.010550 1.952170 0.014920 
#    z -0.044260 0.014920 2.051530 
# 
# From -- ./inp_files/345097.got.cif
#   From: 2010.05.17/outbox.cif.g08.bks.cpg/sg2_173_cif.got.tgz:345097.got - 2010.06.03 11:33:40.
