data_PCOD9097312
_publ_section_title
;
Structure prediction by ZEFSAII (Michael W. Deem and Ramdas Pophale) SiO2 
 PCOD9097312
Probable space group: P -1
;
_chemical_formula_sum "Si O2"
_cell_formula_units_Z 14
_cell_length_a 15.413488
_cell_length_b 9.573781
_cell_length_c 10.215023
_cell_angle_alpha 69.050912
_cell_angle_beta 37.351018
_cell_angle_gamma 82.603674
_cell_volume 821.283764
_symmetry_space_group_name_H-M "P -1"
_symmetry_group_IT_number 2
_symmetry_cell_setting 'triclinic'
loop_
_space_group_symop_operation_xyz
x,y,z
-x,-y,-z
loop_
_atom_site_type_symbol
_atom_site_label
_atom_site_fract_x
_atom_site_fract_y
_atom_site_fract_z
Si Si1 0.343820 0.814828 0.368066
Si Si2 0.938225 0.118881 0.205485
Si Si3 0.605524 0.120092 0.018531
Si Si4 0.203526 0.180143 0.698007
Si Si5 0.223297 0.093632 0.987256
Si Si6 0.452588 0.394043 0.719821
Si Si7 0.497371 0.398777 0.166723
O O1 0.181084 0.801505 0.622931
O O2 0.346783 0.824473 0.204355
O O3 0.414466 0.679988 0.375041
O O4 0.456083 0.976684 0.231007
O O5 0.852279 0.959005 0.290786
O O6 0.056100 0.215281 0.924460
O O7 0.048061 0.079949 0.196116
O O8 0.568960 0.258975 0.095348
O O9 0.727269 0.048745 0.963932
O O10 0.268875 0.117345 0.770675
O O11 0.327563 0.319981 0.441283
O O12 0.312483 0.249216 0.902700
O O13 0.500000 0.500000 0.500000
O O14 0.425315 0.494220 0.841602
O O15 0.500000 0.500000 0.000000
#
# Coordination Sequence:
#
# PCOD9097312 Si02
#       7
#     2   2   2   2   2   2   2
#     4  10  20  36  60  87 113 157 197 241 290 345
#     4   9  18  38  62  85 118 150 199 249 288 343
#     4  10  21  35  58  89 114 152 204 239 289 345
#     4   9  19  36  58  90 112 153 197 238 301 339
#     4   9  20  36  59  90 113 147 203 247 284 342
#     4  11  21  37  58  90 120 150 198 241 292 348
#     4  12  22  38  60  83 126 156 188 246 298 352
#
# _framework density 17.046484
#
# number of rings (size 3 to 8) (size 9 to 14) (size 15 to 20)
#    0.857    1.143    4.286    0.000    0.000    2.286 
#    0.000    2.857    0.000    1.714    0.000    0.000 
#    0.000    0.000    0.000    0.000    0.000    0.000 
#
# Total GULP energy -77987.137933 kJ/mol
# GULP energy per Si atom -5570.509852 kJ/mol
# Density = 1.700769 g / cm^3
# Si number density = 17.046484 Si / 1000 Ang^3
#
#
#
# Elastic Constant Matrix: (Units=GPa)
#
#
# Indices 1 2 3 4 5 6 
#
# 1 110.9728 59.9931 39.6081 3.7370 9.3349 3.2776
# 2 59.9931 120.5871 34.6091 15.3744 8.3637 5.2949
# 3 39.6081 34.6091 71.1173 7.4191 4.6797 -9.6757
# 4 3.7370 15.3744 7.4191 28.1872 -5.4018 4.2518
# 5 9.3349 8.3637 4.6797 -5.4018 27.6190 -4.8902
# 6 3.2776 5.2949 -9.6757 4.2518 -4.8902 27.7372
#
#
#
# Elastic Compliance Matrix: (Units=1/GPa)
#
#
# Indices 1 2 3 4 5 6 
#
# 1 0.014263 -0.005434 -0.005915 0.002728 -0.002264 -0.003529
# 2 -0.005434 0.012850 -0.002745 -0.005803 -0.003156 -0.002435
# 3 -0.005915 -0.002745 0.020373 -0.004421 0.000112 0.009027
# 4 0.002728 -0.005803 -0.004421 0.041981 0.008796 -0.005641
# 5 -0.002264 -0.003156 0.000112 0.008796 0.040826 0.006758
# 6 -0.003529 -0.002435 0.009027 -0.005641 0.006758 0.042140
#
#
# Mechanical properties :
#
#
# Convention : Reuss Voigt Hill
#
# Bulk Modulus (GPa) = 51.81876 63.45531 57.63703
# Shear Modulus (GPa) = 24.14833 27.93982 26.04408
#
# Velocity S-wave (km/s) = 3.76788 4.05289 3.91298
# Velocity P-wave (km/s) = 7.02807 7.69461 7.36888
#
# Compressibility (1/GPa) = 0.01929803
#
# Stress axis : x y z
#
# Youngs Moduli (GPa) = 70.11199 77.82180 49.08362
#
# Poissons Ratio (x) = 0.42290 0.29032
# Poissons Ratio (y) = 0.38100 0.13474
# Poissons Ratio (z) = 0.41470 0.21363
#
# Static dielectric constant tensor:
#      x y z
#    x 1.576490 0.012970 0.000270 
#    y 0.012970 1.559900 0.002000 
#    z 0.000270 0.002000 1.576780 
# 
# From -- ./inp_files/263357.got.cif
#   From: 2010.05.17/outbox.cif.g08.bks.cpg/sg2_132_cif.got.tgz:263357.got - 2010.06.03 11:33:40.
