data_PCOD9097358
_publ_section_title
;
Structure prediction by ZEFSAII (Michael W. Deem and Ramdas Pophale) SiO2 
 PCOD9097358
Probable space group: P -1
;
_chemical_formula_sum "Si O2"
_cell_formula_units_Z 15
_cell_length_a 5.254407
_cell_length_b 10.299091
_cell_length_c 10.996369
_cell_angle_alpha 95.299579
_cell_angle_beta 91.409901
_cell_angle_gamma 76.344566
_cell_volume 575.780085
_symmetry_space_group_name_H-M "P -1"
_symmetry_group_IT_number 2
_symmetry_cell_setting 'triclinic'
loop_
_space_group_symop_operation_xyz
x,y,z
-x,-y,-z
loop_
_atom_site_type_symbol
_atom_site_label
_atom_site_fract_x
_atom_site_fract_y
_atom_site_fract_z
Si Si1 0.102114 0.823370 0.228871
Si Si2 0.431766 0.098789 0.656834
Si Si3 0.272692 0.567864 0.093429
Si Si4 0.461923 0.907439 0.869154
Si Si5 0.949399 0.661890 0.870121
Si Si6 0.743376 0.409322 0.362381
Si Si7 0.302916 0.311365 0.488167
Si Si8 0.000000 0.000000 0.000000
O O1 0.266882 0.892770 0.327122
O O2 0.313492 0.688999 0.184784
O O3 0.042037 0.913661 0.116749
O O4 0.831901 0.802858 0.277647
O O5 0.373483 0.157337 0.524098
O O6 0.431954 0.976595 0.742486
O O7 0.193384 0.459103 0.167376
O O8 0.500000 0.500000 0.000000
O O9 0.030813 0.637811 0.009528
O O10 0.726331 0.795791 0.863412
O O11 0.199580 0.874783 0.913401
O O12 0.500000 0.000000 0.000000
O O13 0.190514 0.627106 0.778869
O O14 0.517551 0.339422 0.398665
O O15 0.685868 0.568705 0.404307
O O16 0.012350 0.345055 0.432630
#
# Coordination Sequence:
#
# PCOD9097358 Si02
#       8
#     2   2   2   2   2   2   2   1
#     4  11  23  37  64  94 130 170 214 263 320 394
#     4  11  23  40  68  94 125 173 218 271 320 386
#     4  11  26  37  62  94 138 169 209 268 327 405
#     4  11  22  41  64  93 133 174 218 261 324 400
#     4  11  25  43  62  99 132 176 215 269 333 390
#     4  10  23  42  68  91 128 168 215 277 326 388
#     4  10  22  43  66  94 123 167 224 273 329 379
#     4  10  20  36  60  88 130 172 214 250 306 394
#
# _framework density 26.051615000000002
#
# number of rings (size 3 to 8) (size 9 to 14) (size 15 to 20)
#    0.000    1.333    1.333    4.000    7.467    1.067 
#    0.000    1.333    0.000    0.000    0.000    0.000 
#    0.000    0.000    0.000    0.000    0.000    0.000 
#
# Total GULP energy -83534.911246 kJ/mol
# GULP energy per Si atom -5568.994083 kJ/mol
# Density = 2.599232 g / cm^3
# Si number density = 26.051615 Si / 1000 Ang^3
#
#
#
# Elastic Constant Matrix: (Units=GPa)
#
#
# Indices 1 2 3 4 5 6 
#
# 1 90.8108 29.0379 30.8130 -9.6336 -21.0411 -24.2868
# 2 29.0379 56.0265 24.8080 -16.8841 -7.5982 -13.2145
# 3 30.8130 24.8080 113.8219 -22.9926 -16.4266 -6.8757
# 4 -9.6336 -16.8841 -22.9926 43.1554 -12.1982 2.6361
# 5 -21.0411 -7.5982 -16.4266 -12.1982 46.7751 5.5173
# 6 -24.2868 -13.2145 -6.8757 2.6361 5.5173 27.0688
#
#
#
# Elastic Compliance Matrix: (Units=1/GPa)
#
#
# Indices 1 2 3 4 5 6 
#
# 1 0.017776 -0.004041 -0.001895 0.002293 0.005847 0.012080
# 2 -0.004041 0.025344 -0.001869 0.008461 0.003044 0.006828
# 3 -0.001895 -0.001869 0.011621 0.006460 0.004758 -0.001259
# 4 0.002293 0.008461 0.006460 0.034102 0.013357 0.001785
# 5 0.005847 0.003044 0.004758 0.013357 0.029586 0.000610
# 6 0.012080 0.006828 -0.001259 0.001785 0.000610 0.050496
#
#
# Mechanical properties :
#
#
# Convention : Reuss Voigt Hill
#
# Bulk Modulus (GPa) = 25.55484 47.77523 36.66503
# Shear Modulus (GPa) = 25.30651 35.13323 30.21987
#
# Velocity S-wave (km/s) = 3.12011 3.67631 3.40957
# Velocity P-wave (km/s) = 4.77606 6.03315 5.44103
#
# Compressibility (1/GPa) = 0.03913153
#
# Stress axis : x y z
#
# Youngs Moduli (GPa) = 56.25693 39.45773 86.04806
#
# Poissons Ratio (x) = 0.15945 0.16303
# Poissons Ratio (y) = 0.22733 0.16082
# Poissons Ratio (z) = 0.10659 0.07374
#
# Static dielectric constant tensor:
#      x y z
#    x 2.508580 -0.026390 -0.056020 
#    y -0.026390 2.194900 0.143780 
#    z -0.056020 0.143780 2.140860 
# 
# From -- ./inp_files/364271.got.cif
#   From: 2010.05.17/outbox.cif.g08.bks.cpg/sg2_183_cif.got.tgz:364271.got - 2010.06.03 11:33:40.
