data_PCOD9097368
_publ_section_title
;
Structure prediction by ZEFSAII (Michael W. Deem and Ramdas Pophale) SiO2 
 PCOD9097368
Probable space group: P -1
;
_chemical_formula_sum "Si O2"
_cell_formula_units_Z 14
_cell_length_a 6.435541
_cell_length_b 13.270041
_cell_length_c 12.153674
_cell_angle_alpha 120.248980
_cell_angle_beta 121.769843
_cell_angle_gamma 44.697603
_cell_volume 605.927371
_symmetry_space_group_name_H-M "P -1"
_symmetry_group_IT_number 2
_symmetry_cell_setting 'triclinic'
loop_
_space_group_symop_operation_xyz
x,y,z
-x,-y,-z
loop_
_atom_site_type_symbol
_atom_site_label
_atom_site_fract_x
_atom_site_fract_y
_atom_site_fract_z
Si Si1 0.474881 0.656718 0.181569
Si Si2 0.167758 0.961894 0.146253
Si Si3 0.451683 0.782819 0.786278
Si Si4 0.406087 0.146153 0.346451
Si Si5 0.018775 0.582333 0.951049
Si Si6 0.384676 0.687665 0.434828
Si Si7 0.156537 0.635137 0.537037
O O1 0.363253 0.797620 0.154702
O O2 0.822656 0.523665 0.169761
O O3 0.423082 0.680034 0.310903
O O4 0.245724 0.620364 0.063210
O O5 0.381777 0.014993 0.251939
O O6 0.873354 0.062323 0.200136
O O7 0.000000 0.000000 0.000000
O O8 0.658979 0.786627 0.755812
O O9 0.375588 0.671444 0.672964
O O10 0.669486 0.724070 0.918613
O O11 0.674320 0.161304 0.460227
O O12 0.160149 0.253724 0.428549
O O13 0.000000 0.500000 0.000000
O O14 0.139170 0.678237 0.427651
O O15 0.690876 0.533025 0.484043
#
# Coordination Sequence:
#
# PCOD9097368 Si02
#       7
#     2   2   2   2   2   2   2
#     4  11  25  40  60  92 125 155 199 251 297 352
#     4  11  24  42  61  87 122 161 202 245 295 358
#     4  10  21  39  64  89 117 157 203 245 297 358
#     4  10  21  38  60  86 119 160 201 241 294 359
#     4  11  23  40  62  91 121 154 199 253 302 350
#     4  10  20  36  60  89 120 159 199 244 300 355
#     4   9  19  37  61  91 121 154 198 249 298 355
#
# _framework density 23.105080000000001
#
# number of rings (size 3 to 8) (size 9 to 14) (size 15 to 20)
#    0.000    1.714    0.000    3.857    0.000   12.000 
#    0.000    6.429    0.000    0.000    0.000    0.000 
#    0.000    0.000    0.000    0.000    0.000    0.000 
#
# Total GULP energy -78034.056316 kJ/mol
# GULP energy per Si atom -5573.861165 kJ/mol
# Density = 2.305249 g / cm^3
# Si number density = 23.105080 Si / 1000 Ang^3
#
#
#
# Elastic Constant Matrix: (Units=GPa)
#
#
# Indices 1 2 3 4 5 6 
#
# 1 96.2145 40.2421 23.9951 3.7522 -1.6774 34.4789
# 2 40.2421 84.9323 20.8814 4.3904 5.6177 24.8076
# 3 23.9951 20.8814 88.7683 6.7431 -13.2931 24.0160
# 4 3.7522 4.3904 6.7431 26.7747 10.7544 2.3038
# 5 -1.6774 5.6177 -13.2931 10.7544 47.0275 1.6276
# 6 34.4789 24.8076 24.0160 2.3038 1.6276 37.1884
#
#
#
# Elastic Compliance Matrix: (Units=1/GPa)
#
#
# Indices 1 2 3 4 5 6 
#
# 1 0.016858 -0.004351 0.000387 -0.001437 0.002008 -0.012976
# 2 -0.004351 0.015975 -0.001363 -0.000305 -0.002184 -0.005628
# 3 0.000387 -0.001363 0.015294 -0.005309 0.006034 -0.009262
# 4 -0.001437 -0.000305 -0.005309 0.043325 -0.011520 0.002784
# 5 0.002008 -0.002184 0.006034 -0.011520 0.026100 -0.004730
# 6 -0.012976 -0.005628 -0.009262 0.002784 -0.004730 0.048690
#
#
# Mechanical properties :
#
#
# Convention : Reuss Voigt Hill
#
# Bulk Modulus (GPa) = 26.68634 48.90582 37.79608
# Shear Modulus (GPa) = 26.40099 34.51788 30.45943
#
# Velocity S-wave (km/s) = 3.38398 3.86936 3.63478
# Velocity P-wave (km/s) = 5.18107 6.41679 5.83175
#
# Compressibility (1/GPa) = 0.03747236
#
# Stress axis : x y z
#
# Youngs Moduli (GPa) = 59.31983 62.59851 65.38537
#
# Poissons Ratio (x) = 0.27237 -0.02531
# Poissons Ratio (y) = 0.25811 0.08913
# Poissons Ratio (z) = -0.02296 0.08533
#
# Static dielectric constant tensor:
#      x y z
#    x 1.955840 -0.055510 0.010530 
#    y -0.055510 1.871700 -0.005880 
#    z 0.010530 -0.005880 1.979280 
# 
# From -- ./inp_files/59206.got.cif
#   From: 2010.05.17/outbox.cif.g08.bks.cpg/sg2_30_cif.got.tgz:59206.got - 2010.06.03 11:33:40.
