data_PCOD9097851
_publ_section_title
;
Structure prediction by ZEFSAII (Michael W. Deem and Ramdas Pophale) SiO2 
 PCOD9097851
Probable space group: P -1
;
_chemical_formula_sum "Si O2"
_cell_formula_units_Z 15
_cell_length_a 18.877740
_cell_length_b 11.120055
_cell_length_c 10.057961
_cell_angle_alpha 68.535552
_cell_angle_beta 41.032709
_cell_angle_gamma 38.395043
_cell_volume 717.537720
_symmetry_space_group_name_H-M "P -1"
_symmetry_group_IT_number 2
_symmetry_cell_setting 'triclinic'
loop_
_space_group_symop_operation_xyz
x,y,z
-x,-y,-z
loop_
_atom_site_type_symbol
_atom_site_label
_atom_site_fract_x
_atom_site_fract_y
_atom_site_fract_z
Si Si1 0.874092 0.434998 0.466586
Si Si2 0.710179 0.026654 0.991918
Si Si3 0.450266 0.062304 0.391030
Si Si4 0.454879 0.376146 0.990679
Si Si5 0.208071 0.833690 0.722128
Si Si6 0.526634 0.390185 0.305292
Si Si7 0.326728 0.988016 0.380514
Si Si8 0.000000 0.500000 0.500000
O O1 0.740094 0.660199 0.475004
O O2 0.959652 0.431684 0.469155
O O3 0.729880 0.473474 0.718908
O O4 0.061194 0.195234 0.222983
O O5 0.629173 0.962390 0.111172
O O6 0.591734 0.197410 0.216696
O O7 0.641004 0.179240 0.902498
O O8 0.409404 0.972737 0.402907
O O9 0.500000 0.000000 0.500000
O O10 0.438729 0.527667 0.879890
O O11 0.494222 0.228611 0.881707
O O12 0.307903 0.625635 0.571956
O O13 0.340167 0.719671 0.711318
O O14 0.221024 0.957874 0.577553
O O15 0.000000 0.000000 0.000000
O O16 0.178542 0.231778 0.420187
#
# Coordination Sequence:
#
# PCOD9097851 Si02
#       8
#     2   2   2   2   2   2   2   1
#     4  10  23  36  62  94 122 169 209 257 323 375
#     4  11  22  40  61  91 131 163 210 265 321 380
#     4  10  23  41  61  90 126 168 211 268 316 377
#     4  10  22  38  63  92 127 165 210 266 319 375
#     4  10  23  42  66  93 122 171 214 262 317 380
#     4  10  23  41  62  92 128 167 215 260 314 383
#     4  10  21  41  65  95 126 163 216 262 318 381
#     4  10  20  36  62  90 124 156 208 262 304 374
#
# _framework density 20.904827000000001
#
# number of rings (size 3 to 8) (size 9 to 14) (size 15 to 20)
#    0.000    1.867    1.333    1.200    3.733    4.800 
#    0.000    2.667    0.000    0.000    0.000    0.000 
#    0.000    0.000    0.000    0.000    0.000    0.000 
#
# Total GULP energy -83533.044343 kJ/mol
# GULP energy per Si atom -5568.869623 kJ/mol
# Density = 2.085725 g / cm^3
# Si number density = 20.904827 Si / 1000 Ang^3
#
#
#
# Elastic Constant Matrix: (Units=GPa)
#
#
# Indices 1 2 3 4 5 6 
#
# 1 66.9472 11.2460 39.6715 7.2111 4.2718 -17.8243
# 2 11.2460 55.0334 46.6623 -3.6868 -9.5252 -13.9907
# 3 39.6715 46.6623 102.0855 32.6310 7.5008 23.2496
# 4 7.2111 -3.6868 32.6310 24.7499 -9.5476 3.5640
# 5 4.2718 -9.5252 7.5008 -9.5476 14.7996 -6.9810
# 6 -17.8243 -13.9907 23.2496 3.5640 -6.9810 30.6701
#
#
#
# Elastic Compliance Matrix: (Units=1/GPa)
#
#
# Indices 1 2 3 4 5 6 
#
# 1 0.020176 -0.007360 0.000552 -0.015539 -0.018220 0.005608
# 2 -0.007360 0.003544 0.010473 -0.015928 -0.017146 -0.012652
# 3 0.000552 0.010473 -0.003556 0.012982 0.022096 0.011315
# 4 -0.015539 -0.015928 0.012982 0.025938 -0.010490 -0.031540
# 5 -0.018220 -0.017146 0.022096 -0.010490 0.031162 -0.026848
# 6 0.005608 -0.012652 0.011315 -0.031540 -0.026848 0.019069
#
#
# Mechanical properties :
#
#
# Convention : Reuss Voigt Hill
#
# Bulk Modulus (GPa) = 36.37208 46.58062 41.47635
# Shear Modulus (GPa) = 50.93414 22.47636 36.70525
#
# Velocity S-wave (km/s) = 4.94142 3.28254 4.19480
# Velocity P-wave (km/s) = 7.07061 6.05784 6.58373
#
# Compressibility (1/GPa) = 0.02749361
#
# Stress axis : x y z
#
# Youngs Moduli (GPa) = 49.56489 282.19271 -281.19839
#
# Poissons Ratio (x) = 2.07695 0.15531
# Poissons Ratio (y) = 0.36480 2.94499
# Poissons Ratio (z) = -0.02738 -2.95541
#
# Static dielectric constant tensor:
#      x y z
#    x 1.762110 0.024540 0.029470 
#    y 0.024540 1.750180 0.004760 
#    z 0.029470 0.004760 1.763740 
# 
# From -- ./inp_files/70123.got.cif
#   From: 2010.05.17/outbox.cif.g08.bks.cpg/sg2_36_cif.got.tgz:70123.got - 2010.06.03 11:33:40.
