data_PCOD9097395
_publ_section_title
;
Structure prediction by ZEFSAII (Michael W. Deem and Ramdas Pophale) SiO2 
 PCOD9097395
Probable space group: P -1
;
_chemical_formula_sum "Si O2"
_cell_formula_units_Z 16
_cell_length_a 6.664343
_cell_length_b 12.376878
_cell_length_c 17.602409
_cell_angle_alpha 31.466442
_cell_angle_beta 124.415273
_cell_angle_gamma 125.081748
_cell_volume 610.588032
_symmetry_space_group_name_H-M "P -1"
_symmetry_group_IT_number 2
_symmetry_cell_setting 'triclinic'
loop_
_space_group_symop_operation_xyz
x,y,z
-x,-y,-z
loop_
_atom_site_type_symbol
_atom_site_label
_atom_site_fract_x
_atom_site_fract_y
_atom_site_fract_z
Si Si1 0.028808 0.422909 0.136927
Si Si2 0.070874 0.278085 0.925706
Si Si3 0.744930 0.153324 0.638061
Si Si4 0.454550 0.415258 0.323541
Si Si5 0.769979 0.860489 0.167490
Si Si6 0.490154 0.255044 0.126761
Si Si7 0.599507 0.812293 0.313498
Si Si8 0.154038 0.435926 0.388353
O O1 0.778379 0.241291 0.202538
O O2 0.297678 0.368418 0.241385
O O3 0.000000 0.500000 0.000000
O O4 0.006024 0.600916 0.088925
O O5 0.341507 0.234251 0.027022
O O6 0.879220 0.051189 0.020073
O O7 0.049312 0.430496 0.758909
O O8 0.660165 0.290162 0.471492
O O9 0.540128 0.132777 0.675395
O O10 0.999142 0.229621 0.693764
O O11 0.692787 0.902654 0.760745
O O12 0.571858 0.665329 0.208689
O O13 0.234617 0.345504 0.381184
O O14 0.669956 0.948863 0.171041
O O15 0.500000 0.500000 0.000000
O O16 0.398453 0.612830 0.357150
O O17 0.845532 0.738394 0.442357
#
# Coordination Sequence:
#
# PCOD9097395 Si02
#       8
#     2   2   2   2   2   2   2   2
#     4  10  21  37  56  82 114 151 207 243 272 342
#     4   9  19  37  60  80 116 158 188 236 312 338
#     4  10  20  37  60  89 117 151 193 239 301 352
#     4   9  19  35  58  85 115 157 187 235 301 346
#     4  10  20  36  60  90 124 150 184 245 300 360
#     4   9  20  39  57  76 112 155 190 244 286 336
#     4   9  18  32  55  83 120 149 187 232 288 355
#     4   8  16  33  52  82 114 153 187 226 291 357
#
# _framework density 26.204246999999999
#
# number of rings (size 3 to 8) (size 9 to 14) (size 15 to 20)
#    0.000    2.750    0.000    1.125    1.750    5.000 
#    4.500    1.250    0.000    2.250    0.000    0.000 
#    0.000    0.000    0.000    0.000    0.000    0.000 
#
# Total GULP energy -89248.480812 kJ/mol
# GULP energy per Si atom -5578.030051 kJ/mol
# Density = 2.614461 g / cm^3
# Si number density = 26.204247 Si / 1000 Ang^3
#
#
#
# Elastic Constant Matrix: (Units=GPa)
#
#
# Indices 1 2 3 4 5 6 
#
# 1 55.4476 13.4756 10.3795 20.5348 3.3115 -5.1934
# 2 13.4756 93.6660 51.2105 37.2101 -3.6893 25.8672
# 3 10.3795 51.2105 140.4178 39.3472 11.4723 6.4629
# 4 20.5348 37.2101 39.3472 39.9447 17.9744 8.7132
# 5 3.3115 -3.6893 11.4723 17.9744 44.8313 16.6562
# 6 -5.1934 25.8672 6.4629 8.7132 16.6562 39.7034
#
#
#
# Elastic Compliance Matrix: (Units=1/GPa)
#
#
# Indices 1 2 3 4 5 6 
#
# 1 0.024467 0.001831 0.002436 -0.019367 0.003918 0.004217
# 2 0.001831 0.035909 -0.003751 -0.037896 0.028739 -0.026285
# 3 0.002436 -0.003751 0.010615 -0.008471 -0.001047 0.003332
# 4 -0.019367 -0.037896 -0.008471 0.094321 -0.045479 0.021915
# 5 0.003918 0.028739 -0.001047 -0.045479 0.054349 -0.030861
# 6 0.004217 -0.026285 0.003332 0.021915 -0.030861 0.050458
#
#
# Mechanical properties :
#
#
# Convention : Reuss Voigt Hill
#
# Bulk Modulus (GPa) = 13.88390 48.85139 31.36764
# Shear Modulus (GPa) = 17.05935 39.19360 28.12648
#
# Velocity S-wave (km/s) = 2.55427 3.87162 3.27976
# Velocity P-wave (km/s) = 3.74284 6.21843 5.13214
#
# Compressibility (1/GPa) = 0.07202586
#
# Stress axis : x y z
#
# Youngs Moduli (GPa) = 40.87073 27.84807 94.20490
#
# Poissons Ratio (x) = -0.05100 -0.22950
# Poissons Ratio (y) = -0.07485 0.35332
# Poissons Ratio (z) = -0.09957 0.10444
#
# Static dielectric constant tensor:
#      x y z
#    x 2.254730 -0.074370 0.144010 
#    y -0.074370 2.166640 -0.137760 
#    z 0.144010 -0.137760 2.264250 
# 
# From -- ./inp_files/590246.got.cif
#   From: 2010.05.17/outbox.cif.g08.bks.cpg/sg2_296_cif.got.tgz:590246.got - 2010.06.03 11:33:40.
