data_PCOD9097987
_publ_section_title
;
Structure prediction by ZEFSAII (Michael W. Deem and Ramdas Pophale) SiO2 
 PCOD9097987
Probable space group: P -1
;
_chemical_formula_sum "Si O2"
_cell_formula_units_Z 14
_cell_length_a 9.948868
_cell_length_b 10.895445
_cell_length_c 9.548746
_cell_angle_alpha 101.819034
_cell_angle_beta 123.637823
_cell_angle_gamma 115.993264
_cell_volume 620.750899
_symmetry_space_group_name_H-M "P -1"
_symmetry_group_IT_number 2
_symmetry_cell_setting 'triclinic'
loop_
_space_group_symop_operation_xyz
x,y,z
-x,-y,-z
loop_
_atom_site_type_symbol
_atom_site_label
_atom_site_fract_x
_atom_site_fract_y
_atom_site_fract_z
Si Si1 0.314377 0.042788 0.954119
Si Si2 0.912398 0.747165 0.496542
Si Si3 0.558316 0.654315 0.481878
Si Si4 0.931755 0.824180 0.208143
Si Si5 0.777878 0.407844 0.261826
Si Si6 0.789825 0.972287 0.825950
Si Si7 0.180771 0.517915 0.020909
O O1 0.213645 0.131001 0.901413
O O2 0.570399 0.208923 0.123555
O O3 0.263445 0.965264 0.062861
O O4 0.164327 0.878470 0.727843
O O5 0.781450 0.746697 0.545360
O O6 0.937005 0.824374 0.378103
O O7 0.759772 0.545524 0.327539
O O8 0.500000 0.500000 0.500000
O O9 0.588847 0.773684 0.646727
O O10 0.393467 0.623793 0.266207
O O11 0.851053 0.647524 0.064932
O O12 0.156808 0.951142 0.279550
O O13 0.000000 0.500000 0.500000
O O14 0.808990 0.420305 0.114897
O O15 0.000000 0.000000 0.000000
O O16 0.000000 0.500000 0.000000
#
# Coordination Sequence:
#
# PCOD9097987 Si02
#       7
#     2   2   2   2   2   2   2
#     4  11  22  41  72  97 133 173 226 290 336 399
#     4  11  23  41  72  99 129 176 228 288 342 393
#     4  12  23  39  73 103 131 175 232 282 338 397
#     4  10  21  42  65 100 131 164 231 280 336 410
#     4  11  27  46  65  99 140 184 231 275 343 418
#     4  10  20  36  63 103 129 163 219 279 337 394
#     4  11  27  44  66  97 139 185 222 278 348 406
#
# _framework density 22.553329000000002
#
# number of rings (size 3 to 8) (size 9 to 14) (size 15 to 20)
#    0.000    1.143    2.857    4.714    6.000    2.857 
#    0.000    0.714    0.000    0.000    0.000    0.000 
#    0.000    0.000    0.000    0.000    0.000    0.000 
#
# Total GULP energy -77989.474418 kJ/mol
# GULP energy per Si atom -5570.676744 kJ/mol
# Density = 2.250200 g / cm^3
# Si number density = 22.553329 Si / 1000 Ang^3
#
#
#
# Elastic Constant Matrix: (Units=GPa)
#
#
# Indices 1 2 3 4 5 6 
#
# 1 85.4682 30.6828 36.4238 -8.3093 1.3625 8.2201
# 2 30.6828 53.8909 31.5423 -13.7759 13.7370 28.5833
# 3 36.4238 31.5423 146.0201 -1.2066 4.9942 14.5821
# 4 -8.3093 -13.7759 -1.2066 37.8509 8.3252 -5.9143
# 5 1.3625 13.7370 4.9942 8.3252 35.2593 -0.7149
# 6 8.2201 28.5833 14.5821 -5.9143 -0.7149 31.3758
#
#
#
# Elastic Compliance Matrix: (Units=1/GPa)
#
#
# Indices 1 2 3 4 5 6 
#
# 1 0.017367 -0.017623 -0.002008 -0.002368 0.007285 0.012158
# 2 -0.017623 0.079866 -0.005209 0.023343 -0.036469 -0.062151
# 3 -0.002008 -0.005209 0.008303 -0.002238 0.001480 0.001025
# 4 -0.002368 0.023343 -0.002238 0.036106 -0.017479 -0.013197
# 5 0.007285 -0.036469 0.001480 -0.017479 0.046781 0.028398
# 6 0.012158 -0.062151 0.001025 -0.013197 0.028398 0.082989
#
#
# Mechanical properties :
#
#
# Convention : Reuss Voigt Hill
#
# Bulk Modulus (GPa) = 17.90359 53.63079 35.76719
# Shear Modulus (GPa) = 14.71834 33.34588 24.03211
#
# Velocity S-wave (km/s) = 2.55738 3.84934 3.26785
# Velocity P-wave (km/s) = 4.08360 6.60210 5.48924
#
# Compressibility (1/GPa) = 0.05585473
#
# Stress axis : x y z
#
# Youngs Moduli (GPa) = 57.58017 12.52096 120.43686
#
# Poissons Ratio (x) = 0.22066 0.24185
# Poissons Ratio (y) = 1.01476 0.62740
# Poissons Ratio (z) = 0.11563 0.06523
#
# Static dielectric constant tensor:
#      x y z
#    x 1.901800 -0.056670 0.005990 
#    y -0.056670 1.914110 0.065040 
#    z 0.005990 0.065040 1.869830 
# 
# From -- ./inp_files/189488.got.cif
#   From: 2010.05.17/outbox.cif.g08.bks.cpg/sg2_95_cif.got.tgz:189488.got - 2010.06.03 11:33:40.
