data_PCOD9097805
_publ_section_title
;
Structure prediction by ZEFSAII (Michael W. Deem and Ramdas Pophale) SiO2 
 PCOD9097805
Probable space group: P -1
;
_chemical_formula_sum "Si O2"
_cell_formula_units_Z 16
_cell_length_a 8.976754
_cell_length_b 18.247034
_cell_length_c 5.341817
_cell_angle_alpha 115.582327
_cell_angle_beta 89.866194
_cell_angle_gamma 65.787519
_cell_volume 702.449934
_symmetry_space_group_name_H-M "P -1"
_symmetry_group_IT_number 2
_symmetry_cell_setting 'triclinic'
loop_
_space_group_symop_operation_xyz
x,y,z
-x,-y,-z
loop_
_atom_site_type_symbol
_atom_site_label
_atom_site_fract_x
_atom_site_fract_y
_atom_site_fract_z
Si Si1 0.883512 0.363665 0.872805
Si Si2 0.933992 0.783534 0.997489
Si Si3 0.372808 0.113839 0.479520
Si Si4 0.390029 0.520669 0.278038
Si Si5 0.276933 0.971158 0.373752
Si Si6 0.967431 0.076523 0.905962
Si Si7 0.808017 0.530335 0.480436
Si Si8 0.790807 0.697531 0.502793
O O1 0.764576 0.382675 0.659840
O O2 0.067119 0.349886 0.775807
O O3 0.809604 0.450238 0.186217
O O4 0.922842 0.270583 0.879420
O O5 0.896220 0.710602 0.746273
O O6 0.758279 0.845039 0.228677
O O7 0.998545 0.838824 0.897509
O O8 0.561798 0.072785 0.514392
O O9 0.331937 0.199308 0.426378
O O10 0.326581 0.032912 0.275376
O O11 0.500000 0.500000 0.500000
O O12 0.290586 0.462681 0.252960
O O13 0.500000 0.500000 0.000000
O O14 0.219641 0.900472 0.148183
O O15 0.108346 0.033554 0.623292
O O16 0.000000 0.000000 0.000000
O O17 0.725184 0.627218 0.484094
O O18 0.000000 0.500000 0.500000
#
# Coordination Sequence:
#
# PCOD9097805 Si02
#       8
#     2   2   2   2   2   2   2   2
#     4  11  22  42  68  91 133 177 229 283 347 404
#     4  10  21  38  60  93 127 171 219 279 335 399
#     4   9  20  37  62  88 128 164 209 283 331 393
#     4  12  26  45  67  98 137 178 227 286 354 408
#     4   9  19  39  59  89 122 166 215 262 336 402
#     4  10  20  36  62  88 124 169 216 261 332 413
#     4  12  23  42  72 100 127 181 236 284 335 416
#     4  11  22  37  66  97 127 164 230 280 338 401
#
# _framework density 22.777424
#
# number of rings (size 3 to 8) (size 9 to 14) (size 15 to 20)
#    0.000    1.500    3.750    1.125    0.000    2.000 
#    2.250    5.000    0.000    0.000    0.000    0.000 
#    0.000    0.000    0.000    0.000    0.000    0.000 
#
# Total GULP energy -89166.775714 kJ/mol
# GULP energy per Si atom -5572.923482 kJ/mol
# Density = 2.272558 g / cm^3
# Si number density = 22.777424 Si / 1000 Ang^3
#
#
#
# Elastic Constant Matrix: (Units=GPa)
#
#
# Indices 1 2 3 4 5 6 
#
# 1 125.1619 48.2651 17.1770 -14.8570 4.6061 -7.2401
# 2 48.2651 118.8353 4.0175 -23.5870 -8.8193 -8.0602
# 3 17.1770 4.0175 45.7621 -9.2226 2.7739 4.3489
# 4 -14.8570 -23.5870 -9.2226 32.6808 3.5424 1.5436
# 5 4.6061 -8.8193 2.7739 3.5424 21.7742 -16.9920
# 6 -7.2401 -8.0602 4.3489 1.5436 -16.9920 39.0681
#
#
#
# Elastic Compliance Matrix: (Units=1/GPa)
#
#
# Indices 1 2 3 4 5 6 
#
# 1 0.010268 -0.004138 -0.002945 0.001305 -0.004013 -0.000420
# 2 -0.004138 0.012285 0.000611 0.005927 0.009012 0.005385
# 3 -0.002945 0.000611 0.025829 0.007832 -0.009850 -0.007888
# 4 0.001305 0.005927 0.007832 0.038883 -0.008985 -0.004851
# 5 -0.004013 0.009012 -0.009850 -0.008985 0.083478 0.038874
# 6 -0.000420 0.005385 -0.007888 -0.004851 0.038874 0.044607
#
#
# Mechanical properties :
#
#
# Convention : Reuss Voigt Hill
#
# Bulk Modulus (GPa) = 28.21727 47.63092 37.92410
# Shear Modulus (GPa) = 20.82415 33.39125 27.10770
#
# Velocity S-wave (km/s) = 3.02693 3.83297 3.45354
# Velocity P-wave (km/s) = 4.96302 6.36755 5.70864
#
# Compressibility (1/GPa) = 0.03543928
#
# Stress axis : x y z
#
# Youngs Moduli (GPa) = 97.39214 81.39698 38.71645
#
# Poissons Ratio (x) = 0.33682 0.11400
# Poissons Ratio (y) = 0.40301 -0.02366
# Poissons Ratio (z) = 0.28678 -0.04975
#
# Static dielectric constant tensor:
#      x y z
#    x 1.867100 -0.000210 0.029430 
#    y -0.000210 1.952950 0.004740 
#    z 0.029430 0.004740 1.959300 
# 
# From -- ./inp_files/48613.got.cif
#   From: 2010.05.17/outbox.cif.g08.bks.cpg/sg2_25_cif.got.tgz:48613.got - 2010.06.03 11:33:40.
