data_PCOD9097370
_publ_section_title
;
Structure prediction by ZEFSAII (Michael W. Deem and Ramdas Pophale) SiO2 
 PCOD9097370
Probable space group: P -1
;
_chemical_formula_sum "Si O2"
_cell_formula_units_Z 14
_cell_length_a 14.719761
_cell_length_b 7.169307
_cell_length_c 15.438970
_cell_angle_alpha 71.128157
_cell_angle_beta 149.922490
_cell_angle_gamma 128.353708
_cell_volume 537.602792
_symmetry_space_group_name_H-M "P -1"
_symmetry_group_IT_number 2
_symmetry_cell_setting 'triclinic'
loop_
_space_group_symop_operation_xyz
x,y,z
-x,-y,-z
loop_
_atom_site_type_symbol
_atom_site_label
_atom_site_fract_x
_atom_site_fract_y
_atom_site_fract_z
Si Si1 0.032479 0.916474 0.271236
Si Si2 0.007671 0.234229 0.057149
Si Si3 0.429209 0.761280 0.420678
Si Si4 0.762641 0.064444 0.397818
Si Si5 0.692066 0.273476 0.052251
Si Si6 0.424552 0.331447 0.282735
Si Si7 0.126278 0.435033 0.485904
O O1 0.097343 0.983788 0.416141
O O2 0.796047 0.572936 0.119115
O O3 0.981297 0.051820 0.141220
O O4 0.317010 0.061020 0.455306
O O5 0.157838 0.529676 0.182134
O O6 0.203779 0.315226 0.129666
O O7 0.727775 0.988275 0.820851
O O8 0.436201 0.589407 0.522338
O O9 0.500000 0.000000 0.500000
O O10 0.792690 0.297345 0.438623
O O11 0.934855 0.192333 0.434124
O O12 0.465463 0.831389 0.151878
O O13 0.962549 0.364535 0.274721
O O14 0.500000 0.000000 0.000000
O O15 0.629058 0.505272 0.348206
#
# Coordination Sequence:
#
# PCOD9097370 Si02
#       7
#     2   2   2   2   2   2   2
#     4  10  20  36  60  89 121 158 198 246 303 361
#     4  10  24  42  62  88 125 165 203 249 303 364
#     4  11  23  40  63  89 116 155 209 259 304 358
#     4   9  18  33  57  89 125 158 198 253 301 347
#     4   9  18  33  57  89 121 159 202 245 297 354
#     4  10  21  40  63  89 125 164 201 244 304 366
#     4   9  18  34  57  89 123 160 205 248 294 357
#
# _framework density 26.041533000000001
#
# number of rings (size 3 to 8) (size 9 to 14) (size 15 to 20)
#    0.000    2.286    0.000    4.286    0.000    7.429 
#    0.000    0.714    0.000   12.857    0.000    0.000 
#    0.000    0.000    0.000    0.000    0.000    0.000 
#
# Total GULP energy -78119.276113 kJ/mol
# GULP energy per Si atom -5579.948294 kJ/mol
# Density = 2.598226 g / cm^3
# Si number density = 26.041533 Si / 1000 Ang^3
#
#
#
# Elastic Constant Matrix: (Units=GPa)
#
#
# Indices 1 2 3 4 5 6 
#
# 1 73.8053 28.2214 31.8568 21.8248 -2.0921 22.8129
# 2 28.2214 116.0599 35.1978 24.3723 -24.0412 10.5012
# 3 31.8568 35.1978 209.8398 8.8308 -47.3989 7.0851
# 4 21.8248 24.3723 8.8308 49.1273 -1.8659 -18.5025
# 5 -2.0921 -24.0412 -47.3989 -1.8659 39.5105 9.0960
# 6 22.8129 10.5012 7.0851 -18.5025 9.0960 39.7705
#
#
#
# Elastic Compliance Matrix: (Units=1/GPa)
#
#
# Indices 1 2 3 4 5 6 
#
# 1 0.031846 0.003486 -0.001009 -0.028244 0.009146 -0.034240
# 2 0.003486 0.014729 0.001232 -0.014590 0.013622 -0.016012
# 3 -0.001009 0.001232 0.007370 -0.002901 0.010509 -0.004813
# 4 -0.028244 -0.014590 -0.002901 0.060061 -0.023419 0.053869
# 5 0.009146 0.013622 0.010509 -0.023419 0.053369 -0.033817
# 6 -0.034240 -0.016012 -0.004813 0.053869 -0.033817 0.082666
#
#
# Mechanical properties :
#
#
# Convention : Reuss Voigt Hill
#
# Bulk Modulus (GPa) = 16.29631 65.58410 40.94020
# Shear Modulus (GPa) = 19.00565 45.97693 32.49129
#
# Velocity S-wave (km/s) = 2.70445 4.20637 3.53607
# Velocity P-wave (km/s) = 4.00293 6.98788 5.69447
#
# Compressibility (1/GPa) = 0.06136360
#
# Stress axis : x y z
#
# Youngs Moduli (GPa) = 31.40077 67.89141 135.67611
#
# Poissons Ratio (x) = -0.23666 0.13688
# Poissons Ratio (y) = -0.10946 -0.16711
# Poissons Ratio (z) = 0.03168 -0.08362
#
# Static dielectric constant tensor:
#      x y z
#    x 1.105670 -0.332290 0.044720 
#    y -0.332290 2.168090 -0.030260 
#    z 0.044720 -0.030260 2.019890 
# 
# From -- ./inp_files/529674.got.cif
#   From: 2010.05.17/outbox.cif.g08.bks.cpg/sg2_265_cif.got.tgz:529674.got - 2010.06.03 11:33:40.
