data_PCOD9097264
_publ_section_title
;
Structure prediction by ZEFSAII (Michael W. Deem and Ramdas Pophale) SiO2 
 PCOD9097264
Probable space group: P -1
;
_chemical_formula_sum "Si O2"
_cell_formula_units_Z 16
_cell_length_a 7.550554
_cell_length_b 7.829018
_cell_length_c 16.092618
_cell_angle_alpha 66.185148
_cell_angle_beta 47.442530
_cell_angle_gamma 56.742625
_cell_volume 585.116887
_symmetry_space_group_name_H-M "P -1"
_symmetry_group_IT_number 2
_symmetry_cell_setting 'triclinic'
loop_
_space_group_symop_operation_xyz
x,y,z
-x,-y,-z
loop_
_atom_site_type_symbol
_atom_site_label
_atom_site_fract_x
_atom_site_fract_y
_atom_site_fract_z
Si Si1 0.976739 0.078657 0.765414
Si Si2 0.770824 0.816545 0.785823
Si Si3 0.262509 0.303887 0.433270
Si Si4 0.234339 0.430329 0.722330
Si Si5 0.204470 0.100088 0.904387
Si Si6 0.613647 0.698811 0.037926
Si Si7 0.510480 0.836582 0.443412
Si Si8 0.661418 0.349862 0.193971
O O1 0.701198 0.215672 0.869063
O O2 0.194957 0.161078 0.655567
O O3 0.880531 0.989503 0.733451
O O4 0.133726 0.878058 0.809626
O O5 0.006873 0.620702 0.712700
O O6 0.482774 0.927082 0.818199
O O7 0.708206 0.740717 0.910952
O O8 0.473089 0.260780 0.451844
O O9 0.375719 0.360815 0.302955
O O10 0.000000 0.500000 0.500000
O O11 0.293800 0.068817 0.458085
O O12 0.122249 0.272573 0.826217
O O13 0.476421 0.308023 0.609008
O O14 0.308379 0.513809 0.766300
O O15 0.285195 0.187257 0.946104
O O16 0.000000 0.000000 0.000000
O O17 0.707414 0.460038 0.076898
#
# Coordination Sequence:
#
# PCOD9097264 Si02
#       8
#     2   2   2   2   2   2   2   2
#     4   9  18  35  58  81 114 154 197 235 279 341
#     4  10  22  38  59  83 120 167 202 231 284 349
#     4  10  21  41  64  87 111 147 196 241 300 361
#     4  10  23  39  56  87 125 149 197 243 294 347
#     4  10  22  37  54  84 123 156 201 248 286 326
#     4  10  20  36  60  84 115 167 208 230 278 350
#     4  10  22  38  62  89 116 147 190 250 299 345
#     4   9  20  38  59  86 115 153 196 241 291 348
#
# _framework density 27.344963
#
# number of rings (size 3 to 8) (size 9 to 14) (size 15 to 20)
#    0.000    2.250    0.000    2.250    3.500    7.500 
#    2.250    0.625    0.000    0.000    0.000    0.000 
#    0.000    0.000    0.000    0.000    0.000    0.000 
#
# Total GULP energy -89652.917532 kJ/mol
# GULP energy per Si atom -5603.307346 kJ/mol
# Density = 2.728272 g / cm^3
# Si number density = 27.344963 Si / 1000 Ang^3
#
#
#
# Elastic Constant Matrix: (Units=GPa)
#
#
# Indices 1 2 3 4 5 6 
#
# 1 81.4341 11.1913 3.7813 6.1223 -5.6696 -0.5945
# 2 11.1913 124.9685 12.3984 28.7589 -8.8329 -6.7549
# 3 3.7813 12.3984 94.2424 2.7688 -10.3195 8.8850
# 4 6.1223 28.7589 2.7688 60.3435 -1.0320 -6.2095
# 5 -5.6696 -8.8329 -10.3195 -1.0320 36.2967 16.7474
# 6 -0.5945 -6.7549 8.8850 -6.2095 16.7474 24.3618
#
#
#
# Elastic Compliance Matrix: (Units=1/GPa)
#
#
# Indices 1 2 3 4 5 6 
#
# 1 0.012644 -0.000819 0.000139 -0.001073 0.002778 -0.002152
# 2 -0.000819 0.009279 -0.001021 -0.004168 0.001262 0.000995
# 3 0.000139 -0.001021 0.012734 -0.001100 0.008441 -0.011007
# 4 -0.001073 -0.004168 -0.001100 0.019370 -0.004191 0.007038
# 5 0.002778 0.001262 0.008441 -0.004191 0.047295 -0.036242
# 6 -0.002152 0.000995 -0.011007 0.007038 -0.036242 0.071994
#
#
# Mechanical properties :
#
#
# Convention : Reuss Voigt Hill
#
# Bulk Modulus (GPa) = 31.99497 39.48745 35.74121
# Shear Modulus (GPa) = 26.71848 42.41865 34.56856
#
# Velocity S-wave (km/s) = 3.12923 3.94285 3.55937
# Velocity P-wave (km/s) = 4.97816 5.93296 5.47640
#
# Compressibility (1/GPa) = 0.03125491
#
# Stress axis : x y z
#
# Youngs Moduli (GPa) = 79.08676 107.77125 78.52975
#
# Poissons Ratio (x) = 0.08829 -0.01092
# Poissons Ratio (y) = 0.06479 0.08018
# Poissons Ratio (z) = -0.01100 0.11003
#
# Static dielectric constant tensor:
#      x y z
#    x 2.247070 0.089550 0.021860 
#    y 0.089550 2.169580 0.024840 
#    z 0.021860 0.024840 2.129010 
# 
# From -- ./inp_files/587880.got.cif
#   From: 2010.05.17/outbox.cif.g08.bks.cpg/sg2_294_cif.got.tgz:587880.got - 2010.06.03 11:33:40.
