data_PCOD9097070
_publ_section_title
;
Structure prediction by ZEFSAII (Michael W. Deem and Ramdas Pophale) SiO2 
 PCOD9097070
Probable space group: P -1
;
_chemical_formula_sum "Si O2"
_cell_formula_units_Z 16
_cell_length_a 12.223608
_cell_length_b 7.202683
_cell_length_c 10.071197
_cell_angle_alpha 62.543532
_cell_angle_beta 61.830237
_cell_angle_gamma 50.920040
_cell_volume 589.217292
_symmetry_space_group_name_H-M "P -1"
_symmetry_group_IT_number 2
_symmetry_cell_setting 'triclinic'
loop_
_space_group_symop_operation_xyz
x,y,z
-x,-y,-z
loop_
_atom_site_type_symbol
_atom_site_label
_atom_site_fract_x
_atom_site_fract_y
_atom_site_fract_z
Si Si1 0.700916 0.591888 0.360738
Si Si2 0.971923 0.171811 0.267212
Si Si3 0.750200 0.341430 0.679718
Si Si4 0.782559 0.394072 0.943272
Si Si5 0.917395 0.630771 0.639044
Si Si6 0.606228 0.086532 0.689922
Si Si7 0.504117 0.257544 0.013269
Si Si8 0.822402 0.897501 0.053001
O O1 0.721356 0.543164 0.521662
O O2 0.529357 0.731513 0.383717
O O3 0.774751 0.742827 0.218549
O O4 0.797167 0.323512 0.321610
O O5 0.004417 0.266167 0.351689
O O6 0.082480 0.881225 0.317540
O O7 0.037643 0.231478 0.081538
O O8 0.720706 0.455123 0.804773
O O9 0.649872 0.240751 0.712008
O O10 0.902496 0.461696 0.818512
O O11 0.641894 0.580307 0.050160
O O12 0.832790 0.117336 0.043912
O O13 0.000000 0.500000 0.500000
O O14 0.761092 0.874226 0.613184
O O15 0.546949 0.929550 0.846371
O O16 0.679107 0.057858 0.988282
O O17 0.500000 0.500000 0.000000
#
# Coordination Sequence:
#
# PCOD9097070 Si02
#       8
#     2   2   2   2   2   2   2   2
#     4  11  20  36  58  84 117 147 184 241 286 323
#     4  10  21  37  59  84 109 150 196 230 278 341
#     4  10  20  36  59  86 111 149 194 230 276 341
#     4   9  18  36  59  83 113 148 188 233 278 333
#     4  10  20  38  60  84 112 149 190 232 279 341
#     4   9  20  35  56  86 114 144 188 233 278 330
#     4   8  15  33  56  78 109 146 179 224 277 325
#     4   9  19  35  56  81 112 149 187 231 281 332
#
# _framework density 27.154665999999999
#
# number of rings (size 3 to 8) (size 9 to 14) (size 15 to 20)
#    0.000    2.500    0.000    1.875    0.000    3.000 
#    0.000   54.375    0.000    4.500    0.000    0.000 
#    0.000    0.000    0.000    0.000    0.000    0.000 
#
# Total GULP energy -89087.619452 kJ/mol
# GULP energy per Si atom -5567.976216 kJ/mol
# Density = 2.709286 g / cm^3
# Si number density = 27.154666 Si / 1000 Ang^3
#
#
#
# Elastic Constant Matrix: (Units=GPa)
#
#
# Indices 1 2 3 4 5 6 
#
# 1 87.2868 46.2979 27.9694 2.3372 -1.5419 -13.1079
# 2 46.2979 114.5557 20.1688 1.1423 9.7951 -23.6492
# 3 27.9694 20.1688 112.7251 -31.3982 11.9081 -1.1278
# 4 2.3372 1.1423 -31.3982 51.1576 -2.4138 -6.9693
# 5 -1.5419 9.7951 11.9081 -2.4138 38.7401 -5.9097
# 6 -13.1079 -23.6492 -1.1278 -6.9693 -5.9097 57.4357
#
#
#
# Elastic Compliance Matrix: (Units=1/GPa)
#
#
# Indices 1 2 3 4 5 6 
#
# 1 0.016178 -0.005827 -0.004096 -0.002797 0.003388 0.001222
# 2 -0.005827 0.012072 -0.000372 0.000103 -0.002649 0.003373
# 3 -0.004096 -0.000372 0.012442 0.007632 -0.003460 -0.000274
# 4 -0.002797 0.000103 0.007632 0.024669 -0.000566 0.002489
# 5 0.003388 -0.002649 -0.003460 -0.000566 0.028016 0.002429
# 6 0.001222 0.003373 -0.000274 0.002489 0.002429 0.019625
#
#
# Mechanical properties :
#
#
# Convention : Reuss Voigt Hill
#
# Bulk Modulus (GPa) = 49.74581 55.93775 52.84178
# Shear Modulus (GPa) = 35.63972 44.14211 39.89091
#
# Velocity S-wave (km/s) = 3.62673 4.03622 3.83695
# Velocity P-wave (km/s) = 5.99139 6.50891 6.25550
#
# Compressibility (1/GPa) = 0.02010220
#
# Stress axis : x y z
#
# Youngs Moduli (GPa) = 61.81307 82.83909 80.36993
#
# Poissons Ratio (x) = 0.48268 0.32921
# Poissons Ratio (y) = 0.36017 0.02989
# Poissons Ratio (z) = 0.25320 0.03081
#
# Static dielectric constant tensor:
#      x y z
#    x 1.934830 -0.613340 -0.616390 
#    y -0.613340 2.092280 0.010100 
#    z -0.616390 0.010100 2.377980 
# 
# From -- ./inp_files/527242.got.cif
#   From: 2010.05.17/outbox.cif.g08.bks.cpg/sg2_264_cif.got.tgz:527242.got - 2010.06.03 11:33:40.
