data_PCOD9097035
_publ_section_title
;
Structure prediction by ZEFSAII (Michael W. Deem and Ramdas Pophale) SiO2 
 PCOD9097035
Probable space group: P -1
;
_chemical_formula_sum "Si O2"
_cell_formula_units_Z 15
_cell_length_a 7.826189
_cell_length_b 15.543548
_cell_length_c 5.767316
_cell_angle_alpha 94.208456
_cell_angle_beta 121.664085
_cell_angle_gamma 90.723686
_cell_volume 594.446547
_symmetry_space_group_name_H-M "P -1"
_symmetry_group_IT_number 2
_symmetry_cell_setting 'triclinic'
loop_
_space_group_symop_operation_xyz
x,y,z
-x,-y,-z
loop_
_atom_site_type_symbol
_atom_site_label
_atom_site_fract_x
_atom_site_fract_y
_atom_site_fract_z
Si Si1 0.591415 0.184073 0.740602
Si Si2 0.571207 0.370420 0.676131
Si Si3 0.844116 0.095882 0.539637
Si Si4 0.684170 0.485128 0.388635
Si Si5 0.257716 0.069763 0.292110
Si Si6 0.500000 0.000000 0.000000
Si Si7 0.993304 0.204875 0.297547
Si Si8 0.032107 0.603932 0.789554
O O1 0.489931 0.273534 0.647673
O O2 0.720418 0.164694 0.603098
O O3 0.428145 0.102660 0.619198
O O4 0.755265 0.196983 0.060958
O O5 0.558203 0.409435 0.418377
O O6 0.460616 0.439364 0.767433
O O7 0.811635 0.370282 0.891089
O O8 0.018590 0.152190 0.543550
O O9 0.862811 0.016065 0.714413
O O10 0.713145 0.047528 0.238260
O O11 0.825428 0.442981 0.297193
O O12 0.842164 0.538345 0.685076
O O13 0.117783 0.150355 0.192993
O O14 0.381504 0.050478 0.147453
O O15 0.041598 0.306937 0.349489
#
# Coordination Sequence:
#
# PCOD9097035 Si02
#       8
#     2   2   2   2   2   1   2   2
#     4  10  22  39  57  85 120 153 197 244 289 345
#     4  10  20  36  59  84 115 154 191 234 286 345
#     4  11  21  38  60  85 118 155 196 244 290 343
#     4  10  20  36  59  85 115 152 191 233 288 346
#     4  11  23  40  61  85 117 158 198 241 294 345
#     4  10  22  40  60  84 114 152 198 246 290 344
#     4  11  23  38  60  88 118 154 197 242 292 347
#     4  10  21  37  57  86 118 148 189 240 287 345
#
# _framework density 25.233557000000001
#
# number of rings (size 3 to 8) (size 9 to 14) (size 15 to 20)
#    0.000    1.600    0.000    6.000    0.000    3.200 
#    0.000    2.000    0.000   20.800    0.000    0.000 
#    0.000    0.000    0.000    0.000    0.000    0.000 
#
# Total GULP energy -83574.460925 kJ/mol
# GULP energy per Si atom -5571.630728 kJ/mol
# Density = 2.517612 g / cm^3
# Si number density = 25.233557 Si / 1000 Ang^3
#
#
#
# Elastic Constant Matrix: (Units=GPa)
#
#
# Indices 1 2 3 4 5 6 
#
# 1 100.0388 46.9990 -9.7427 -18.2654 -8.5935 -23.3554
# 2 46.9990 172.1205 3.4504 -9.2440 -7.8201 -15.3787
# 3 -9.7427 3.4504 22.9139 0.1205 16.6193 2.0713
# 4 -18.2654 -9.2440 0.1205 14.7431 -0.5335 2.6530
# 5 -8.5935 -7.8201 16.6193 -0.5335 33.7846 -4.3967
# 6 -23.3554 -15.3787 2.0713 2.6530 -4.3967 40.3958
#
#
#
# Elastic Compliance Matrix: (Units=1/GPa)
#
#
# Indices 1 2 3 4 5 6 
#
# 1 0.017225 -0.003053 0.005307 0.018102 0.002338 0.007590
# 2 -0.003053 0.007076 -0.005104 0.000547 0.003582 0.001544
# 3 0.005307 -0.005104 0.074278 0.002664 -0.037228 -0.006910
# 4 0.018102 0.000547 0.002664 0.089833 0.005521 0.005239
# 5 0.002338 0.003582 -0.037228 0.005521 0.050696 0.009779
# 6 0.007590 0.001544 -0.006910 0.005239 0.009779 0.030806
#
#
# Mechanical properties :
#
#
# Convention : Reuss Voigt Hill
#
# Bulk Modulus (GPa) = 10.76666 41.83184 26.29925
# Shear Modulus (GPa) = 16.30920 34.74245 25.52582
#
# Velocity S-wave (km/s) = 2.54506 3.71460 3.18399
# Velocity P-wave (km/s) = 3.59340 5.91705 4.89510
#
# Compressibility (1/GPa) = 0.09287933
#
# Stress axis : x y z
#
# Youngs Moduli (GPa) = 58.05397 141.32242 13.46285
#
# Poissons Ratio (x) = 0.43151 -0.07145
# Poissons Ratio (y) = 0.17726 0.06871
# Poissons Ratio (z) = -0.30809 0.72129
#
# Static dielectric constant tensor:
#      x y z
#    x 1.943800 0.024480 0.037420 
#    y 0.024480 2.143740 -0.219930 
#    z 0.037420 -0.219930 2.287350 
# 
# From -- ./inp_files/39515.got.cif
#   From: 2010.05.17/outbox.cif.g08.bks.cpg/sg2_20_cif.got.tgz:39515.got - 2010.06.03 11:33:40.
