data_PCOD9097983
_publ_section_title
;
Structure prediction by ZEFSAII (Michael W. Deem and Ramdas Pophale) SiO2 
 PCOD9097983
Probable space group: P -1
;
_chemical_formula_sum "Si O2"
_cell_formula_units_Z 16
_cell_length_a 15.039955
_cell_length_b 21.559315
_cell_length_c 12.957707
_cell_angle_alpha 156.256585
_cell_angle_beta 40.184015
_cell_angle_gamma 156.351543
_cell_volume 602.053753
_symmetry_space_group_name_H-M "P -1"
_symmetry_group_IT_number 2
_symmetry_cell_setting 'triclinic'
loop_
_space_group_symop_operation_xyz
x,y,z
-x,-y,-z
loop_
_atom_site_type_symbol
_atom_site_label
_atom_site_fract_x
_atom_site_fract_y
_atom_site_fract_z
Si Si1 0.098125 0.937336 0.122008
Si Si2 0.630413 0.495070 0.203680
Si Si3 0.514038 0.816629 0.629561
Si Si4 0.678065 0.147374 0.313263
Si Si5 0.853854 0.875741 0.836031
Si Si6 0.182455 0.497461 0.783842
Si Si7 0.909025 0.458358 0.275429
Si Si8 0.363437 0.406553 0.871098
O O1 0.895389 0.759582 0.118825
O O2 0.288727 0.253856 0.461044
O O3 0.989986 0.899084 0.050135
O O4 0.212148 0.878834 0.903651
O O5 0.383800 0.240933 0.104161
O O6 0.845913 0.584572 0.195881
O O7 0.555917 0.416849 0.030621
O O8 0.368349 0.740952 0.541164
O O9 0.305121 0.627702 0.617151
O O10 0.639062 0.769300 0.435653
O O11 0.740268 0.147441 0.948565
O O12 0.861844 0.335342 0.533631
O O13 0.405702 0.828428 0.096099
O O14 0.775310 0.633044 0.500354
O O15 0.000000 0.000000 0.000000
O O16 0.015579 0.416061 0.715814
O O17 0.500000 0.500000 0.000000
#
# Coordination Sequence:
#
# PCOD9097983 Si02
#       8
#     2   2   2   2   2   2   2   2
#     4  11  22  39  65 102 135 175 221 290 341 397
#     4  11  22  41  63 100 141 179 224 288 344 409
#     4  10  24  41  65 100 142 179 230 282 341 413
#     4  11  20  41  70 104 134 178 238 280 336 405
#     4  11  19  34  64  99 133 176 228 281 335 398
#     4  10  20  36  63 101 131 169 228 288 329 395
#     4  10  21  38  68  99 134 179 236 283 333 399
#     4  12  26  45  65 101 143 178 222 286 359 411
#
# _framework density 26.575700999999999
#
# number of rings (size 3 to 8) (size 9 to 14) (size 15 to 20)
#    0.000    1.250    2.500    4.500    3.500    0.000 
#    2.250    0.000    0.000   15.000    6.500    0.000 
#    0.000    0.000    0.000    0.000    0.000    0.000 
#
# Total GULP energy -89458.019398 kJ/mol
# GULP energy per Si atom -5591.126212 kJ/mol
# Density = 2.651521 g / cm^3
# Si number density = 26.575701 Si / 1000 Ang^3
#
#
#
# Elastic Constant Matrix: (Units=GPa)
#
#
# Indices 1 2 3 4 5 6 
#
# 1 217.9188 21.7020 53.3600 -16.1194 40.9772 -23.8143
# 2 21.7020 56.9941 18.4219 -14.9838 -6.5270 -5.5669
# 3 53.3600 18.4219 85.2583 1.5882 14.9780 4.8880
# 4 -16.1194 -14.9838 1.5882 25.3562 8.4459 -1.2190
# 5 40.9772 -6.5270 14.9780 8.4459 55.5853 2.1372
# 6 -23.8143 -5.5669 4.8880 -1.2190 2.1372 29.5674
#
#
#
# Elastic Compliance Matrix: (Units=1/GPa)
#
#
# Indices 1 2 3 4 5 6 
#
# 1 0.008595 0.000797 -0.005065 0.008857 -0.006560 0.008749
# 2 0.000797 0.024186 -0.006658 0.015044 0.001499 0.006808
# 3 -0.005065 -0.006658 0.016983 -0.008632 0.000014 -0.008498
# 4 0.008857 0.015044 -0.008632 0.059202 -0.011998 0.014701
# 5 -0.006560 0.001499 0.000014 -0.011998 0.025102 -0.007312
# 6 0.008749 0.006808 -0.008498 0.014701 -0.007312 0.044689
#
#
# Mechanical properties :
#
#
# Convention : Reuss Voigt Hill
#
# Bulk Modulus (GPa) = 35.82969 60.79321 48.31145
# Shear Modulus (GPa) = 23.81908 39.88095 31.85002
#
# Velocity S-wave (km/s) = 2.99703 3.87803 3.46564
# Velocity P-wave (km/s) = 5.04853 6.55571 5.85085
#
# Compressibility (1/GPa) = 0.02790981
#
# Stress axis : x y z
#
# Youngs Moduli (GPa) = 116.35247 41.34593 58.88081
#
# Poissons Ratio (x) = -0.03293 0.29825
# Poissons Ratio (y) = -0.09268 0.39205
# Poissons Ratio (z) = 0.58936 0.27530
#
# Static dielectric constant tensor:
#      x y z
#    x 2.204420 0.000350 0.094370 
#    y 0.000350 2.102220 -0.006920 
#    z 0.094370 -0.006920 2.102980 
# 
# From -- ./inp_files/457544.got.cif
#   From: 2010.05.17/outbox.cif.g08.bks.cpg/sg2_229_cif.got.tgz:457544.got - 2010.06.03 11:33:40.
