data_PCOD9097112
_publ_section_title
;
Structure prediction by ZEFSAII (Michael W. Deem and Ramdas Pophale) SiO2 
 PCOD9097112
Probable space group: P -1
;
_chemical_formula_sum "Si O2"
_cell_formula_units_Z 16
_cell_length_a 10.184689
_cell_length_b 10.881635
_cell_length_c 8.951575
_cell_angle_alpha 51.436255
_cell_angle_beta 103.599150
_cell_angle_gamma 118.205617
_cell_volume 681.048577
_symmetry_space_group_name_H-M "P -1"
_symmetry_group_IT_number 2
_symmetry_cell_setting 'triclinic'
loop_
_space_group_symop_operation_xyz
x,y,z
-x,-y,-z
loop_
_atom_site_type_symbol
_atom_site_label
_atom_site_fract_x
_atom_site_fract_y
_atom_site_fract_z
Si Si1 0.854029 0.488738 0.310049
Si Si2 0.823786 0.317604 0.141281
Si Si3 0.285422 0.490863 0.267230
Si Si4 0.603887 0.940408 0.409913
Si Si5 0.706566 0.226609 0.715865
Si Si6 0.925100 0.159295 0.010675
Si Si7 0.110982 0.104236 0.587088
Si Si8 0.488135 0.597985 0.776438
O O1 0.907020 0.411096 0.241865
O O2 0.835987 0.364905 0.539813
O O3 0.683020 0.455722 0.264195
O O4 0.949100 0.694484 0.165478
O O5 0.684269 0.146250 0.295020
O O6 0.770356 0.446711 0.943327
O O7 0.907828 0.252916 0.090042
O O8 0.324117 0.647667 0.272621
O O9 0.159967 0.308910 0.433619
O O10 0.429321 0.459858 0.286493
O O11 0.446134 0.883222 0.328677
O O12 0.730213 0.907427 0.377664
O O13 0.572393 0.809010 0.640500
O O14 0.772917 0.114463 0.911925
O O15 0.955105 0.999275 0.198878
O O16 0.000000 0.000000 0.500000
O O17 0.500000 0.500000 0.000000
#
# Coordination Sequence:
#
# PCOD9097112 Si02
#       8
#     2   2   2   2   2   2   2   2
#     4  11  21  37  63  90 124 155 206 246 304 349
#     4  10  20  38  65  90 116 159 206 255 290 352
#     4  10  21  40  64  87 121 161 204 238 312 354
#     4   9  22  38  60  90 122 154 207 243 303 349
#     4  10  23  41  62  87 124 164 196 248 297 368
#     4  10  22  39  63  89 122 159 200 247 303 358
#     4  10  21  37  62  91 120 155 200 255 294 356
#     4  10  20  36  59  87 121 154 192 252 293 353
#
# _framework density 23.493186000000001
#
# number of rings (size 3 to 8) (size 9 to 14) (size 15 to 20)
#    0.000    2.000    1.250    1.500    1.750   14.000 
#    0.000    0.625    0.000    0.000    0.000    0.000 
#    0.000    0.000    0.000    0.000    0.000    0.000 
#
# Total GULP energy -89367.816400 kJ/mol
# GULP energy per Si atom -5585.488525 kJ/mol
# Density = 2.343971 g / cm^3
# Si number density = 23.493186 Si / 1000 Ang^3
#
#
#
# Elastic Constant Matrix: (Units=GPa)
#
#
# Indices 1 2 3 4 5 6 
#
# 1 62.3189 5.1280 21.2632 -7.8903 1.6180 8.7631
# 2 5.1280 58.5243 38.8983 -27.0315 0.7469 11.7951
# 3 21.2632 38.8983 186.3493 -28.8689 13.1461 16.8320
# 4 -7.8903 -27.0315 -28.8689 40.5592 -1.4514 -14.1578
# 5 1.6180 0.7469 13.1461 -1.4514 33.0200 -1.2255
# 6 8.7631 11.7951 16.8320 -14.1578 -1.2255 27.0853
#
#
#
# Elastic Compliance Matrix: (Units=1/GPa)
#
#
# Indices 1 2 3 4 5 6 
#
# 1 0.017293 0.001062 -0.001555 0.001431 -0.000351 -0.004359
# 2 0.001062 0.026384 -0.003235 0.014827 0.001216 -0.002017
# 3 -0.001555 -0.003235 0.006809 0.001770 -0.002540 -0.001509
# 4 0.001431 0.014827 0.001770 0.040777 0.001178 0.013348
# 5 -0.000351 0.001216 -0.002540 0.001178 0.031456 0.003201
# 6 -0.004359 -0.002017 -0.001509 0.013348 0.003201 0.047269
#
#
# Mechanical properties :
#
#
# Convention : Reuss Voigt Hill
#
# Bulk Modulus (GPa) = 23.23958 48.64127 35.94042
# Shear Modulus (GPa) = 26.07086 36.25977 31.16532
#
# Velocity S-wave (km/s) = 3.33486 3.93290 3.64616
# Velocity P-wave (km/s) = 4.97412 6.43218 5.74956
#
# Compressibility (1/GPa) = 0.04303004
#
# Stress axis : x y z
#
# Youngs Moduli (GPa) = 57.82740 37.90243 146.87296
#
# Poissons Ratio (x) = -0.04026 0.22834
# Poissons Ratio (y) = -0.06142 0.47514
# Poissons Ratio (z) = 0.08990 0.12262
#
# Static dielectric constant tensor:
#      x y z
#    x 1.908850 -0.015580 -0.024060 
#    y -0.015580 1.893040 -0.008440 
#    z -0.024060 -0.008440 1.954230 
# 
# From -- ./inp_files/261686.got.cif
#   From: 2010.05.17/outbox.cif.g08.bks.cpg/sg2_131_cif.got.tgz:261686.got - 2010.06.03 11:33:40.
