data_PCOD9097614
_publ_section_title
;
Structure prediction by ZEFSAII (Michael W. Deem and Ramdas Pophale) SiO2 
 PCOD9097614
Probable space group: P -1
;
_chemical_formula_sum "Si O2"
_cell_formula_units_Z 14
_cell_length_a 14.605579
_cell_length_b 9.048090
_cell_length_c 7.893863
_cell_angle_alpha 97.275872
_cell_angle_beta 51.008989
_cell_angle_gamma 130.772937
_cell_volume 537.684136
_symmetry_space_group_name_H-M "P -1"
_symmetry_group_IT_number 2
_symmetry_cell_setting 'triclinic'
loop_
_space_group_symop_operation_xyz
x,y,z
-x,-y,-z
loop_
_atom_site_type_symbol
_atom_site_label
_atom_site_fract_x
_atom_site_fract_y
_atom_site_fract_z
Si Si1 0.268485 0.902537 0.762665
Si Si2 0.016038 0.697068 0.497857
Si Si3 0.743486 0.642735 0.990244
Si Si4 0.815279 0.887491 0.262190
Si Si5 0.731560 0.558362 0.554687
Si Si6 0.349055 0.153877 0.048596
Si Si7 0.359504 0.700938 0.722894
O O1 0.169110 0.922319 0.760642
O O2 0.315379 0.037355 0.894867
O O3 0.446790 0.046324 0.468898
O O4 0.213835 0.693660 0.874163
O O5 0.000000 0.500000 0.500000
O O6 0.922277 0.719686 0.747690
O O7 0.905410 0.650222 0.452027
O O8 0.220204 0.939072 0.287922
O O9 0.703244 0.708324 0.212422
O O10 0.720282 0.742749 0.885486
O O11 0.631434 0.394257 0.138158
O O12 0.758991 0.753536 0.481357
O O13 0.000000 0.000000 0.000000
O O14 0.560707 0.365704 0.843832
O O15 0.684665 0.432948 0.413972
#
# Coordination Sequence:
#
# PCOD9097614 Si02
#       7
#     2   2   2   2   2   2   2
#     4   9  17  33  59  89 119 148 188 245 294 335
#     4  12  26  42  59  85 122 158 195 245 299 350
#     4  10  21  38  59  85 120 157 193 240 294 344
#     4  10  20  36  61  90 118 152 198 242 285 346
#     4  10  22  40  63  88 116 157 200 239 291 352
#     4  10  21  40  62  86 119 156 198 243 290 350
#     4   9  18  35  61  89 115 149 193 240 291 346
#
# _framework density 26.037592
#
# number of rings (size 3 to 8) (size 9 to 14) (size 15 to 20)
#    0.000    2.000    0.000    3.857    0.000    5.714 
#    0.000    5.000    0.000    1.714    0.000    0.000 
#    0.000    0.000    0.000    0.000    0.000    0.000 
#
# Total GULP energy -77937.981544 kJ/mol
# GULP energy per Si atom -5566.998682 kJ/mol
# Density = 2.597833 g / cm^3
# Si number density = 26.037592 Si / 1000 Ang^3
#
#
#
# Elastic Constant Matrix: (Units=GPa)
#
#
# Indices 1 2 3 4 5 6 
#
# 1 78.4235 38.3106 8.2842 11.3897 10.5263 -25.0857
# 2 38.3106 122.1980 23.5181 -7.3057 2.9228 -40.8051
# 3 8.2842 23.5181 86.5748 -16.2357 6.0695 -5.6472
# 4 11.3897 -7.3057 -16.2357 32.9199 2.7869 2.9005
# 5 10.5263 2.9228 6.0695 2.7869 45.1200 2.8997
# 6 -25.0857 -40.8051 -5.6472 2.9005 2.8997 49.7532
#
#
#
# Elastic Compliance Matrix: (Units=1/GPa)
#
#
# Indices 1 2 3 4 5 6 
#
# 1 0.018643 -0.003611 -0.001647 -0.008353 -0.003825 0.006961
# 2 -0.003611 0.012585 -0.002080 0.002329 -0.000361 0.008150
# 3 -0.001647 -0.002080 0.013635 0.007089 -0.001669 -0.001304
# 4 -0.008353 0.002329 0.007089 0.037705 -0.001252 -0.003622
# 5 -0.003825 -0.000361 -0.001669 -0.001252 0.023620 -0.003718
# 6 0.006961 0.008150 -0.001304 -0.003622 -0.003718 0.030573
#
#
# Mechanical properties :
#
#
# Convention : Reuss Voigt Hill
#
# Bulk Modulus (GPa) = 33.12717 47.49132 40.30925
# Shear Modulus (GPa) = 30.96008 40.03085 35.49546
#
# Velocity S-wave (km/s) = 3.45201 3.92525 3.69621
# Velocity P-wave (km/s) = 5.35153 6.23078 5.80782
#
# Compressibility (1/GPa) = 0.03018670
#
# Stress axis : x y z
#
# Youngs Moduli (GPa) = 53.64065 79.45797 73.34287
#
# Poissons Ratio (x) = 0.28693 0.12081
# Poissons Ratio (y) = 0.19370 0.15252
# Poissons Ratio (z) = 0.08836 0.16524
#
# Static dielectric constant tensor:
#      x y z
#    x 3.259060 -0.227680 0.260200 
#    y -0.227680 2.230910 -0.071460 
#    z 0.260200 -0.071460 2.190830 
# 
# From -- ./inp_files/154309.got.cif
#   From: 2010.05.17/outbox.cif.g08.bks.cpg/sg2_78_cif.got.tgz:154309.got - 2010.06.03 11:33:40.
