data_PCOD9097176
_publ_section_title
;
Structure prediction by ZEFSAII (Michael W. Deem and Ramdas Pophale) SiO2 
 PCOD9097176
Probable space group: P -1
;
_chemical_formula_sum "Si O2"
_cell_formula_units_Z 14
_cell_length_a 12.189710
_cell_length_b 16.767213
_cell_length_c 7.423564
_cell_angle_alpha 127.368342
_cell_angle_beta 38.722130
_cell_angle_gamma 143.340713
_cell_volume 565.953226
_symmetry_space_group_name_H-M "P -1"
_symmetry_group_IT_number 2
_symmetry_cell_setting 'triclinic'
loop_
_space_group_symop_operation_xyz
x,y,z
-x,-y,-z
loop_
_atom_site_type_symbol
_atom_site_label
_atom_site_fract_x
_atom_site_fract_y
_atom_site_fract_z
Si Si1 0.219414 0.640098 0.119247
Si Si2 0.117306 0.032679 0.186630
Si Si3 0.532833 0.476228 0.722054
Si Si4 0.446035 0.925009 0.280503
Si Si5 0.797038 0.367778 0.277359
Si Si6 0.329503 0.092040 0.596090
Si Si7 0.700582 0.700205 0.543149
O O1 0.274266 0.766271 0.313107
O O2 0.036828 0.492316 0.232494
O O3 0.146371 0.644009 0.014963
O O4 0.457290 0.668710 0.833571
O O5 0.122840 0.142286 0.429714
O O6 0.303666 0.027342 0.034673
O O7 0.237186 0.084737 0.904397
O O8 0.845058 0.913105 0.319585
O O9 0.666240 0.423407 0.502314
O O10 0.687300 0.613578 0.599796
O O11 0.313940 0.365044 0.717512
O O12 0.500000 0.500000 0.000000
O O13 0.500000 0.000000 0.500000
O O14 0.325122 0.971015 0.393047
O O15 0.601519 0.222826 0.410400
#
# Coordination Sequence:
#
# PCOD9097176 Si02
#       7
#     2   2   2   2   2   2   2
#     4   9  20  40  62  83 124 163 206 262 320 374
#     4   9  19  38  61  87 128 166 210 263 320 388
#     4  10  20  36  59  90 125 158 211 259 314 389
#     4   9  19  38  60  85 121 165 209 256 320 383
#     4  10  21  38  60  91 120 161 210 261 315 383
#     4  10  20  36  63  91 124 168 213 260 324 383
#     4   9  19  38  62  86 124 169 203 264 325 371
#
# _framework density 24.737026
#
# number of rings (size 3 to 8) (size 9 to 14) (size 15 to 20)
#    0.000    2.571    0.000    0.857    2.000    0.571 
#    5.143   16.429    0.000    0.000    0.000    0.000 
#    0.000    0.000    0.000    0.000    0.000    0.000 
#
# Total GULP energy -78091.698073 kJ/mol
# GULP energy per Si atom -5577.978434 kJ/mol
# Density = 2.468072 g / cm^3
# Si number density = 24.737026 Si / 1000 Ang^3
#
#
#
# Elastic Constant Matrix: (Units=GPa)
#
#
# Indices 1 2 3 4 5 6 
#
# 1 76.0723 2.1855 43.6071 7.6150 11.1162 3.2940
# 2 2.1855 122.9129 88.7137 -0.4560 3.6302 8.0984
# 3 43.6071 88.7137 219.4293 9.4525 34.9108 -25.0402
# 4 7.6150 -0.4560 9.4525 51.4921 2.2160 -4.8420
# 5 11.1162 3.6302 34.9108 2.2160 41.2396 4.7099
# 6 3.2940 8.0984 -25.0402 -4.8420 4.7099 36.7202
#
#
#
# Elastic Compliance Matrix: (Units=1/GPa)
#
#
# Indices 1 2 3 4 5 6 
#
# 1 0.016835 0.004493 -0.006053 -0.002048 0.001105 -0.007041
# 2 0.004493 0.015419 -0.009461 -0.000127 0.006719 -0.011134
# 3 -0.006053 -0.009461 0.012516 0.000091 -0.009552 0.012402
# 4 -0.002048 -0.000127 0.000091 0.020031 -0.000937 0.003035
# 5 0.001105 0.006719 -0.009552 -0.000937 0.032917 -0.012440
# 6 -0.007041 -0.011134 0.012402 0.003035 -0.012440 0.040773
#
#
# Mechanical properties :
#
#
# Convention : Reuss Voigt Hill
#
# Bulk Modulus (GPa) = 43.99762 76.38080 60.18921
# Shear Modulus (GPa) = 29.74282 44.81760 37.28021
#
# Velocity S-wave (km/s) = 3.47127 4.26110 3.88630
# Velocity P-wave (km/s) = 5.82160 7.42653 6.67250
#
# Compressibility (1/GPa) = 0.02272850
#
# Stress axis : x y z
#
# Youngs Moduli (GPa) = 59.40156 64.85519 79.89683
#
# Poissons Ratio (x) = -0.29141 0.48363
# Poissons Ratio (y) = -0.26691 0.75588
# Poissons Ratio (z) = 0.35957 0.61358
#
# Static dielectric constant tensor:
#      x y z
#    x 2.081370 0.004880 0.030280 
#    y 0.004880 2.090440 -0.063690 
#    z 0.030280 -0.063690 1.998970 
# 
# From -- ./inp_files/319076.got.cif
#   From: 2010.05.17/outbox.cif.g08.bks.cpg/sg2_160_cif.got.tgz:319076.got - 2010.06.03 11:33:40.
