data_PCOD9097364
_publ_section_title
;
Structure prediction by ZEFSAII (Michael W. Deem and Ramdas Pophale) SiO2 
 PCOD9097364
Probable space group: P -1
;
_chemical_formula_sum "Si O2"
_cell_formula_units_Z 16
_cell_length_a 13.979272
_cell_length_b 7.304553
_cell_length_c 26.095542
_cell_angle_alpha 129.646407
_cell_angle_beta 158.195283
_cell_angle_gamma 48.141985
_cell_volume 735.537613
_symmetry_space_group_name_H-M "P -1"
_symmetry_group_IT_number 2
_symmetry_cell_setting 'triclinic'
loop_
_space_group_symop_operation_xyz
x,y,z
-x,-y,-z
loop_
_atom_site_type_symbol
_atom_site_label
_atom_site_fract_x
_atom_site_fract_y
_atom_site_fract_z
Si Si1 0.644500 0.801548 0.223679
Si Si2 0.768580 0.256144 0.321218
Si Si3 0.882427 0.937314 0.136632
Si Si4 0.059959 0.560805 0.310699
Si Si5 0.659009 0.810711 0.353437
Si Si6 0.669813 0.986143 0.682721
Si Si7 0.378647 0.391210 0.987145
Si Si8 0.149623 0.026568 0.387644
O O1 0.929668 0.633009 0.314337
O O2 0.639833 0.844734 0.289456
O O3 0.609763 0.059762 0.222939
O O4 0.440566 0.644772 0.078416
O O5 0.624354 0.541667 0.303458
O O6 0.039967 0.198126 0.480066
O O7 0.883260 0.203622 0.311225
O O8 0.071874 0.909176 0.176741
O O9 0.751600 0.721850 0.050456
O O10 0.644657 0.186345 0.065485
O O11 0.085401 0.965125 0.287906
O O12 0.819748 0.581626 0.154439
O O13 0.238968 0.288252 0.344056
O O14 0.190438 0.775209 0.395952
O O15 0.439865 0.002637 0.312028
O O16 0.406078 0.124552 0.543915
#
# Coordination Sequence:
#
# PCOD9097364 Si02
#       8
#     2   2   2   2   2   2   2   2
#     4  11  20  38  64  85 110 162 206 241 289 351
#     4   9  20  38  62  85 120 159 202 241 290 360
#     4  10  20  36  60  89 119 154 196 249 303 345
#     4  10  21  37  61  89 116 152 200 248 295 348
#     4  10  22  40  57  88 124 156 197 245 297 363
#     4  11  21  37  58  89 127 148 185 254 313 346
#     4  10  21  38  61  87 116 154 208 248 279 358
#     4   9  19  36  60  93 116 149 197 248 299 359
#
# _framework density 21.752796
#
# number of rings (size 3 to 8) (size 9 to 14) (size 15 to 20)
#    0.000    2.000    1.250    2.250    0.000    1.000 
#    6.750    1.250    0.000    0.000    0.000    0.000 
#    0.000    0.000    0.000    0.000    0.000    0.000 
#
# Total GULP energy -89401.558331 kJ/mol
# GULP energy per Si atom -5587.597396 kJ/mol
# Density = 2.170329 g / cm^3
# Si number density = 21.752796 Si / 1000 Ang^3
#
#
#
# Elastic Constant Matrix: (Units=GPa)
#
#
# Indices 1 2 3 4 5 6 
#
# 1 82.3996 14.1568 29.4616 -7.7958 7.5230 -21.9397
# 2 14.1568 64.4180 7.9487 18.3447 12.3864 -2.5210
# 3 29.4616 7.9487 75.8828 6.9475 24.0564 5.0833
# 4 -7.7958 18.3447 6.9475 29.2780 0.0583 6.0224
# 5 7.5230 12.3864 24.0564 0.0583 23.2040 3.3026
# 6 -21.9397 -2.5210 5.0833 6.0224 3.3026 26.5685
#
#
#
# Elastic Compliance Matrix: (Units=1/GPa)
#
#
# Indices 1 2 3 4 5 6 
#
# 1 0.022553 -0.006696 -0.012081 0.009482 0.006291 0.017369
# 2 -0.006696 0.025763 0.007984 -0.020293 -0.020163 0.002494
# 3 -0.012081 0.007984 0.027560 -0.013040 -0.027734 -0.008088
# 4 0.009482 -0.020293 -0.013040 0.053790 0.022073 -0.006537
# 5 0.006291 -0.020163 -0.027734 0.022073 0.081448 -0.006539
# 6 0.017369 0.002494 -0.008088 -0.006537 -0.006539 0.056060
#
#
# Mechanical properties :
#
#
# Convention : Reuss Voigt Hill
#
# Bulk Modulus (GPa) = 18.41929 36.20386 27.31157
# Shear Modulus (GPa) = 16.29421 27.21899 21.75660
#
# Velocity S-wave (km/s) = 2.73987 3.54119 3.16599
# Velocity P-wave (km/s) = 4.30059 5.77923 5.09385
#
# Compressibility (1/GPa) = 0.05429092
#
# Stress axis : x y z
#
# Youngs Moduli (GPa) = 44.33972 38.81461 36.28402
#
# Poissons Ratio (x) = 0.25990 0.43835
# Poissons Ratio (y) = 0.29690 -0.28969
# Poissons Ratio (z) = 0.53567 -0.30989
#
# Static dielectric constant tensor:
#      x y z
#    x 1.848250 -0.003800 0.024360 
#    y -0.003800 1.811210 0.016170 
#    z 0.024360 0.016170 1.815740 
# 
# From -- ./inp_files/326190.got.cif
#   From: 2010.05.17/outbox.cif.g08.bks.cpg/sg2_164_cif.got.tgz:326190.got - 2010.06.03 11:33:40.
