data_PCOD9097529
_publ_section_title
;
Structure prediction by ZEFSAII (Michael W. Deem and Ramdas Pophale) SiO2 
 PCOD9097529
Probable space group: P -1
;
_chemical_formula_sum "Si O2"
_cell_formula_units_Z 16
_cell_length_a 8.233337
_cell_length_b 7.543304
_cell_length_c 13.083944
_cell_angle_alpha 111.975150
_cell_angle_beta 87.732758
_cell_angle_gamma 61.253563
_cell_volume 636.150712
_symmetry_space_group_name_H-M "P -1"
_symmetry_group_IT_number 2
_symmetry_cell_setting 'triclinic'
loop_
_space_group_symop_operation_xyz
x,y,z
-x,-y,-z
loop_
_atom_site_type_symbol
_atom_site_label
_atom_site_fract_x
_atom_site_fract_y
_atom_site_fract_z
Si Si1 0.817268 0.047921 0.180922
Si Si2 0.204273 0.201421 0.156099
Si Si3 0.087814 0.637689 0.978720
Si Si4 0.555073 0.618451 0.820521
Si Si5 0.665471 0.465265 0.562060
Si Si6 0.302346 0.856611 0.347815
Si Si7 0.043030 0.690772 0.634188
Si Si8 0.571785 0.827548 0.191488
O O1 0.711690 0.923323 0.199083
O O2 0.671582 0.205241 0.127231
O O3 0.838214 0.215903 0.290351
O O4 0.030368 0.844460 0.100702
O O5 0.318471 0.297368 0.115065
O O6 0.047187 0.226183 0.085725
O O7 0.063226 0.360675 0.286013
O O8 0.381116 0.974743 0.155886
O O9 0.300789 0.436515 0.900228
O O10 0.000000 0.500000 0.000000
O O11 0.589163 0.624820 0.697329
O O12 0.651078 0.353204 0.773742
O O13 0.500000 0.500000 0.500000
O O14 0.734389 0.223772 0.561354
O O15 0.816242 0.482240 0.491633
O O16 0.493770 0.856894 0.316479
O O17 0.122755 0.093402 0.374263
#
# Coordination Sequence:
#
# PCOD9097529 Si02
#       8
#     2   2   2   2   2   2   2   2
#     4  10  21  39  60  86 117 156 196 242 295 341
#     4  10  23  41  61  88 122 156 194 247 294 345
#     4  10  23  38  64  87 118 154 204 241 293 350
#     4   9  21  38  62  84 118 157 191 240 298 343
#     4  10  20  36  61  86 116 154 195 239 293 346
#     4   9  21  38  59  87 118 153 194 242 291 352
#     4  11  21  39  60  87 121 154 196 243 290 352
#     4   9  21  41  60  86 120 155 197 242 292 350
#
# _framework density 25.151271999999999
#
# number of rings (size 3 to 8) (size 9 to 14) (size 15 to 20)
#    0.750    1.500    1.250    0.375    7.000    5.500 
#    0.000    1.875    0.000    0.000    0.000    0.000 
#    0.000    0.000    0.000    0.000    0.000    0.000 
#
# Total GULP energy -89208.885675 kJ/mol
# GULP energy per Si atom -5575.555355 kJ/mol
# Density = 2.509403 g / cm^3
# Si number density = 25.151272 Si / 1000 Ang^3
#
#
#
# Elastic Constant Matrix: (Units=GPa)
#
#
# Indices 1 2 3 4 5 6 
#
# 1 92.3274 21.0350 16.5392 -0.1161 -13.0451 -15.3175
# 2 21.0350 54.8618 8.8026 8.6868 0.6698 2.7166
# 3 16.5392 8.8026 71.5885 6.0358 -16.2143 -20.1175
# 4 -0.1161 8.6868 6.0358 36.2221 -5.7193 -8.7422
# 5 -13.0451 0.6698 -16.2143 -5.7193 31.3816 3.0898
# 6 -15.3175 2.7166 -20.1175 -8.7422 3.0898 41.3629
#
#
#
# Elastic Compliance Matrix: (Units=1/GPa)
#
#
# Indices 1 2 3 4 5 6 
#
# 1 0.014193 -0.006533 0.000380 0.004062 0.006360 0.006253
# 2 -0.006533 0.022982 -0.004004 -0.007498 -0.005951 -0.007016
# 3 0.000380 -0.004004 0.018977 0.001518 0.009414 0.009251
# 4 0.004062 -0.007498 0.001518 0.032561 0.007677 0.009044
# 5 0.006360 -0.005951 0.009414 0.007677 0.040315 0.005936
# 6 0.006253 -0.007016 0.009251 0.009044 0.005936 0.032920
#
#
# Mechanical properties :
#
#
# Convention : Reuss Voigt Hill
#
# Bulk Modulus (GPa) = 27.90385 34.61458 31.25922
# Shear Modulus (GPa) = 25.74543 33.28672 29.51607
#
# Velocity S-wave (km/s) = 3.20288 3.64189 3.42942
# Velocity P-wave (km/s) = 4.97960 5.61043 5.30440
#
# Compressibility (1/GPa) = 0.03583735
#
# Stress axis : x y z
#
# Youngs Moduli (GPa) = 70.45931 43.51164 52.69444
#
# Poissons Ratio (x) = 0.28427 -0.02000
# Poissons Ratio (y) = 0.46032 0.21098
# Poissons Ratio (z) = -0.02674 0.17422
#
# Static dielectric constant tensor:
#      x y z
#    x 2.042110 0.045570 -0.033000 
#    y 0.045570 1.983760 -0.039460 
#    z -0.033000 -0.039460 2.037070 
# 
# From -- ./inp_files/491270.got.cif
#   From: 2010.05.17/outbox.cif.g08.bks.cpg/sg2_246_cif.got.tgz:491270.got - 2010.06.03 11:33:40.
