data_PCOD9097767
_publ_section_title
;
Structure prediction by ZEFSAII (Michael W. Deem and Ramdas Pophale) SiO2 
 PCOD9097767
Probable space group: P -1
;
_chemical_formula_sum "Si O2"
_cell_formula_units_Z 16
_cell_length_a 23.407452
_cell_length_b 7.446184
_cell_length_c 12.325616
_cell_angle_alpha 121.249352
_cell_angle_beta 156.130219
_cell_angle_gamma 49.173993
_cell_volume 635.505312
_symmetry_space_group_name_H-M "P -1"
_symmetry_group_IT_number 2
_symmetry_cell_setting 'triclinic'
loop_
_space_group_symop_operation_xyz
x,y,z
-x,-y,-z
loop_
_atom_site_type_symbol
_atom_site_label
_atom_site_fract_x
_atom_site_fract_y
_atom_site_fract_z
Si Si1 0.151594 0.296989 0.071984
Si Si2 0.794784 0.335462 0.159240
Si Si3 0.400202 0.092995 0.743263
Si Si4 0.566470 0.259620 0.619985
Si Si5 0.908428 0.604599 0.583884
Si Si6 0.343711 0.208707 0.086481
Si Si7 0.864382 0.964688 0.433014
Si Si8 0.782950 0.439891 0.553502
O O1 0.226560 0.443646 0.308777
O O2 0.271438 0.007186 0.209513
O O3 0.088853 0.413674 0.880568
O O4 0.969185 0.370801 0.822302
O O5 0.819452 0.455299 0.346822
O O6 0.631913 0.318690 0.861638
O O7 0.767978 0.520385 0.071602
O O8 0.969319 0.092602 0.357385
O O9 0.502975 0.899050 0.768168
O O10 0.210869 0.179987 0.471441
O O11 0.363273 0.345685 0.703924
O O12 0.500000 0.000000 0.000000
O O13 0.500000 0.500000 0.500000
O O14 0.421008 0.203600 0.335167
O O15 0.908420 0.742582 0.520810
O O16 0.258066 0.051045 0.869765
O O17 0.785763 0.196964 0.448277
#
# Coordination Sequence:
#
# PCOD9097767 Si02
#       8
#     2   2   2   2   2   2   2   2
#     4  10  20  40  57  88 118 155 203 248 291 354
#     4  10  20  37  62  87 116 161 199 240 299 363
#     4  11  19  38  58  86 121 150 198 247 300 345
#     4  10  20  37  61  86 113 159 201 242 290 358
#     4  10  22  35  62  90 122 155 199 255 291 350
#     4  10  20  36  62  86 117 156 196 248 299 350
#     4  11  21  39  60  91 119 159 200 241 306 357
#     4  10  22  36  62  85 119 161 197 242 301 360
#
# _framework density 25.176817
#
# number of rings (size 3 to 8) (size 9 to 14) (size 15 to 20)
#    0.000    1.750    5.000    1.500    0.000    1.500 
#    0.000    0.000    0.000    8.250    0.000    0.000 
#    0.000    0.000    0.000    0.000    0.000    0.000 
#
# Total GULP energy -89188.375045 kJ/mol
# GULP energy per Si atom -5574.273440 kJ/mol
# Density = 2.511951 g / cm^3
# Si number density = 25.176817 Si / 1000 Ang^3
#
#
#
# Elastic Constant Matrix: (Units=GPa)
#
#
# Indices 1 2 3 4 5 6 
#
# 1 40.7462 16.6187 37.4372 -6.2663 -17.0779 -2.6029
# 2 16.6187 137.8371 83.2633 -1.2413 -26.4764 -11.6029
# 3 37.4372 83.2633 190.2971 8.3450 -24.0093 2.6232
# 4 -6.2663 -1.2413 8.3450 63.9979 -7.7273 -7.2313
# 5 -17.0779 -26.4764 -24.0093 -7.7273 50.6405 -15.1182
# 6 -2.6029 -11.6029 2.6232 -7.2313 -15.1182 24.8666
#
#
#
# Elastic Compliance Matrix: (Units=1/GPa)
#
#
# Indices 1 2 3 4 5 6 
#
# 1 0.044254 0.007746 -0.009929 0.011815 0.024275 0.027489
# 2 0.007746 0.014429 -0.006663 0.005515 0.013169 0.017856
# 3 -0.009929 -0.006663 0.009708 -0.004196 -0.005838 -0.009942
# 4 0.011815 0.005515 -0.004196 0.021212 0.013716 0.018760
# 5 0.024275 0.013169 -0.005838 0.013716 0.046563 0.041599
# 6 0.027489 0.017856 -0.009942 0.018760 0.041599 0.083219
#
#
# Mechanical properties :
#
#
# Convention : Reuss Voigt Hill
#
# Bulk Modulus (GPa) = 19.72524 71.50210 45.61367
# Shear Modulus (GPa) = 19.68671 43.33841 31.51256
#
# Velocity S-wave (km/s) = 2.79935 4.15343 3.54170
# Velocity P-wave (km/s) = 4.27787 7.17377 5.90606
#
# Compressibility (1/GPa) = 0.05069646
#
# Stress axis : x y z
#
# Youngs Moduli (GPa) = 22.59698 69.30689 103.00341
#
# Poissons Ratio (x) = -0.53684 1.02277
# Poissons Ratio (y) = -0.17503 0.68636
# Poissons Ratio (z) = 0.22438 0.46182
#
# Static dielectric constant tensor:
#      x y z
#    x 2.086870 -0.020360 0.000580 
#    y -0.020360 2.023860 0.031530 
#    z 0.000580 0.031530 2.015610 
# 
# From -- ./inp_files/544889.got.cif
#   From: 2010.05.17/outbox.cif.g08.bks.cpg/sg2_273_cif.got.tgz:544889.got - 2010.06.03 11:33:40.
