data_PCOD9097505
_publ_section_title
;
Structure prediction by ZEFSAII (Michael W. Deem and Ramdas Pophale) SiO2 
 PCOD9097505
Probable space group: P -1
;
_chemical_formula_sum "Si O2"
_cell_formula_units_Z 16
_cell_length_a 14.290148
_cell_length_b 10.700426
_cell_length_c 6.773028
_cell_angle_alpha 96.612740
_cell_angle_beta 44.939386
_cell_angle_gamma 76.367999
_cell_volume 648.190627
_symmetry_space_group_name_H-M "P -1"
_symmetry_group_IT_number 2
_symmetry_cell_setting 'triclinic'
loop_
_space_group_symop_operation_xyz
x,y,z
-x,-y,-z
loop_
_atom_site_type_symbol
_atom_site_label
_atom_site_fract_x
_atom_site_fract_y
_atom_site_fract_z
Si Si1 0.143538 0.016624 0.569490
Si Si2 0.086004 0.097661 0.137768
Si Si3 0.477614 0.881850 0.127978
Si Si4 0.025171 0.665505 0.212828
Si Si5 0.607988 0.144579 0.335356
Si Si6 0.647157 0.668272 0.553922
Si Si7 0.657597 0.404087 0.348024
Si Si8 0.048663 0.379009 0.118516
O O1 0.953420 0.058922 0.373531
O O2 0.315957 0.907679 0.298458
O O3 0.111820 0.062218 0.856779
O O4 0.086823 0.168939 0.575025
O O5 0.051177 0.260328 0.240445
O O6 0.242512 0.989018 0.977961
O O7 0.467935 0.897871 0.379985
O O8 0.613961 0.738085 0.829742
O O9 0.500000 0.000000 0.000000
O O10 0.193568 0.633828 0.009819
O O11 0.988150 0.539241 0.312607
O O12 0.034662 0.634520 0.954647
O O13 0.492206 0.228389 0.353866
O O14 0.658636 0.257652 0.373371
O O15 0.656731 0.514515 0.530391
O O16 0.787178 0.662687 0.223900
O O17 0.500000 0.500000 0.500000
#
# Coordination Sequence:
#
# PCOD9097505 Si02
#       8
#     2   2   2   2   2   2   2   2
#     4   9  17  30  53  76 108 147 186 230 274 339
#     4   9  16  29  51  82 104 139 196 225 278 339
#     4  11  23  36  55  86 117 150 195 233 283 346
#     4   9  15  30  51  79 109 144 191 230 284 334
#     4  10  20  36  61  81 114 158 184 240 293 322
#     4  10  21  38  55  88 119 146 195 235 281 351
#     4   9  18  33  58  86 111 150 192 235 285 345
#     4   9  18  28  52  84 108 144 188 238 277 337
#
# _framework density 24.684097999999999
#
# number of rings (size 3 to 8) (size 9 to 14) (size 15 to 20)
#    0.000    2.500    1.250    2.250    1.750    2.500 
#    0.000    0.625    2.750    0.000    0.000   20.125 
#    0.000    0.000    0.000    0.000    0.000    0.000 
#
# Total GULP energy -89392.128782 kJ/mol
# GULP energy per Si atom -5587.008049 kJ/mol
# Density = 2.462792 g / cm^3
# Si number density = 24.684098 Si / 1000 Ang^3
#
#
#
# Elastic Constant Matrix: (Units=GPa)
#
#
# Indices 1 2 3 4 5 6 
#
# 1 70.9254 31.2699 20.6898 3.8728 -20.0999 -7.0099
# 2 31.2699 165.5001 31.9809 17.1253 -5.3691 10.3600
# 3 20.6898 31.9809 72.5675 11.2027 -0.6246 7.0676
# 4 3.8728 17.1253 11.2027 41.1940 -4.4222 5.3476
# 5 -20.0999 -5.3691 -0.6246 -4.4222 28.8415 1.9775
# 6 -7.0099 10.3600 7.0676 5.3476 1.9775 43.7799
#
#
#
# Elastic Compliance Matrix: (Units=1/GPa)
#
#
# Indices 1 2 3 4 5 6 
#
# 1 0.021273 -0.002967 -0.005293 0.001655 0.014129 0.004122
# 2 -0.002967 0.007253 -0.001876 -0.002125 -0.000976 -0.001585
# 3 -0.005293 -0.001876 0.016854 -0.003410 -0.004022 -0.002526
# 4 0.001655 -0.002125 -0.003410 0.026742 0.004933 -0.002171
# 5 0.014129 -0.000976 -0.004022 0.004933 0.044972 0.000509
# 6 0.004122 -0.001585 -0.002526 -0.002171 0.000509 0.024527
#
#
# Mechanical properties :
#
#
# Convention : Reuss Voigt Hill
#
# Bulk Modulus (GPa) = 39.82991 52.98606 46.40798
# Shear Modulus (GPa) = 29.36652 37.76659 33.56655
#
# Velocity S-wave (km/s) = 3.45294 3.91576 3.69161
# Velocity P-wave (km/s) = 5.66285 6.47738 6.08377
#
# Compressibility (1/GPa) = 0.02510676
#
# Stress axis : x y z
#
# Youngs Moduli (GPa) = 47.00838 137.87387 59.33324
#
# Poissons Ratio (x) = 0.40914 0.31403
# Poissons Ratio (y) = 0.13950 0.11133
# Poissons Ratio (z) = 0.24880 0.25870
#
# Static dielectric constant tensor:
#      x y z
#    x 2.024540 -0.006350 0.016640 
#    y -0.006350 1.992360 0.015440 
#    z 0.016640 0.015440 1.999730 
# 
# From -- ./inp_files/94843.got.cif
#   From: 2010.05.17/outbox.cif.g08.bks.cpg/sg2_48_cif.got.tgz:94843.got - 2010.06.03 11:33:40.
