data_PCOD9097736
_publ_section_title
;
Structure prediction by ZEFSAII (Michael W. Deem and Ramdas Pophale) SiO2 
 PCOD9097736
Probable space group: P -1
;
_chemical_formula_sum "Si O2"
_cell_formula_units_Z 16
_cell_length_a 20.301135
_cell_length_b 5.478863
_cell_length_c 7.437967
_cell_angle_alpha 82.435082
_cell_angle_beta 73.378176
_cell_angle_gamma 52.502729
_cell_volume 627.958438
_symmetry_space_group_name_H-M "P -1"
_symmetry_group_IT_number 2
_symmetry_cell_setting 'triclinic'
loop_
_space_group_symop_operation_xyz
x,y,z
-x,-y,-z
loop_
_atom_site_type_symbol
_atom_site_label
_atom_site_fract_x
_atom_site_fract_y
_atom_site_fract_z
Si Si1 0.593183 0.515825 0.867481
Si Si2 0.006148 0.335017 0.737136
Si Si3 0.868987 0.751411 0.063995
Si Si4 0.912995 0.328749 0.393178
Si Si5 0.710902 0.332502 0.273074
Si Si6 0.546963 0.802636 0.248134
Si Si7 0.606810 0.146141 0.563933
Si Si8 0.750865 0.443668 0.596669
O O1 0.593349 0.278542 0.763901
O O2 0.689296 0.420344 0.775350
O O3 0.517478 0.851708 0.812838
O O4 0.573361 0.561915 0.087529
O O5 0.062941 0.213726 0.891713
O O6 0.043593 0.506247 0.601250
O O7 0.023733 0.033246 0.665100
O O8 0.909865 0.590919 0.857903
O O9 0.867238 0.519207 0.222991
O O10 0.777607 0.081563 0.104231
O O11 0.841086 0.373495 0.578103
O O12 0.642349 0.692225 0.239520
O O13 0.640114 0.288342 0.397448
O O14 0.765584 0.259486 0.418948
O O15 0.479326 0.809081 0.431190
O O16 0.686486 0.795036 0.554045
#
# Coordination Sequence:
#
# PCOD9097736 Si02
#       8
#     2   2   2   2   2   2   2   2
#     4   9  21  37  51  71  98 139 183 215 260 321
#     4   9  18  27  49  72 114 144 171 207 271 323
#     4   9  18  28  46  74 112 136 170 213 270 319
#     4  10  16  31  48  77 107 143 175 213 263 322
#     4  11  20  32  49  80 106 132 171 224 275 313
#     4  10  21  36  53  70 101 139 176 220 266 320
#     4  10  19  34  52  73 100 133 174 219 268 314
#     4  10  19  31  52  75 107 132 170 224 261 317
#
# _framework density 25.479396000000001
#
# number of rings (size 3 to 8) (size 9 to 14) (size 15 to 20)
#    0.750    1.500    2.500    1.125    1.750    5.500 
#    0.000    0.000    0.000    0.000    0.000    1.750 
#    0.000    0.000    0.000    0.000    0.000    0.000 
#
# Total GULP energy -89287.097633 kJ/mol
# GULP energy per Si atom -5580.443602 kJ/mol
# Density = 2.542140 g / cm^3
# Si number density = 25.479396 Si / 1000 Ang^3
#
#
#
# Elastic Constant Matrix: (Units=GPa)
#
#
# Indices 1 2 3 4 5 6 
#
# 1 103.2089 29.9623 42.0344 17.3753 -6.0290 4.7463
# 2 29.9623 80.2548 14.6182 37.1887 6.3412 -2.9897
# 3 42.0344 14.6182 75.0091 33.3318 -6.9188 0.0310
# 4 17.3753 37.1887 33.3318 49.0881 -8.3699 -6.5577
# 5 -6.0290 6.3412 -6.9188 -8.3699 34.9970 5.3616
# 6 4.7463 -2.9897 0.0310 -6.5577 5.3616 33.7624
#
#
#
# Elastic Compliance Matrix: (Units=1/GPa)
#
#
# Indices 1 2 3 4 5 6 
#
# 1 0.015061 -0.007859 -0.010024 0.007890 0.004221 -0.001942
# 2 -0.007859 0.026193 0.009601 -0.025316 -0.010276 0.000130
# 3 -0.010024 0.009601 0.026892 -0.022777 -0.003343 -0.001659
# 4 0.007890 -0.025316 -0.022777 0.055285 0.013868 0.005206
# 5 0.004221 -0.010276 -0.003343 0.013868 0.034475 -0.004281
# 6 -0.001942 0.000130 -0.001659 0.005206 -0.004281 0.031596
#
#
# Mechanical properties :
#
#
# Convention : Reuss Voigt Hill
#
# Bulk Modulus (GPa) = 19.38631 47.96696 33.67663
# Shear Modulus (GPa) = 22.39554 35.02670 28.71112
#
# Velocity S-wave (km/s) = 2.96795 3.71173 3.36048
# Velocity P-wave (km/s) = 4.40115 6.10212 5.32006
#
# Compressibility (1/GPa) = 0.05158280
#
# Stress axis : x y z
#
# Youngs Moduli (GPa) = 66.39788 38.17744 37.18594
#
# Poissons Ratio (x) = 0.30002 0.37276
# Poissons Ratio (y) = 0.52180 -0.35703
# Poissons Ratio (z) = 0.66558 -0.36655
#
# Static dielectric constant tensor:
#      x y z
#    x 2.108530 0.007280 0.068190 
#    y 0.007280 2.024790 -0.046390 
#    z 0.068190 -0.046390 2.044780 
# 
# From -- ./inp_files/350718.got.cif
#   From: 2010.05.17/outbox.cif.g08.bks.cpg/sg2_176_cif.got.tgz:350718.got - 2010.06.03 11:33:40.
