data_PCOD9097588
_publ_section_title
;
Structure prediction by ZEFSAII (Michael W. Deem and Ramdas Pophale) SiO2 
 PCOD9097588
Probable space group: P -1
;
_chemical_formula_sum "Si O2"
_cell_formula_units_Z 16
_cell_length_a 12.644459
_cell_length_b 14.099164
_cell_length_c 10.504867
_cell_angle_alpha 37.987315
_cell_angle_beta 45.966480
_cell_angle_gamma 48.089135
_cell_volume 797.555927
_symmetry_space_group_name_H-M "P -1"
_symmetry_group_IT_number 2
_symmetry_cell_setting 'triclinic'
loop_
_space_group_symop_operation_xyz
x,y,z
-x,-y,-z
loop_
_atom_site_type_symbol
_atom_site_label
_atom_site_fract_x
_atom_site_fract_y
_atom_site_fract_z
Si Si1 0.448022 0.903223 0.853134
Si Si2 0.865210 0.459101 0.296922
Si Si3 0.720872 0.722903 0.681709
Si Si4 0.402216 0.670859 0.353311
Si Si5 0.113848 0.100293 0.847097
Si Si6 0.161263 0.261120 0.147884
Si Si7 0.953179 0.430231 0.743139
Si Si8 0.611206 0.051969 0.751278
O O1 0.542093 0.817927 0.740957
O O2 0.268617 0.986591 0.898521
O O3 0.530206 0.033408 0.704569
O O4 0.465958 0.764661 0.091563
O O5 0.749542 0.363470 0.540721
O O6 0.955148 0.515975 0.275174
O O7 0.981300 0.341038 0.227924
O O8 0.783698 0.619626 0.118104
O O9 0.815165 0.812027 0.417555
O O10 0.776288 0.734526 0.767129
O O11 0.776652 0.533440 0.801673
O O12 0.500000 0.500000 0.500000
O O13 0.372515 0.781556 0.386985
O O14 0.013344 0.239531 0.876519
O O15 0.000000 0.000000 0.000000
O O16 0.226396 0.080667 0.239428
O O17 0.000000 0.500000 0.500000
O O18 0.500000 0.000000 0.000000
#
# Coordination Sequence:
#
# PCOD9097588 Si02
#       8
#     2   2   2   2   2   2   2   2
#     4  10  22  39  65  85 123 165 195 248 313 355
#     4  10  20  36  61  89 119 157 200 245 304 350
#     4   9  19  43  61  84 125 159 200 243 312 361
#     4  11  23  35  60  89 124 152 209 248 290 366
#     4  11  24  39  65  92 117 158 210 253 291 360
#     4   9  19  36  61  85 120 161 191 246 309 358
#     4   9  21  38  63  84 124 162 199 245 305 359
#     4   9  19  36  55  84 120 156 194 237 302 358
#
# _framework density 20.06129
#
# number of rings (size 3 to 8) (size 9 to 14) (size 15 to 20)
#    0.000    2.250    0.000    2.625   10.500    0.500 
#    0.000   10.625    0.000    0.000    0.000    0.000 
#    0.000    0.000    0.000    0.000    0.000    0.000 
#
# Total GULP energy -89088.380280 kJ/mol
# GULP energy per Si atom -5568.023767 kJ/mol
# Density = 2.001563 g / cm^3
# Si number density = 20.061290 Si / 1000 Ang^3
#
#
#
# Elastic Constant Matrix: (Units=GPa)
#
#
# Indices 1 2 3 4 5 6 
#
# 1 63.8849 43.3669 23.7293 -18.2181 -4.1960 -4.3643
# 2 43.3669 195.0202 36.3833 -34.9756 -13.3463 -1.1817
# 3 23.7293 36.3833 63.8399 -11.1344 0.3925 1.3895
# 4 -18.2181 -34.9756 -11.1344 31.7515 2.9309 5.3112
# 5 -4.1960 -13.3463 0.3925 2.9309 34.8572 -4.1859
# 6 -4.3643 -1.1817 1.3895 5.3112 -4.1859 27.1146
#
#
#
# Elastic Compliance Matrix: (Units=1/GPa)
#
#
# Indices 1 2 3 4 5 6 
#
# 1 0.021651 -0.002358 -0.005482 0.007361 0.001439 0.002443
# 2 -0.002358 0.007233 -0.002232 0.005785 0.001930 -0.000785
# 3 -0.005482 -0.002232 0.019366 0.001839 -0.002208 -0.002673
# 4 0.007361 0.005785 0.001839 0.044139 -0.001536 -0.007540
# 5 0.001439 0.001930 -0.002208 -0.001536 0.030406 0.005424
# 6 0.002443 -0.000785 -0.002673 -0.007540 0.005424 0.039691
#
#
# Mechanical properties :
#
#
# Convention : Reuss Voigt Hill
#
# Bulk Modulus (GPa) = 35.57860 58.85599 47.21729
# Shear Modulus (GPa) = 26.04196 33.36236 29.70216
#
# Velocity S-wave (km/s) = 3.60685 4.08244 3.85199
# Velocity P-wave (km/s) = 5.92615 7.18495 6.58570
#
# Compressibility (1/GPa) = 0.02810679
#
# Stress axis : x y z
#
# Youngs Moduli (GPa) = 46.18766 138.24932 51.63698
#
# Poissons Ratio (x) = 0.32605 0.28306
# Poissons Ratio (y) = 0.10893 0.11523
# Poissons Ratio (z) = 0.25319 0.30851
#
# Static dielectric constant tensor:
#      x y z
#    x 1.750820 -0.055740 -0.004080 
#    y -0.055740 1.807660 0.012870 
#    z -0.004080 0.012870 1.723910 
# 
# From -- ./inp_files/277603.got.cif
#   From: 2010.05.17/outbox.cif.g08.bks.cpg/sg2_139_cif.got.tgz:277603.got - 2010.06.03 11:33:40.
