data_PCOD9097444
_publ_section_title
;
Structure prediction by ZEFSAII (Michael W. Deem and Ramdas Pophale) SiO2 
 PCOD9097444
Probable space group: P -1
;
_chemical_formula_sum "Si O2"
_cell_formula_units_Z 16
_cell_length_a 10.897735
_cell_length_b 17.343598
_cell_length_c 21.841338
_cell_angle_alpha 21.792481
_cell_angle_beta 138.942666
_cell_angle_gamma 149.013515
_cell_volume 769.757698
_symmetry_space_group_name_H-M "P -1"
_symmetry_group_IT_number 2
_symmetry_cell_setting 'triclinic'
loop_
_space_group_symop_operation_xyz
x,y,z
-x,-y,-z
loop_
_atom_site_type_symbol
_atom_site_label
_atom_site_fract_x
_atom_site_fract_y
_atom_site_fract_z
Si Si1 0.833112 0.201359 0.085028
Si Si2 0.731834 0.583348 0.818399
Si Si3 0.987249 0.564473 0.154281
Si Si4 0.738542 0.785457 0.905986
Si Si5 0.248415 0.076641 0.060535
Si Si6 0.622919 0.946484 0.502479
Si Si7 0.852492 0.165783 0.561522
Si Si8 0.314088 0.700255 0.287394
O O1 0.052422 0.277819 0.153405
O O2 0.602581 0.890329 0.243786
O O3 0.764548 0.392927 0.933823
O O4 0.918512 0.285031 0.985808
O O5 0.473543 0.386368 0.900481
O O6 0.710906 0.788889 0.624624
O O7 0.197294 0.624687 0.231540
O O8 0.766812 0.239825 0.307773
O O9 0.891926 0.701811 0.051053
O O10 0.850027 0.983334 0.744580
O O11 0.500000 0.500000 0.000000
O O12 0.725795 0.931599 0.850621
O O13 0.286363 0.893125 0.172894
O O14 0.000000 0.000000 0.000000
O O15 0.722598 0.015583 0.559136
O O16 0.333393 0.790825 0.512660
O O17 0.130580 0.421251 0.461524
#
# Coordination Sequence:
#
# PCOD9097444 Si02
#       8
#     2   2   2   2   2   2   2   2
#     4  10  22  41  62  85 118 166 217 248 290 369
#     4  10  22  39  63  87 119 167 206 253 305 359
#     4  11  21  37  62  89 121 161 208 252 304 369
#     4  12  22  37  64  98 123 159 205 252 306 378
#     4  11  21  38  65  92 128 159 197 256 325 362
#     4  10  20  36  60  92 127 155 198 262 316 357
#     4  10  21  36  60  95 127 157 199 255 316 368
#     4  10  22  40  59  87 125 165 198 254 312 361
#
# _framework density 20.785761999999998
#
# number of rings (size 3 to 8) (size 9 to 14) (size 15 to 20)
#    0.000    1.500    2.500    3.375    1.750    1.000 
#    0.000    6.875    0.000    0.000    0.000    0.000 
#    0.000    0.000    0.000    0.000    0.000    0.000 
#
# Total GULP energy -89222.118290 kJ/mol
# GULP energy per Si atom -5576.382393 kJ/mol
# Density = 2.073845 g / cm^3
# Si number density = 20.785762 Si / 1000 Ang^3
#
#
#
# Elastic Constant Matrix: (Units=GPa)
#
#
# Indices 1 2 3 4 5 6 
#
# 1 62.4619 19.8561 21.0446 -1.7522 -5.9644 7.6924
# 2 19.8561 61.8091 12.3070 -5.5221 -13.1090 9.7563
# 3 21.0446 12.3070 103.7410 -5.4496 -8.3195 9.6857
# 4 -1.7522 -5.5221 -5.4496 17.3860 6.2667 -2.2595
# 5 -5.9644 -13.1090 -8.3195 6.2667 34.1758 7.7620
# 6 7.6924 9.7563 9.6857 -2.2595 7.7620 26.1683
#
#
#
# Elastic Compliance Matrix: (Units=1/GPa)
#
#
# Indices 1 2 3 4 5 6 
#
# 1 0.019059 -0.004744 -0.002916 -0.001626 0.001879 -0.003452
# 2 -0.004744 0.021198 0.000118 0.001848 0.009055 -0.009079
# 3 -0.002916 0.000118 0.010890 0.001653 0.002769 -0.003896
# 4 -0.001626 0.001848 0.001653 0.064215 -0.012888 0.008545
# 5 0.001879 0.009055 0.002769 -0.012888 0.040184 -0.017985
# 6 -0.003452 -0.009079 -0.003896 0.008545 -0.017985 0.050129
#
#
# Mechanical properties :
#
#
# Convention : Reuss Voigt Hill
#
# Bulk Modulus (GPa) = 27.72856 37.15858 32.44357
# Shear Modulus (GPa) = 21.47970 27.19963 24.33967
#
# Velocity S-wave (km/s) = 3.21812 3.62134 3.42567
# Velocity P-wave (km/s) = 5.21321 5.94989 5.59369
#
# Compressibility (1/GPa) = 0.03606390
#
# Stress axis : x y z
#
# Youngs Moduli (GPa) = 52.46794 47.17454 91.83139
#
# Poissons Ratio (x) = 0.22379 0.26777
# Poissons Ratio (y) = 0.24891 -0.01088
# Poissons Ratio (z) = 0.15299 -0.00559
#
# Static dielectric constant tensor:
#      x y z
#    x 1.794520 0.026880 0.024410 
#    y 0.026880 1.741300 -0.029660 
#    z 0.024410 -0.029660 1.760720 
# 
# From -- ./inp_files/189206.got.cif
#   From: 2010.05.17/outbox.cif.g08.bks.cpg/sg2_95_cif.got.tgz:189206.got - 2010.06.03 11:33:40.
