data_PCOD9097836
_publ_section_title
;
Structure prediction by ZEFSAII (Michael W. Deem and Ramdas Pophale) SiO2 
 PCOD9097836
Probable space group: P -1
;
_chemical_formula_sum "Si O2"
_cell_formula_units_Z 16
_cell_length_a 9.000816
_cell_length_b 12.868529
_cell_length_c 7.707693
_cell_angle_alpha 99.762550
_cell_angle_beta 106.061944
_cell_angle_gamma 130.442982
_cell_volume 573.755303
_symmetry_space_group_name_H-M "P -1"
_symmetry_group_IT_number 2
_symmetry_cell_setting 'triclinic'
loop_
_space_group_symop_operation_xyz
x,y,z
-x,-y,-z
loop_
_atom_site_type_symbol
_atom_site_label
_atom_site_fract_x
_atom_site_fract_y
_atom_site_fract_z
Si Si1 0.928850 0.160018 0.143734
Si Si2 0.599460 0.665630 0.569535
Si Si3 0.279345 0.803961 0.676594
Si Si4 0.487474 0.269445 0.073045
Si Si5 0.464195 0.155409 0.563751
Si Si6 0.868840 0.623311 0.257434
Si Si7 0.039391 0.122256 0.787451
Si Si8 0.125992 0.671941 0.045612
O O1 0.723137 0.087341 0.186912
O O2 0.133122 0.215883 0.337761
O O3 0.942652 0.103284 0.947624
O O4 0.968231 0.301813 0.129832
O O5 0.500000 0.500000 0.500000
O O6 0.574547 0.699923 0.761613
O O7 0.488185 0.697625 0.422796
O O8 0.367971 0.756801 0.818747
O O9 0.439025 0.866532 0.574499
O O10 0.016290 0.663217 0.483762
O O11 0.666111 0.441999 0.099376
O O12 0.234047 0.130173 0.873968
O O13 0.604617 0.206369 0.799158
O O14 0.192267 0.009872 0.431391
O O15 0.812502 0.716273 0.227383
O O16 0.059366 0.708795 0.197676
O O17 0.000000 0.500000 0.000000
#
# Coordination Sequence:
#
# PCOD9097836 Si02
#       8
#     2   2   2   2   2   2   2   2
#     4  10  21  36  59  90 119 154 202 247 294 354
#     4  10  20  36  62  90 118 155 201 252 301 356
#     4  10  21  37  62  93 120 156 204 257 300 343
#     4  10  20  36  63  91 120 161 207 250 297 356
#     4  10  23  42  62  87 123 161 199 247 307 365
#     4  10  20  36  63  91 120 161 207 250 297 356
#     4  10  23  41  59  86 125 167 200 241 305 366
#     4  10  20  36  62  90 118 155 201 252 301 356
#
# _framework density 27.886451999999998
#
# number of rings (size 3 to 8) (size 9 to 14) (size 15 to 20)
#    0.000    2.000    0.000    3.000    0.000   11.500 
#    0.000    3.750    0.000   10.500    0.000    0.000 
#    0.000    0.000    0.000    0.000    0.000    0.000 
#
# Total GULP energy -89319.532214 kJ/mol
# GULP energy per Si atom -5582.470763 kJ/mol
# Density = 2.782298 g / cm^3
# Si number density = 27.886452 Si / 1000 Ang^3
#
#
#
# Elastic Constant Matrix: (Units=GPa)
#
#
# Indices 1 2 3 4 5 6 
#
# 1 152.6546 15.3008 37.3222 5.3493 12.8834 9.3643
# 2 15.3008 113.7397 34.1608 11.2216 5.6159 -5.0678
# 3 37.3222 34.1608 131.9177 -2.0036 17.6956 14.1398
# 4 5.3493 11.2216 -2.0036 44.7593 10.7899 5.7119
# 5 12.8834 5.6159 17.6956 10.7899 32.3215 13.3810
# 6 9.3643 -5.0678 14.1398 5.7119 13.3810 26.4778
#
#
#
# Elastic Compliance Matrix: (Units=1/GPa)
#
#
# Indices 1 2 3 4 5 6 
#
# 1 0.007182 -0.000411 -0.001644 -0.000376 -0.001364 -0.000970
# 2 -0.000411 0.010313 -0.002990 -0.003054 -0.000990 0.004875
# 3 -0.001644 -0.002990 0.009752 0.002719 -0.003385 -0.004075
# 4 -0.000376 -0.003054 0.002719 0.025626 -0.007949 -0.003414
# 5 -0.001364 -0.000990 -0.003385 -0.007949 0.043732 -0.018285
# 6 -0.000970 0.004875 -0.004075 -0.003414 -0.018285 0.051197
#
#
# Mechanical properties :
#
#
# Convention : Reuss Voigt Hill
#
# Bulk Modulus (GPa) = 58.29106 63.54219 60.91662
# Shear Modulus (GPa) = 30.56029 41.48025 36.02027
#
# Velocity S-wave (km/s) = 3.31400 3.86096 3.59789
# Velocity P-wave (km/s) = 5.96589 6.53540 6.25713
#
# Compressibility (1/GPa) = 0.01715529
#
# Stress axis : x y z
#
# Youngs Moduli (GPa) = 139.24240 96.96662 102.54150
#
# Poissons Ratio (x) = 0.03986 0.16860
# Poissons Ratio (y) = 0.05724 0.30664
# Poissons Ratio (z) = 0.22894 0.28997
#
# Static dielectric constant tensor:
#      x y z
#    x 2.301550 -0.029990 -0.002000 
#    y -0.029990 2.282920 -0.052700 
#    z -0.002000 -0.052700 2.171830 
# 
# From -- ./inp_files/207926.got.cif
#   From: 2010.05.17/outbox.cif.g08.bks.cpg/sg2_104_cif.got.tgz:207926.got - 2010.06.03 11:33:40.
