data_PCOD9097520
_publ_section_title
;
Structure prediction by ZEFSAII (Michael W. Deem and Ramdas Pophale) SiO2 
 PCOD9097520
Probable space group: P -1
;
_chemical_formula_sum "Si O2"
_cell_formula_units_Z 16
_cell_length_a 8.763030
_cell_length_b 8.199077
_cell_length_c 11.435084
_cell_angle_alpha 71.090796
_cell_angle_beta 107.059050
_cell_angle_gamma 91.107982
_cell_volume 740.451045
_symmetry_space_group_name_H-M "P -1"
_symmetry_group_IT_number 2
_symmetry_cell_setting 'triclinic'
loop_
_space_group_symop_operation_xyz
x,y,z
-x,-y,-z
loop_
_atom_site_type_symbol
_atom_site_label
_atom_site_fract_x
_atom_site_fract_y
_atom_site_fract_z
Si Si1 0.981330 0.372974 0.206114
Si Si2 0.766050 0.925075 0.610141
Si Si3 0.857061 0.317466 0.946568
Si Si4 0.418824 0.841618 0.630541
Si Si5 0.323132 0.565479 0.485042
Si Si6 0.491947 0.501665 0.135296
Si Si7 0.084427 0.812426 0.243033
Si Si8 0.206580 0.390066 0.714785
O O1 0.870980 0.438510 0.274304
O O2 0.133042 0.258720 0.317895
O O3 0.024406 0.548980 0.111529
O O4 0.901261 0.276626 0.101441
O O5 0.591148 0.911204 0.630393
O O6 0.720905 0.001446 0.452071
O O7 0.864322 0.043332 0.689918
O O8 0.683728 0.423617 0.882362
O O9 0.879537 0.162995 0.892349
O O10 0.362526 0.723226 0.540282
O O11 0.455154 0.696435 0.770450
O O12 0.500000 0.500000 0.500000
O O13 0.205060 0.643364 0.341502
O O14 0.232335 0.433380 0.574921
O O15 0.615953 0.627827 0.187857
O O16 0.500000 0.500000 0.000000
O O17 0.907370 0.759580 0.247054
#
# Coordination Sequence:
#
# PCOD9097520 Si02
#       8
#     2   2   2   2   2   2   2   2
#     4  10  20  36  61  91 114 157 200 250 296 348
#     4  10  20  38  61  84 127 156 196 239 309 369
#     4  10  20  36  61  89 114 154 209 245 292 350
#     4   9  20  36  59  90 112 163 199 239 296 368
#     4  10  20  36  61  85 116 156 202 248 295 348
#     4  11  19  36  62  86 116 153 207 255 286 349
#     4  10  21  36  56  88 122 153 193 252 301 351
#     4  10  21  35  60  89 118 149 207 251 292 346
#
# _framework density 21.608450000000001
#
# number of rings (size 3 to 8) (size 9 to 14) (size 15 to 20)
#    0.000    2.000    2.500    1.875    1.750    0.500 
#    0.000    5.625   16.500    1.500    0.000    0.000 
#    0.000    0.000    0.000    0.000    0.000    0.000 
#
# Total GULP energy -89161.385664 kJ/mol
# GULP energy per Si atom -5572.586604 kJ/mol
# Density = 2.155927 g / cm^3
# Si number density = 21.608450 Si / 1000 Ang^3
#
#
#
# Elastic Constant Matrix: (Units=GPa)
#
#
# Indices 1 2 3 4 5 6 
#
# 1 75.8582 5.8960 16.2595 -2.4935 -6.7510 3.5473
# 2 5.8960 28.9768 18.8967 -6.7861 -6.4464 12.2952
# 3 16.2595 18.8967 113.4631 -5.2213 6.8700 -8.0827
# 4 -2.4935 -6.7861 -5.2213 24.9944 -8.2296 8.9426
# 5 -6.7510 -6.4464 6.8700 -8.2296 29.5297 3.4157
# 6 3.5473 12.2952 -8.0827 8.9426 3.4157 34.6745
#
#
#
# Elastic Compliance Matrix: (Units=1/GPa)
#
#
# Indices 1 2 3 4 5 6 
#
# 1 0.014983 0.007084 -0.004071 0.008501 0.009224 -0.008094
# 2 0.007084 0.103690 -0.023278 0.065647 0.055521 -0.065318
# 3 -0.004071 -0.023278 0.014779 -0.015082 -0.015684 0.017550
# 4 0.008501 0.065647 -0.015082 0.093077 0.052295 -0.056819
# 5 0.009224 0.055521 -0.015684 0.052295 0.071501 -0.044817
# 6 -0.008094 -0.065318 0.017550 -0.056819 -0.044817 0.075988
#
#
# Mechanical properties :
#
#
# Convention : Reuss Voigt Hill
#
# Bulk Modulus (GPa) = 10.76166 33.37807 22.06987
# Shear Modulus (GPa) = 11.22274 29.65609 20.43942
#
# Velocity S-wave (km/s) = 2.28144 3.70865 3.07888
# Velocity P-wave (km/s) = 3.45414 5.81542 4.78279
#
# Compressibility (1/GPa) = 0.09292246
#
# Stress axis : x y z
#
# Youngs Moduli (GPa) = 66.74091 9.64410 67.66150
#
# Poissons Ratio (x) = -0.06831 0.27544
# Poissons Ratio (y) = -0.47276 1.57502
# Poissons Ratio (z) = 0.27169 0.22450
#
# Static dielectric constant tensor:
#      x y z
#    x 1.785470 0.004510 0.003190 
#    y 0.004510 1.894620 -0.075670 
#    z 0.003190 -0.075670 1.859730 
# 
# From -- ./inp_files/217286.got.cif
#   From: 2010.05.17/outbox.cif.g08.bks.cpg/sg2_109_cif.got.tgz:217286.got - 2010.06.03 11:33:40.
