data_PCOD9097769
_publ_section_title
;
Structure prediction by ZEFSAII (Michael W. Deem and Ramdas Pophale) SiO2 
 PCOD9097769
Probable space group: P -1
;
_chemical_formula_sum "Si O2"
_cell_formula_units_Z 14
_cell_length_a 21.627014
_cell_length_b 9.098031
_cell_length_c 18.144384
_cell_angle_alpha 47.168808
_cell_angle_beta 161.945952
_cell_angle_gamma 142.083433
_cell_volume 632.011237
_symmetry_space_group_name_H-M "P -1"
_symmetry_group_IT_number 2
_symmetry_cell_setting 'triclinic'
loop_
_space_group_symop_operation_xyz
x,y,z
-x,-y,-z
loop_
_atom_site_type_symbol
_atom_site_label
_atom_site_fract_x
_atom_site_fract_y
_atom_site_fract_z
Si Si1 0.290423 0.226235 0.416841
Si Si2 0.049489 0.908643 0.662199
Si Si3 0.461031 0.774964 0.429437
Si Si4 0.803298 0.044637 0.856940
Si Si5 0.485476 0.493021 0.202509
Si Si6 0.037554 0.198452 0.685186
Si Si7 0.474542 0.033050 0.873463
O O1 0.407079 0.509260 0.478412
O O2 0.483083 0.196380 0.604381
O O3 0.115601 0.017714 0.351097
O O4 0.095700 0.166004 0.151156
O O5 0.778450 0.629684 0.466429
O O6 0.295094 0.925461 0.922581
O O7 0.000000 0.000000 0.500000
O O8 0.097358 0.092662 0.720296
O O9 0.695640 0.002974 0.667352
O O10 0.237451 0.781354 0.200261
O O11 0.637573 0.766309 0.803581
O O12 0.496101 0.707560 0.186407
O O13 0.302221 0.424490 0.947660
O O14 0.810425 0.201619 0.397943
O O15 0.500000 0.000000 0.000000
#
# Coordination Sequence:
#
# PCOD9097769 Si02
#       7
#     2   2   2   2   2   2   2
#     4  10  21  38  58  89 122 154 199 240 292 349
#     4  11  22  42  61  85 119 155 200 249 305 356
#     4  10  20  36  62  86 120 160 192 238 294 348
#     4  10  21  38  58  89 122 154 199 240 292 349
#     4  10  23  40  61  91 122 156 201 250 295 359
#     4  10  23  40  61  91 122 156 201 250 295 359
#     4  11  22  42  61  85 119 155 200 249 305 356
#
# _framework density 22.151505
#
# number of rings (size 3 to 8) (size 9 to 14) (size 15 to 20)
#    0.000    1.714    2.857    2.571    0.000    6.857 
#    0.000    7.143    0.000    0.000    0.000    0.000 
#    0.000    0.000    0.000    0.000    0.000    0.000 
#
# Total GULP energy -78174.092412 kJ/mol
# GULP energy per Si atom -5583.863744 kJ/mol
# Density = 2.210109 g / cm^3
# Si number density = 22.151505 Si / 1000 Ang^3
#
#
#
# Elastic Constant Matrix: (Units=GPa)
#
#
# Indices 1 2 3 4 5 6 
#
# 1 87.0657 25.8856 23.4716 -6.2399 26.8638 -23.0484
# 2 25.8856 64.2291 10.5246 5.5723 9.5061 -13.0071
# 3 23.4716 10.5246 134.7883 10.9659 11.2190 -22.5936
# 4 -6.2399 5.5723 10.9659 32.6515 -7.9855 -2.4620
# 5 26.8638 9.5061 11.2190 -7.9855 44.8893 -6.5127
# 6 -23.0484 -13.0071 -22.5936 -2.4620 -6.5127 27.6286
#
#
#
# Elastic Compliance Matrix: (Units=1/GPa)
#
#
# Indices 1 2 3 4 5 6 
#
# 1 0.018603 -0.004210 -0.000612 0.003437 -0.007808 0.011501
# 2 -0.004210 0.018802 0.000593 -0.004229 -0.001628 0.005064
# 3 -0.000612 0.000593 0.008946 -0.003135 -0.001621 0.006423
# 4 0.003437 -0.004229 -0.003135 0.034799 0.006231 0.002882
# 5 -0.007808 -0.001628 -0.001621 0.006231 0.028619 -0.001304
# 6 0.011501 0.005064 0.006423 0.002882 -0.001304 0.053375
#
#
# Mechanical properties :
#
#
# Convention : Reuss Voigt Hill
#
# Bulk Modulus (GPa) = 26.39062 45.09407 35.74235
# Shear Modulus (GPa) = 27.13957 36.11397 31.62677
#
# Velocity S-wave (km/s) = 3.50405 4.04210 3.78265
# Velocity P-wave (km/s) = 5.32078 6.49508 5.93704
#
# Compressibility (1/GPa) = 0.03789225
#
# Stress axis : x y z
#
# Youngs Moduli (GPa) = 53.75595 53.18512 111.78312
#
# Poissons Ratio (x) = 0.22392 0.06846
# Poissons Ratio (y) = 0.22633 -0.06634
# Poissons Ratio (z) = 0.03292 -0.03156
#
# Static dielectric constant tensor:
#      x y z
#    x 1.801210 0.023960 -0.046630 
#    y 0.023960 1.797720 -0.005930 
#    z -0.046630 -0.005930 1.840810 
# 
# From -- ./inp_files/315453.got.cif
#   From: 2010.05.17/outbox.cif.g08.bks.cpg/sg2_158_cif.got.tgz:315453.got - 2010.06.03 11:33:40.
