data_PCOD9097435
_publ_section_title
;
Structure prediction by ZEFSAII (Michael W. Deem and Ramdas Pophale) SiO2 
 PCOD9097435
Probable space group: P -1
;
_chemical_formula_sum "Si O2"
_cell_formula_units_Z 14
_cell_length_a 10.151053
_cell_length_b 7.918042
_cell_length_c 8.609480
_cell_angle_alpha 87.421765
_cell_angle_beta 106.457562
_cell_angle_gamma 120.864488
_cell_volume 565.415637
_symmetry_space_group_name_H-M "P -1"
_symmetry_group_IT_number 2
_symmetry_cell_setting 'triclinic'
loop_
_space_group_symop_operation_xyz
x,y,z
-x,-y,-z
loop_
_atom_site_type_symbol
_atom_site_label
_atom_site_fract_x
_atom_site_fract_y
_atom_site_fract_z
Si Si1 0.389276 0.121097 0.823415
Si Si2 0.380698 0.459466 0.600699
Si Si3 0.614944 0.419429 0.095657
Si Si4 0.106493 0.814197 0.944093
Si Si5 0.824514 0.107340 0.475753
Si Si6 0.896556 0.822706 0.660035
Si Si7 0.981927 0.594610 0.221573
O O1 0.368126 0.282730 0.711740
O O2 0.266279 0.010337 0.930131
O O3 0.335522 0.957905 0.674579
O O4 0.562698 0.242444 0.961011
O O5 0.500000 0.500000 0.500000
O O6 0.425089 0.629239 0.733773
O O7 0.217296 0.383757 0.455314
O O8 0.807028 0.574405 0.156137
O O9 0.500000 0.500000 0.000000
O O10 0.068457 0.628367 0.827098
O O11 0.949401 0.827492 0.852773
O O12 0.094571 0.736029 0.115426
O O13 0.938733 0.090471 0.385565
O O14 0.922672 0.312416 0.591327
O O15 0.811669 0.947883 0.603591
#
# Coordination Sequence:
#
# PCOD9097435 Si02
#       7
#     2   2   2   2   2   2   2
#     4   9  21  39  59  88 124 157 196 248 307 352
#     4  10  20  36  60  92 122 155 202 251 300 362
#     4  10  22  39  61  90 123 159 200 253 308 349
#     4  10  24  39  62  89 126 161 201 250 301 363
#     4   9  18  37  61  87 117 153 204 251 289 356
#     4   9  18  34  58  88 118 150 199 254 295 342
#     4  11  23  41  63  90 121 163 209 243 299 367
#
# _framework density 24.760546999999999
#
# number of rings (size 3 to 8) (size 9 to 14) (size 15 to 20)
#    0.000    2.286    1.429    0.857    8.000    5.714 
#    0.000    0.000    0.000    2.571    0.000    0.000 
#    0.000    0.000    0.000    0.000    0.000    0.000 
#
# Total GULP energy -77994.923748 kJ/mol
# GULP energy per Si atom -5571.065982 kJ/mol
# Density = 2.470419 g / cm^3
# Si number density = 24.760547 Si / 1000 Ang^3
#
#
#
# Elastic Constant Matrix: (Units=GPa)
#
#
# Indices 1 2 3 4 5 6 
#
# 1 42.9774 25.3217 8.2382 1.1471 -1.8146 -6.7591
# 2 25.3217 83.9823 55.4356 -1.8522 -3.0367 6.3133
# 3 8.2382 55.4356 110.4865 36.9211 -4.7708 -0.9710
# 4 1.1471 -1.8522 36.9211 59.7475 9.0028 3.3892
# 5 -1.8146 -3.0367 -4.7708 9.0028 25.9052 0.6240
# 6 -6.7591 6.3133 -0.9710 3.3892 0.6240 20.9042
#
#
#
# Elastic Compliance Matrix: (Units=1/GPa)
#
#
# Indices 1 2 3 4 5 6 
#
# 1 0.036309 -0.019602 0.010831 -0.009895 0.005207 0.019612
# 2 -0.019602 0.033678 -0.021552 0.016898 -0.006784 -0.020047
# 3 0.010831 -0.021552 0.025975 -0.019129 0.009326 0.014041
# 4 -0.009895 0.016898 -0.019129 0.032029 -0.013029 -0.013995
# 5 0.005207 -0.006784 0.009326 -0.013029 0.044298 0.004956
# 6 0.019612 -0.020047 0.014041 -0.013995 0.004956 0.063006
#
#
# Mechanical properties :
#
#
# Convention : Reuss Voigt Hill
#
# Bulk Modulus (GPa) = 28.31409 46.15969 37.23689
# Shear Modulus (GPa) = 16.24899 31.20810 23.72855
#
# Velocity S-wave (km/s) = 2.56451 3.55406 3.09903
# Velocity P-wave (km/s) = 4.49766 5.96026 5.27985
#
# Compressibility (1/GPa) = 0.03531811
#
# Stress axis : x y z
#
# Youngs Moduli (GPa) = 27.54131 29.69313 38.49846
#
# Poissons Ratio (x) = 0.58203 -0.41699
# Poissons Ratio (y) = 0.53985 0.82971
# Poissons Ratio (z) = -0.29831 0.63994
#
# Static dielectric constant tensor:
#      x y z
#    x 2.074720 -0.048430 0.053000 
#    y -0.048430 2.125450 0.080230 
#    z 0.053000 0.080230 2.047040 
# 
# From -- ./inp_files/176249.got.cif
#   From: 2010.05.17/outbox.cif.g08.bks.cpg/sg2_89_cif.got.tgz:176249.got - 2010.06.03 11:33:40.
