data_PCOD9097663
_publ_section_title
;
Structure prediction by ZEFSAII (Michael W. Deem and Ramdas Pophale) SiO2 
 PCOD9097663
Probable space group: P -1
;
_chemical_formula_sum "Si O2"
_cell_formula_units_Z 14
_cell_length_a 7.783170
_cell_length_b 8.685570
_cell_length_c 13.255984
_cell_angle_alpha 59.072919
_cell_angle_beta 118.009226
_cell_angle_gamma 79.079395
_cell_volume 558.177594
_symmetry_space_group_name_H-M "P -1"
_symmetry_group_IT_number 2
_symmetry_cell_setting 'triclinic'
loop_
_space_group_symop_operation_xyz
x,y,z
-x,-y,-z
loop_
_atom_site_type_symbol
_atom_site_label
_atom_site_fract_x
_atom_site_fract_y
_atom_site_fract_z
Si Si1 0.479503 0.799469 0.581272
Si Si2 0.169988 0.265665 0.172646
Si Si3 0.743746 0.473923 0.588230
Si Si4 0.638296 0.176516 0.133974
Si Si5 0.999554 0.991208 0.883275
Si Si6 0.064211 0.719236 0.490266
Si Si7 0.186216 0.567381 0.803378
O O1 0.589758 0.750703 0.739327
O O2 0.242710 0.803194 0.508673
O O3 0.672012 0.627738 0.611850
O O4 0.500000 0.000000 0.500000
O O5 0.179757 0.072245 0.181420
O O6 0.034814 0.296220 0.229310
O O7 0.000000 0.500000 0.000000
O O8 0.500000 0.500000 0.500000
O O9 0.825648 0.475277 0.497232
O O10 0.361966 0.314345 0.975410
O O11 0.928913 0.227663 0.754107
O O12 0.765861 0.163722 0.066149
O O13 0.671916 0.325735 0.168266
O O14 0.804542 0.930892 0.312524
O O15 0.000000 0.000000 0.000000
O O16 0.097589 0.619379 0.645292
#
# Coordination Sequence:
#
# PCOD9097663 Si02
#       7
#     2   2   2   2   2   2   2
#     4  11  22  39  63  96 131 163 209 274 335 373
#     4  11  24  40  61  97 133 163 212 276 333 374
#     4   9  19  35  60  91 122 166 216 256 312 391
#     4   9  20  35  60  95 122 157 228 260 304 373
#     4  10  20  36  61  92 123 171 219 259 309 393
#     4  10  21  39  67  92 123 174 220 263 312 394
#     4  10  21  38  63  91 129 171 218 261 319 395
#
# _framework density 25.081623
#
# number of rings (size 3 to 8) (size 9 to 14) (size 15 to 20)
#    0.000    2.000    0.000    4.714   10.000    0.000 
#    0.000    0.714    0.000   11.143    0.000    0.000 
#    0.000    0.000    0.000    0.000    0.000    0.000 
#
# Total GULP energy -78021.429655 kJ/mol
# GULP energy per Si atom -5572.959261 kJ/mol
# Density = 2.502454 g / cm^3
# Si number density = 25.081623 Si / 1000 Ang^3
#
#
#
# Elastic Constant Matrix: (Units=GPa)
#
#
# Indices 1 2 3 4 5 6 
#
# 1 114.9811 23.4079 27.4780 12.9906 -6.3165 -9.5589
# 2 23.4079 128.7094 18.6708 17.6605 3.8112 -14.2664
# 3 27.4780 18.6708 123.7309 13.8542 -2.4673 -14.6933
# 4 12.9906 17.6605 13.8542 46.5458 -10.3937 -1.9921
# 5 -6.3165 3.8112 -2.4673 -10.3937 41.2722 4.0536
# 6 -9.5589 -14.2664 -14.6933 -1.9921 4.0536 32.6243
#
#
#
# Elastic Compliance Matrix: (Units=1/GPa)
#
#
# Indices 1 2 3 4 5 6 
#
# 1 0.009662 -0.001197 -0.001617 -0.001483 0.000985 0.001366
# 2 -0.001197 0.008940 -0.000345 -0.003298 -0.002201 0.003475
# 3 -0.001617 -0.000345 0.009125 -0.002107 -0.000537 0.003423
# 4 -0.001483 -0.003298 -0.002107 0.025136 0.006488 -0.002097
# 5 0.000985 -0.002201 -0.000537 0.006488 0.026560 -0.003820
# 6 0.001366 0.003475 0.003423 -0.002097 -0.003820 0.034460
#
#
# Mechanical properties :
#
#
# Convention : Reuss Voigt Hill
#
# Bulk Modulus (GPa) = 46.70946 56.28164 51.49555
# Shear Modulus (GPa) = 39.26532 43.94609 41.60570
#
# Velocity S-wave (km/s) = 3.96093 4.19038 4.07727
# Velocity P-wave (km/s) = 6.29143 6.77499 6.53768
#
# Compressibility (1/GPa) = 0.02140894
#
# Stress axis : x y z
#
# Youngs Moduli (GPa) = 103.49312 111.85505 109.58885
#
# Poissons Ratio (x) = 0.13388 0.17724
# Poissons Ratio (y) = 0.12387 0.03782
# Poissons Ratio (z) = 0.16738 0.03860
#
# Static dielectric constant tensor:
#      x y z
#    x 2.072340 0.026480 -0.059250 
#    y 0.026480 2.008030 0.067920 
#    z -0.059250 0.067920 2.206400 
# 
# From -- ./inp_files/492328.got.cif
#   From: 2010.05.17/outbox.cif.g08.bks.cpg/sg2_247_cif.got.tgz:492328.got - 2010.06.03 11:33:40.
