data_PCOD9097892
_publ_section_title
;
Structure prediction by ZEFSAII (Michael W. Deem and Ramdas Pophale) SiO2 
 PCOD9097892
Probable space group: P -1
;
_chemical_formula_sum "Si O2"
_cell_formula_units_Z 16
_cell_length_a 11.637096
_cell_length_b 9.258886
_cell_length_c 16.183977
_cell_angle_alpha 34.199326
_cell_angle_beta 117.561704
_cell_angle_gamma 101.231301
_cell_volume 804.730106
_symmetry_space_group_name_H-M "P -1"
_symmetry_group_IT_number 2
_symmetry_cell_setting 'triclinic'
loop_
_space_group_symop_operation_xyz
x,y,z
-x,-y,-z
loop_
_atom_site_type_symbol
_atom_site_label
_atom_site_fract_x
_atom_site_fract_y
_atom_site_fract_z
Si Si1 0.587922 0.822735 0.211880
Si Si2 0.842925 0.845444 0.801417
Si Si3 0.287303 0.022967 0.964929
Si Si4 0.140397 0.011529 0.077277
Si Si5 0.132365 0.765436 0.909321
Si Si6 0.365336 0.422960 0.479952
Si Si7 0.532429 0.977989 0.617113
Si Si8 0.411500 0.603895 0.003957
O O1 0.656478 0.678140 0.387986
O O2 0.685512 0.767696 0.189911
O O3 0.440962 0.802423 0.147653
O O4 0.548175 0.151506 0.060579
O O5 0.678342 0.028169 0.652277
O O6 0.966015 0.925879 0.764555
O O7 0.875754 0.829028 0.917741
O O8 0.855765 0.543916 0.917083
O O9 0.194922 0.887900 0.946779
O O10 0.211008 0.134188 0.972638
O O11 0.240322 0.694619 0.279777
O O12 0.000000 0.000000 0.000000
O O13 0.240631 0.734505 0.884603
O O14 0.500000 0.500000 0.500000
O O15 0.413430 0.183745 0.539703
O O16 0.556504 0.667960 0.801251
O O17 0.500000 0.000000 0.500000
O O18 0.500000 0.500000 0.000000
#
# Coordination Sequence:
#
# PCOD9097892 Si02
#       8
#     2   2   2   2   2   2   2   2
#     4  10  21  38  62  90 127 168 208 268 319 368
#     4  10  20  38  58  91 124 166 201 262 321 366
#     4  10  20  36  62  92 120 163 213 255 317 381
#     4  12  24  39  63  92 129 167 213 261 322 386
#     4   9  20  34  61  87 121 162 209 253 304 384
#     4  12  23  38  62  93 129 160 216 271 316 369
#     4  11  24  37  64  97 126 161 216 271 314 370
#     4  10  20  38  62  92 123 169 211 251 320 383
#
# _framework density 19.882444
#
# number of rings (size 3 to 8) (size 9 to 14) (size 15 to 20)
#    0.000    1.500    5.000    0.000    7.000    0.000 
#    0.000    0.625    0.000    0.750    0.000    0.000 
#    0.000    0.000    0.000    0.000    0.000    0.000 
#
# Total GULP energy -89196.528211 kJ/mol
# GULP energy per Si atom -5574.783013 kJ/mol
# Density = 1.983719 g / cm^3
# Si number density = 19.882444 Si / 1000 Ang^3
#
#
#
# Elastic Constant Matrix: (Units=GPa)
#
#
# Indices 1 2 3 4 5 6 
#
# 1 132.1207 26.2505 39.2399 25.6315 -4.2458 -13.1302
# 2 26.2505 59.9715 23.2947 12.2303 -1.3547 1.8250
# 3 39.2399 23.2947 84.9695 15.7907 -2.2868 -5.9679
# 4 25.6315 12.2303 15.7907 33.7228 -2.9026 -2.0304
# 5 -4.2458 -1.3547 -2.2868 -2.9026 32.2259 13.3742
# 6 -13.1302 1.8250 -5.9679 -2.0304 13.3742 41.6953
#
#
#
# Elastic Compliance Matrix: (Units=1/GPa)
#
#
# Indices 1 2 3 4 5 6 
#
# 1 0.010207 -0.002340 -0.002878 -0.005445 -0.000627 0.002841
# 2 -0.002340 0.020080 -0.003887 -0.003756 0.001037 -0.002688
# 3 -0.002878 -0.003887 0.014864 -0.003312 -0.000342 0.001340
# 4 -0.005445 -0.003756 -0.003312 0.036869 0.002659 -0.001082
# 5 -0.000627 0.001037 -0.000342 0.002659 0.036077 -0.011734
# 6 0.002841 -0.002688 0.001340 -0.001082 -0.011734 0.028899
#
#
# Mechanical properties :
#
#
# Convention : Reuss Voigt Hill
#
# Bulk Modulus (GPa) = 37.11819 50.51464 43.81642
# Shear Modulus (GPa) = 28.70504 34.08058 31.39281
#
# Velocity S-wave (km/s) = 3.80378 4.14467 3.97787
# Velocity P-wave (km/s) = 6.16449 6.95458 6.57142
#
# Compressibility (1/GPa) = 0.02694097
#
# Stress axis : x y z
#
# Youngs Moduli (GPa) = 97.97309 49.80074 67.27721
#
# Poissons Ratio (x) = 0.11655 0.19360
# Poissons Ratio (y) = 0.22928 0.26151
# Poissons Ratio (z) = 0.28193 0.19358
#
# Static dielectric constant tensor:
#      x y z
#    x 1.769100 -0.016410 0.054090 
#    y -0.016410 1.722300 -0.020970 
#    z 0.054090 -0.020970 1.650460 
# 
# From -- ./inp_files/321011.got.cif
#   From: 2010.05.17/outbox.cif.g08.bks.cpg/sg2_161_cif.got.tgz:321011.got - 2010.06.03 11:33:40.
