data_PCOD9097117
_publ_section_title
;
Structure prediction by ZEFSAII (Michael W. Deem and Ramdas Pophale) SiO2 
 PCOD9097117
Probable space group: P -1
;
_chemical_formula_sum "Si O2"
_cell_formula_units_Z 16
_cell_length_a 6.090063
_cell_length_b 13.396891
_cell_length_c 15.082863
_cell_angle_alpha 130.836581
_cell_angle_beta 126.195596
_cell_angle_gamma 52.257212
_cell_volume 697.998977
_symmetry_space_group_name_H-M "P -1"
_symmetry_group_IT_number 2
_symmetry_cell_setting 'triclinic'
loop_
_space_group_symop_operation_xyz
x,y,z
-x,-y,-z
loop_
_atom_site_type_symbol
_atom_site_label
_atom_site_fract_x
_atom_site_fract_y
_atom_site_fract_z
Si Si1 0.315601 0.838225 0.822166
Si Si2 0.510361 0.569697 0.136535
Si Si3 0.763626 0.343095 0.704565
Si Si4 0.546737 0.842755 0.246268
Si Si5 0.571117 0.017462 0.891788
Si Si6 0.798143 0.758777 0.690404
Si Si7 0.347143 0.907395 0.527194
Si Si8 0.816451 0.556300 0.716378
O O1 0.606115 0.698642 0.797251
O O2 0.058951 0.777936 0.707924
O O3 0.304041 0.969574 0.831751
O O4 0.344299 0.902130 0.961935
O O5 0.325984 0.559431 0.172751
O O6 0.402720 0.736803 0.185653
O O7 0.847549 0.501276 0.206736
O O8 0.500000 0.500000 0.000000
O O9 0.602355 0.230118 0.600556
O O10 0.702527 0.435583 0.653819
O O11 0.107809 0.251314 0.733138
O O12 0.458893 0.899134 0.158664
O O13 0.506943 0.974939 0.378773
O O14 0.803534 0.860905 0.833443
O O15 0.490053 0.833988 0.611542
O O16 0.823808 0.607467 0.646677
O O17 0.000000 0.000000 0.500000
#
# Coordination Sequence:
#
# PCOD9097117 Si02
#       8
#     2   2   2   2   2   2   2   2
#     4  10  20  36  59  87 127 164 201 250 309 371
#     4  11  25  39  60  92 124 166 212 256 308 375
#     4  10  22  41  61  86 126 167 210 256 314 359
#     4   9  21  38  62  92 119 159 206 256 312 367
#     4   9  20  35  57  90 123 161 201 252 309 367
#     4  10  20  38  63  93 122 160 210 252 311 374
#     4   9  20  43  67  92 125 159 209 266 308 369
#     4  10  23  39  58  89 127 164 207 256 307 372
#
# _framework density 22.922671000000001
#
# number of rings (size 3 to 8) (size 9 to 14) (size 15 to 20)
#    0.000    2.250    0.000    1.125    5.250    4.000 
#    2.250   13.750    0.000    0.000    0.000    0.000 
#    0.000    0.000    0.000    0.000    0.000    0.000 
#
# Total GULP energy -89073.144523 kJ/mol
# GULP energy per Si atom -5567.071533 kJ/mol
# Density = 2.287050 g / cm^3
# Si number density = 22.922671 Si / 1000 Ang^3
#
#
#
# Elastic Constant Matrix: (Units=GPa)
#
#
# Indices 1 2 3 4 5 6 
#
# 1 52.1605 33.3082 13.4991 -5.9940 -1.4128 19.6919
# 2 33.3082 116.0382 17.4538 -11.2339 15.3689 23.6842
# 3 13.4991 17.4538 54.9659 -0.9387 -4.3021 11.4688
# 4 -5.9940 -11.2339 -0.9387 26.5856 -0.7237 -3.5436
# 5 -1.4128 15.3689 -4.3021 -0.7237 12.9931 8.6947
# 6 19.6919 23.6842 11.4688 -3.5436 8.6947 38.2030
#
#
#
# Elastic Compliance Matrix: (Units=1/GPa)
#
#
# Indices 1 2 3 4 5 6 
#
# 1 0.032073 -0.009101 0.000553 0.001874 0.025742 -0.016741
# 2 -0.009101 0.014592 -0.004399 0.003665 -0.020879 0.002057
# 3 0.000553 -0.004399 0.022702 -0.001593 0.018541 -0.008740
# 4 0.001874 0.003665 -0.001593 0.039663 -0.003615 0.001742
# 5 0.025742 -0.020879 0.018541 -0.003615 0.135147 -0.036985
# 6 -0.016741 0.002057 -0.008740 0.001742 -0.036985 0.044733
#
#
# Mechanical properties :
#
#
# Convention : Reuss Voigt Hill
#
# Bulk Modulus (GPa) = 23.00291 39.07633 31.03962
# Shear Modulus (GPa) = 15.18398 26.14990 20.66694
#
# Velocity S-wave (km/s) = 2.57651 3.38122 3.00591
# Velocity P-wave (km/s) = 4.34833 5.68573 5.06140
#
# Compressibility (1/GPa) = 0.04347275
#
# Stress axis : x y z
#
# Youngs Moduli (GPa) = 31.17926 68.52997 44.04902
#
# Poissons Ratio (x) = 0.62366 -0.02435
# Poissons Ratio (y) = 0.28375 0.19379
# Poissons Ratio (z) = -0.01724 0.30149
#
# Static dielectric constant tensor:
#      x y z
#    x 1.990650 0.067300 0.002600 
#    y 0.067300 1.878520 0.022990 
#    z 0.002600 0.022990 1.892680 
# 
# From -- ./inp_files/482973.got.cif
#   From: 2010.05.17/outbox.cif.g08.bks.cpg/sg2_242_cif.got.tgz:482973.got - 2010.06.03 11:33:40.
