data_PCOD9097390
_publ_section_title
;
Structure prediction by ZEFSAII (Michael W. Deem and Ramdas Pophale) SiO2 
 PCOD9097390
Probable space group: P -1
;
_chemical_formula_sum "Si O2"
_cell_formula_units_Z 14
_cell_length_a 7.938207
_cell_length_b 11.161781
_cell_length_c 7.246709
_cell_angle_alpha 84.914533
_cell_angle_beta 65.807349
_cell_angle_gamma 102.713199
_cell_volume 559.681839
_symmetry_space_group_name_H-M "P -1"
_symmetry_group_IT_number 2
_symmetry_cell_setting 'triclinic'
loop_
_space_group_symop_operation_xyz
x,y,z
-x,-y,-z
loop_
_atom_site_type_symbol
_atom_site_label
_atom_site_fract_x
_atom_site_fract_y
_atom_site_fract_z
Si Si1 0.900038 0.088562 0.921834
Si Si2 0.742526 0.292024 0.960407
Si Si3 0.226399 0.009755 0.383908
Si Si4 0.676528 0.238072 0.570293
Si Si5 0.010725 0.447748 0.292400
Si Si6 0.302653 0.242521 0.574502
Si Si7 0.616844 0.620556 0.818273
O O1 0.785317 0.174696 0.059608
O O2 0.759355 0.004889 0.841628
O O3 0.542319 0.758278 0.340892
O O4 0.000000 0.000000 0.000000
O O5 0.747936 0.264002 0.743803
O O6 0.898120 0.428811 0.889169
O O7 0.527050 0.296932 0.089000
O O8 0.287353 0.895562 0.464422
O O9 0.916440 0.803169 0.256134
O O10 0.317371 0.133738 0.440637
O O11 0.802245 0.350613 0.370396
O O12 0.162572 0.363757 0.224520
O O13 0.000000 0.500000 0.500000
O O14 0.358770 0.371281 0.416061
O O15 0.000000 0.000000 0.500000
O O16 0.500000 0.500000 0.000000
#
# Coordination Sequence:
#
# PCOD9097390 Si02
#       7
#     2   2   2   2   2   2   2
#     4  10  22  41  63  91 121 162 210 255 307 365
#     4   9  20  39  60  87 124 161 202 257 308 357
#     4   9  19  36  58  83 119 161 202 253 303 354
#     4  10  20  36  60  90 121 163 207 249 306 368
#     4   9  17  37  63  86 118 160 200 247 303 361
#     4  11  22  38  59  88 121 162 206 252 303 366
#     4  10  21  39  62  89 122 161 204 253 307 361
#
# _framework density 25.014209999999999
#
# number of rings (size 3 to 8) (size 9 to 14) (size 15 to 20)
#    0.000    2.286    0.000    3.857    0.000    4.571 
#    0.000   20.000    0.000    0.000    0.000    3.000 
#    0.000    0.000    0.000    0.000    0.000    0.000 
#
# Total GULP energy -78068.073796 kJ/mol
# GULP energy per Si atom -5576.290985 kJ/mol
# Density = 2.495728 g / cm^3
# Si number density = 25.014210 Si / 1000 Ang^3
#
#
#
# Elastic Constant Matrix: (Units=GPa)
#
#
# Indices 1 2 3 4 5 6 
#
# 1 96.2646 25.5957 -0.2596 -1.8631 -0.6878 -14.1693
# 2 25.5957 88.0621 8.9283 10.3290 -3.0610 -27.7861
# 3 -0.2596 8.9283 71.0344 -3.9033 -1.4821 -8.1182
# 4 -1.8631 10.3290 -3.9033 22.5993 -15.4061 -3.1002
# 5 -0.6878 -3.0610 -1.4821 -15.4061 35.7139 1.0603
# 6 -14.1693 -27.7861 -8.1182 -3.1002 1.0603 46.5806
#
#
#
# Elastic Compliance Matrix: (Units=1/GPa)
#
#
# Indices 1 2 3 4 5 6 
#
# 1 0.011640 -0.003265 0.000935 0.004015 0.001656 0.001986
# 2 -0.003265 0.015790 -0.001652 -0.008565 -0.002699 0.007629
# 3 0.000935 -0.001652 0.014913 0.005672 0.002876 0.002210
# 4 0.004015 -0.008565 0.005672 0.069855 0.029680 0.001074
# 5 0.001656 -0.002699 0.002876 0.029680 0.040710 0.000444
# 6 0.001986 0.007629 0.002210 0.001074 0.000444 0.027070
#
#
# Mechanical properties :
#
#
# Convention : Reuss Voigt Hill
#
# Bulk Modulus (GPa) = 29.08619 35.98776 32.53698
# Shear Modulus (GPa) = 25.07494 35.71854 30.39674
#
# Velocity S-wave (km/s) = 3.16955 3.78290 3.48972
# Velocity P-wave (km/s) = 5.00478 5.78779 5.41047
#
# Compressibility (1/GPa) = 0.03438057
#
# Stress axis : x y z
#
# Youngs Moduli (GPa) = 85.90708 63.33069 67.05569
#
# Poissons Ratio (x) = 0.20677 -0.06270
# Poissons Ratio (y) = 0.28048 0.11075
# Poissons Ratio (z) = -0.08032 0.10460
#
# Static dielectric constant tensor:
#      x y z
#    x 2.024450 -0.048380 -0.011150 
#    y -0.048380 2.114770 0.124280 
#    z -0.011150 0.124280 1.877710 
# 
# From -- ./inp_files/386795.got.cif
#   From: 2010.05.17/outbox.cif.g08.bks.cpg/sg2_194_cif.got.tgz:386795.got - 2010.06.03 11:33:40.
