data_PCOD9097996
_publ_section_title
;
Structure prediction by ZEFSAII (Michael W. Deem and Ramdas Pophale) SiO2 
 PCOD9097996
Probable space group: P -1
;
_chemical_formula_sum "Si O2"
_cell_formula_units_Z 14
_cell_length_a 9.644736
_cell_length_b 9.053699
_cell_length_c 16.505107
_cell_angle_alpha 117.896609
_cell_angle_beta 38.683745
_cell_angle_gamma 134.620207
_cell_volume 630.607438
_symmetry_space_group_name_H-M "P -1"
_symmetry_group_IT_number 2
_symmetry_cell_setting 'triclinic'
loop_
_space_group_symop_operation_xyz
x,y,z
-x,-y,-z
loop_
_atom_site_type_symbol
_atom_site_label
_atom_site_fract_x
_atom_site_fract_y
_atom_site_fract_z
Si Si1 0.191985 0.031725 0.619428
Si Si2 0.891471 0.133920 0.553482
Si Si3 0.718251 0.573964 0.793184
Si Si4 0.260565 0.916443 0.215272
Si Si5 0.589626 0.426050 0.640040
Si Si6 0.199234 0.529757 0.093731
Si Si7 0.745775 0.389497 0.148619
O O1 0.451880 0.208559 0.600465
O O2 0.267955 0.976202 0.485909
O O3 0.962478 0.814553 0.715754
O O4 0.022973 0.121148 0.692135
O O5 0.146105 0.372543 0.474842
O O6 0.746154 0.135361 0.700043
O O7 0.000000 0.000000 0.500000
O O8 0.668447 0.436817 0.701117
O O9 0.801712 0.530013 0.828524
O O10 0.422117 0.526885 0.938905
O O11 0.501588 0.164194 0.166223
O O12 0.299679 0.768240 0.108231
O O13 0.369309 0.477975 0.754017
O O14 0.884431 0.381507 0.164861
O O15 0.000000 0.500000 0.000000
#
# Coordination Sequence:
#
# PCOD9097996 Si02
#       7
#     2   2   2   2   2   2   2
#     4  10  20  36  63  85 115 158 193 241 292 339
#     4   9  19  37  55  92 121 146 200 247 282 345
#     4  10  23  42  55  87 125 153 196 240 294 361
#     4  11  22  37  61  91 120 153 197 246 290 342
#     4  11  20  37  64  86 117 159 194 240 294 346
#     4  11  24  38  60  86 123 159 189 244 299 343
#     4  12  22  36  59  96 119 147 201 246 281 356
#
# _framework density 22.200818000000002
#
# number of rings (size 3 to 8) (size 9 to 14) (size 15 to 20)
#    0.000    1.429    7.143    0.000    2.000    5.714 
#    0.000    5.714    0.000    5.143    0.000    0.000 
#    0.000    0.000    0.000    0.000    0.000    0.000 
#
# Total GULP energy -78259.774775 kJ/mol
# GULP energy per Si atom -5589.983913 kJ/mol
# Density = 2.215029 g / cm^3
# Si number density = 22.200818 Si / 1000 Ang^3
#
#
#
# Elastic Constant Matrix: (Units=GPa)
#
#
# Indices 1 2 3 4 5 6 
#
# 1 136.5219 39.3401 18.1650 -0.4508 16.1175 7.7029
# 2 39.3401 89.7812 8.0085 2.7826 22.7413 31.2694
# 3 18.1650 8.0085 55.6140 -3.5498 18.0286 1.8397
# 4 -0.4508 2.7826 -3.5498 21.0373 -8.3579 5.4940
# 5 16.1175 22.7413 18.0286 -8.3579 39.3192 6.4413
# 6 7.7029 31.2694 1.8397 5.4940 6.4413 36.0060
#
#
#
# Elastic Compliance Matrix: (Units=1/GPa)
#
#
# Indices 1 2 3 4 5 6 
#
# 1 0.008777 -0.004205 -0.002162 -0.000392 -0.000594 0.002050
# 2 -0.004205 0.020331 0.001656 -0.002087 -0.008789 -0.014951
# 3 -0.002162 0.001656 0.021696 -0.000572 -0.010111 -0.000188
# 4 -0.000392 -0.002087 -0.000572 0.056142 0.015094 -0.009341
# 5 -0.000594 -0.008789 -0.010111 0.015094 0.038762 -0.000961
# 6 0.002050 -0.014951 -0.000188 -0.009341 -0.000961 0.041925
#
#
# Mechanical properties :
#
#
# Convention : Reuss Voigt Hill
#
# Bulk Modulus (GPa) = 24.16393 45.88270 35.02332
# Shear Modulus (GPa) = 23.71381 33.69940 28.70660
#
# Velocity S-wave (km/s) = 3.27180 3.90030 3.59979
# Velocity P-wave (km/s) = 5.01805 6.40274 5.75221
#
# Compressibility (1/GPa) = 0.04138399
#
# Stress axis : x y z
#
# Youngs Moduli (GPa) = 113.93140 49.18635 46.09160
#
# Poissons Ratio (x) = 0.20681 0.09963
# Poissons Ratio (y) = 0.47904 -0.07634
# Poissons Ratio (z) = 0.24628 -0.08147
#
# Static dielectric constant tensor:
#      x y z
#    x 1.882160 0.001090 0.003560 
#    y 0.001090 1.792980 0.027770 
#    z 0.003560 0.027770 1.798120 
# 
# From -- ./inp_files/338087.got.cif
#   From: 2010.05.17/outbox.cif.g08.bks.cpg/sg2_170_cif.got.tgz:338087.got - 2010.06.03 11:33:40.
