data_PCOD9097045
_publ_section_title
;
Structure prediction by ZEFSAII (Michael W. Deem and Ramdas Pophale) SiO2 
 PCOD9097045
Probable space group: P -1
;
_chemical_formula_sum "Si O2"
_cell_formula_units_Z 16
_cell_length_a 15.372811
_cell_length_b 8.293792
_cell_length_c 12.274252
_cell_angle_alpha 147.152183
_cell_angle_beta 61.969550
_cell_angle_gamma 104.524173
_cell_volume 714.574780
_symmetry_space_group_name_H-M "P -1"
_symmetry_group_IT_number 2
_symmetry_cell_setting 'triclinic'
loop_
_space_group_symop_operation_xyz
x,y,z
-x,-y,-z
loop_
_atom_site_type_symbol
_atom_site_label
_atom_site_fract_x
_atom_site_fract_y
_atom_site_fract_z
Si Si1 0.961352 0.530854 0.299520
Si Si2 0.736676 0.761674 0.525199
Si Si3 0.862223 0.415966 0.638618
Si Si4 0.749253 0.062125 0.090895
Si Si5 0.124129 0.963425 0.796839
Si Si6 0.352397 0.607847 0.179998
Si Si7 0.611692 0.045309 0.969814
Si Si8 0.479528 0.341104 0.750069
O O1 0.855224 0.765988 0.454327
O O2 0.922437 0.281654 0.251565
O O3 0.030668 0.686188 0.419029
O O4 0.041098 0.304853 0.040692
O O5 0.741417 0.423439 0.284517
O O6 0.665843 0.042944 0.656290
O O7 0.691105 0.821564 0.709654
O O8 0.855485 0.183638 0.416081
O O9 0.758161 0.446502 0.783448
O O10 0.845105 0.782467 0.825354
O O11 0.777001 0.026819 0.183701
O O12 0.653977 0.018305 0.052882
O O13 0.412792 0.587225 0.246158
O O14 0.423473 0.376627 0.919935
O O15 0.592261 0.397069 0.137030
O O16 0.500000 0.000000 0.000000
O O17 0.500000 0.000000 0.500000
#
# Coordination Sequence:
#
# PCOD9097045 Si02
#       8
#     2   2   2   2   2   2   2   2
#     4   9  19  34  57  84 116 153 190 234 287 336
#     4  10  22  40  57  83 121 152 187 235 288 344
#     4  11  21  36  60  88 118 152 193 236 280 338
#     4  10  20  36  59  85 113 149 189 234 284 335
#     4   9  19  35  56  86 119 151 190 234 283 340
#     4  10  23  40  58  85 117 151 192 236 285 345
#     4  11  23  38  61  90 113 144 193 245 291 337
#     4  10  22  41  62  82 114 155 190 233 293 347
#
# _framework density 22.390937999999998
#
# number of rings (size 3 to 8) (size 9 to 14) (size 15 to 20)
#    0.000    2.000    0.000    4.125    0.000    7.000 
#    0.000    0.625    0.000    0.000    0.000    0.000 
#    0.000    0.000    0.000    0.000    0.000    0.000 
#
# Total GULP energy -89256.265030 kJ/mol
# GULP energy per Si atom -5578.516564 kJ/mol
# Density = 2.233998 g / cm^3
# Si number density = 22.390938 Si / 1000 Ang^3
#
#
#
# Elastic Constant Matrix: (Units=GPa)
#
#
# Indices 1 2 3 4 5 6 
#
# 1 164.8369 14.2885 70.3562 -2.7811 20.7457 -9.0958
# 2 14.2885 18.8899 26.8900 1.2245 2.6655 1.9061
# 3 70.3562 26.8900 131.7440 -0.0912 12.0135 -12.2678
# 4 -2.7811 1.2245 -0.0912 12.6907 -6.9356 0.4477
# 5 20.7457 2.6655 12.0135 -6.9356 38.4754 7.0615
# 6 -9.0958 1.9061 -12.2678 0.4477 7.0615 24.7918
#
#
#
# Elastic Compliance Matrix: (Units=1/GPa)
#
#
# Indices 1 2 3 4 5 6 
#
# 1 0.008319 -0.000632 -0.003757 -0.000269 -0.003741 0.002312
# 2 -0.000632 0.080315 -0.017700 -0.006357 0.002025 -0.015627
# 3 -0.003757 -0.017700 0.014187 -0.000793 -0.002752 0.007800
# 4 -0.000269 -0.006357 -0.000793 0.089547 0.018225 -0.006810
# 5 -0.003741 0.002025 -0.002752 0.018225 0.034401 -0.013018
# 6 0.002312 -0.015627 0.007800 -0.006810 -0.013018 0.050076
#
#
# Mechanical properties :
#
#
# Convention : Reuss Voigt Hill
#
# Bulk Modulus (GPa) = 17.05240 59.83781 38.44510
# Shear Modulus (GPa) = 14.68119 28.78732 21.73425
#
# Velocity S-wave (km/s) = 2.56339 3.58951 3.11894
# Velocity P-wave (km/s) = 4.04890 6.63035 5.49341
#
# Compressibility (1/GPa) = 0.05864278
#
# Stress axis : x y z
#
# Youngs Moduli (GPa) = 120.20603 12.45090 70.48918
#
# Poissons Ratio (x) = 0.00787 0.26486
# Poissons Ratio (y) = 0.07593 1.24766
# Poissons Ratio (z) = 0.45167 0.22038
#
# Static dielectric constant tensor:
#      x y z
#    x 1.845090 -0.002310 -0.005560 
#    y -0.002310 1.890540 0.028770 
#    z -0.005560 0.028770 1.824850 
# 
# From -- ./inp_files/364436.got.cif
#   From: 2010.05.17/outbox.cif.g08.bks.cpg/sg2_183_cif.got.tgz:364436.got - 2010.06.03 11:33:40.
