data_PCOD9097123
_publ_section_title
;
Structure prediction by ZEFSAII (Michael W. Deem and Ramdas Pophale) SiO2 
 PCOD9097123
Probable space group: P -1
;
_chemical_formula_sum "Si O2"
_cell_formula_units_Z 16
_cell_length_a 12.820020
_cell_length_b 12.921998
_cell_length_c 11.649939
_cell_angle_alpha 107.362847
_cell_angle_beta 75.929202
_cell_angle_gamma 37.939835
_cell_volume 655.662981
_symmetry_space_group_name_H-M "P -1"
_symmetry_group_IT_number 2
_symmetry_cell_setting 'triclinic'
loop_
_space_group_symop_operation_xyz
x,y,z
-x,-y,-z
loop_
_atom_site_type_symbol
_atom_site_label
_atom_site_fract_x
_atom_site_fract_y
_atom_site_fract_z
Si Si1 0.557602 0.671929 0.563050
Si Si2 0.461868 0.939134 0.835201
Si Si3 0.788140 0.316978 0.583232
Si Si4 0.619455 0.228385 0.904724
Si Si5 0.593456 0.518809 0.177626
Si Si6 0.821686 0.942234 0.417166
Si Si7 0.077430 0.101129 0.072948
Si Si8 0.743443 0.643810 0.904418
O O1 0.570287 0.588340 0.647957
O O2 0.826858 0.377183 0.319029
O O3 0.278501 0.924187 0.637792
O O4 0.596953 0.758398 0.625499
O O5 0.218757 0.078600 0.980804
O O6 0.683595 0.728961 0.814627
O O7 0.317921 0.191419 0.951747
O O8 0.651166 0.330113 0.652226
O O9 0.904865 0.264193 0.651524
O O10 0.083251 0.035255 0.334984
O O11 0.709804 0.169453 0.991760
O O12 0.395996 0.497758 0.967858
O O13 0.497332 0.220092 0.946518
O O14 0.899213 0.213145 0.056115
O O15 0.461276 0.761804 0.330458
O O16 0.939604 0.709758 0.290296
#
# Coordination Sequence:
#
# PCOD9097123 Si02
#       8
#     2   2   2   2   2   2   2   2
#     4  10  21  38  63  86 121 158 198 242 296 352
#     4  10  21  42  63  86 125 157 193 252 296 346
#     4  10  20  40  61  84 120 158 197 245 293 349
#     4   9  19  36  59  83 117 152 192 245 289 348
#     4  10  21  38  62  86 117 159 197 245 296 345
#     4  10  20  36  59  88 117 149 199 242 291 355
#     4   9  21  39  59  88 121 153 204 240 289 360
#     4  10  21  39  62  88 119 157 195 243 304 352
#
# _framework density 24.402781000000001
#
# number of rings (size 3 to 8) (size 9 to 14) (size 15 to 20)
#    0.000    2.250    1.250    1.500    1.750    6.000 
#    4.500    6.875    0.000    0.000    0.000    0.000 
#    0.000    0.000    0.000    0.000    0.000    0.000 
#
# Total GULP energy -89349.348468 kJ/mol
# GULP energy per Si atom -5584.334279 kJ/mol
# Density = 2.434724 g / cm^3
# Si number density = 24.402781 Si / 1000 Ang^3
#
#
#
# Elastic Constant Matrix: (Units=GPa)
#
#
# Indices 1 2 3 4 5 6 
#
# 1 61.5808 35.6946 9.4210 1.1895 13.0186 -1.8128
# 2 35.6946 166.4852 36.0901 13.1932 14.9278 -32.2849
# 3 9.4210 36.0901 60.4813 0.0968 12.8370 3.6601
# 4 1.1895 13.1932 0.0968 45.6915 -3.7878 5.2583
# 5 13.0186 14.9278 12.8370 -3.7878 34.2909 0.0966
# 6 -1.8128 -32.2849 3.6601 5.2583 0.0966 41.5845
#
#
#
# Elastic Compliance Matrix: (Units=1/GPa)
#
#
# Indices 1 2 3 4 5 6 
#
# 1 0.019867 -0.004559 0.001042 0.000636 -0.005870 -0.002831
# 2 -0.004559 0.010367 -0.005776 -0.003972 -0.001084 0.008863
# 3 0.001042 -0.005776 0.021415 0.001879 -0.005672 -0.006548
# 4 0.000636 -0.003972 0.001879 0.024020 0.003455 -0.006267
# 5 -0.005870 -0.001084 -0.005672 0.003455 0.034371 -0.001115
# 6 -0.002831 0.008863 -0.006548 -0.006267 -0.001115 0.032176
#
#
# Mechanical properties :
#
#
# Convention : Reuss Voigt Hill
#
# Bulk Modulus (GPa) = 30.24449 50.10652 40.17550
# Shear Modulus (GPa) = 29.09983 38.13613 33.61798
#
# Velocity S-wave (km/s) = 3.45698 3.95749 3.71567
# Velocity P-wave (km/s) = 5.32494 6.43894 5.90826
#
# Compressibility (1/GPa) = 0.03306388
#
# Stress axis : x y z
#
# Youngs Moduli (GPa) = 50.33464 96.46413 46.69534
#
# Poissons Ratio (x) = 0.43973 -0.04864
# Poissons Ratio (y) = 0.22945 0.26970
# Poissons Ratio (z) = -0.05243 0.55715
#
# Static dielectric constant tensor:
#      x y z
#    x 1.917160 -0.029730 0.033370 
#    y -0.029730 1.985250 0.030970 
#    z 0.033370 0.030970 2.050930 
# 
# From -- ./inp_files/283248.got.cif
#   From: 2010.05.17/outbox.cif.g08.bks.cpg/sg2_142_cif.got.tgz:283248.got - 2010.06.03 11:33:40.
