data_PCOD9097861
_publ_section_title
;
Structure prediction by ZEFSAII (Michael W. Deem and Ramdas Pophale) SiO2 
 PCOD9097861
Probable space group: P -1
;
_chemical_formula_sum "Si O2"
_cell_formula_units_Z 15
_cell_length_a 10.118185
_cell_length_b 16.297285
_cell_length_c 7.335794
_cell_angle_alpha 131.832404
_cell_angle_beta 47.503846
_cell_angle_gamma 142.036167
_cell_volume 524.048107
_symmetry_space_group_name_H-M "P -1"
_symmetry_group_IT_number 2
_symmetry_cell_setting 'triclinic'
loop_
_space_group_symop_operation_xyz
x,y,z
-x,-y,-z
loop_
_atom_site_type_symbol
_atom_site_label
_atom_site_fract_x
_atom_site_fract_y
_atom_site_fract_z
Si Si1 0.431673 0.761962 0.804391
Si Si2 0.500000 0.500000 0.500000
Si Si3 0.932554 0.877896 0.526715
Si Si4 0.709971 0.377979 0.924357
Si Si5 0.561580 0.035600 0.278594
Si Si6 0.178137 0.488775 0.477362
Si Si7 0.940013 0.740520 0.999879
Si Si8 0.707073 0.870432 0.271317
O O1 0.662276 0.777320 0.653536
O O2 0.321346 0.655911 0.579898
O O3 0.242957 0.658609 0.977047
O O4 0.495870 0.908015 0.025084
O O5 0.304840 0.461318 0.469110
O O6 0.366867 0.527951 0.817151
O O7 0.990543 0.786932 0.234062
O O8 0.000000 0.000000 0.500000
O O9 0.061427 0.967171 0.720515
O O10 0.480447 0.228309 0.848676
O O11 0.922871 0.423879 0.673831
O O12 0.500000 0.000000 0.500000
O O13 0.420697 0.088588 0.420124
O O14 0.825818 0.155970 0.176067
O O15 0.169214 0.413004 0.191088
O O16 0.780251 0.781108 0.148568
#
# Coordination Sequence:
#
# PCOD9097861 Si02
#       8
#     2   1   2   2   2   2   2   2
#     4  11  22  41  61  96 132 164 209 266 314 381
#     4  10  20  36  62  90 132 170 198 254 322 394
#     4  10  23  43  65  91 126 176 217 264 314 374
#     4  11  22  40  64 100 130 164 208 267 326 377
#     4  12  23  39  64  97 128 166 208 273 319 377
#     4  11  23  42  65  95 132 167 208 267 323 380
#     4  11  23  45  65  89 132 169 218 264 310 387
#     4  11  22  40  67  95 125 173 214 257 335 369
#
# _framework density 28.623325999999999
#
# number of rings (size 3 to 8) (size 9 to 14) (size 15 to 20)
#    0.000    1.067    6.667    1.600    0.000    3.200 
#    9.600    0.000    0.000    4.000    0.000    0.000 
#    0.000    0.000    0.000    0.000    0.000    0.000 
#
# Total GULP energy -83705.175245 kJ/mol
# GULP energy per Si atom -5580.345016 kJ/mol
# Density = 2.855818 g / cm^3
# Si number density = 28.623326 Si / 1000 Ang^3
#
#
#
# Elastic Constant Matrix: (Units=GPa)
#
#
# Indices 1 2 3 4 5 6 
#
# 1 129.6633 35.5193 71.6646 0.1403 -17.6306 32.1401
# 2 35.5193 146.6665 87.9064 23.1471 22.8344 27.4935
# 3 71.6646 87.9064 272.8275 31.2116 9.8801 17.3219
# 4 0.1403 23.1471 31.2116 66.3194 19.1770 7.6367
# 5 -17.6306 22.8344 9.8801 19.1770 43.8255 2.6157
# 6 32.1401 27.4935 17.3219 7.6367 2.6157 36.7318
#
#
#
# Elastic Compliance Matrix: (Units=1/GPa)
#
#
# Indices 1 2 3 4 5 6 
#
# 1 0.012808 -0.000640 -0.002850 0.000854 0.006353 -0.010013
# 2 -0.000640 0.010346 -0.002599 -0.000435 -0.004541 -0.005544
# 3 -0.002850 -0.002599 0.005318 -0.001752 -0.000363 0.002322
# 4 0.000854 -0.000435 -0.001752 0.018387 -0.006906 -0.002926
# 5 0.006353 -0.004541 -0.000363 -0.006906 0.031008 -0.002761
# 6 -0.010013 -0.005544 0.002322 -0.002926 -0.002761 0.039846
#
#
# Mechanical properties :
#
#
# Convention : Reuss Voigt Hill
#
# Bulk Modulus (GPa) = 61.37798 104.37089 82.87443
# Shear Modulus (GPa) = 36.94906 52.97981 44.96443
#
# Velocity S-wave (km/s) = 3.59677 4.30691 3.96776
# Velocity P-wave (km/s) = 6.22406 7.82786 7.07157
#
# Compressibility (1/GPa) = 0.01629249
#
# Stress axis : x y z
#
# Youngs Moduli (GPa) = 78.07791 96.65583 188.05767
#
# Poissons Ratio (x) = 0.06189 0.53595
# Poissons Ratio (y) = 0.05000 0.48879
# Poissons Ratio (z) = 0.22251 0.25122
#
# Static dielectric constant tensor:
#      x y z
#    x 2.461940 -0.119200 0.077370 
#    y -0.119200 2.342840 0.020960 
#    z 0.077370 0.020960 2.180900 
# 
# From -- ./inp_files/282427.got.cif
#   From: 2010.05.17/outbox.cif.g08.bks.cpg/sg2_142_cif.got.tgz:282427.got - 2010.06.03 11:33:40.
