data_PCOD9097863
_publ_section_title
;
Structure prediction by ZEFSAII (Michael W. Deem and Ramdas Pophale) SiO2 
 PCOD9097863
Probable space group: P -1
;
_chemical_formula_sum "Si O2"
_cell_formula_units_Z 16
_cell_length_a 8.056364
_cell_length_b 12.175275
_cell_length_c 10.530627
_cell_angle_alpha 75.554780
_cell_angle_beta 123.155647
_cell_angle_gamma 136.923395
_cell_volume 569.913672
_symmetry_space_group_name_H-M "P -1"
_symmetry_group_IT_number 2
_symmetry_cell_setting 'triclinic'
loop_
_space_group_symop_operation_xyz
x,y,z
-x,-y,-z
loop_
_atom_site_type_symbol
_atom_site_label
_atom_site_fract_x
_atom_site_fract_y
_atom_site_fract_z
Si Si1 0.268410 0.003353 0.557229
Si Si2 0.072260 0.056297 0.225857
Si Si3 0.054350 0.481985 0.383025
Si Si4 0.302583 0.374115 0.611877
Si Si5 0.169771 0.379404 0.844629
Si Si6 0.846237 0.180099 0.012855
Si Si7 0.484362 0.100879 0.215311
Si Si8 0.482987 0.748934 0.175329
O O1 0.478426 0.983562 0.640835
O O2 0.950643 0.813254 0.496992
O O3 0.377123 0.118882 0.689848
O O4 0.253992 0.081349 0.411038
O O5 0.246324 0.089848 0.165651
O O6 0.753034 0.863754 0.155870
O O7 0.032613 0.175233 0.180106
O O8 0.008285 0.574641 0.250939
O O9 0.784433 0.292346 0.283335
O O10 0.000000 0.500000 0.500000
O O11 0.315812 0.498438 0.504952
O O12 0.184068 0.353415 0.710247
O O13 0.565748 0.398072 0.749823
O O14 0.999463 0.239807 0.920960
O O15 0.500000 0.500000 0.000000
O O16 0.776638 0.282207 0.975743
O O17 0.565240 0.985818 0.912289
#
# Coordination Sequence:
#
# PCOD9097863 Si02
#       8
#     2   2   2   2   2   2   2   2
#     4   9  19  34  56  90 118 143 187 247 293 333
#     4  11  19  32  54  86 119 150 185 238 292 339
#     4   9  20  37  59  86 116 151 192 239 290 341
#     4   9  18  38  62  81 111 156 194 233 287 345
#     4  11  23  41  60  86 121 155 192 243 295 348
#     4  11  23  37  58  90 119 152 196 240 290 351
#     4  10  20  36  62  91 113 147 199 246 290 342
#     4  10  21  37  57  88 121 150 190 246 295 341
#
# _framework density 28.074425000000002
#
# number of rings (size 3 to 8) (size 9 to 14) (size 15 to 20)
#    0.000    2.000    0.000    4.875    0.000    7.000 
#    0.000    3.750    0.000    7.500    0.000    0.000 
#    0.000    0.000    0.000    0.000    0.000    0.000 
#
# Total GULP energy -89467.519378 kJ/mol
# GULP energy per Si atom -5591.719961 kJ/mol
# Density = 2.801053 g / cm^3
# Si number density = 28.074425 Si / 1000 Ang^3
#
#
#
# Elastic Constant Matrix: (Units=GPa)
#
#
# Indices 1 2 3 4 5 6 
#
# 1 101.6259 20.5529 44.6365 -14.9464 31.3764 -39.3588
# 2 20.5529 88.5556 61.8887 -38.1339 15.9064 -27.4823
# 3 44.6365 61.8887 162.4511 -45.4956 25.3224 -15.9797
# 4 -14.9464 -38.1339 -45.4956 77.7630 -16.8062 19.2171
# 5 31.3764 15.9064 25.3224 -16.8062 59.3867 -15.8197
# 6 -39.3588 -27.4823 -15.9797 19.2171 -15.8197 38.7487
#
#
#
# Elastic Compliance Matrix: (Units=1/GPa)
#
#
# Indices 1 2 3 4 5 6 
#
# 1 0.021124 0.005750 -0.005888 -0.003260 -0.005079 0.022650
# 2 0.005750 0.021568 -0.007182 0.003346 -0.000455 0.016330
# 3 -0.005888 -0.007182 0.010804 0.003649 -0.000881 -0.008788
# 4 -0.003260 0.003346 0.003649 0.018409 0.002467 -0.007556
# 5 -0.005079 -0.000455 -0.000881 0.002467 0.021133 0.001559
# 6 0.022650 0.016330 -0.008788 -0.007556 0.001559 0.061155
#
#
# Mechanical properties :
#
#
# Convention : Reuss Voigt Hill
#
# Bulk Modulus (GPa) = 25.73644 67.42097 46.57870
# Shear Modulus (GPa) = 27.50480 50.21663 38.86072
#
# Velocity S-wave (km/s) = 3.13343 4.23389 3.72452
# Velocity P-wave (km/s) = 4.71999 6.92591 5.92649
#
# Compressibility (1/GPa) = 0.03885542
#
# Stress axis : x y z
#
# Youngs Moduli (GPa) = 47.33940 46.36577 92.55435
#
# Poissons Ratio (x) = -0.26660 0.54496
# Poissons Ratio (y) = -0.27219 0.66474
# Poissons Ratio (z) = 0.27874 0.33301
#
# Static dielectric constant tensor:
#      x y z
#    x 2.274800 0.036240 0.034900 
#    y 0.036240 2.212390 -0.024360 
#    z 0.034900 -0.024360 2.225220 
# 
# From -- ./inp_files/390092.got.cif
#   From: 2010.05.17/outbox.cif.g08.bks.cpg/sg2_196_cif.got.tgz:390092.got - 2010.06.03 11:33:40.
