data_PCOD9097911
_publ_section_title
;
Structure prediction by ZEFSAII (Michael W. Deem and Ramdas Pophale) SiO2 
 PCOD9097911
Probable space group: P -1
;
_chemical_formula_sum "Si O2"
_cell_formula_units_Z 14
_cell_length_a 8.179114
_cell_length_b 12.693592
_cell_length_c 9.622549
_cell_angle_alpha 142.527341
_cell_angle_beta 87.259137
_cell_angle_gamma 85.753457
_cell_volume 596.700569
_symmetry_space_group_name_H-M "P -1"
_symmetry_group_IT_number 2
_symmetry_cell_setting 'triclinic'
loop_
_space_group_symop_operation_xyz
x,y,z
-x,-y,-z
loop_
_atom_site_type_symbol
_atom_site_label
_atom_site_fract_x
_atom_site_fract_y
_atom_site_fract_z
Si Si1 0.732481 0.155764 0.691285
Si Si2 0.129151 0.106634 0.032981
Si Si3 0.288671 0.256748 0.440152
Si Si4 0.487835 0.526185 0.857307
Si Si5 0.930745 0.758567 0.325820
Si Si6 0.796170 0.660743 0.952158
Si Si7 0.587989 0.030277 0.305987
O O1 0.599583 0.137055 0.557212
O O2 0.879330 0.232217 0.691024
O O3 0.825266 0.959482 0.524921
O O4 0.647329 0.290742 0.951160
O O5 0.225535 0.215553 0.248954
O O6 0.079736 0.259266 0.074887
O O7 0.265218 0.957001 0.795597
O O8 0.000000 0.000000 0.000000
O O9 0.404090 0.393842 0.627296
O O10 0.124318 0.303547 0.589987
O O11 0.410941 0.076624 0.291627
O O12 0.676976 0.519691 0.786295
O O13 0.500000 0.500000 0.000000
O O14 0.875754 0.646219 0.084907
O O15 0.646978 0.830890 0.141244
#
# Coordination Sequence:
#
# PCOD9097911 Si02
#       7
#     2   2   2   2   2   2   2
#     4  10  20  36  62  93 121 157 202 258 299 350
#     4  10  23  41  62  87 121 155 213 256 295 351
#     4  12  22  36  64  92 120 164 198 246 313 359
#     4  12  22  38  59  94 131 158 193 247 308 370
#     4  10  20  36  63  92 117 160 207 252 297 344
#     4   9  21  40  58  88 120 160 198 254 288 356
#     4   9  19  38  61  88 116 159 211 253 288 351
#
# _framework density 23.462354000000001
#
# number of rings (size 3 to 8) (size 9 to 14) (size 15 to 20)
#    0.857    0.857    2.857    2.143    2.000    3.429 
#    0.000    0.000    0.000    1.714    0.000    0.000 
#    0.000    0.000    0.000    0.000    0.000    0.000 
#
# Total GULP energy -77951.879713 kJ/mol
# GULP energy per Si atom -5567.991408 kJ/mol
# Density = 2.340895 g / cm^3
# Si number density = 23.462354 Si / 1000 Ang^3
#
#
#
# Elastic Constant Matrix: (Units=GPa)
#
#
# Indices 1 2 3 4 5 6 
#
# 1 58.9506 25.5654 0.5904 3.1796 1.8638 28.3030
# 2 25.5654 57.8560 20.3060 -0.9689 3.3054 21.5004
# 3 0.5904 20.3060 86.5357 1.0376 18.0591 -6.0222
# 4 3.1796 -0.9689 1.0376 21.9326 3.2499 2.8519
# 5 1.8638 3.3054 18.0591 3.2499 32.5318 2.8843
# 6 28.3030 21.5004 -6.0222 2.8519 2.8843 52.1648
#
#
#
# Elastic Compliance Matrix: (Units=1/GPa)
#
#
# Indices 1 2 3 4 5 6 
#
# 1 0.025438 -0.007788 0.000971 -0.002732 -0.000016 -0.010330
# 2 -0.007788 0.025945 -0.007030 0.003288 0.002056 -0.007573
# 3 0.000971 -0.007030 0.015227 -0.000564 -0.008146 0.004610
# 4 -0.002732 0.003288 -0.000564 0.047105 -0.004369 -0.002272
# 5 -0.000016 0.002056 -0.008146 -0.004369 0.035802 -0.003520
# 6 -0.010330 -0.007573 0.004610 -0.002272 -0.003520 0.028747
#
#
# Mechanical properties :
#
#
# Convention : Reuss Voigt Hill
#
# Bulk Modulus (GPa) = 25.69624 32.91842 29.30733
# Shear Modulus (GPa) = 22.83835 31.78453 27.31144
#
# Velocity S-wave (km/s) = 3.12333 3.68462 3.41552
# Velocity P-wave (km/s) = 4.89722 5.67122 5.29837
#
# Compressibility (1/GPa) = 0.03891620
#
# Stress axis : x y z
#
# Youngs Moduli (GPa) = 39.31073 38.54309 65.67431
#
# Poissons Ratio (x) = 0.30016 -0.06378
# Poissons Ratio (y) = 0.30614 0.46172
# Poissons Ratio (z) = -0.03818 0.27098
#
# Static dielectric constant tensor:
#      x y z
#    x 1.891750 0.060230 -0.007190 
#    y 0.060230 2.026410 0.117570 
#    z -0.007190 0.117570 1.946550 
# 
# From -- ./inp_files/396742.got.cif
#   From: 2010.05.17/outbox.cif.g08.bks.cpg/sg2_199_cif.got.tgz:396742.got - 2010.06.03 11:33:40.
