data_PCOD9097979
_publ_section_title
;
Structure prediction by ZEFSAII (Michael W. Deem and Ramdas Pophale) SiO2 
 PCOD9097979
Probable space group: P -1
;
_chemical_formula_sum "Si O2"
_cell_formula_units_Z 16
_cell_length_a 18.454000
_cell_length_b 10.716418
_cell_length_c 13.662535
_cell_angle_alpha 147.729828
_cell_angle_beta 148.852111
_cell_angle_gamma 31.959020
_cell_volume 665.660011
_symmetry_space_group_name_H-M "P -1"
_symmetry_group_IT_number 2
_symmetry_cell_setting 'triclinic'
loop_
_space_group_symop_operation_xyz
x,y,z
-x,-y,-z
loop_
_atom_site_type_symbol
_atom_site_label
_atom_site_fract_x
_atom_site_fract_y
_atom_site_fract_z
Si Si1 0.316910 0.751412 0.277723
Si Si2 0.831980 0.340078 0.681201
Si Si3 0.982182 0.898678 0.086453
Si Si4 0.732125 0.877458 0.266404
Si Si5 0.388494 0.281012 0.164129
Si Si6 0.555986 0.827827 0.319252
Si Si7 0.745336 0.455351 0.130943
Si Si8 0.250295 0.290784 0.346071
O O1 0.427876 0.497885 0.300660
O O2 0.147129 0.840014 0.188861
O O3 0.369888 0.974971 0.489439
O O4 0.314754 0.655290 0.102182
O O5 0.705665 0.585412 0.759896
O O6 0.818994 0.455796 0.635271
O O7 0.987122 0.234456 0.858950
O O8 0.795350 0.090957 0.476075
O O9 0.878449 0.208298 0.174952
O O10 0.893475 0.771021 0.834265
O O11 0.810594 0.640567 0.276320
O O12 0.550946 0.024955 0.191632
O O13 0.720276 0.773730 0.076056
O O14 0.605923 0.619827 0.152895
O O15 0.647453 0.689539 0.432907
O O16 0.374084 0.023075 0.256933
#
# Coordination Sequence:
#
# PCOD9097979 Si02
#       8
#     2   2   2   2   2   2   2   2
#     4  10  21  42  69  94 129 161 216 273 312 375
#     4  11  22  41  63  86 130 175 205 254 318 387
#     4  11  24  44  66  96 131 171 210 263 324 379
#     4  10  20  36  62  99 124 156 218 268 314 369
#     4   9  19  36  63  96 123 163 208 272 317 361
#     4  11  24  43  68  96 124 171 218 266 316 375
#     4  11  22  40  67  97 125 165 214 270 317 371
#     4  11  25  46  63  93 135 171 213 260 320 384
#
# _framework density 24.036296
#
# number of rings (size 3 to 8) (size 9 to 14) (size 15 to 20)
#    0.000    1.500    1.250    4.125    0.000    2.500 
#    6.750    0.625    0.000    0.000    0.000    0.000 
#    0.000    0.000    0.000    0.000    0.000    0.000 
#
# Total GULP energy -89581.067651 kJ/mol
# GULP energy per Si atom -5598.816728 kJ/mol
# Density = 2.398159 g / cm^3
# Si number density = 24.036296 Si / 1000 Ang^3
#
#
#
# Elastic Constant Matrix: (Units=GPa)
#
#
# Indices 1 2 3 4 5 6 
#
# 1 68.6118 33.6104 23.9032 7.2395 -3.8996 15.4725
# 2 33.6104 111.7082 11.6698 -5.4208 -1.2997 29.1048
# 3 23.9032 11.6698 64.0398 4.3840 1.3248 -0.5662
# 4 7.2395 -5.4208 4.3840 32.0751 -1.6901 -3.8136
# 5 -3.8996 -1.2997 1.3248 -1.6901 37.9547 -3.6126
# 6 15.4725 29.1048 -0.5662 -3.8136 -3.6126 39.3087
#
#
#
# Elastic Compliance Matrix: (Units=1/GPa)
#
#
# Indices 1 2 3 4 5 6 
#
# 1 0.020931 -0.004410 -0.006738 -0.005116 0.001490 -0.005430
# 2 -0.004410 0.012360 -0.000816 0.002302 -0.000590 -0.007258
# 3 -0.006738 -0.000816 0.018385 -0.000789 -0.001079 0.003345
# 4 -0.005116 0.002302 -0.000789 0.033338 0.001414 0.003662
# 5 0.001490 -0.000590 -0.001079 0.001414 0.026813 0.002436
# 6 -0.005430 -0.007258 0.003345 0.003662 0.002436 0.033578
#
#
# Mechanical properties :
#
#
# Convention : Reuss Voigt Hill
#
# Bulk Modulus (GPa) = 36.03744 42.52518 39.28131
# Shear Modulus (GPa) = 27.99834 33.54615 30.77225
#
# Velocity S-wave (km/s) = 3.41667 3.73989 3.58193
# Velocity P-wave (km/s) = 5.53085 6.03154 5.78661
#
# Compressibility (1/GPa) = 0.02774892
#
# Stress axis : x y z
#
# Youngs Moduli (GPa) = 47.77517 80.90678 54.39289
#
# Poissons Ratio (x) = 0.35680 0.36649
# Poissons Ratio (y) = 0.21069 0.04437
# Poissons Ratio (z) = 0.32190 0.06600
#
# Static dielectric constant tensor:
#      x y z
#    x 1.934960 0.031440 -0.008880 
#    y 0.031440 1.932410 -0.015210 
#    z -0.008880 -0.015210 1.933710 
# 
# From -- ./inp_files/541018.got.cif
#   From: 2010.05.17/outbox.cif.g08.bks.cpg/sg2_271_cif.got.tgz:541018.got - 2010.06.03 11:33:40.
