data_PCOD9097329
_publ_section_title
;
Structure prediction by ZEFSAII (Michael W. Deem and Ramdas Pophale) SiO2 
 PCOD9097329
Probable space group: P -1
;
_chemical_formula_sum "Si O2"
_cell_formula_units_Z 16
_cell_length_a 8.915659
_cell_length_b 18.648166
_cell_length_c 10.560899
_cell_angle_alpha 130.565107
_cell_angle_beta 42.830563
_cell_angle_gamma 136.471563
_cell_volume 795.302962
_symmetry_space_group_name_H-M "P -1"
_symmetry_group_IT_number 2
_symmetry_cell_setting 'triclinic'
loop_
_space_group_symop_operation_xyz
x,y,z
-x,-y,-z
loop_
_atom_site_type_symbol
_atom_site_label
_atom_site_fract_x
_atom_site_fract_y
_atom_site_fract_z
Si Si1 0.329174 0.523540 0.537099
Si Si2 0.905508 0.876908 0.384423
Si Si3 0.339839 0.520800 0.230838
Si Si4 0.432037 0.253668 0.777293
Si Si5 0.648727 0.758922 0.661716
Si Si6 0.633579 0.124200 0.018017
Si Si7 0.067585 0.710617 0.471580
Si Si8 0.986578 0.286134 0.197761
O O1 0.500000 0.500000 0.500000
O O2 0.403768 0.522102 0.341888
O O3 0.400121 0.643362 0.670891
O O4 0.060344 0.419828 0.606425
O O5 0.742996 0.843198 0.318001
O O6 0.741426 0.803689 0.515807
O O7 0.000000 0.000000 0.500000
O O8 0.143853 0.858075 0.193873
O O9 0.409723 0.641934 0.291082
O O10 0.067545 0.412624 0.267920
O O11 0.500000 0.500000 0.000000
O O12 0.648566 0.239756 0.698492
O O13 0.241366 0.277308 0.005518
O O14 0.566074 0.840692 0.868793
O O15 0.873840 0.745178 0.569794
O O16 0.776009 0.202123 0.138609
O O17 0.500000 0.000000 0.000000
O O18 0.086536 0.739968 0.641657
#
# Coordination Sequence:
#
# PCOD9097329 Si02
#       8
#     2   2   2   2   2   2   2   2
#     4   9  19  35  57  90 127 161 196 243 305 367
#     4  11  22  40  65  85 114 155 206 257 293 354
#     4   9  17  32  57  88 116 156 200 252 294 359
#     4  10  20  36  60  87 118 152 206 242 301 355
#     4  11  22  40  60  89 124 157 199 242 309 359
#     4  11  23  39  64  87 112 155 206 254 298 352
#     4  10  22  37  60  89 126 161 187 244 302 367
#     4   9  21  36  58  86 120 149 201 251 296 351
#
# _framework density 20.118119
#
# number of rings (size 3 to 8) (size 9 to 14) (size 15 to 20)
#    0.000    2.000    2.500    0.750    1.750    2.000 
#    0.000    1.250    0.000    7.500    0.000    0.000 
#    0.000    0.000    0.000    0.000    0.000    0.000 
#
# Total GULP energy -89188.187875 kJ/mol
# GULP energy per Si atom -5574.261742 kJ/mol
# Density = 2.007233 g / cm^3
# Si number density = 20.118119 Si / 1000 Ang^3
#
#
#
# Elastic Constant Matrix: (Units=GPa)
#
#
# Indices 1 2 3 4 5 6 
#
# 1 58.3332 8.8210 34.9532 5.3771 -22.6580 9.2184
# 2 8.8210 72.5949 25.7222 22.1861 -16.6185 8.8306
# 3 34.9532 25.7222 87.1113 4.5602 -25.2882 6.5047
# 4 5.3771 22.1861 4.5602 41.9344 5.2421 -1.7381
# 5 -22.6580 -16.6185 -25.2882 5.2421 34.0270 -2.5174
# 6 9.2184 8.8306 6.5047 -1.7381 -2.5174 24.1149
#
#
#
# Elastic Compliance Matrix: (Units=1/GPa)
#
#
# Indices 1 2 3 4 5 6 
#
# 1 0.030821 0.007917 -0.007692 -0.010199 0.019408 -0.011315
# 2 0.007917 0.023787 -0.004150 -0.015499 0.015444 -0.010122
# 3 -0.007692 -0.004150 0.017388 0.000594 0.005713 0.000409
# 4 -0.010199 -0.015499 0.000594 0.036048 -0.018729 0.010057
# 5 0.019408 0.015444 0.005713 -0.018729 0.056238 -0.010094
# 6 -0.011315 -0.010122 0.000409 0.010057 -0.010094 0.049061
#
#
# Mechanical properties :
#
#
# Convention : Reuss Voigt Hill
#
# Bulk Modulus (GPa) = 15.58942 39.67025 27.62983
# Shear Modulus (GPa) = 20.61211 29.91812 25.26511
#
# Velocity S-wave (km/s) = 3.20434 3.86051 3.54763
# Velocity P-wave (km/s) = 4.63208 6.29546 5.52671
#
# Compressibility (1/GPa) = 0.06414606
#
# Stress axis : x y z
#
# Youngs Moduli (GPa) = 32.44502 42.03998 57.51096
#
# Poissons Ratio (x) = -0.33281 0.44236
# Poissons Ratio (y) = -0.25685 0.23866
# Poissons Ratio (z) = 0.24956 0.17446
#
# Static dielectric constant tensor:
#      x y z
#    x 1.747690 0.027250 -0.025530 
#    y 0.027250 1.741580 0.031170 
#    z -0.025530 0.031170 1.794740 
# 
# From -- ./inp_files/311291.got.cif
#   From: 2010.05.17/outbox.cif.g08.bks.cpg/sg2_156_cif.got.tgz:311291.got - 2010.06.03 11:33:40.
