data_PCOD9097146
_publ_section_title
;
Structure prediction by ZEFSAII (Michael W. Deem and Ramdas Pophale) SiO2 
 PCOD9097146
Probable space group: P -1
;
_chemical_formula_sum "Si O2"
_cell_formula_units_Z 14
_cell_length_a 9.497114
_cell_length_b 9.545826
_cell_length_c 12.816351
_cell_angle_alpha 135.030796
_cell_angle_beta 60.588084
_cell_angle_gamma 134.005308
_cell_volume 590.630795
_symmetry_space_group_name_H-M "P -1"
_symmetry_group_IT_number 2
_symmetry_cell_setting 'triclinic'
loop_
_space_group_symop_operation_xyz
x,y,z
-x,-y,-z
loop_
_atom_site_type_symbol
_atom_site_label
_atom_site_fract_x
_atom_site_fract_y
_atom_site_fract_z
Si Si1 0.190900 0.256255 0.699498
Si Si2 0.889232 0.119476 0.152909
Si Si3 0.421202 0.309452 0.836241
Si Si4 0.251410 0.441918 0.326744
Si Si5 0.488366 0.282996 0.451474
Si Si6 0.227691 0.015205 0.233911
Si Si7 0.718532 0.228599 0.075964
O O1 0.250979 0.283293 0.812821
O O2 0.320306 0.193900 0.552834
O O3 0.258329 0.522883 0.785080
O O4 0.962377 0.054246 0.667795
O O5 0.817963 0.197181 0.122495
O O6 0.042924 0.317659 0.283128
O O7 0.691988 0.940200 0.194599
O O8 0.000000 0.000000 0.000000
O O9 0.596198 0.401127 0.738571
O O10 0.500000 0.500000 0.000000
O O11 0.315624 0.606593 0.493830
O O12 0.270816 0.225486 0.247387
O O13 0.500000 0.500000 0.500000
O O14 0.404394 0.090309 0.288515
O O15 0.167345 0.778665 0.069094
O O16 0.500000 0.000000 0.000000
#
# Coordination Sequence:
#
# PCOD9097146 Si02
#       7
#     2   2   2   2   2   2   2
#     4  11  22  37  61  98 122 160 211 261 313 361
#     4  12  21  38  61  90 124 164 207 256 306 377
#     4  11  19  33  59  87 121 159 204 251 307 363
#     4  10  20  36  59  89 116 157 215 249 291 362
#     4   9  20  37  63  89 122 165 209 256 299 372
#     4  11  20  39  62  92 124 165 210 255 303 381
#     4  12  24  39  60  96 132 158 202 267 323 354
#
# _framework density 23.703468999999998
#
# number of rings (size 3 to 8) (size 9 to 14) (size 15 to 20)
#    0.000    1.143    4.286    4.286    0.000    0.000 
#    2.571    0.000    0.000    8.571    0.000    0.000 
#    0.000    0.000    0.000    0.000    0.000    0.000 
#
# Total GULP energy -78165.481438 kJ/mol
# GULP energy per Si atom -5583.248674 kJ/mol
# Density = 2.364952 g / cm^3
# Si number density = 23.703469 Si / 1000 Ang^3
#
#
#
# Elastic Constant Matrix: (Units=GPa)
#
#
# Indices 1 2 3 4 5 6 
#
# 1 104.2771 -1.9945 58.3777 15.1359 50.5438 1.2071
# 2 -1.9945 71.6038 33.7230 0.1073 12.6889 12.3295
# 3 58.3777 33.7230 110.9701 -2.0417 51.9310 -6.4377
# 4 15.1359 0.1073 -2.0417 23.6271 5.7903 2.5835
# 5 50.5438 12.6889 51.9310 5.7903 62.0436 2.5592
# 6 1.2071 12.3295 -6.4377 2.5835 2.5592 37.3360
#
#
#
# Elastic Compliance Matrix: (Units=1/GPa)
#
#
# Indices 1 2 3 4 5 6 
#
# 1 0.021532 0.007302 -0.009236 -0.011808 -0.010070 -0.003193
# 2 0.007302 0.020636 -0.010342 -0.004558 -0.000737 -0.008468
# 3 -0.009236 -0.010342 0.022506 0.009625 -0.010412 0.007642
# 4 -0.011808 -0.004558 0.009625 0.051287 -0.002297 0.000155
# 5 -0.010070 -0.000737 -0.010412 -0.002297 0.033540 -0.003366
# 6 -0.003193 -0.008468 0.007642 0.000155 -0.003366 0.031221
#
#
# Mechanical properties :
#
#
# Convention : Reuss Voigt Hill
#
# Bulk Modulus (GPa) = 24.92507 51.89594 38.41050
# Shear Modulus (GPa) = 22.86768 37.71763 30.29265
#
# Velocity S-wave (km/s) = 3.10940 3.99335 3.57877
# Velocity P-wave (km/s) = 4.84038 6.57296 5.77205
#
# Compressibility (1/GPa) = 0.04012024
#
# Stress axis : x y z
#
# Youngs Moduli (GPa) = 46.44215 48.46003 44.43238
#
# Poissons Ratio (x) = -0.35384 0.41039
# Poissons Ratio (y) = -0.33911 0.45953
# Poissons Ratio (z) = 0.42895 0.50118
#
# Static dielectric constant tensor:
#      x y z
#    x 1.965600 0.087830 -0.079360 
#    y 0.087830 2.230900 0.064610 
#    z -0.079360 0.064610 2.029770 
# 
# From -- ./inp_files/383197.got.cif
#   From: 2010.05.17/outbox.cif.g08.bks.cpg/sg2_192_cif.got.tgz:383197.got - 2010.06.03 11:33:40.
