data_PCOD9097225
_publ_section_title
;
Structure prediction by ZEFSAII (Michael W. Deem and Ramdas Pophale) SiO2 
 PCOD9097225
Probable space group: P -1
;
_chemical_formula_sum "Si O2"
_cell_formula_units_Z 16
_cell_length_a 9.400725
_cell_length_b 28.578034
_cell_length_c 29.127262
_cell_angle_alpha 170.177119
_cell_angle_beta 145.371806
_cell_angle_gamma 36.391565
_cell_volume 757.245157
_symmetry_space_group_name_H-M "P -1"
_symmetry_group_IT_number 2
_symmetry_cell_setting 'triclinic'
loop_
_space_group_symop_operation_xyz
x,y,z
-x,-y,-z
loop_
_atom_site_type_symbol
_atom_site_label
_atom_site_fract_x
_atom_site_fract_y
_atom_site_fract_z
Si Si1 0.706934 0.585463 0.098761
Si Si2 0.512808 0.569823 0.449465
Si Si3 0.989002 0.137497 0.419203
Si Si4 0.406164 0.684612 0.943096
Si Si5 0.960419 0.905756 0.287485
Si Si6 0.706448 0.324968 0.990498
Si Si7 0.784360 0.763730 0.614529
Si Si8 0.783740 0.033202 0.013854
O O1 0.559820 0.726580 0.155046
O O2 0.936841 0.797642 0.379848
O O3 0.500000 0.500000 0.000000
O O4 0.824491 0.298811 0.842196
O O5 0.239520 0.688741 0.491247
O O6 0.636425 0.670889 0.531711
O O7 0.573022 0.249938 0.156546
O O8 0.652762 0.729496 0.683438
O O9 0.922136 0.961227 0.276585
O O10 0.112740 0.920643 0.209079
O O11 0.190592 0.385353 0.723519
O O12 0.317475 0.631875 0.920170
O O13 0.704932 0.751692 0.088039
O O14 0.307423 0.958787 0.161313
O O15 0.290600 0.454904 0.655833
O O16 0.067640 0.840032 0.780488
O O17 0.000000 0.000000 0.000000
#
# Coordination Sequence:
#
# PCOD9097225 Si02
#       8
#     2   2   2   2   2   2   2   2
#     4  12  23  42  68  96 126 167 214 277 323 377
#     4  11  21  36  66 100 128 163 219 274 312 374
#     4  12  23  42  67  95 128 170 216 273 318 382
#     4  12  26  42  63  97 132 174 213 263 323 392
#     4  12  24  41  69  95 124 169 219 268 325 375
#     4  12  27  43  65  93 133 173 217 261 331 392
#     4  11  21  39  65  91 136 169 206 264 329 378
#     4  10  20  36  60 102 134 163 208 271 328 368
#
# _framework density 21.129221000000001
#
# number of rings (size 3 to 8) (size 9 to 14) (size 15 to 20)
#    0.000    0.500    3.750    7.125    1.750    1.000 
#    0.000    0.000    0.000   15.000    0.000    0.000 
#    0.000    0.000    0.000    0.000    0.000    0.000 
#
# Total GULP energy -89284.383162 kJ/mol
# GULP energy per Si atom -5580.273948 kJ/mol
# Density = 2.108113 g / cm^3
# Si number density = 21.129221 Si / 1000 Ang^3
#
#
#
# Elastic Constant Matrix: (Units=GPa)
#
#
# Indices 1 2 3 4 5 6 
#
# 1 47.2182 41.9109 32.5085 -4.1695 -2.5963 -0.5438
# 2 41.9109 105.4430 36.6558 0.9969 -0.6441 3.2864
# 3 32.5085 36.6558 150.2780 -0.0558 -12.0089 6.1604
# 4 -4.1695 0.9969 -0.0558 53.3816 -1.2540 -6.6564
# 5 -2.5963 -0.6441 -12.0089 -1.2540 36.1437 6.8067
# 6 -0.5438 3.2864 6.1604 -6.6564 6.8067 21.8953
#
#
#
# Elastic Compliance Matrix: (Units=1/GPa)
#
#
# Indices 1 2 3 4 5 6 
#
# 1 0.036517 -0.012995 -0.004964 0.003765 -0.000153 0.005446
# 2 -0.012995 0.015017 -0.000779 -0.001645 -0.000471 -0.002711
# 3 -0.004964 -0.000779 0.008303 -0.000730 0.003023 -0.003504
# 4 0.003765 -0.001645 -0.000730 0.019888 -0.000587 0.006775
# 5 -0.000153 -0.000471 0.003023 -0.000587 0.030605 -0.010476
# 6 0.005446 -0.002711 -0.003504 0.006775 -0.010476 0.052517
#
#
# Mechanical properties :
#
#
# Convention : Reuss Voigt Hill
#
# Bulk Modulus (GPa) = 44.72001 58.34327 51.53164
# Shear Modulus (GPa) = 24.06431 35.07505 29.56968
#
# Velocity S-wave (km/s) = 3.37844 4.07876 3.74501
# Velocity P-wave (km/s) = 6.03568 7.06076 6.56824
#
# Compressibility (1/GPa) = 0.02236135
#
# Stress axis : x y z
#
# Youngs Moduli (GPa) = 27.38438 66.59087 120.43795
#
# Poissons Ratio (x) = 0.86537 0.59782
# Poissons Ratio (y) = 0.35587 0.09381
# Poissons Ratio (z) = 0.13593 0.05187
#
# Static dielectric constant tensor:
#      x y z
#    x 1.720690 0.028460 -0.044390 
#    y 0.028460 1.646280 0.053220 
#    z -0.044390 0.053220 1.679340 
# 
# From -- ./inp_files/617659.got.cif
#   From: 2010.05.17/outbox.cif.g08.bks.cpg/sg2_309_cif.got.tgz:617659.got - 2010.06.03 11:33:40.
