data_PCOD9097916
_publ_section_title
;
Structure prediction by ZEFSAII (Michael W. Deem and Ramdas Pophale) SiO2 
 PCOD9097916
Probable space group: P -1
;
_chemical_formula_sum "Si O2"
_cell_formula_units_Z 14
_cell_length_a 11.902657
_cell_length_b 15.620192
_cell_length_c 7.191073
_cell_angle_alpha 106.956821
_cell_angle_beta 126.213887
_cell_angle_gamma 37.924027
_cell_volume 620.634384
_symmetry_space_group_name_H-M "P -1"
_symmetry_group_IT_number 2
_symmetry_cell_setting 'triclinic'
loop_
_space_group_symop_operation_xyz
x,y,z
-x,-y,-z
loop_
_atom_site_type_symbol
_atom_site_label
_atom_site_fract_x
_atom_site_fract_y
_atom_site_fract_z
Si Si1 0.945394 0.851139 0.077260
Si Si2 0.775179 0.147308 0.488143
Si Si3 0.775618 0.967706 0.580532
Si Si4 0.204989 0.423354 0.508843
Si Si5 0.099004 0.269799 0.588118
Si Si6 0.233530 0.233310 0.259560
Si Si7 0.497528 0.196715 0.963472
O O1 0.905866 0.765089 0.001546
O O2 0.928376 0.879006 0.857477
O O3 0.169885 0.783021 0.338128
O O4 0.718209 0.020455 0.034427
O O5 0.764217 0.077477 0.590406
O O6 0.558230 0.240016 0.202175
O O7 0.000000 0.000000 0.500000
O O8 0.507751 0.075649 0.410513
O O9 0.878208 0.848590 0.446563
O O10 0.192173 0.360788 0.286173
O O11 0.144489 0.557282 0.498096
O O12 0.000000 0.500000 0.500000
O O13 0.428607 0.282776 0.760130
O O14 0.161708 0.249068 0.414307
O O15 0.295424 0.231680 0.848645
#
# Coordination Sequence:
#
# PCOD9097916 Si02
#       7
#     2   2   2   2   2   2   2
#     4  10  16  31  49  76 103 125 164 208 243 293
#     4  10  23  31  44  75 110 137 154 202 258 298
#     4  11  17  31  54  79  95 126 172 215 238 279
#     4   8  15  27  53  79  97 128 159 208 248 289
#     4   9  16  29  54  81  98 123 167 210 246 289
#     4   9  15  28  54  79  94 119 169 215 240 271
#     4   9  15  31  46  73 106 127 158 195 257 294
#
# _framework density 22.557562999999998
#
# number of rings (size 3 to 8) (size 9 to 14) (size 15 to 20)
#    0.000    2.857    4.286    1.286    0.000    0.571 
#    0.000    0.000    0.000   24.857   14.857    1.000 
#    0.000    0.000    0.000    0.000    0.000    0.000 
#
# Total GULP energy -78026.993878 kJ/mol
# GULP energy per Si atom -5573.356706 kJ/mol
# Density = 2.250622 g / cm^3
# Si number density = 22.557563 Si / 1000 Ang^3
#
#
#
# Elastic Constant Matrix: (Units=GPa)
#
#
# Indices 1 2 3 4 5 6 
#
# 1 50.7023 8.0040 22.9921 5.8337 7.0080 10.4316
# 2 8.0040 116.3567 31.8885 27.9099 1.9774 17.2353
# 3 22.9921 31.8885 143.0667 39.1264 16.3564 16.7229
# 4 5.8337 27.9099 39.1264 29.3929 12.9016 3.0559
# 5 7.0080 1.9774 16.3564 12.9016 14.7067 4.9607
# 6 10.4316 17.2353 16.7229 3.0559 4.9607 11.5449
#
#
#
# Elastic Compliance Matrix: (Units=1/GPa)
#
#
# Indices 1 2 3 4 5 6 
#
# 1 0.025392 0.004643 0.000228 -0.008743 0.004795 -0.029951
# 2 0.004643 0.033510 0.013643 -0.073253 0.071089 -0.085140
# 3 0.000228 0.013643 0.019239 -0.049816 0.037720 -0.051463
# 4 -0.008743 -0.073253 -0.049816 0.245233 -0.219527 0.218833
# 5 0.004795 0.071089 0.037720 -0.219527 0.284039 -0.229037
# 6 -0.029951 -0.085140 -0.051463 0.218833 -0.229037 0.355821
#
#
# Mechanical properties :
#
#
# Convention : Reuss Voigt Hill
#
# Bulk Modulus (GPa) = 8.68292 48.43275 28.55783
# Shear Modulus (GPa) = 5.18351 27.61163 16.39757
#
# Velocity S-wave (km/s) = 1.51753 3.50244 2.69907
# Velocity P-wave (km/s) = 2.63213 6.15414 4.73295
#
# Compressibility (1/GPa) = 0.11516869
#
# Stress axis : x y z
#
# Youngs Moduli (GPa) = 39.38252 29.84185 51.97745
#
# Poissons Ratio (x) = -0.13855 -0.01186
# Poissons Ratio (y) = -0.18285 -0.70911
# Poissons Ratio (z) = -0.00899 -0.40712
#
# Static dielectric constant tensor:
#      x y z
#    x 1.961180 0.050470 -0.027040 
#    y 0.050470 1.907000 0.032070 
#    z -0.027040 0.032070 1.906160 
# 
# From -- ./inp_files/316680.got.cif
#   From: 2010.05.17/outbox.cif.g08.bks.cpg/sg2_159_cif.got.tgz:316680.got - 2010.06.03 11:33:40.
