data_PCOD9097297
_publ_section_title
;
Structure prediction by ZEFSAII (Michael W. Deem and Ramdas Pophale) SiO2 
 PCOD9097297
Probable space group: P -1
;
_chemical_formula_sum "Si O2"
_cell_formula_units_Z 11
_cell_length_a 5.607699
_cell_length_b 8.662196
_cell_length_c 8.652237
_cell_angle_alpha 83.521111
_cell_angle_beta 80.458810
_cell_angle_gamma 65.208779
_cell_volume 375.830716
_symmetry_space_group_name_H-M "P -1"
_symmetry_group_IT_number 2
_symmetry_cell_setting 'triclinic'
loop_
_space_group_symop_operation_xyz
x,y,z
-x,-y,-z
loop_
_atom_site_type_symbol
_atom_site_label
_atom_site_fract_x
_atom_site_fract_y
_atom_site_fract_z
Si Si1 0.227404 0.731551 0.438716
Si Si2 0.239611 0.951706 0.672260
Si Si3 0.957471 0.756692 0.873286
Si Si4 0.627893 0.797879 0.195417
Si Si5 0.867312 0.522454 0.692783
Si Si6 0.500000 0.500000 0.000000
O O1 0.355648 0.791941 0.561603
O O2 0.389188 0.745434 0.265746
O O3 0.210410 0.549167 0.448876
O O4 0.943123 0.886431 0.427870
O O5 0.052837 0.906952 0.816331
O O6 0.421036 0.024035 0.737409
O O7 0.197274 0.607568 0.951179
O O8 0.926598 0.683554 0.718089
O O9 0.706674 0.803215 0.008739
O O10 0.881926 0.646601 0.259413
O O11 0.623535 0.554927 0.830218
#
# Coordination Sequence:
#
# PCOD9097297 Si02
#       6
#     2   2   2   2   2   1
#     4  10  21  40  60  82 121 159 186 235 294 344
#     4  10  23  38  58  89 118 152 196 236 287 350
#     4  11  22  37  61  91 115 147 198 244 288 342
#     4  10  20  38  61  84 115 156 197 237 284 343
#     4  10  20  36  60  86 116 154 192 234 292 350
#     4  10  20  38  58  84 120 152 186 242 294 332
#
# _framework density 29.268495000000001
#
# number of rings (size 3 to 8) (size 9 to 14) (size 15 to 20)
#    0.000    1.818    0.000    5.455    0.000    2.909 
#    0.000    3.636    0.000    6.545    0.000    0.000 
#    0.000    0.000    0.000    0.000    0.000    0.000 
#
# Total GULP energy -61418.025171 kJ/mol
# GULP energy per Si atom -5583.456834 kJ/mol
# Density = 2.920188 g / cm^3
# Si number density = 29.268495 Si / 1000 Ang^3
#
#
#
# Elastic Constant Matrix: (Units=GPa)
#
#
# Indices 1 2 3 4 5 6 
#
# 1 79.7238 65.2291 29.6455 23.0559 12.7603 19.9119
# 2 65.2291 159.8409 41.3166 12.7333 16.1863 24.3490
# 3 29.6455 41.3166 107.9785 -26.7097 7.9019 3.6098
# 4 23.0559 12.7333 -26.7097 32.3259 4.8575 6.0388
# 5 12.7603 16.1863 7.9019 4.8575 26.0808 14.2142
# 6 19.9119 24.3490 3.6098 6.0388 14.2142 74.7974
#
#
#
# Elastic Compliance Matrix: (Units=1/GPa)
#
#
# Indices 1 2 3 4 5 6 
#
# 1 0.034288 -0.006966 -0.014909 -0.033408 0.000182 -0.003478
# 2 -0.006966 0.009831 -0.001652 0.000166 -0.001702 -0.000956
# 3 -0.014909 -0.001652 0.021551 0.029436 -0.004782 0.001999
# 4 -0.033408 0.000166 0.029436 0.079872 -0.009015 0.002683
# 5 0.000182 -0.001702 -0.004782 -0.009015 0.046450 -0.007363
# 6 -0.003478 -0.000956 0.001999 0.002683 -0.007363 0.015693
#
#
# Mechanical properties :
#
#
# Convention : Reuss Voigt Hill
#
# Bulk Modulus (GPa) = 53.71731 68.88060 61.29896
# Shear Modulus (GPa) = 19.16134 40.73096 29.94615
#
# Velocity S-wave (km/s) = 2.56144 3.73450 3.20215
# Velocity P-wave (km/s) = 5.20971 6.49465 5.88734
#
# Compressibility (1/GPa) = 0.01861597
#
# Stress axis : x y z
#
# Youngs Moduli (GPa) = 29.16512 101.72291 46.40220
#
# Poissons Ratio (x) = 0.70859 0.69181
# Poissons Ratio (y) = 0.20316 0.07663
# Poissons Ratio (z) = 0.43482 0.16800
#
# Static dielectric constant tensor:
#      x y z
#    x 2.143000 -0.011240 0.014070 
#    y -0.011240 2.161710 0.083070 
#    z 0.014070 0.083070 2.281670 
# 
# From -- ./inp_files/16959.got.cif
#   From: 2010.05.17/outbox.cif.g08.bks.cpg/sg2_9_cif.got.tgz:16959.got - 2010.06.03 11:33:40.
