data_PCOD9097467
_publ_section_title
;
Structure prediction by ZEFSAII (Michael W. Deem and Ramdas Pophale) SiO2 
 PCOD9097467
Probable space group: P -1
;
_chemical_formula_sum "Si O2"
_cell_formula_units_Z 16
_cell_length_a 12.817327
_cell_length_b 22.079638
_cell_length_c 8.996925
_cell_angle_alpha 62.117188
_cell_angle_beta 142.769499
_cell_angle_gamma 144.323012
_cell_volume 774.083269
_symmetry_space_group_name_H-M "P -1"
_symmetry_group_IT_number 2
_symmetry_cell_setting 'triclinic'
loop_
_space_group_symop_operation_xyz
x,y,z
-x,-y,-z
loop_
_atom_site_type_symbol
_atom_site_label
_atom_site_fract_x
_atom_site_fract_y
_atom_site_fract_z
Si Si1 0.179262 0.175497 0.652250
Si Si2 0.199029 0.378325 0.024832
Si Si3 0.802991 0.507676 0.635838
Si Si4 0.387685 0.795325 0.983923
Si Si5 0.795661 0.155814 0.044771
Si Si6 0.741426 0.452186 0.969452
Si Si7 0.273896 0.972266 0.440359
Si Si8 0.713175 0.172560 0.486510
O O1 0.461481 0.315020 0.864245
O O2 0.968271 0.155044 0.335818
O O3 0.326968 0.162252 0.741685
O O4 0.991798 0.090409 0.680910
O O5 0.532099 0.454710 0.301538
O O6 0.233393 0.467415 0.014028
O O7 0.027678 0.278279 0.073051
O O8 0.985557 0.301109 0.728421
O O9 0.689334 0.447612 0.738967
O O10 0.081076 0.650226 0.819128
O O11 0.950962 0.491450 0.739299
O O12 0.381547 0.851079 0.037924
O O13 0.365663 0.821477 0.767101
O O14 0.557436 0.046857 0.784095
O O15 0.418394 0.072602 0.373245
O O16 0.186778 0.873780 0.371380
#
# Coordination Sequence:
#
# PCOD9097467 Si02
#       8
#     2   2   2   2   2   2   2   2
#     4  11  22  38  65  91 120 156 197 251 307 341
#     4  11  21  38  65  89 121 168 191 238 311 353
#     4  10  20  36  60  94 127 151 193 251 293 360
#     4  11  23  39  62  94 122 155 201 248 297 363
#     4  11  21  39  66  90 118 154 209 252 293 350
#     4  10  20  36  60  97 124 147 199 248 298 356
#     4  10  23  44  62  85 121 162 202 256 294 345
#     4  10  24  43  60  87 124 160 206 243 295 365
#
# _framework density 20.669609999999999
#
# number of rings (size 3 to 8) (size 9 to 14) (size 15 to 20)
#    0.000    1.500    3.750    1.500    0.000    1.500 
#    2.250    1.250    0.000    0.000    0.000    0.000 
#    0.000    0.000    0.000    0.000    0.000    0.000 
#
# Total GULP energy -89456.908890 kJ/mol
# GULP energy per Si atom -5591.056806 kJ/mol
# Density = 2.062257 g / cm^3
# Si number density = 20.669610 Si / 1000 Ang^3
#
#
#
# Elastic Constant Matrix: (Units=GPa)
#
#
# Indices 1 2 3 4 5 6 
#
# 1 63.7289 16.5411 48.1451 0.4522 11.1897 8.3598
# 2 16.5411 31.5963 24.8981 -0.7544 11.1403 1.5521
# 3 48.1451 24.8981 39.1683 10.4393 10.1088 -19.5592
# 4 0.4522 -0.7544 10.4393 20.3163 4.9777 7.1535
# 5 11.1897 11.1403 10.1088 4.9777 22.3245 -3.9814
# 6 8.3598 1.5521 -19.5592 7.1535 -3.9814 29.1983
#
#
#
# Elastic Compliance Matrix: (Units=1/GPa)
#
#
# Indices 1 2 3 4 5 6 
#
# 1 0.004903 -0.019141 0.016890 -0.016513 0.005943 0.015784
# 2 -0.019141 0.033137 0.013731 -0.008022 -0.008934 0.013664
# 3 0.016890 0.013731 -0.018899 0.023114 -0.016578 -0.026149
# 4 -0.016513 -0.008022 0.023114 0.034185 -0.003712 0.011756
# 5 0.005943 -0.008934 -0.016578 -0.003712 0.053881 -0.004075
# 6 0.015784 0.013664 -0.026149 0.011756 -0.004075 0.008051
#
#
# Mechanical properties :
#
#
# Convention : Reuss Voigt Hill
#
# Bulk Modulus (GPa) = 23.75221 34.85136 29.30178
# Shear Modulus (GPa) = 47.02364 17.36176 32.19270
#
# Velocity S-wave (km/s) = 4.77488 2.90136 3.95079
# Velocity P-wave (km/s) = 6.47423 5.30298 5.91766
#
# Compressibility (1/GPa) = 0.04210135
#
# Stress axis : x y z
#
# Youngs Moduli (GPa) = 203.96661 30.17803 -52.91334
#
# Poissons Ratio (x) = 0.57765 0.89372
# Poissons Ratio (y) = 3.90419 0.72657
# Poissons Ratio (z) = -3.44506 -0.41439
#
# Static dielectric constant tensor:
#      x y z
#    x 1.728170 0.024550 0.019070 
#    y 0.024550 1.758290 0.003260 
#    z 0.019070 0.003260 1.705370 
# 
# From -- ./inp_files/257821.got.cif
#   From: 2010.05.17/outbox.cif.g08.bks.cpg/sg2_129_cif.got.tgz:257821.got - 2010.06.03 11:33:40.
