data_PCOD9097299
_publ_section_title
;
Structure prediction by ZEFSAII (Michael W. Deem and Ramdas Pophale) SiO2 
 PCOD9097299
Probable space group: P -1
;
_chemical_formula_sum "Si O2"
_cell_formula_units_Z 16
_cell_length_a 8.543524
_cell_length_b 5.158352
_cell_length_c 20.671677
_cell_angle_alpha 87.870334
_cell_angle_beta 52.343792
_cell_angle_gamma 67.933587
_cell_volume 645.028626
_symmetry_space_group_name_H-M "P -1"
_symmetry_group_IT_number 2
_symmetry_cell_setting 'triclinic'
loop_
_space_group_symop_operation_xyz
x,y,z
-x,-y,-z
loop_
_atom_site_type_symbol
_atom_site_label
_atom_site_fract_x
_atom_site_fract_y
_atom_site_fract_z
Si Si1 0.262392 0.870325 0.503750
Si Si2 0.521481 0.422276 0.919143
Si Si3 0.097216 0.559911 0.874224
Si Si4 0.135445 0.613306 0.419661
Si Si5 0.380553 0.742960 0.713551
Si Si6 0.985219 0.353666 0.784014
Si Si7 0.740652 0.924811 0.057354
Si Si8 0.729059 0.536725 0.381847
O O1 0.215951 0.804631 0.442871
O O2 0.508549 0.842247 0.440240
O O3 0.255239 0.624324 0.553799
O O4 0.060471 0.161834 0.577028
O O5 0.775793 0.291794 0.834192
O O6 0.417657 0.205554 0.931505
O O7 0.386783 0.729675 0.913627
O O8 0.500000 0.500000 0.000000
O O9 0.298065 0.597157 0.791449
O O10 0.174458 0.259957 0.896603
O O11 0.944606 0.572982 0.851623
O O12 0.951473 0.815017 0.957568
O O13 0.360744 0.354621 0.340574
O O14 0.000000 0.500000 0.500000
O O15 0.338983 0.627812 0.655886
O O16 0.212028 0.079405 0.750153
O O17 0.051366 0.461954 0.701096
#
# Coordination Sequence:
#
# PCOD9097299 Si02
#       8
#     2   2   2   2   2   2   2   2
#     4   9  19  38  60  83 121 156 208 256 315 378
#     4  12  25  43  68  98 133 169 220 271 326 387
#     4  10  24  43  66  89 128 168 214 262 326 386
#     4  10  20  36  60  86 118 159 203 258 313 380
#     4  10  22  39  60  88 123 163 207 257 321 382
#     4  11  23  39  65  88 130 166 210 267 327 384
#     4  11  26  44  69  98 128 175 221 270 325 386
#     4   9  20  38  59  88 117 165 204 259 317 387
#
# _framework density 24.805099999999999
#
# number of rings (size 3 to 8) (size 9 to 14) (size 15 to 20)
#    0.000    1.750    1.250    1.875    5.250    4.000 
#    2.250    3.750    0.000    0.000    0.000    0.000 
#    0.000    0.000    0.000    0.000    0.000    0.000 
#
# Total GULP energy -89545.750244 kJ/mol
# GULP energy per Si atom -5596.609390 kJ/mol
# Density = 2.474864 g / cm^3
# Si number density = 24.805100 Si / 1000 Ang^3
#
#
#
# Elastic Constant Matrix: (Units=GPa)
#
#
# Indices 1 2 3 4 5 6 
#
# 1 61.9169 -3.5132 31.2329 2.4291 -10.4935 2.3724
# 2 -3.5132 86.3657 17.8780 9.3119 -17.4395 -17.5034
# 3 31.2329 17.8780 121.3220 -6.6186 -31.3995 -10.2579
# 4 2.4291 9.3119 -6.6186 34.8008 -0.2986 -6.1913
# 5 -10.4935 -17.4395 -31.3995 -0.2986 62.8654 7.2722
# 6 2.3724 -17.5034 -10.2579 -6.1913 7.2722 34.1323
#
#
#
# Elastic Compliance Matrix: (Units=1/GPa)
#
#
# Indices 1 2 3 4 5 6 
#
# 1 0.019451 0.001975 -0.005355 -0.003403 0.001436 -0.002872
# 2 0.001975 0.013983 -0.001566 -0.003194 0.002788 0.005389
# 3 -0.005355 -0.001566 0.011314 0.003467 0.004022 0.002741
# 4 -0.003403 -0.003194 0.003467 0.031443 -0.000196 0.005386
# 5 0.001436 0.002788 0.004022 -0.000196 0.019109 -0.001568
# 6 -0.002872 0.005389 0.002741 0.005386 -0.001568 0.034396
#
#
# Mechanical properties :
#
#
# Convention : Reuss Voigt Hill
#
# Bulk Modulus (GPa) = 28.69094 40.08888 34.38991
# Shear Modulus (GPa) = 33.06725 41.29351 37.18038
#
# Velocity S-wave (km/s) = 3.65510 4.08452 3.87576
# Velocity P-wave (km/s) = 5.42261 6.20009 5.82433
#
# Compressibility (1/GPa) = 0.03485421
#
# Stress axis : x y z
#
# Youngs Moduli (GPa) = 51.41133 71.51696 88.38792
#
# Poissons Ratio (x) = -0.14122 0.47334
# Poissons Ratio (y) = -0.10152 0.13841
# Poissons Ratio (z) = 0.27532 0.11199
#
# Static dielectric constant tensor:
#      x y z
#    x 2.026710 0.016040 0.021510 
#    y 0.016040 2.030180 0.052320 
#    z 0.021510 0.052320 1.963830 
# 
# From -- ./inp_files/126466.got.cif
#   From: 2010.05.17/outbox.cif.g08.bks.cpg/sg2_64_cif.got.tgz:126466.got - 2010.06.03 11:33:40.
