data_PCOD9097344
_publ_section_title
;
Structure prediction by ZEFSAII (Michael W. Deem and Ramdas Pophale) SiO2 
 PCOD9097344
Probable space group: P -1
;
_chemical_formula_sum "Si O2"
_cell_formula_units_Z 14
_cell_length_a 21.381523
_cell_length_b 9.466651
_cell_length_c 11.286022
_cell_angle_alpha 62.489691
_cell_angle_beta 152.162552
_cell_angle_gamma 135.915709
_cell_volume 627.766031
_symmetry_space_group_name_H-M "P -1"
_symmetry_group_IT_number 2
_symmetry_cell_setting 'triclinic'
loop_
_space_group_symop_operation_xyz
x,y,z
-x,-y,-z
loop_
_atom_site_type_symbol
_atom_site_label
_atom_site_fract_x
_atom_site_fract_y
_atom_site_fract_z
Si Si1 0.066044 0.251621 0.871949
Si Si2 0.185021 0.279158 0.305241
Si Si3 0.540591 0.990766 0.237937
Si Si4 0.514939 0.386526 0.672777
Si Si5 0.265222 0.324981 0.682151
Si Si6 0.829498 0.123474 0.316404
Si Si7 0.785371 0.424739 0.338190
O O1 0.879413 0.168480 0.523967
O O2 0.139834 0.356433 0.088560
O O3 0.242176 0.422369 0.002322
O O4 0.997669 0.008959 0.871577
O O5 0.383502 0.350812 0.571080
O O6 0.211741 0.359941 0.452986
O O7 0.582278 0.868919 0.428358
O O8 0.740041 0.259678 0.430432
O O9 0.384811 0.985170 0.024974
O O10 0.406343 0.785544 0.987180
O O11 0.500000 0.500000 0.500000
O O12 0.229761 0.413434 0.694724
O O13 0.167018 0.061819 0.634963
O O14 0.500000 0.500000 0.000000
O O15 0.996339 0.378464 0.431881
#
# Coordination Sequence:
#
# PCOD9097344 Si02
#       7
#     2   2   2   2   2   2   2
#     4   9  19  34  57  88 114 153 205 245 294 350
#     4   9  20  36  57  85 119 156 200 251 291 357
#     4  11  23  37  59  95 124 153 204 260 304 348
#     4  10  20  36  60  88 117 157 201 250 297 357
#     4  11  21  38  59  89 130 164 201 245 308 368
#     4  11  22  37  63  92 122 159 205 255 300 361
#     4  11  23  37  58  93 126 161 195 252 311 360
#
# _framework density 22.301300999999999
#
# number of rings (size 3 to 8) (size 9 to 14) (size 15 to 20)
#    0.000    1.714    2.857    1.714    6.000    0.000 
#    0.000    0.000    0.000    4.286    0.000    0.000 
#    0.000    0.000    0.000    0.000    0.000    0.000 
#
# Total GULP energy -77979.506366 kJ/mol
# GULP energy per Si atom -5569.964740 kJ/mol
# Density = 2.225054 g / cm^3
# Si number density = 22.301301 Si / 1000 Ang^3
#
#
#
# Elastic Constant Matrix: (Units=GPa)
#
#
# Indices 1 2 3 4 5 6 
#
# 1 70.8137 40.6204 1.8608 16.0820 12.6802 -0.7554
# 2 40.6204 154.2497 15.9789 12.4810 12.0723 19.2466
# 3 1.8608 15.9789 41.6361 4.3218 6.4900 13.2956
# 4 16.0820 12.4810 4.3218 35.6447 3.7702 5.3720
# 5 12.6802 12.0723 6.4900 3.7702 33.5461 3.4697
# 6 -0.7554 19.2466 13.2956 5.3720 3.4697 41.9090
#
#
#
# Elastic Compliance Matrix: (Units=1/GPa)
#
#
# Indices 1 2 3 4 5 6 
#
# 1 0.019429 -0.004678 0.001439 -0.007239 -0.005479 0.003424
# 2 -0.004678 0.008363 -0.001864 -0.000040 -0.000537 -0.003284
# 3 0.001439 -0.001864 0.027882 -0.001811 -0.004301 -0.007375
# 4 -0.007239 -0.000040 -0.001811 0.032117 -0.000132 -0.003644
# 5 -0.005479 -0.000537 -0.004301 -0.000132 0.033046 -0.001207
# 6 0.003424 -0.003284 -0.007375 -0.003644 -0.001207 0.028338
#
#
# Mechanical properties :
#
#
# Convention : Reuss Voigt Hill
#
# Bulk Modulus (GPa) = 21.99325 42.62442 32.30883
# Shear Modulus (GPa) = 28.64725 36.10259 32.37492
#
# Velocity S-wave (km/s) = 3.58796 4.02787 3.81426
# Velocity P-wave (km/s) = 5.20076 6.38640 5.82383
#
# Compressibility (1/GPa) = 0.04546850
#
# Stress axis : x y z
#
# Youngs Moduli (GPa) = 51.46989 119.57367 35.86514
#
# Poissons Ratio (x) = 0.55938 -0.05162
# Poissons Ratio (y) = 0.24078 0.06685
# Poissons Ratio (z) = -0.07408 0.22288
#
# Static dielectric constant tensor:
#      x y z
#    x 1.914120 0.026980 -0.036600 
#    y 0.026980 1.959440 -0.121200 
#    z -0.036600 -0.121200 2.045850 
# 
# From -- ./inp_files/375559.got.cif
#   From: 2010.05.17/outbox.cif.g08.bks.cpg/sg2_188_cif.got.tgz:375559.got - 2010.06.03 11:33:40.
