data_PCOD9097263
_publ_section_title
;
Structure prediction by ZEFSAII (Michael W. Deem and Ramdas Pophale) SiO2 
 PCOD9097263
Probable space group: P -1
;
_chemical_formula_sum "Si O2"
_cell_formula_units_Z 12
_cell_length_a 11.711642
_cell_length_b 7.146151
_cell_length_c 8.911922
_cell_angle_alpha 59.452120
_cell_angle_beta 57.075852
_cell_angle_gamma 56.207493
_cell_volume 497.109535
_symmetry_space_group_name_H-M "P -1"
_symmetry_group_IT_number 2
_symmetry_cell_setting 'triclinic'
loop_
_space_group_symop_operation_xyz
x,y,z
-x,-y,-z
loop_
_atom_site_type_symbol
_atom_site_label
_atom_site_fract_x
_atom_site_fract_y
_atom_site_fract_z
Si Si1 0.418593 0.055024 0.294319
Si Si2 0.271471 0.535984 0.317423
Si Si3 0.409548 0.767832 0.702068
Si Si4 0.735426 0.981024 0.850383
Si Si5 0.976754 0.372575 0.304432
Si Si6 0.178612 0.539732 0.931064
O O1 0.306920 0.330322 0.253770
O O2 0.567118 0.079250 0.238209
O O3 0.402187 0.944752 0.195246
O O4 0.373483 0.927541 0.514867
O O5 0.422389 0.426003 0.353705
O O6 0.130753 0.561263 0.505770
O O7 0.260132 0.789394 0.168676
O O8 0.294168 0.648564 0.852830
O O9 0.883372 0.874605 0.684024
O O10 0.749015 0.744797 0.022862
O O11 0.888954 0.357362 0.223394
O O12 0.046078 0.565497 0.131310
#
# Coordination Sequence:
#
# PCOD9097263 Si02
#       6
#     2   2   2   2   2   2
#     4   9  21  38  58  85 111 144 195 227 269 336
#     4  10  20  37  61  85 106 152 189 224 277 333
#     4   9  20  40  55  84 113 146 188 231 273 329
#     4  10  20  36  60  84 115 145 181 237 277 324
#     4   9  20  37  56  85 112 150 187 221 281 337
#     4   9  20  37  58  80 119 146 180 234 283 322
#
# _framework density 24.139547
#
# number of rings (size 3 to 8) (size 9 to 14) (size 15 to 20)
#    2.000    0.667    0.000    1.500    0.000    4.667 
#    0.000    2.500    0.000    0.000    0.000    0.000 
#    0.000    0.000    0.000    0.000    0.000    0.000 
#
# Total GULP energy -66932.409810 kJ/mol
# GULP energy per Si atom -5577.700817 kJ/mol
# Density = 2.408460 g / cm^3
# Si number density = 24.139547 Si / 1000 Ang^3
#
#
#
# Elastic Constant Matrix: (Units=GPa)
#
#
# Indices 1 2 3 4 5 6 
#
# 1 88.7404 28.3096 28.6923 -6.5518 -17.3358 -10.6403
# 2 28.3096 74.7268 32.7450 -19.0550 -22.7756 23.7629
# 3 28.6923 32.7450 98.2572 -11.6568 -34.0667 -0.6579
# 4 -6.5518 -19.0550 -11.6568 32.8854 -3.0026 -13.0996
# 5 -17.3358 -22.7756 -34.0667 -3.0026 42.5623 -8.7079
# 6 -10.6403 23.7629 -0.6579 -13.0996 -8.7079 2.2597
#
#
#
# Elastic Compliance Matrix: (Units=1/GPa)
#
#
# Indices 1 2 3 4 5 6 
#
# 1 0.009549 0.001231 -0.005126 -0.005870 -0.003242 -0.015997
# 2 0.001231 0.015399 0.002569 0.019438 0.016216 0.019778
# 3 -0.005126 0.002569 0.013475 0.000951 0.007579 -0.012514
# 4 -0.005870 0.019438 0.000951 0.031779 0.006075 -0.024139
# 5 -0.003242 0.016216 0.007579 0.006075 0.033043 -0.021034
# 6 -0.015997 0.019778 -0.012514 -0.024139 -0.021034 -0.065410
#
#
# Mechanical properties :
#
#
# Convention : Reuss Voigt Hill
#
# Bulk Modulus (GPa) = 27.95538 49.02424 38.48981
# Shear Modulus (GPa) = 95.40160 27.00666 61.20413
#
# Velocity S-wave (km/s) = 6.29338 3.34843 5.04077
# Velocity P-wave (km/s) = 8.02588 5.94156 7.06105
#
# Compressibility (1/GPa) = 0.03577130
#
# Stress axis : x y z
#
# Youngs Moduli (GPa) = 104.72696 64.93742 74.21304
#
# Poissons Ratio (x) = -0.07994 0.38042
# Poissons Ratio (y) = -0.12893 -0.19067
# Poissons Ratio (z) = 0.53684 -0.16684
#
# Static dielectric constant tensor:
#      x y z
#    x 1.944780 -0.023870 -0.040770 
#    y -0.023870 1.934040 0.036860 
#    z -0.040770 0.036860 1.926310 
# 
# From -- ./inp_files/191334.got.cif
#   From: 2010.05.17/outbox.cif.g08.bks.cpg/sg2_96_cif.got.tgz:191334.got - 2010.06.03 11:33:40.
