data_PCOD9097943
_publ_section_title
;
Structure prediction by ZEFSAII (Michael W. Deem and Ramdas Pophale) SiO2 
 PCOD9097943
Probable space group: P -1
;
_chemical_formula_sum "Si O2"
_cell_formula_units_Z 16
_cell_length_a 18.922826
_cell_length_b 6.003173
_cell_length_c 8.997865
_cell_angle_alpha 98.153023
_cell_angle_beta 98.918972
_cell_angle_gamma 131.099311
_cell_volume 718.997300
_symmetry_space_group_name_H-M "P -1"
_symmetry_group_IT_number 2
_symmetry_cell_setting 'triclinic'
loop_
_space_group_symop_operation_xyz
x,y,z
-x,-y,-z
loop_
_atom_site_type_symbol
_atom_site_label
_atom_site_fract_x
_atom_site_fract_y
_atom_site_fract_z
Si Si1 0.268115 0.974842 0.844684
Si Si2 0.700264 0.592877 0.853045
Si Si3 0.449250 0.635103 0.463795
Si Si4 0.961357 0.700704 0.865164
Si Si5 0.138334 0.177735 0.324323
Si Si6 0.928184 0.472664 0.143404
Si Si7 0.610497 0.142704 0.036791
Si Si8 0.716419 0.667928 0.369095
O O1 0.262969 0.056131 0.684833
O O2 0.164964 0.622980 0.813515
O O3 0.369257 0.065600 0.923579
O O4 0.264370 0.164070 0.983639
O O5 0.612798 0.517268 0.723246
O O6 0.787170 0.723194 0.777735
O O7 0.654012 0.280522 0.899045
O O8 0.500000 0.500000 0.500000
O O9 0.372269 0.494374 0.559576
O O10 0.500000 0.000000 0.500000
O O11 0.890422 0.628440 0.704991
O O12 0.049629 0.740461 0.836128
O O13 0.909797 0.450534 0.957748
O O14 0.000000 0.000000 0.000000
O O15 0.193329 0.238623 0.499523
O O16 0.032779 0.818878 0.249605
O O17 0.677133 0.420928 0.203973
O O18 0.500000 0.000000 0.000000
#
# Coordination Sequence:
#
# PCOD9097943 Si02
#       8
#     2   2   2   2   2   2   2   2
#     4  11  24  41  64  96 136 174 229 279 338 422
#     4  10  23  40  65  99 128 173 232 282 343 408
#     4  11  26  46  74 100 138 178 235 294 358 414
#     4   9  17  32  60  87 125 162 219 268 323 389
#     4  10  21  41  62  95 133 172 223 280 339 405
#     4  10  20  36  62  94 127 176 219 272 340 404
#     4  11  25  43  68  90 130 177 229 279 356 418
#     4  10  26  43  62 100 134 172 227 282 350 418
#
# _framework density 22.253212000000001
#
# number of rings (size 3 to 8) (size 9 to 14) (size 15 to 20)
#    0.000    1.750    0.000    3.750    7.000    5.500 
#    4.500    1.250    0.000    0.000    0.000    0.000 
#    0.000    0.000    0.000    0.000    0.000    0.000 
#
# Total GULP energy -89220.925469 kJ/mol
# GULP energy per Si atom -5576.307842 kJ/mol
# Density = 2.220256 g / cm^3
# Si number density = 22.253212 Si / 1000 Ang^3
#
#
#
# Elastic Constant Matrix: (Units=GPa)
#
#
# Indices 1 2 3 4 5 6 
#
# 1 132.6059 41.4842 50.4621 -10.1619 46.9082 -0.2776
# 2 41.4842 70.8927 41.5125 -11.8466 17.2837 15.1341
# 3 50.4621 41.5125 132.3182 -24.3544 37.8747 7.4596
# 4 -10.1619 -11.8466 -24.3544 28.7941 -7.1754 3.5163
# 5 46.9082 17.2837 37.8747 -7.1754 42.5386 -5.7760
# 6 -0.2776 15.1341 7.4596 3.5163 -5.7760 29.8412
#
#
#
# Elastic Compliance Matrix: (Units=1/GPa)
#
#
# Indices 1 2 3 4 5 6 
#
# 1 0.013704 -0.004910 -0.000014 -0.000494 -0.013169 0.000131
# 2 -0.004910 0.022694 -0.002945 0.006124 -0.001764 -0.011882
# 3 -0.000014 -0.002945 0.012941 0.007891 -0.009593 -0.004528
# 4 -0.000494 0.006124 0.007891 0.044338 -0.002968 -0.010882
# 5 -0.013169 -0.001764 -0.009593 -0.002968 0.048541 0.012915
# 6 0.000131 -0.011882 -0.004528 -0.010882 0.012915 0.044452
#
#
# Mechanical properties :
#
#
# Convention : Reuss Voigt Hill
#
# Bulk Modulus (GPa) = 29.76336 66.97048 48.36692
# Shear Modulus (GPa) = 23.40738 33.72530 28.56634
#
# Velocity S-wave (km/s) = 3.24677 3.89720 3.58676
# Velocity P-wave (km/s) = 5.24015 7.10007 6.23980
#
# Compressibility (1/GPa) = 0.03359836
#
# Stress axis : x y z
#
# Youngs Moduli (GPa) = 72.97378 44.06497 77.27616
#
# Poissons Ratio (x) = 0.21637 0.00111
# Poissons Ratio (y) = 0.35832 0.22759
# Poissons Ratio (z) = 0.00105 0.12978
#
# Static dielectric constant tensor:
#      x y z
#    x 1.882350 -0.105340 0.016560 
#    y -0.105340 2.078070 0.007630 
#    z 0.016560 0.007630 1.802140 
# 
# From -- ./inp_files/90443.got.cif
#   From: 2010.05.17/outbox.cif.g08.bks.cpg/sg2_46_cif.got.tgz:90443.got - 2010.06.03 11:33:40.
