data_PCOD9097162
_publ_section_title
;
Structure prediction by ZEFSAII (Michael W. Deem and Ramdas Pophale) SiO2 
 PCOD9097162
Probable space group: P -1
;
_chemical_formula_sum "Si O2"
_cell_formula_units_Z 14
_cell_length_a 8.228838
_cell_length_b 5.284357
_cell_length_c 21.221889
_cell_angle_alpha 65.307986
_cell_angle_beta 42.566073
_cell_angle_gamma 58.845590
_cell_volume 533.124757
_symmetry_space_group_name_H-M "P -1"
_symmetry_group_IT_number 2
_symmetry_cell_setting 'triclinic'
loop_
_space_group_symop_operation_xyz
x,y,z
-x,-y,-z
loop_
_atom_site_type_symbol
_atom_site_label
_atom_site_fract_x
_atom_site_fract_y
_atom_site_fract_z
Si Si1 0.915373 0.895376 0.307646
Si Si2 0.620744 0.860172 0.735056
Si Si3 0.665575 0.831605 0.863957
Si Si4 0.109117 0.261614 0.805681
Si Si5 0.411606 0.312311 0.374019
Si Si6 0.089154 0.146462 0.020025
Si Si7 0.965260 0.878051 0.434473
O O1 0.868282 0.726733 0.277436
O O2 0.901946 0.782342 0.393179
O O3 0.688754 0.212704 0.334969
O O4 0.183909 0.942892 0.216217
O O5 0.605992 0.733988 0.821110
O O6 0.572343 0.692831 0.705381
O O7 0.388798 0.178566 0.765491
O O8 0.900612 0.881934 0.642679
O O9 0.872666 0.544728 0.866223
O O10 0.395081 0.997806 0.955003
O O11 0.032761 0.973466 0.874599
O O12 0.281533 0.069182 0.457951
O O13 0.200600 0.613829 0.424516
O O14 0.000000 0.500000 0.000000
O O15 0.000000 0.000000 0.000000
#
# Coordination Sequence:
#
# PCOD9097162 Si02
#       7
#     2   2   2   2   2   2   2
#     4  10  23  37  62  94 128 172 228 285 341 408
#     4  10  21  39  62  94 132 172 230 279 347 402
#     4  11  24  43  69  96 135 178 232 281 352 413
#     4  11  24  43  69  96 135 178 232 281 352 413
#     4  10  20  36  59  89 129 174 223 279 341 403
#     4  12  29  49  76 105 144 182 232 290 353 422
#     4  10  20  36  59  89 129 174 223 279 341 403
#
# _framework density 26.260266999999999
#
# number of rings (size 3 to 8) (size 9 to 14) (size 15 to 20)
#    0.000    1.429    1.429    3.000    4.000    5.143 
#    0.000    0.000    0.000   13.714    0.000    0.000 
#    0.000    0.000    0.000    0.000    0.000    0.000 
#
# Total GULP energy -78341.506566 kJ/mol
# GULP energy per Si atom -5595.821898 kJ/mol
# Density = 2.620050 g / cm^3
# Si number density = 26.260267 Si / 1000 Ang^3
#
#
#
# Elastic Constant Matrix: (Units=GPa)
#
#
# Indices 1 2 3 4 5 6 
#
# 1 107.8877 31.2746 30.8974 8.0092 1.8556 -7.5218
# 2 31.2746 118.6939 6.0331 11.0712 0.2689 -10.2080
# 3 30.8974 6.0331 107.1021 9.8972 -12.0213 0.2277
# 4 8.0092 11.0712 9.8972 28.7632 -15.0164 -7.4388
# 5 1.8556 0.2689 -12.0213 -15.0164 38.6278 1.7414
# 6 -7.5218 -10.2080 0.2277 -7.4388 1.7414 40.8589
#
#
#
# Elastic Compliance Matrix: (Units=1/GPa)
#
#
# Indices 1 2 3 4 5 6 
#
# 1 0.011165 -0.002490 -0.003162 -0.001966 -0.002321 0.001192
# 2 -0.002490 0.009496 0.000356 -0.003363 -0.001204 0.001351
# 3 -0.003162 0.000356 0.010710 -0.001700 0.002866 -0.000984
# 4 -0.001966 -0.003363 -0.001700 0.048416 0.018101 0.006850
# 5 -0.002321 -0.001204 0.002866 0.018101 0.033887 0.001107
# 6 0.001192 0.001351 -0.000984 0.006850 0.001107 0.026237
#
#
# Mechanical properties :
#
#
# Convention : Reuss Voigt Hill
#
# Bulk Modulus (GPa) = 48.12561 52.23266 50.17914
# Shear Modulus (GPa) = 31.76050 39.34856 35.55453
#
# Velocity S-wave (km/s) = 3.48149 3.87513 3.68357
# Velocity P-wave (km/s) = 5.87598 6.32105 6.10258
#
# Compressibility (1/GPa) = 0.02077896
#
# Stress axis : x y z
#
# Youngs Moduli (GPa) = 89.56337 105.31128 93.37133
#
# Poissons Ratio (x) = 0.26223 0.29525
# Poissons Ratio (y) = 0.22302 -0.03326
# Poissons Ratio (z) = 0.28321 -0.03752
#
# Static dielectric constant tensor:
#      x y z
#    x 2.093000 0.049400 0.001720 
#    y 0.049400 2.183940 -0.035740 
#    z 0.001720 -0.035740 2.063070 
# 
# From -- ./inp_files/38299.got.cif
#   From: 2010.05.17/outbox.cif.g08.bks.cpg/sg2_20_cif.got.tgz:38299.got - 2010.06.03 11:33:40.
