data_PCOD9097855
_publ_section_title
;
Structure prediction by ZEFSAII (Michael W. Deem and Ramdas Pophale) SiO2 
 PCOD9097855
Probable space group: P -1
;
_chemical_formula_sum "Si O2"
_cell_formula_units_Z 15
_cell_length_a 11.769263
_cell_length_b 6.393333
_cell_length_c 10.938804
_cell_angle_alpha 119.410835
_cell_angle_beta 121.170536
_cell_angle_gamma 72.559931
_cell_volume 612.349187
_symmetry_space_group_name_H-M "P -1"
_symmetry_group_IT_number 2
_symmetry_cell_setting 'triclinic'
loop_
_space_group_symop_operation_xyz
x,y,z
-x,-y,-z
loop_
_atom_site_type_symbol
_atom_site_label
_atom_site_fract_x
_atom_site_fract_y
_atom_site_fract_z
Si Si1 0.853896 0.204429 0.572461
Si Si2 0.910522 0.445493 0.171531
Si Si3 0.566314 0.238368 0.821191
Si Si4 0.255226 0.145221 0.058921
Si Si5 0.397189 0.605313 0.373431
Si Si6 0.054065 0.763579 0.623995
Si Si7 0.000000 0.500000 0.000000
Si Si8 0.654770 0.750532 0.113078
O O1 0.718041 0.236044 0.576765
O O2 0.841570 0.211330 0.420675
O O3 0.948039 0.424454 0.724382
O O4 0.939745 0.967733 0.593103
O O5 0.906531 0.245649 0.215116
O O6 0.800440 0.650511 0.209624
O O7 0.895624 0.381900 0.004165
O O8 0.545087 0.255107 0.669393
O O9 0.440181 0.155124 0.804376
O O10 0.692531 0.067012 0.883230
O O11 0.592310 0.508768 0.957315
O O12 0.328495 0.375013 0.215895
O O13 0.317660 0.087073 0.942110
O O14 0.103850 0.253579 0.994550
O O15 0.500000 0.500000 0.500000
O O16 0.000000 0.500000 0.500000
#
# Coordination Sequence:
#
# PCOD9097855 Si02
#       8
#     2   2   2   2   2   2   1   2
#     4  10  21  41  60  88 122 156 207 254 306 357
#     4  10  20  37  62  88 123 158 197 254 305 362
#     4  10  22  41  64  89 125 164 203 248 311 364
#     4  10  21  42  62  92 123 164 199 258 306 361
#     4  11  25  41  61  92 126 160 207 254 301 373
#     4   9  21  39  62  86 118 157 200 258 299 360
#     4  10  20  36  62  90 126 148 200 250 300 366
#     4   9  21  40  61  93 122 156 208 250 297 374
#
# _framework density 24.495827999999999
#
# number of rings (size 3 to 8) (size 9 to 14) (size 15 to 20)
#    0.000    2.133    1.333    0.400    3.733    2.667 
#    7.200    2.667    0.000    0.000    0.000    0.000 
#    0.000    0.000    0.000    0.000    0.000    0.000 
#
# Total GULP energy -83645.758634 kJ/mol
# GULP energy per Si atom -5576.383909 kJ/mol
# Density = 2.444007 g / cm^3
# Si number density = 24.495828 Si / 1000 Ang^3
#
#
#
# Elastic Constant Matrix: (Units=GPa)
#
#
# Indices 1 2 3 4 5 6 
#
# 1 163.0442 60.1424 52.1493 -21.6128 -41.5216 -17.3056
# 2 60.1424 107.5848 46.9178 -34.8496 -35.1183 12.4323
# 3 52.1493 46.9178 82.6862 -29.1536 -14.8731 1.9526
# 4 -21.6128 -34.8496 -29.1536 51.5649 15.0861 0.0125
# 5 -41.5216 -35.1183 -14.8731 15.0861 35.4362 -3.7589
# 6 -17.3056 12.4323 1.9526 0.0125 -3.7589 29.3913
#
#
#
# Elastic Compliance Matrix: (Units=1/GPa)
#
#
# Indices 1 2 3 4 5 6 
#
# 1 0.012922 -0.003134 -0.005648 -0.003499 0.012309 0.010885
# 2 -0.003134 0.019395 -0.004874 0.006114 0.010004 -0.008448
# 3 -0.005648 -0.004874 0.019979 0.007583 -0.006656 -0.003446
# 4 -0.003499 0.006114 0.007583 0.028595 -0.007684 -0.006145
# 5 0.012309 0.010004 -0.006656 -0.007684 0.054136 0.010385
# 6 0.010885 -0.008448 -0.003446 -0.006145 0.010385 0.045566
#
#
# Mechanical properties :
#
#
# Convention : Reuss Voigt Hill
#
# Bulk Modulus (GPa) = 40.02545 74.63712 57.33128
# Shear Modulus (GPa) = 23.12319 36.21886 29.67102
#
# Velocity S-wave (km/s) = 3.07573 3.84939 3.48410
# Velocity P-wave (km/s) = 5.38411 7.09172 6.29608
#
# Compressibility (1/GPa) = 0.02498410
#
# Stress axis : x y z
#
# Youngs Moduli (GPa) = 77.38694 51.56058 50.05163
#
# Poissons Ratio (x) = 0.16158 0.28271
# Poissons Ratio (y) = 0.24252 0.24394
# Poissons Ratio (z) = 0.43710 0.25130
#
# Static dielectric constant tensor:
#      x y z
#    x 1.947600 0.043410 0.034020 
#    y 0.043410 1.929950 0.035790 
#    z 0.034020 0.035790 1.228920 
# 
# From -- ./inp_files/362672.got.cif
#   From: 2010.05.17/outbox.cif.g08.bks.cpg/sg2_182_cif.got.tgz:362672.got - 2010.06.03 11:33:40.
