data_PCOD9097164
_publ_section_title
;
Structure prediction by ZEFSAII (Michael W. Deem and Ramdas Pophale) SiO2 
 PCOD9097164
Probable space group: P -1
;
_chemical_formula_sum "Si O2"
_cell_formula_units_Z 16
_cell_length_a 8.897465
_cell_length_b 14.774840
_cell_length_c 8.289084
_cell_angle_alpha 88.524749
_cell_angle_beta 46.106855
_cell_angle_gamma 62.254752
_cell_volume 615.004944
_symmetry_space_group_name_H-M "P -1"
_symmetry_group_IT_number 2
_symmetry_cell_setting 'triclinic'
loop_
_space_group_symop_operation_xyz
x,y,z
-x,-y,-z
loop_
_atom_site_type_symbol
_atom_site_label
_atom_site_fract_x
_atom_site_fract_y
_atom_site_fract_z
Si Si1 0.068251 0.576076 0.323318
Si Si2 0.808530 0.794472 0.724092
Si Si3 0.730519 0.078683 0.046767
Si Si4 0.516336 0.443948 0.219453
Si Si5 0.632281 0.733356 0.416413
Si Si6 0.290993 0.676147 0.577379
Si Si7 0.682132 0.905005 0.228081
Si Si8 0.125416 0.041957 0.513849
O O1 0.906432 0.678118 0.568173
O O2 0.274810 0.465492 0.290514
O O3 0.856349 0.608713 0.338569
O O4 0.267069 0.586726 0.072378
O O5 0.976291 0.759318 0.766064
O O6 0.915371 0.848939 0.535283
O O7 0.493432 0.878821 0.925422
O O8 0.572009 0.172335 0.302181
O O9 0.824912 0.953819 0.040594
O O10 0.967724 0.073055 0.797032
O O11 0.409512 0.564599 0.381629
O O12 0.642316 0.357775 0.281877
O O13 0.455493 0.724248 0.421728
O O14 0.776085 0.784680 0.238974
O O15 0.500000 0.000000 0.500000
O O16 0.438746 0.942145 0.292980
O O17 0.000000 0.000000 0.500000
#
# Coordination Sequence:
#
# PCOD9097164 Si02
#       8
#     2   2   2   2   2   2   2   2
#     4   9  19  39  60  82 115 157 189 238 296 359
#     4   9  20  39  59  86 123 152 202 240 282 354
#     4   9  21  40  60  82 120 168 191 235 297 341
#     4   9  20  38  60  82 117 156 183 241 312 344
#     4  10  20  36  59  90 114 147 204 242 283 356
#     4  10  20  37  58  90 117 146 195 246 292 348
#     4   9  20  39  56  87 123 150 193 247 284 343
#     4  11  22  38  58  84 120 160 200 236 287 352
#
# _framework density 26.016048999999999
#
# number of rings (size 3 to 8) (size 9 to 14) (size 15 to 20)
#    0.000    2.500    0.000    1.500    1.750    5.000 
#    9.000    0.000    0.000    0.000    0.000    0.000 
#    0.000    0.000    0.000    0.000    0.000    0.000 
#
# Total GULP energy -89369.001674 kJ/mol
# GULP energy per Si atom -5585.562605 kJ/mol
# Density = 2.595684 g / cm^3
# Si number density = 26.016049 Si / 1000 Ang^3
#
#
#
# Elastic Constant Matrix: (Units=GPa)
#
#
# Indices 1 2 3 4 5 6 
#
# 1 155.8385 35.5738 13.2067 15.6770 -19.6556 -29.0927
# 2 35.5738 120.6476 27.9707 -21.2190 -13.3189 -14.5171
# 3 13.2067 27.9707 74.2706 -6.1453 -11.3302 -9.8771
# 4 15.6770 -21.2190 -6.1453 23.9871 -5.7140 -1.6432
# 5 -19.6556 -13.3189 -11.3302 -5.7140 45.1671 7.9585
# 6 -29.0927 -14.5171 -9.8771 -1.6432 7.9585 55.5809
#
#
#
# Elastic Compliance Matrix: (Units=1/GPa)
#
#
# Indices 1 2 3 4 5 6 
#
# 1 0.008845 -0.003511 -0.000358 -0.008499 0.001077 0.003244
# 2 -0.003511 0.012794 -0.002425 0.013824 0.003205 0.001023
# 3 -0.000358 -0.002425 0.015352 0.002859 0.003068 0.001552
# 4 -0.008499 0.013824 0.002859 0.062351 0.008942 0.000233
# 5 0.001077 0.003205 0.003068 0.008942 0.025714 -0.001471
# 6 0.003244 0.001023 0.001552 0.000233 -0.001471 0.020450
#
#
# Mechanical properties :
#
#
# Convention : Reuss Voigt Hill
#
# Bulk Modulus (GPa) = 40.97734 56.02877 48.50306
# Shear Modulus (GPa) = 30.07875 43.21405 36.64640
#
# Velocity S-wave (km/s) = 3.40393 4.08002 3.75721
# Velocity P-wave (km/s) = 5.58873 6.61653 6.12423
#
# Compressibility (1/GPa) = 0.02440373
#
# Stress axis : x y z
#
# Youngs Moduli (GPa) = 113.05772 78.15976 65.13617
#
# Poissons Ratio (x) = 0.27438 0.02334
# Poissons Ratio (y) = 0.39689 0.15797
# Poissons Ratio (z) = 0.04050 0.18956
#
# Static dielectric constant tensor:
#      x y z
#    x 2.145540 -0.072760 0.047250 
#    y -0.072760 2.150800 -0.056570 
#    z 0.047250 -0.056570 2.157420 
# 
# From -- ./inp_files/203370.got.cif
#   From: 2010.05.17/outbox.cif.g08.bks.cpg/sg2_102_cif.got.tgz:203370.got - 2010.06.03 11:33:40.
