data_PCOD9097776
_publ_section_title
;
Structure prediction by ZEFSAII (Michael W. Deem and Ramdas Pophale) SiO2 
 PCOD9097776
Probable space group: P -1
;
_chemical_formula_sum "Si O2"
_cell_formula_units_Z 14
_cell_length_a 9.011877
_cell_length_b 10.797118
_cell_length_c 8.768452
_cell_angle_alpha 124.922370
_cell_angle_beta 115.910437
_cell_angle_gamma 72.273063
_cell_volume 627.524751
_symmetry_space_group_name_H-M "P -1"
_symmetry_group_IT_number 2
_symmetry_cell_setting 'triclinic'
loop_
_space_group_symop_operation_xyz
x,y,z
-x,-y,-z
loop_
_atom_site_type_symbol
_atom_site_label
_atom_site_fract_x
_atom_site_fract_y
_atom_site_fract_z
Si Si1 0.672302 0.985123 0.848182
Si Si2 0.227159 0.698261 0.926222
Si Si3 0.567279 0.638970 0.868553
Si Si4 0.867422 0.678589 0.610223
Si Si5 0.371974 0.877385 0.753079
Si Si6 0.211064 0.587625 0.375390
Si Si7 0.153667 0.403483 0.814044
O O1 0.766371 0.832268 0.724586
O O2 0.473406 0.971414 0.745234
O O3 0.732948 0.132227 0.893378
O O4 0.704553 0.028129 0.071479
O O5 0.393729 0.629189 0.868922
O O6 0.196251 0.578584 0.957818
O O7 0.060129 0.699710 0.751079
O O8 0.521864 0.768721 0.817387
O O9 0.637880 0.489207 0.708088
O O10 0.710091 0.680727 0.077686
O O11 0.815274 0.535838 0.588056
O O12 0.841058 0.648315 0.397797
O O13 0.251269 0.756036 0.556556
O O14 0.034271 0.603811 0.225751
#
# Coordination Sequence:
#
# PCOD9097776 Si02
#       7
#     2   2   2   2   2   2   2
#     4  10  20  36  62  87 116 151 199 239 280 343
#     4  10  22  38  59  88 118 153 195 238 285 348
#     4  11  21  38  62  88 120 150 192 246 293 337
#     4  11  21  38  63  89 115 153 197 241 289 339
#     4  10  21  37  63  90 111 149 206 241 276 341
#     4  11  22  39  64  88 112 155 205 239 280 343
#     4  11  23  38  60  91 122 147 190 248 297 339
#
# _framework density 22.309878000000001
#
# number of rings (size 3 to 8) (size 9 to 14) (size 15 to 20)
#    0.000    1.429    1.429    6.857    2.000    0.000 
#    0.000    2.857    3.143    8.571    0.000    0.000 
#    0.000    0.000    0.000    0.000    0.000    0.000 
#
# Total GULP energy -78176.309801 kJ/mol
# GULP energy per Si atom -5584.022129 kJ/mol
# Density = 2.225910 g / cm^3
# Si number density = 22.309878 Si / 1000 Ang^3
#
#
#
# Elastic Constant Matrix: (Units=GPa)
#
#
# Indices 1 2 3 4 5 6 
#
# 1 103.5523 29.8850 39.2364 19.2917 5.5702 -5.8017
# 2 29.8850 46.9711 30.7347 15.3580 14.7981 -0.8265
# 3 39.2364 30.7347 84.2093 21.3594 5.7270 6.4364
# 4 19.2917 15.3580 21.3594 49.9914 -4.9350 7.1476
# 5 5.5702 14.7981 5.7270 -4.9350 44.5814 15.6356
# 6 -5.8017 -0.8265 6.4364 7.1476 15.6356 31.4349
#
#
#
# Elastic Compliance Matrix: (Units=1/GPa)
#
#
# Indices 1 2 3 4 5 6 
#
# 1 0.013356 -0.004155 -0.004208 -0.002930 -0.001739 0.004749
# 2 -0.004155 0.038893 -0.009638 -0.009696 -0.016693 0.012737
# 3 -0.004208 -0.009638 0.018085 -0.001977 0.003253 -0.005901
# 4 -0.002930 -0.009696 -0.001977 0.027826 0.011235 -0.012306
# 5 -0.001739 -0.016693 0.003253 0.011235 0.036837 -0.022303
# 6 0.004749 0.012737 -0.005901 -0.012306 -0.022303 0.048123
#
#
# Mechanical properties :
#
#
# Convention : Reuss Voigt Hill
#
# Bulk Modulus (GPa) = 29.12710 48.27165 38.69938
# Shear Modulus (GPa) = 21.68562 34.19331 27.93946
#
# Velocity S-wave (km/s) = 3.12110 3.91916 3.54268
# Velocity P-wave (km/s) = 5.10612 6.49335 5.84106
#
# Compressibility (1/GPa) = 0.03433229
#
# Stress axis : x y z
#
# Youngs Moduli (GPa) = 74.87292 25.71134 55.29416
#
# Poissons Ratio (x) = 0.10682 0.23269
# Poissons Ratio (y) = 0.31107 0.53294
# Poissons Ratio (z) = 0.31508 0.24781
#
# Static dielectric constant tensor:
#      x y z
#    x 1.873270 0.054240 -0.005070 
#    y 0.054240 1.844590 0.008960 
#    z -0.005070 0.008960 1.862920 
# 
# From -- ./inp_files/173502.got.cif
#   From: 2010.05.17/outbox.cif.g08.bks.cpg/sg2_87_cif.got.tgz:173502.got - 2010.06.03 11:33:40.
