data_PCOD9097891
_publ_section_title
;
Structure prediction by ZEFSAII (Michael W. Deem and Ramdas Pophale) SiO2 
 PCOD9097891
Probable space group: P -1
;
_chemical_formula_sum "Si O2"
_cell_formula_units_Z 15
_cell_length_a 9.034607
_cell_length_b 16.908856
_cell_length_c 15.316255
_cell_angle_alpha 45.861730
_cell_angle_beta 107.703507
_cell_angle_gamma 143.082407
_cell_volume 817.188032
_symmetry_space_group_name_H-M "P -1"
_symmetry_group_IT_number 2
_symmetry_cell_setting 'triclinic'
loop_
_space_group_symop_operation_xyz
x,y,z
-x,-y,-z
loop_
_atom_site_type_symbol
_atom_site_label
_atom_site_fract_x
_atom_site_fract_y
_atom_site_fract_z
Si Si1 0.861573 0.414679 0.331749
Si Si2 0.141612 0.362719 0.360250
Si Si3 0.164323 0.243528 0.623755
Si Si4 0.875697 0.804561 0.153440
Si Si5 0.000000 0.500000 0.500000
Si Si6 0.267228 0.055584 0.728783
Si Si7 0.159609 0.822633 0.044592
Si Si8 0.856805 0.030290 0.426204
O O1 0.977699 0.482309 0.400725
O O2 0.011121 0.404869 0.314347
O O3 0.974493 0.597944 0.170296
O O4 0.497650 0.185065 0.445004
O O5 0.029878 0.228408 0.530115
O O6 0.508935 0.585910 0.255499
O O7 0.026490 0.228255 0.358429
O O8 0.500000 0.500000 0.500000
O O9 0.016970 0.163704 0.754161
O O10 0.184121 0.127624 0.691399
O O11 0.995947 0.789212 0.118642
O O12 0.000000 0.000000 0.000000
O O13 0.629344 0.275528 0.612081
O O14 0.123354 0.944852 0.693630
O O15 0.175430 0.910366 0.895952
O O16 0.500000 0.000000 0.000000
O O17 0.000000 0.000000 0.500000
#
# Coordination Sequence:
#
# PCOD9097891 Si02
#       8
#     2   2   2   2   1   2   2   2
#     4  11  24  39  63  95 128 163 213 260 324 371
#     4  11  23  42  63  91 127 166 215 268 307 377
#     4  10  21  35  63  90 124 156 214 261 316 360
#     4  11  22  38  62  94 126 165 206 258 326 376
#     4  10  20  36  62  92 120 162 208 266 310 362
#     4  11  22  40  61  95 125 167 212 263 315 377
#     4  12  24  39  61  95 136 161 202 262 331 381
#     4  11  23  43  66  91 125 172 222 257 308 378
#
# _framework density 18.355630000000001
#
# number of rings (size 3 to 8) (size 9 to 14) (size 15 to 20)
#    0.000    1.067    4.000    3.600    7.467    0.000 
#    0.000    4.667    0.000    0.000    0.000    0.000 
#    0.000    0.000    0.000    0.000    0.000    0.000 
#
# Total GULP energy -83556.671018 kJ/mol
# GULP energy per Si atom -5570.444735 kJ/mol
# Density = 1.831385 g / cm^3
# Si number density = 18.355630 Si / 1000 Ang^3
#
#
#
# Elastic Constant Matrix: (Units=GPa)
#
#
# Indices 1 2 3 4 5 6 
#
# 1 143.9270 53.7225 64.1275 8.8342 8.6931 -22.2711
# 2 53.7225 113.8924 41.2852 12.5950 7.2387 -8.0215
# 3 64.1275 41.2852 95.5514 16.0152 13.4154 -12.8735
# 4 8.8342 12.5950 16.0152 31.7516 -2.6470 -4.2492
# 5 8.6931 7.2387 13.4154 -2.6470 34.4463 -6.6286
# 6 -22.2711 -8.0215 -12.8735 -4.2492 -6.6286 22.5861
#
#
#
# Elastic Compliance Matrix: (Units=1/GPa)
#
#
# Indices 1 2 3 4 5 6 
#
# 1 0.011861 -0.003168 -0.006143 0.002277 0.001783 0.008021
# 2 -0.003168 0.011414 -0.002361 -0.002718 -0.001131 -0.001259
# 3 -0.006143 -0.002361 0.017481 -0.006565 -0.005208 0.000305
# 4 0.002277 -0.002718 -0.006565 0.036653 0.006596 0.006369
# 5 0.001783 -0.001131 -0.005208 0.006596 0.033154 0.009360
# 6 0.008021 -0.001259 0.000305 0.006369 0.009360 0.055856
#
#
# Mechanical properties :
#
#
# Convention : Reuss Voigt Hill
#
# Bulk Modulus (GPa) = 57.43027 74.62678 66.02853
# Shear Modulus (GPa) = 25.56670 30.70587 28.13628
#
# Velocity S-wave (km/s) = 3.73614 4.09446 3.91940
# Velocity P-wave (km/s) = 7.06875 7.94337 7.51879
#
# Compressibility (1/GPa) = 0.01741242
#
# Stress axis : x y z
#
# Youngs Moduli (GPa) = 84.30788 87.60980 57.20583
#
# Poissons Ratio (x) = 0.27758 0.35141
# Poissons Ratio (y) = 0.26712 0.13504
# Poissons Ratio (z) = 0.51789 0.20682
#
# Static dielectric constant tensor:
#      x y z
#    x 1.628240 -0.005000 0.011760 
#    y -0.005000 1.628150 0.017310 
#    z 0.011760 0.017310 1.626380 
# 
# From -- ./inp_files/172751.got.cif
#   From: 2010.05.17/outbox.cif.g08.bks.cpg/sg2_87_cif.got.tgz:172751.got - 2010.06.03 11:33:40.
