data_PCOD9097577
_publ_section_title
;
Structure prediction by ZEFSAII (Michael W. Deem and Ramdas Pophale) SiO2 
 PCOD9097577
Probable space group: P -1
;
_chemical_formula_sum "Si O2"
_cell_formula_units_Z 16
_cell_length_a 17.766006
_cell_length_b 8.341986
_cell_length_c 10.789378
_cell_angle_alpha 50.285627
_cell_angle_beta 47.129936
_cell_angle_gamma 32.628329
_cell_volume 623.013862
_symmetry_space_group_name_H-M "P -1"
_symmetry_group_IT_number 2
_symmetry_cell_setting 'triclinic'
loop_
_space_group_symop_operation_xyz
x,y,z
-x,-y,-z
loop_
_atom_site_type_symbol
_atom_site_label
_atom_site_fract_x
_atom_site_fract_y
_atom_site_fract_z
Si Si1 0.721292 0.148577 0.621084
Si Si2 0.466093 0.634687 0.834967
Si Si3 0.261593 0.567970 0.098668
Si Si4 0.275406 0.323061 0.760868
Si Si5 0.175644 0.315898 0.628112
Si Si6 0.983372 0.102812 0.608162
Si Si7 0.431253 0.935164 0.352870
Si Si8 0.113903 0.475173 0.117593
O O1 0.616563 0.435551 0.686779
O O2 0.851425 0.086011 0.437137
O O3 0.617759 0.171801 0.633405
O O4 0.806855 0.852297 0.757646
O O5 0.380886 0.971364 0.785816
O O6 0.500000 0.500000 0.000000
O O7 0.359221 0.611136 0.913430
O O8 0.374289 0.236693 0.203760
O O9 0.173376 0.569381 0.093021
O O10 0.135663 0.839167 0.201278
O O11 0.185387 0.450903 0.670097
O O12 0.397134 0.307157 0.682870
O O13 0.165859 0.436200 0.939686
O O14 0.062809 0.296073 0.791795
O O15 0.337669 0.033989 0.533746
O O16 0.098359 0.553454 0.484335
O O17 0.000000 0.000000 0.500000
#
# Coordination Sequence:
#
# PCOD9097577 Si02
#       8
#     2   2   2   2   2   2   2   2
#     4  10  20  36  61  89 110 144 194 242 282 322
#     4  12  21  35  56  89 120 144 191 238 279 331
#     4  10  20  36  61  89 110 144 194 242 282 322
#     4  12  23  37  59  84 120 155 185 228 285 345
#     4  10  23  39  59  85 114 152 192 226 285 350
#     4  10  21  37  65  88 112 141 192 246 284 325
#     4  10  20  38  61  83 113 151 191 235 280 336
#     4  10  20  38  61  83 113 151 191 235 280 336
#
# _framework density 25.681612000000001
#
# number of rings (size 3 to 8) (size 9 to 14) (size 15 to 20)
#    0.000    1.500    2.500    3.000    3.500    5.000 
#    0.000    1.250    5.500    0.000    0.000    0.000 
#    0.000    0.000    0.000    0.000    0.000    0.000 
#
# Total GULP energy -89631.807492 kJ/mol
# GULP energy per Si atom -5601.987968 kJ/mol
# Density = 2.562316 g / cm^3
# Si number density = 25.681612 Si / 1000 Ang^3
#
#
#
# Elastic Constant Matrix: (Units=GPa)
#
#
# Indices 1 2 3 4 5 6 
#
# 1 106.6413 9.3095 6.8535 -10.8596 -13.8962 -20.7335
# 2 9.3095 62.2169 -12.1856 -5.1035 -2.2930 -20.4695
# 3 6.8535 -12.1856 81.2549 13.5949 -0.6445 -15.3473
# 4 -10.8596 -5.1035 13.5949 18.9645 -3.9886 0.4841
# 5 -13.8962 -2.2930 -0.6445 -3.9886 50.8869 7.7008
# 6 -20.7335 -20.4695 -15.3473 0.4841 7.7008 41.6283
#
#
#
# Elastic Compliance Matrix: (Units=1/GPa)
#
#
# Indices 1 2 3 4 5 6 
#
# 1 0.011608 0.000357 -0.001380 0.008261 0.003093 0.004780
# 2 0.000357 0.021360 0.005290 0.001695 -0.000667 0.012735
# 3 -0.001380 0.005290 0.016870 -0.012143 -0.002190 0.008679
# 4 0.008261 0.001695 -0.012143 0.068307 0.007800 -0.001766
# 5 0.003093 -0.000667 -0.002190 0.007800 0.021607 -0.003683
# 6 0.004780 0.012735 0.008679 -0.001766 -0.003683 0.036567
#
#
# Mechanical properties :
#
#
# Convention : Reuss Voigt Hill
#
# Bulk Modulus (GPa) = 17.13199 28.67423 22.90311
# Shear Modulus (GPa) = 26.70315 38.70497 32.70406
#
# Velocity S-wave (km/s) = 3.22806 3.88636 3.57240
# Velocity P-wave (km/s) = 4.53643 5.59713 5.09446
#
# Compressibility (1/GPa) = 0.05837035
#
# Stress axis : x y z
#
# Youngs Moduli (GPa) = 86.14419 46.81750 59.27590
#
# Poissons Ratio (x) = -0.01671 0.08183
# Poissons Ratio (y) = -0.03075 -0.31354
# Poissons Ratio (z) = 0.11892 -0.24764
#
# Static dielectric constant tensor:
#      x y z
#    x 2.009770 -0.031520 -0.024590 
#    y -0.031520 2.108460 -0.055740 
#    z -0.024590 -0.055740 1.983290 
# 
# From -- ./inp_files/447341.got.cif
#   From: 2010.05.17/outbox.cif.g08.bks.cpg/sg2_224_cif.got.tgz:447341.got - 2010.06.03 11:33:40.
