data_PCOD9097837
_publ_section_title
;
Structure prediction by ZEFSAII (Michael W. Deem and Ramdas Pophale) SiO2 
 PCOD9097837
Probable space group: P -1
;
_chemical_formula_sum "Si O2"
_cell_formula_units_Z 16
_cell_length_a 11.581447
_cell_length_b 8.915853
_cell_length_c 15.664181
_cell_angle_alpha 101.605898
_cell_angle_beta 39.622388
_cell_angle_gamma 126.998781
_cell_volume 706.090294
_symmetry_space_group_name_H-M "P -1"
_symmetry_group_IT_number 2
_symmetry_cell_setting 'triclinic'
loop_
_space_group_symop_operation_xyz
x,y,z
-x,-y,-z
loop_
_atom_site_type_symbol
_atom_site_label
_atom_site_fract_x
_atom_site_fract_y
_atom_site_fract_z
Si Si1 0.037094 0.700579 0.479580
Si Si2 0.992540 0.723104 0.079477
Si Si3 0.692636 0.389058 0.062699
Si Si4 0.914938 0.256444 0.250065
Si Si5 0.282257 0.586246 0.512836
Si Si6 0.219551 0.163138 0.653510
Si Si7 0.899481 0.917983 0.643749
Si Si8 0.420213 0.032806 0.740682
O O1 0.342562 0.908307 0.341977
O O2 0.000000 0.500000 0.500000
O O3 0.927644 0.646506 0.439978
O O4 0.889146 0.724951 0.629906
O O5 0.762611 0.522217 0.125828
O O6 0.899181 0.778575 0.212148
O O7 0.149703 0.674166 0.023267
O O8 0.194767 0.928763 0.924050
O O9 0.388474 0.190736 0.197455
O O10 0.818947 0.553821 0.929272
O O11 0.857730 0.347055 0.364553
O O12 0.872373 0.060193 0.285979
O O13 0.698743 0.145276 0.285908
O O14 0.470716 0.641273 0.485760
O O15 0.473703 0.755176 0.345917
O O16 0.102476 0.096941 0.618638
O O17 0.000000 0.000000 0.500000
#
# Coordination Sequence:
#
# PCOD9097837 Si02
#       8
#     2   2   2   2   2   2   2   2
#     4  10  20  36  62  90 119 155 198 246 292 349
#     4  10  22  41  63  88 122 162 201 245 302 361
#     4  10  24  42  60  88 125 161 198 248 303 358
#     4  10  21  38  62  91 125 160 200 249 299 354
#     4  10  20  36  62  94 124 158 204 249 295 353
#     4  11  23  39  63  90 120 161 205 250 299 359
#     4  12  26  43  62  88 122 158 201 253 310 363
#     4   9  18  35  61  90 124 160 196 244 295 349
#
# _framework density 22.659991999999999
#
# number of rings (size 3 to 8) (size 9 to 14) (size 15 to 20)
#    0.000    1.750    0.000    5.250    0.000   11.500 
#    0.000    1.875    0.000    0.000    0.000    0.000 
#    0.000    0.000    0.000    0.000    0.000    0.000 
#
# Total GULP energy -89451.638287 kJ/mol
# GULP energy per Si atom -5590.727393 kJ/mol
# Density = 2.260842 g / cm^3
# Si number density = 22.659992 Si / 1000 Ang^3
#
#
#
# Elastic Constant Matrix: (Units=GPa)
#
#
# Indices 1 2 3 4 5 6 
#
# 1 145.3093 54.5990 43.9879 0.6486 -3.5717 28.3888
# 2 54.5990 82.7233 35.2382 30.9517 -0.6524 21.9873
# 3 43.9879 35.2382 55.3623 12.7610 2.2979 17.2364
# 4 0.6486 30.9517 12.7610 51.5652 2.2165 -2.6984
# 5 -3.5717 -0.6524 2.2979 2.2165 31.2261 -7.3353
# 6 28.3888 21.9873 17.2364 -2.6984 -7.3353 46.8530
#
#
#
# Elastic Compliance Matrix: (Units=1/GPa)
#
#
# Indices 1 2 3 4 5 6 
#
# 1 0.011325 -0.006690 -0.005583 0.005151 0.000912 -0.001229
# 2 -0.006690 0.026354 -0.005871 -0.014634 -0.000402 -0.007060
# 3 -0.005583 -0.005871 0.028895 -0.003668 -0.003875 -0.005310
# 4 0.005151 -0.014634 -0.003668 0.029373 0.000065 0.006797
# 5 0.000912 -0.000402 -0.003875 0.000065 0.033898 0.006372
# 6 -0.001229 -0.007060 -0.005310 0.006797 0.006372 0.028744
#
#
# Mechanical properties :
#
#
# Convention : Reuss Voigt Hill
#
# Bulk Modulus (GPa) = 33.01812 61.22723 47.12268
# Shear Modulus (GPa) = 24.39384 35.90020 30.14702
#
# Velocity S-wave (km/s) = 3.28459 3.98464 3.65143
# Velocity P-wave (km/s) = 5.38400 6.94611 6.21434
#
# Compressibility (1/GPa) = 0.03028640
#
# Stress axis : x y z
#
# Youngs Moduli (GPa) = 88.29819 37.94558 34.60859
#
# Poissons Ratio (x) = 0.25387 0.19320
# Poissons Ratio (y) = 0.59075 0.20317
# Poissons Ratio (z) = 0.49293 0.22276
#
# Static dielectric constant tensor:
#      x y z
#    x 1.940290 -0.045050 -0.000030 
#    y -0.045050 1.885210 -0.031080 
#    z -0.000030 -0.031080 1.809320 
# 
# From -- ./inp_files/515859.got.cif
#   From: 2010.05.17/outbox.cif.g08.bks.cpg/sg2_258_cif.got.tgz:515859.got - 2010.06.03 11:33:40.
