data_PCOD9097535
_publ_section_title
;
Structure prediction by ZEFSAII (Michael W. Deem and Ramdas Pophale) SiO2 
 PCOD9097535
Probable space group: P -1
;
_chemical_formula_sum "Si O2"
_cell_formula_units_Z 12
_cell_length_a 9.914436
_cell_length_b 7.305390
_cell_length_c 12.233442
_cell_angle_alpha 101.814070
_cell_angle_beta 35.409702
_cell_angle_gamma 100.640229
_cell_volume 502.274491
_symmetry_space_group_name_H-M "P -1"
_symmetry_group_IT_number 2
_symmetry_cell_setting 'triclinic'
loop_
_space_group_symop_operation_xyz
x,y,z
-x,-y,-z
loop_
_atom_site_type_symbol
_atom_site_label
_atom_site_fract_x
_atom_site_fract_y
_atom_site_fract_z
Si Si1 0.381317 0.179249 0.652471
Si Si2 0.826866 0.878281 0.774091
Si Si3 0.954591 0.368699 0.911160
Si Si4 0.677522 0.296049 0.893627
Si Si5 0.305644 0.746279 0.358979
Si Si6 0.739308 0.989280 0.076920
O O1 0.563463 0.304941 0.620190
O O2 0.208952 0.290313 0.703412
O O3 0.500000 0.000000 0.500000
O O4 0.208267 0.091359 0.848867
O O5 0.041955 0.786930 0.563367
O O6 0.812481 0.098236 0.779425
O O7 0.578812 0.773573 0.907503
O O8 0.859564 0.884002 0.884901
O O9 0.818099 0.430239 0.901015
O O10 0.784122 0.204157 0.050234
O O11 0.000000 0.500000 0.000000
O O12 0.672854 0.368782 0.781167
O O13 0.462655 0.933609 0.248334
#
# Coordination Sequence:
#
# PCOD9097535 Si02
#       6
#     2   2   2   2   2   2
#     4  10  20  36  61  87 109 147 196 236 276 332
#     4   9  15  31  57  84 109 136 193 242 275 316
#     4  11  22  38  56  83 124 153 178 231 294 339
#     4   9  18  31  51  83 110 146 185 231 281 333
#     4   9  18  31  59  83 106 141 197 240 268 321
#     4   8  19  34  57  86 105 147 192 230 274 333
#
# _framework density 23.891318999999999
#
# number of rings (size 3 to 8) (size 9 to 14) (size 15 to 20)
#    1.000    1.667    0.000    4.000    0.000    0.000 
#    0.000    1.667    0.000    1.000    0.000    0.000 
#    0.000    0.000    0.000    0.000    0.000    0.000 
#
# Total GULP energy -66912.646441 kJ/mol
# GULP energy per Si atom -5576.053870 kJ/mol
# Density = 2.383694 g / cm^3
# Si number density = 23.891319 Si / 1000 Ang^3
#
#
#
# Elastic Constant Matrix: (Units=GPa)
#
#
# Indices 1 2 3 4 5 6 
#
# 1 126.0486 31.1565 27.4080 10.2899 -0.2605 41.6076
# 2 31.1565 74.4509 10.2608 10.4081 -0.6842 23.2371
# 3 27.4080 10.2608 94.6587 -5.9174 -13.2923 9.7490
# 4 10.2899 10.4081 -5.9174 11.3310 3.7350 0.8660
# 5 -0.2605 -0.6842 -13.2923 3.7350 33.7444 2.5416
# 6 41.6076 23.2371 9.7490 0.8660 2.5416 40.4801
#
#
#
# Elastic Compliance Matrix: (Units=1/GPa)
#
#
# Indices 1 2 3 4 5 6 
#
# 1 0.014447 0.001104 -0.003570 -0.015398 0.001515 -0.014388
# 2 0.001104 0.019780 -0.002148 -0.020286 0.002690 -0.011707
# 3 -0.003570 -0.002148 0.012880 0.010611 0.003727 0.001340
# 4 -0.015398 -0.020286 0.010611 0.128721 -0.012325 0.022936
# 5 0.001515 0.002690 0.003727 -0.012325 0.032970 -0.005806
# 6 -0.014388 -0.011707 0.001340 0.022936 -0.005806 0.045764
#
#
# Mechanical properties :
#
#
# Convention : Reuss Voigt Hill
#
# Bulk Modulus (GPa) = 26.40176 48.08988 37.24582
# Shear Modulus (GPa) = 18.08861 32.19996 25.14429
#
# Velocity S-wave (km/s) = 2.75457 3.67518 3.24766
# Velocity P-wave (km/s) = 4.60344 6.17912 5.44854
#
# Compressibility (1/GPa) = 0.03787626
#
# Stress axis : x y z
#
# Youngs Moduli (GPa) = 69.22059 50.55533 77.64226
#
# Poissons Ratio (x) = -0.05580 0.27722
# Poissons Ratio (y) = -0.07640 0.16680
# Poissons Ratio (z) = 0.24715 0.10861
#
# Static dielectric constant tensor:
#      x y z
#    x 2.134550 0.024950 0.011940 
#    y 0.024950 1.960430 0.022580 
#    z 0.011940 0.022580 1.884880 
# 
# From -- ./inp_files/517041.got.cif
#   From: 2010.05.17/outbox.cif.g08.bks.cpg/sg2_259_cif.got.tgz:517041.got - 2010.06.03 11:33:40.
