data_PCOD9097541
_publ_section_title
;
Structure prediction by ZEFSAII (Michael W. Deem and Ramdas Pophale) SiO2 
 PCOD9097541
Probable space group: P -1
;
_chemical_formula_sum "Si O2"
_cell_formula_units_Z 16
_cell_length_a 8.002583
_cell_length_b 24.994889
_cell_length_c 13.224472
_cell_angle_alpha 151.543422
_cell_angle_beta 29.668427
_cell_angle_gamma 135.728147
_cell_volume 610.889130
_symmetry_space_group_name_H-M "P -1"
_symmetry_group_IT_number 2
_symmetry_cell_setting 'triclinic'
loop_
_space_group_symop_operation_xyz
x,y,z
-x,-y,-z
loop_
_atom_site_type_symbol
_atom_site_label
_atom_site_fract_x
_atom_site_fract_y
_atom_site_fract_z
Si Si1 0.313229 0.390768 0.808632
Si Si2 0.624572 0.851383 0.293955
Si Si3 0.483236 0.536093 0.802644
Si Si4 0.968559 0.640954 0.876619
Si Si5 0.900759 0.239494 0.700096
Si Si6 0.635149 0.933321 0.716392
Si Si7 0.328854 0.061474 0.911506
Si Si8 0.078172 0.773821 0.730296
O O1 0.235960 0.501356 0.962218
O O2 0.712504 0.354736 0.574974
O O3 0.250986 0.288265 0.596130
O O4 0.106197 0.388314 0.017342
O O5 0.255478 0.817786 0.406304
O O6 0.535177 0.984246 0.585814
O O7 0.831577 0.775676 0.149387
O O8 0.855730 0.816690 0.016702
O O9 0.739258 0.586704 0.826279
O O10 0.656076 0.422070 0.462112
O O11 0.357291 0.636892 0.955739
O O12 0.995169 0.147053 0.586001
O O13 0.579570 0.031777 0.825174
O O14 0.371815 0.849395 0.689465
O O15 0.500000 0.000000 0.000000
O O16 0.000000 0.000000 0.000000
O O17 0.177146 0.190356 0.169943
#
# Coordination Sequence:
#
# PCOD9097541 Si02
#       8
#     2   2   2   2   2   2   2   2
#     4  11  21  40  61  90 122 156 203 246 305 351
#     4  11  20  39  60  88 121 156 202 246 295 360
#     4  10  21  39  60  89 119 158 205 242 300 357
#     4  10  21  37  64  86 120 161 199 252 292 357
#     4  10  22  36  61  85 122 158 189 255 304 342
#     4  10  21  40  61  86 120 156 197 249 303 347
#     4  10  20  36  61  87 114 159 202 237 297 362
#     4  10  21  37  62  87 117 160 201 245 293 366
#
# _framework density 26.191331999999999
#
# number of rings (size 3 to 8) (size 9 to 14) (size 15 to 20)
#    0.000    1.750    1.250    4.875    0.000    1.500 
#    0.000    3.750    8.250    0.000    0.000    0.000 
#    0.000    0.000    0.000    0.000    0.000    0.000 
#
# Total GULP energy -89289.582695 kJ/mol
# GULP energy per Si atom -5580.598918 kJ/mol
# Density = 2.613172 g / cm^3
# Si number density = 26.191332 Si / 1000 Ang^3
#
#
#
# Elastic Constant Matrix: (Units=GPa)
#
#
# Indices 1 2 3 4 5 6 
#
# 1 117.3962 30.7538 66.7354 11.0116 -31.8819 -44.7384
# 2 30.7538 77.1021 44.8003 1.4164 -11.3475 -20.6350
# 3 66.7354 44.8003 78.5686 7.8787 -22.9807 -26.3593
# 4 11.0116 1.4164 7.8787 34.8062 -21.3792 6.8803
# 5 -31.8819 -11.3475 -22.9807 -21.3792 43.7277 10.1771
# 6 -44.7384 -20.6350 -26.3593 6.8803 10.1771 43.3285
#
#
#
# Elastic Compliance Matrix: (Units=1/GPa)
#
#
# Indices 1 2 3 4 5 6 
#
# 1 0.025034 0.005063 -0.016274 -0.005591 0.004020 0.018304
# 2 0.005063 0.020821 -0.013829 -0.000778 -0.000157 0.006891
# 3 -0.016274 -0.013829 0.034252 0.001094 0.003931 -0.003649
# 4 -0.005591 -0.000778 0.001094 0.049358 0.024888 -0.019161
# 5 0.004020 -0.000157 0.003931 0.024888 0.041687 -0.007276
# 6 0.018304 0.006891 -0.003649 -0.019161 -0.007276 0.047793
#
#
# Mechanical properties :
#
#
# Convention : Reuss Voigt Hill
#
# Bulk Modulus (GPa) = 33.30162 61.96066 47.63114
# Shear Modulus (GPa) = 17.91902 33.09098 25.50500
#
# Velocity S-wave (km/s) = 2.61848 3.55834 3.12396
# Velocity P-wave (km/s) = 4.67806 6.37108 5.58905
#
# Compressibility (1/GPa) = 0.03002857
#
# Stress axis : x y z
#
# Youngs Moduli (GPa) = 39.94517 48.02819 29.19562
#
# Poissons Ratio (x) = -0.24319 0.47512
# Poissons Ratio (y) = -0.20226 0.40375
# Poissons Ratio (z) = 0.65006 0.66418
#
# Static dielectric constant tensor:
#      x y z
#    x 2.100740 0.015880 -0.090550 
#    y 0.015880 2.102920 -0.008760 
#    z -0.090550 -0.008760 2.120500 
# 
# From -- ./inp_files/505757.got.cif
#   From: 2010.05.17/outbox.cif.g08.bks.cpg/sg2_253_cif.got.tgz:505757.got - 2010.06.03 11:33:40.
