data_PCOD9097524
_publ_section_title
;
Structure prediction by ZEFSAII (Michael W. Deem and Ramdas Pophale) SiO2 
 PCOD9097524
Probable space group: P -1
;
_chemical_formula_sum "Si O2"
_cell_formula_units_Z 16
_cell_length_a 11.640545
_cell_length_b 14.716810
_cell_length_c 10.212645
_cell_angle_alpha 144.577119
_cell_angle_beta 140.963145
_cell_angle_gamma 53.806293
_cell_volume 634.335839
_symmetry_space_group_name_H-M "P -1"
_symmetry_group_IT_number 2
_symmetry_cell_setting 'triclinic'
loop_
_space_group_symop_operation_xyz
x,y,z
-x,-y,-z
loop_
_atom_site_type_symbol
_atom_site_label
_atom_site_fract_x
_atom_site_fract_y
_atom_site_fract_z
Si Si1 0.814058 0.096221 0.407577
Si Si2 0.190776 0.842282 0.034977
Si Si3 0.499191 0.819788 0.100659
Si Si4 0.601933 0.388011 0.863723
Si Si5 0.017208 0.448901 0.607317
Si Si6 0.088462 0.046700 0.399636
Si Si7 0.343675 0.455863 0.507761
Si Si8 0.462103 0.203195 0.186228
O O1 0.661660 0.211264 0.436200
O O2 0.947224 0.150913 0.468239
O O3 0.893103 0.062776 0.582046
O O4 0.701148 0.927534 0.068548
O O5 0.361055 0.909382 0.171153
O O6 0.057209 0.935167 0.114592
O O7 0.306564 0.745129 0.128978
O O8 0.059524 0.733848 0.691308
O O9 0.715705 0.861694 0.363400
O O10 0.432984 0.632465 0.826539
O O11 0.487679 0.858289 0.984086
O O12 0.780795 0.499383 0.101709
O O13 0.500000 0.500000 0.000000
O O14 0.440342 0.344570 0.564564
O O15 0.870124 0.538746 0.658099
O O16 0.000000 0.500000 0.500000
O O17 0.385380 0.370363 0.310842
#
# Coordination Sequence:
#
# PCOD9097524 Si02
#       8
#     2   2   2   2   2   2   2   2
#     4   9  21  39  60  87 113 147 203 257 269 350
#     4  10  20  36  61  85 119 160 188 241 301 343
#     4  10  21  39  55  85 125 153 189 242 288 358
#     4  11  19  35  58  89 120 147 197 245 285 341
#     4   9  19  33  53  87 118 144 189 242 283 341
#     4  10  20  38  62  85 115 153 199 239 298 342
#     4  11  21  38  62  85 120 161 189 240 299 346
#     4  10  21  39  61  82 117 156 197 236 302 341
#
# _framework density 25.223233
#
# number of rings (size 3 to 8) (size 9 to 14) (size 15 to 20)
#    0.000    2.000    3.750    1.500    3.500    0.000 
#    6.750    1.250    0.000    0.000    0.000    0.000 
#    0.000    0.000    0.000    0.000    0.000    0.000 
#
# Total GULP energy -89174.527177 kJ/mol
# GULP energy per Si atom -5573.407949 kJ/mol
# Density = 2.516582 g / cm^3
# Si number density = 25.223233 Si / 1000 Ang^3
#
#
#
# Elastic Constant Matrix: (Units=GPa)
#
#
# Indices 1 2 3 4 5 6 
#
# 1 149.5413 14.1615 39.2284 9.3227 8.8734 -52.2563
# 2 14.1615 48.9123 7.1847 -6.7957 1.8285 -26.0366
# 3 39.2284 7.1847 50.7324 -9.3075 3.9431 -15.2784
# 4 9.3227 -6.7957 -9.3075 29.5944 -13.5313 -2.5594
# 5 8.8734 1.8285 3.9431 -13.5313 36.2431 1.1049
# 6 -52.2563 -26.0366 -15.2784 -2.5594 1.1049 50.6666
#
#
#
# Elastic Compliance Matrix: (Units=1/GPa)
#
#
# Indices 1 2 3 4 5 6 
#
# 1 0.014146 0.003512 -0.008302 -0.007866 -0.006090 0.013626
# 2 0.003512 0.031209 0.000396 0.007857 -0.000159 0.020180
# 3 -0.008302 0.000396 0.028505 0.013546 0.003943 0.000835
# 4 -0.007866 0.007857 0.013546 0.051268 0.019130 0.002182
# 5 -0.006090 -0.000159 0.003943 0.019130 0.035956 -0.004991
# 6 0.013626 0.020180 0.000835 0.002182 -0.004991 0.044631
#
#
# Mechanical properties :
#
#
# Convention : Reuss Voigt Hill
#
# Bulk Modulus (GPa) = 15.36770 41.14837 28.25804
# Shear Modulus (GPa) = 21.16912 35.87493 28.52202
#
# Velocity S-wave (km/s) = 2.90016 3.77543 3.36636
# Velocity P-wave (km/s) = 4.16179 5.94594 5.13199
#
# Compressibility (1/GPa) = 0.06507153
#
# Stress axis : x y z
#
# Youngs Moduli (GPa) = 70.69339 32.04173 35.08217
#
# Poissons Ratio (x) = -0.11253 0.29124
# Poissons Ratio (y) = -0.24828 -0.01388
# Poissons Ratio (z) = 0.58687 -0.01268
#
# Static dielectric constant tensor:
#      x y z
#    x 2.101100 0.021450 -0.032780 
#    y 0.021450 2.151100 -0.061380 
#    z -0.032780 -0.061380 2.134280 
# 
# From -- ./inp_files/425590.got.cif
#   From: 2010.05.17/outbox.cif.g08.bks.cpg/sg2_213_cif.got.tgz:425590.got - 2010.06.03 11:33:40.
