data_PCOD9097193
_publ_section_title
;
Structure prediction by ZEFSAII (Michael W. Deem and Ramdas Pophale) SiO2 
 PCOD9097193
Probable space group: P -1
;
_chemical_formula_sum "Si O2"
_cell_formula_units_Z 16
_cell_length_a 12.105873
_cell_length_b 14.129452
_cell_length_c 11.994210
_cell_angle_alpha 29.146532
_cell_angle_beta 131.960114
_cell_angle_gamma 121.017322
_cell_volume 729.559856
_symmetry_space_group_name_H-M "P -1"
_symmetry_group_IT_number 2
_symmetry_cell_setting 'triclinic'
loop_
_space_group_symop_operation_xyz
x,y,z
-x,-y,-z
loop_
_atom_site_type_symbol
_atom_site_label
_atom_site_fract_x
_atom_site_fract_y
_atom_site_fract_z
Si Si1 0.142252 0.395550 0.774159
Si Si2 0.536384 0.197720 0.669828
Si Si3 0.096353 0.072570 0.241642
Si Si4 0.738920 0.362087 0.194944
Si Si5 0.455911 0.802963 0.072935
Si Si6 0.425279 0.464592 0.775455
Si Si7 0.197920 0.342700 0.224255
Si Si8 0.881436 0.946155 0.385507
O O1 0.188188 0.537895 0.756347
O O2 0.290870 0.362810 0.831164
O O3 0.000000 0.500000 0.500000
O O4 0.102469 0.198771 0.005109
O O5 0.636548 0.311851 0.541896
O O6 0.375646 0.252795 0.443228
O O7 0.561690 0.963711 0.950369
O O8 0.516249 0.277320 0.700820
O O9 0.129957 0.221501 0.207783
O O10 0.222328 0.873365 0.529736
O O11 0.944366 0.997210 0.255713
O O12 0.559282 0.441469 0.980591
O O13 0.811777 0.437118 0.054161
O O14 0.281814 0.918219 0.839688
O O15 0.491141 0.644742 0.163194
O O16 0.135439 0.279132 0.365044
O O17 0.000000 0.000000 0.500000
#
# Coordination Sequence:
#
# PCOD9097193 Si02
#       8
#     2   2   2   2   2   2   2   2
#     4  11  27  45  57  89 127 158 208 259 297 354
#     4   9  19  35  56  92 123 149 194 247 301 357
#     4  10  21  39  64  89 122 165 200 240 304 363
#     4  10  21  41  66  89 114 162 212 247 298 362
#     4  10  20  36  59  92 122 154 200 247 299 362
#     4  11  22  40  67  86 118 163 205 251 300 353
#     4   8  17  35  57  91 125 145 195 250 291 359
#     4   9  17  33  58  88 125 155 185 241 302 358
#
# _framework density 21.93103
#
# number of rings (size 3 to 8) (size 9 to 14) (size 15 to 20)
#    0.000    2.250    0.000    3.000    1.750    2.500 
#    6.750    5.000    0.000    0.000    0.000    0.000 
#    0.000    0.000    0.000    0.000    0.000    0.000 
#
# Total GULP energy -89196.953131 kJ/mol
# GULP energy per Si atom -5574.809571 kJ/mol
# Density = 2.188111 g / cm^3
# Si number density = 21.931030 Si / 1000 Ang^3
#
#
#
# Elastic Constant Matrix: (Units=GPa)
#
#
# Indices 1 2 3 4 5 6 
#
# 1 114.8373 11.0156 60.6420 5.3998 -26.2159 16.4885
# 2 11.0156 53.0218 22.5344 1.5269 -7.3357 5.6270
# 3 60.6420 22.5344 138.0516 -5.2408 -42.7266 14.2419
# 4 5.3998 1.5269 -5.2408 23.2434 10.4602 2.3265
# 5 -26.2159 -7.3357 -42.7266 10.4602 39.3819 -6.4143
# 6 16.4885 5.6270 14.2419 2.3265 -6.4143 17.7858
#
#
#
# Elastic Compliance Matrix: (Units=1/GPa)
#
#
# Indices 1 2 3 4 5 6 
#
# 1 0.013014 0.000454 -0.003746 -0.005509 0.005061 -0.006663
# 2 0.000454 0.020630 -0.002982 -0.002102 0.000819 -0.003990
# 3 -0.003746 -0.002982 0.012894 -0.000701 0.010814 -0.001917
# 4 -0.005509 -0.002102 -0.000701 0.054374 -0.020599 -0.008208
# 5 0.005061 0.000819 0.010814 -0.020599 0.047107 0.006073
# 6 -0.006663 -0.003990 -0.001917 -0.008208 0.006073 0.068462
#
#
# Mechanical properties :
#
#
# Convention : Reuss Voigt Hill
#
# Bulk Modulus (GPa) = 29.41958 54.92162 42.17060
# Shear Modulus (GPa) = 20.80223 30.19679 25.49951
#
# Velocity S-wave (km/s) = 3.08316 3.71468 3.41356
# Velocity P-wave (km/s) = 5.11060 6.59513 5.89974
#
# Compressibility (1/GPa) = 0.03399097
#
# Stress axis : x y z
#
# Youngs Moduli (GPa) = 76.84251 48.47223 77.55573
#
# Poissons Ratio (x) = -0.02202 0.29052
# Poissons Ratio (y) = -0.03491 0.23127
# Poissons Ratio (z) = 0.28785 0.14454
#
# Static dielectric constant tensor:
#      x y z
#    x 1.851490 0.018150 -0.043340 
#    y 0.018150 1.827040 -0.027550 
#    z -0.043340 -0.027550 1.841720 
# 
# From -- ./inp_files/432348.got.cif
#   From: 2010.05.17/outbox.cif.g08.bks.cpg/sg2_217_cif.got.tgz:432348.got - 2010.06.03 11:33:40.
