data_PCOD9097971
_publ_section_title
;
Structure prediction by ZEFSAII (Michael W. Deem and Ramdas Pophale) SiO2 
 PCOD9097971
Probable space group: P -1
;
_chemical_formula_sum "Si O2"
_cell_formula_units_Z 16
_cell_length_a 12.028252
_cell_length_b 11.537180
_cell_length_c 7.321305
_cell_angle_alpha 105.204027
_cell_angle_beta 123.223048
_cell_angle_gamma 55.274062
_cell_volume 696.700968
_symmetry_space_group_name_H-M "P -1"
_symmetry_group_IT_number 2
_symmetry_cell_setting 'triclinic'
loop_
_space_group_symop_operation_xyz
x,y,z
-x,-y,-z
loop_
_atom_site_type_symbol
_atom_site_label
_atom_site_fract_x
_atom_site_fract_y
_atom_site_fract_z
Si Si1 0.997318 0.396153 0.703758
Si Si2 0.471575 0.670690 0.625270
Si Si3 0.410969 0.921291 0.925709
Si Si4 0.125515 0.759817 0.906059
Si Si5 0.066485 0.093334 0.526314
Si Si6 0.443217 0.744854 0.197211
Si Si7 0.779906 0.377564 0.721818
Si Si8 0.779572 0.549924 0.256266
O O1 0.994777 0.254483 0.596246
O O2 0.165774 0.371443 0.801402
O O3 0.899425 0.429762 0.814065
O O4 0.878725 0.525399 0.520480
O O5 0.479305 0.777502 0.812226
O O6 0.460692 0.720995 0.423177
O O7 0.625305 0.515450 0.725426
O O8 0.317425 0.662140 0.521656
O O9 0.240319 0.015385 0.724672
O O10 0.419167 0.884630 0.133419
O O11 0.500000 0.000000 0.000000
O O12 0.153696 0.607011 0.821833
O O13 0.976451 0.881161 0.716705
O O14 0.286611 0.749868 0.997801
O O15 0.123829 0.760215 0.122706
O O16 0.000000 0.000000 0.500000
O O17 0.602841 0.622038 0.196647
#
# Coordination Sequence:
#
# PCOD9097971 Si02
#       8
#     2   2   2   2   2   2   2   2
#     4  10  21  37  62  93 134 174 212 277 341 396
#     4  10  23  41  68 103 136 167 225 294 330 398
#     4  12  26  44  68  95 135 189 230 267 335 405
#     4  10  22  37  66  99 128 178 224 274 345 396
#     4  11  22  43  63  92 133 182 229 270 318 411
#     4  11  21  41  68  98 131 174 231 278 332 401
#     4  10  20  40  66 104 133 164 222 289 350 390
#     4  10  20  36  62  97 130 172 215 274 349 396
#
# _framework density 22.965377
#
# number of rings (size 3 to 8) (size 9 to 14) (size 15 to 20)
#    0.000    1.500    2.500    2.625    1.750    1.000 
#    2.250    1.875    0.000    0.000    0.000    0.000 
#    0.000    0.000    0.000    0.000    0.000    0.000 
#
# Total GULP energy -89183.080887 kJ/mol
# GULP energy per Si atom -5573.942555 kJ/mol
# Density = 2.291311 g / cm^3
# Si number density = 22.965377 Si / 1000 Ang^3
#
#
#
# Elastic Constant Matrix: (Units=GPa)
#
#
# Indices 1 2 3 4 5 6 
#
# 1 123.3424 16.3025 17.8098 -3.0410 12.1510 35.5384
# 2 16.3025 38.8772 11.8827 -8.8592 5.3831 18.0080
# 3 17.8098 11.8827 85.1972 -32.4508 -8.0117 9.8011
# 4 -3.0410 -8.8592 -32.4508 38.6165 12.9667 -2.7334
# 5 12.1510 5.3831 -8.0117 12.9667 38.8440 3.6316
# 6 35.5384 18.0080 9.8011 -2.7334 3.6316 34.1817
#
#
#
# Elastic Compliance Matrix: (Units=1/GPa)
#
#
# Indices 1 2 3 4 5 6 
#
# 1 0.012074 0.001794 -0.001510 0.000284 -0.003245 -0.012698
# 2 0.001794 0.037467 -0.000401 0.009368 -0.007095 -0.019987
# 3 -0.001510 -0.000401 0.017994 0.014945 -0.000551 -0.002125
# 4 0.000284 0.009368 0.014945 0.044584 -0.012758 -0.004595
# 5 -0.003245 -0.007095 -0.000551 -0.012758 0.031617 0.002890
# 6 -0.012698 -0.019987 -0.002125 -0.004595 0.002890 0.052921
#
#
# Mechanical properties :
#
#
# Convention : Reuss Voigt Hill
#
# Bulk Modulus (GPa) = 14.85855 37.71186 26.28521
# Shear Modulus (GPa) = 22.79728 35.75655 29.27692
#
# Velocity S-wave (km/s) = 3.15410 3.95013 3.57435
# Velocity P-wave (km/s) = 4.44393 6.10423 5.33901
#
# Compressibility (1/GPa) = 0.06730131
#
# Stress axis : x y z
#
# Youngs Moduli (GPa) = 82.82517 26.69023 55.57402
#
# Poissons Ratio (x) = -0.04789 0.08394
# Poissons Ratio (y) = -0.14861 0.02226
# Poissons Ratio (z) = 0.12510 0.01069
#
# Static dielectric constant tensor:
#      x y z
#    x 2.012580 -0.035090 -0.097060 
#    y -0.035090 1.899400 0.005000 
#    z -0.097060 0.005000 1.966150 
# 
# From -- ./inp_files/262747.got.cif
#   From: 2010.05.17/outbox.cif.g08.bks.cpg/sg2_132_cif.got.tgz:262747.got - 2010.06.03 11:33:40.
