data_PCOD9097735
_publ_section_title
;
Structure prediction by ZEFSAII (Michael W. Deem and Ramdas Pophale) SiO2 
 PCOD9097735
Probable space group: P -1
;
_chemical_formula_sum "Si O2"
_cell_formula_units_Z 13
_cell_length_a 5.014761
_cell_length_b 11.124620
_cell_length_c 15.889042
_cell_angle_alpha 139.343634
_cell_angle_beta 94.970007
_cell_angle_gamma 107.038871
_cell_volume 479.476803
_symmetry_space_group_name_H-M "P -1"
_symmetry_group_IT_number 2
_symmetry_cell_setting 'triclinic'
loop_
_space_group_symop_operation_xyz
x,y,z
-x,-y,-z
loop_
_atom_site_type_symbol
_atom_site_label
_atom_site_fract_x
_atom_site_fract_y
_atom_site_fract_z
Si Si1 0.651235 0.671383 0.815568
Si Si2 0.413642 0.253891 0.877946
Si Si3 0.000000 0.500000 0.500000
Si Si4 0.990065 0.115932 0.644742
Si Si5 0.579161 0.287995 0.496006
Si Si6 0.148202 0.149904 0.256098
Si Si7 0.129712 0.601997 0.889754
O O1 0.544199 0.454392 0.640302
O O2 0.399607 0.692744 0.873112
O O3 0.800027 0.854928 0.843605
O O4 0.866953 0.644839 0.875094
O O5 0.291878 0.160757 0.732317
O O6 0.103342 0.083778 0.834119
O O7 0.500000 0.500000 0.000000
O O8 0.709555 0.286126 0.956555
O O9 0.058153 0.621373 0.468347
O O10 0.987691 0.699028 0.650571
O O11 0.010917 0.343863 0.753694
O O12 0.000000 0.000000 0.500000
O O13 0.664662 0.947596 0.596821
O O14 0.485684 0.279479 0.387707
#
# Coordination Sequence:
#
# PCOD9097735 Si02
#       7
#     2   2   1   2   2   2   2
#     4  11  24  40  72  98 145 184 242 291 356 431
#     4   9  22  47  69  97 142 190 238 290 358 427
#     4  10  20  36  62 104 138 170 232 290 366 410
#     4  10  20  44  73 101 140 184 245 295 356 423
#     4  10  22  39  66 105 137 188 230 309 356 420
#     4  10  23  40  69 104 138 189 234 301 360 419
#     4  11  25  46  66 106 145 191 234 293 357 433
#
# _framework density 27.112887000000001
#
# number of rings (size 3 to 8) (size 9 to 14) (size 15 to 20)
#    0.000    1.846    1.538    1.846    8.615    1.846 
#   13.846    3.846    0.000    0.000    0.000    0.000 
#    0.000    0.000    0.000    0.000    0.000    0.000 
#
# Total GULP energy -72626.095813 kJ/mol
# GULP energy per Si atom -5586.622755 kJ/mol
# Density = 2.705118 g / cm^3
# Si number density = 27.112887 Si / 1000 Ang^3
#
#
#
# Elastic Constant Matrix: (Units=GPa)
#
#
# Indices 1 2 3 4 5 6 
#
# 1 60.4656 8.4605 32.0088 -8.5117 -4.9090 -1.7405
# 2 8.4605 164.9930 57.0599 5.7394 -1.5655 4.6814
# 3 32.0088 57.0599 159.4560 -24.4646 7.1374 -12.3066
# 4 -8.5117 5.7394 -24.4646 52.6860 -10.3963 4.5381
# 5 -4.9090 -1.5655 7.1374 -10.3963 32.6091 -15.0033
# 6 -1.7405 4.6814 -12.3066 4.5381 -15.0033 28.3084
#
#
#
# Elastic Compliance Matrix: (Units=1/GPa)
#
#
# Indices 1 2 3 4 5 6 
#
# 1 0.019270 0.000196 -0.003673 0.002272 0.005378 0.002042
# 2 0.000196 0.007280 -0.003143 -0.002159 -0.000845 -0.002660
# 3 -0.003673 -0.003143 0.008969 0.003633 0.000202 0.003717
# 4 0.002272 -0.002159 0.003633 0.022593 0.007849 0.002614
# 5 0.005378 -0.000845 0.000202 0.007849 0.044398 0.022831
# 6 0.002042 -0.002660 0.003717 0.002614 0.022831 0.049188
#
#
# Mechanical properties :
#
#
# Convention : Reuss Voigt Hill
#
# Bulk Modulus (GPa) = 44.88485 64.44143 54.66314
# Shear Modulus (GPa) = 29.00816 41.87974 35.44395
#
# Velocity S-wave (km/s) = 3.27449 3.93446 3.61955
# Velocity P-wave (km/s) = 5.55761 6.66779 6.13785
#
# Compressibility (1/GPa) = 0.02227923
#
# Stress axis : x y z
#
# Youngs Moduli (GPa) = 51.89281 137.35506 111.49799
#
# Poissons Ratio (x) = -0.02695 0.40955
# Poissons Ratio (y) = -0.01018 0.35047
# Poissons Ratio (z) = 0.19061 0.43175
#
# Static dielectric constant tensor:
#      x y z
#    x 1.754740 -0.132000 -0.158030 
#    y -0.132000 2.133860 -0.074650 
#    z -0.158030 -0.074650 2.061960 
# 
# From -- ./inp_files/483045.got.cif
#   From: 2010.05.17/outbox.cif.g08.bks.cpg/sg2_242_cif.got.tgz:483045.got - 2010.06.03 11:33:40.
