data_PCOD9097458
_publ_section_title
;
Structure prediction by ZEFSAII (Michael W. Deem and Ramdas Pophale) SiO2 
 PCOD9097458
Probable space group: P -1
;
_chemical_formula_sum "Si O2"
_cell_formula_units_Z 16
_cell_length_a 15.472596
_cell_length_b 16.806696
_cell_length_c 9.689399
_cell_angle_alpha 35.861749
_cell_angle_beta 132.231071
_cell_angle_gamma 155.658767
_cell_volume 585.041830
_symmetry_space_group_name_H-M "P -1"
_symmetry_group_IT_number 2
_symmetry_cell_setting 'triclinic'
loop_
_space_group_symop_operation_xyz
x,y,z
-x,-y,-z
loop_
_atom_site_type_symbol
_atom_site_label
_atom_site_fract_x
_atom_site_fract_y
_atom_site_fract_z
Si Si1 0.226924 0.647547 0.556950
Si Si2 0.044200 0.832418 0.714045
Si Si3 0.904142 0.408710 0.229879
Si Si4 0.118202 0.236734 0.071194
Si Si5 0.528994 0.588037 0.738175
Si Si6 0.462885 0.874913 0.950849
Si Si7 0.606869 0.722246 0.202705
Si Si8 0.196160 0.454499 0.435482
O O1 0.273013 0.735176 0.640253
O O2 0.000000 0.500000 0.500000
O O3 0.376551 0.853782 0.310690
O O4 0.199400 0.461267 0.791305
O O5 0.918609 0.786918 0.767222
O O6 0.907549 0.696885 0.612405
O O7 0.279924 0.129956 0.524960
O O8 0.059320 0.693952 0.986506
O O9 0.768362 0.288128 0.114842
O O10 0.009692 0.366498 0.421465
O O11 0.298993 0.305960 0.112611
O O12 0.868732 0.968647 0.135818
O O13 0.479008 0.398851 0.869819
O O14 0.307146 0.451304 0.654615
O O15 0.537621 0.806380 0.053226
O O16 0.395691 0.753476 0.196752
O O17 0.500000 0.500000 0.500000
#
# Coordination Sequence:
#
# PCOD9097458 Si02
#       8
#     2   2   2   2   2   2   2   2
#     4  11  23  44  66  96 130 168 219 269 321 387
#     4  10  20  36  60  93 133 163 214 270 326 377
#     4  10  24  41  64  96 134 170 215 268 326 384
#     4  11  23  37  61  99 133 167 217 270 324 383
#     4  12  23  34  61  95 136 168 209 265 333 378
#     4  11  21  41  70  95 128 171 214 268 329 377
#     4  12  21  36  61  98 134 162 210 277 328 369
#     4  11  23  42  62 101 135 169 213 270 326 384
#
# _framework density 27.348471
#
# number of rings (size 3 to 8) (size 9 to 14) (size 15 to 20)
#    0.000    1.000    3.750    5.250    3.500    0.500 
#    2.250    0.000    0.000    3.750    0.000    0.000 
#    0.000    0.000    0.000    0.000    0.000    0.000 
#
# Total GULP energy -89398.930477 kJ/mol
# GULP energy per Si atom -5587.433155 kJ/mol
# Density = 2.728622 g / cm^3
# Si number density = 27.348471 Si / 1000 Ang^3
#
#
#
# Elastic Constant Matrix: (Units=GPa)
#
#
# Indices 1 2 3 4 5 6 
#
# 1 73.6759 24.5428 -3.8947 19.4755 26.3972 -8.3082
# 2 24.5428 129.1480 22.9230 28.6027 40.5921 20.1550
# 3 -3.8947 22.9230 121.1696 31.4542 51.3063 -10.3813
# 4 19.4755 28.6027 31.4542 48.5306 -14.0244 11.0797
# 5 26.3972 40.5921 51.3063 -14.0244 -0.8548 30.3035
# 6 -8.3082 20.1550 -10.3813 11.0797 30.3035 42.0401
#
#
#
# Elastic Compliance Matrix: (Units=1/GPa)
#
#
# Indices 1 2 3 4 5 6 
#
# 1 0.012083 -0.004043 -0.001971 0.000966 0.006555 -0.001141
# 2 -0.004043 0.010030 -0.002465 -0.001131 0.000462 -0.006251
# 3 -0.001971 -0.002465 0.005247 0.001429 0.006563 -0.003019
# 4 0.000966 -0.001131 0.001429 0.015529 -0.011279 0.005123
# 5 0.006555 0.000462 0.006563 -0.011279 -0.006237 0.010163
# 6 -0.001141 -0.006251 -0.003019 0.005123 0.010163 0.017136
#
#
# Mechanical properties :
#
#
# Convention : Reuss Voigt Hill
#
# Bulk Modulus (GPa) = 96.12916 45.68175 70.90546
# Shear Modulus (GPa) = 67.37363 36.63802 52.00582
#
# Velocity S-wave (km/s) = 4.96878 3.66413 4.36546
# Velocity P-wave (km/s) = 8.25496 5.88566 7.16887
#
# Compressibility (1/GPa) = 0.01040267
#
# Stress axis : x y z
#
# Youngs Moduli (GPa) = 82.76300 99.70410 190.57160
#
# Poissons Ratio (x) = 0.40307 0.37563
# Poissons Ratio (y) = 0.33458 0.46972
# Poissons Ratio (z) = 0.16313 0.24575
#
# Static dielectric constant tensor:
#      x y z
#    x 2.436750 -0.160680 -0.262270 
#    y -0.160680 2.214120 0.097730 
#    z -0.262270 0.097730 2.434980 
# 
# From -- ./inp_files/467060.got.cif
#   From: 2010.05.17/outbox.cif.g08.bks.cpg/sg2_234_cif.got.tgz:467060.got - 2010.06.03 11:33:40.
