data_PCOD9097662
_publ_section_title
;
Structure prediction by ZEFSAII (Michael W. Deem and Ramdas Pophale) SiO2 
 PCOD9097662
Probable space group: P -1
;
_chemical_formula_sum "Si O2"
_cell_formula_units_Z 16
_cell_length_a 9.506133
_cell_length_b 9.762875
_cell_length_c 12.028147
_cell_angle_alpha 51.724396
_cell_angle_beta 50.632428
_cell_angle_gamma 73.050289
_cell_volume 667.972891
_symmetry_space_group_name_H-M "P -1"
_symmetry_group_IT_number 2
_symmetry_cell_setting 'triclinic'
loop_
_space_group_symop_operation_xyz
x,y,z
-x,-y,-z
loop_
_atom_site_type_symbol
_atom_site_label
_atom_site_fract_x
_atom_site_fract_y
_atom_site_fract_z
Si Si1 0.576479 0.226244 0.550766
Si Si2 0.167600 0.866219 0.727797
Si Si3 0.615405 0.979612 0.843294
Si Si4 0.272792 0.467972 0.249069
Si Si5 0.985231 0.869555 0.465536
Si Si6 0.345406 0.679822 0.901541
Si Si7 0.603878 0.494730 0.593207
Si Si8 0.760797 0.654125 0.016489
O O1 0.725810 0.206903 0.391885
O O2 0.535710 0.048879 0.735342
O O3 0.651439 0.381854 0.522520
O O4 0.411309 0.305956 0.535507
O O5 0.292694 0.849284 0.781103
O O6 0.140147 0.057435 0.601271
O O7 0.959300 0.758319 0.900559
O O8 0.810608 0.106464 0.695127
O O9 0.500000 0.000000 0.000000
O O10 0.669247 0.785250 0.915886
O O11 0.099716 0.329124 0.365494
O O12 0.449709 0.366257 0.195330
O O13 0.271882 0.508867 0.358989
O O14 0.296585 0.641426 0.073314
O O15 0.000000 0.000000 0.500000
O O16 0.223148 0.520600 0.972343
O O17 0.395011 0.403709 0.782553
#
# Coordination Sequence:
#
# PCOD9097662 Si02
#       8
#     2   2   2   2   2   2   2   2
#     4  11  21  38  62  92 120 159 208 243 307 359
#     4  11  21  35  62 100 117 160 207 252 304 352
#     4  11  22  37  61  88 119 162 203 250 303 364
#     4  10  21  40  59  88 132 157 203 250 307 365
#     4  11  23  39  64  92 119 157 210 262 297 366
#     4  10  21  36  60  92 130 160 190 260 311 353
#     4  10  22  40  61  92 123 166 198 252 301 366
#     4  10  20  36  61  92 123 150 210 248 296 365
#
# _framework density 23.953067999999998
#
# number of rings (size 3 to 8) (size 9 to 14) (size 15 to 20)
#    0.000    1.500    5.000    1.875    0.000    0.500 
#    0.000    0.625    0.000    0.750    0.000    0.000 
#    0.000    0.000    0.000    0.000    0.000    0.000 
#
# Total GULP energy -89480.967599 kJ/mol
# GULP energy per Si atom -5592.560475 kJ/mol
# Density = 2.389855 g / cm^3
# Si number density = 23.953068 Si / 1000 Ang^3
#
#
#
# Elastic Constant Matrix: (Units=GPa)
#
#
# Indices 1 2 3 4 5 6 
#
# 1 105.9893 32.3689 56.6149 4.3372 36.7667 -3.1285
# 2 32.3689 49.6323 23.1509 -0.6499 13.6059 -12.2939
# 3 56.6149 23.1509 125.2459 -2.2442 19.8130 -4.7158
# 4 4.3372 -0.6499 -2.2442 30.0011 -10.7981 16.7902
# 5 36.7667 13.6059 19.8130 -10.7981 48.1385 -13.1627
# 6 -3.1285 -12.2939 -4.7158 16.7902 -13.1627 40.5763
#
#
#
# Elastic Compliance Matrix: (Units=1/GPa)
#
#
# Indices 1 2 3 4 5 6 
#
# 1 0.019083 -0.007237 -0.005542 -0.006221 -0.012415 -0.002818
# 2 -0.007237 0.027835 -0.001596 -0.003605 0.000020 0.009189
# 3 -0.005542 -0.001596 0.010708 0.001946 0.000641 -0.000264
# 4 -0.006221 -0.003605 0.001946 0.048152 0.010924 -0.017727
# 5 -0.012415 0.000020 0.000641 0.010924 0.033974 0.005624
# 6 -0.002818 0.009189 -0.000264 -0.017727 0.005624 0.036341
#
#
# Mechanical properties :
#
#
# Convention : Reuss Voigt Hill
#
# Bulk Modulus (GPa) = 34.62935 56.12631 45.37783
# Shear Modulus (GPa) = 23.31339 34.99204 29.15272
#
# Velocity S-wave (km/s) = 3.12315 3.82626 3.49245
# Velocity P-wave (km/s) = 5.24347 6.55767 5.93705
#
# Compressibility (1/GPa) = 0.02887724
#
# Stress axis : x y z
#
# Youngs Moduli (GPa) = 52.40130 35.92546 93.38776
#
# Poissons Ratio (x) = 0.25998 0.51758
# Poissons Ratio (y) = 0.37922 0.14903
# Poissons Ratio (z) = 0.29042 0.05733
#
# Static dielectric constant tensor:
#      x y z
#    x 1.969290 -0.017190 0.050100 
#    y -0.017190 1.969000 -0.027510 
#    z 0.050100 -0.027510 1.943610 
# 
# From -- ./inp_files/391968.got.cif
#   From: 2010.05.17/outbox.cif.g08.bks.cpg/sg2_196_cif.got.tgz:391968.got - 2010.06.03 11:33:40.
