data_PCOD9097069
_publ_section_title
;
Structure prediction by ZEFSAII (Michael W. Deem and Ramdas Pophale) SiO2 
 PCOD9097069
Probable space group: P -1
;
_chemical_formula_sum "Si O2"
_cell_formula_units_Z 16
_cell_length_a 6.794598
_cell_length_b 9.909318
_cell_length_c 23.268696
_cell_angle_alpha 132.073349
_cell_angle_beta 120.916311
_cell_angle_gamma 47.692530
_cell_volume 854.396773
_symmetry_space_group_name_H-M "P -1"
_symmetry_group_IT_number 2
_symmetry_cell_setting 'triclinic'
loop_
_space_group_symop_operation_xyz
x,y,z
-x,-y,-z
loop_
_atom_site_type_symbol
_atom_site_label
_atom_site_fract_x
_atom_site_fract_y
_atom_site_fract_z
Si Si1 0.302690 0.382695 0.035239
Si Si2 0.682503 0.435596 0.596725
Si Si3 0.435983 0.332073 0.845584
Si Si4 0.613144 0.133733 0.585989
Si Si5 0.731661 0.071407 0.917513
Si Si6 0.937013 0.724251 0.933942
Si Si7 0.740506 0.756817 0.326952
Si Si8 0.229316 0.836033 0.581366
O O1 0.400665 0.548331 0.105085
O O2 0.289800 0.278479 0.063279
O O3 0.502401 0.214191 0.970630
O O4 0.000000 0.500000 0.000000
O O5 0.587036 0.315776 0.591281
O O6 0.448517 0.671207 0.611879
O O7 0.768905 0.300548 0.511820
O O8 0.951594 0.407305 0.656581
O O9 0.615244 0.124670 0.851710
O O10 0.338195 0.293695 0.760205
O O11 0.183120 0.489099 0.892295
O O12 0.451048 0.231821 0.647833
O O13 0.500000 0.000000 0.500000
O O14 0.928051 0.972171 0.598878
O O15 0.850632 0.835435 0.890804
O O16 0.948159 0.145542 0.978256
O O17 0.707098 0.988887 0.382506
#
# Coordination Sequence:
#
# PCOD9097069 Si02
#       8
#     2   2   2   2   2   2   2   2
#     4  11  18  36  62  86 112 147 196 241 281 340
#     4  10  21  38  62  87 113 151 197 242 291 348
#     4  11  23  37  56  82 117 158 185 236 302 343
#     4  11  19  37  61  90 116 151 196 244 290 346
#     4  10  20  36  59  86 109 151 193 236 285 341
#     4  10  20  37  60  83 114 146 197 239 278 342
#     4  11  23  39  57  83 125 154 192 245 300 350
#     4  10  21  38  62  87 112 152 197 241 290 350
#
# _framework density 18.726662999999999
#
# number of rings (size 3 to 8) (size 9 to 14) (size 15 to 20)
#    0.000    1.500    5.000    1.875    0.000    4.500 
#    0.000    0.000    0.000    0.000    0.000    0.000 
#    0.000    0.000    0.000    0.000    0.000    0.000 
#
# Total GULP energy -89339.508729 kJ/mol
# GULP energy per Si atom -5583.719296 kJ/mol
# Density = 1.868404 g / cm^3
# Si number density = 18.726663 Si / 1000 Ang^3
#
#
#
# Elastic Constant Matrix: (Units=GPa)
#
#
# Indices 1 2 3 4 5 6 
#
# 1 105.2183 30.2068 13.4970 -16.8262 -13.4889 3.2165
# 2 30.2068 124.5421 13.7097 -32.7757 -1.0566 0.4460
# 3 13.4970 13.7097 55.8595 -32.0092 -0.6306 -0.1362
# 4 -16.8262 -32.7757 -32.0092 27.9034 1.2934 -2.4953
# 5 -13.4889 -1.0566 -0.6306 1.2934 16.2652 -9.7427
# 6 3.2165 0.4460 -0.1362 -2.4953 -9.7427 18.7155
#
#
#
# Elastic Compliance Matrix: (Units=1/GPa)
#
#
# Indices 1 2 3 4 5 6 
#
# 1 0.012457 -0.000367 0.003720 0.011297 0.013360 0.006356
# 2 -0.000367 0.018598 0.024205 0.049968 0.002524 0.007772
# 3 0.003720 0.024205 0.086655 0.131600 0.011206 0.022795
# 4 0.011297 0.049968 0.131600 0.255160 0.023980 0.044330
# 5 0.013360 0.002524 0.011206 0.023980 0.104340 0.055239
# 6 0.006356 0.007772 0.022795 0.044330 0.055239 0.086986
#
#
# Mechanical properties :
#
#
# Convention : Reuss Voigt Hill
#
# Bulk Modulus (GPa) = 5.78616 44.49410 25.14013
# Shear Modulus (GPa) = 8.82319 27.79059 18.30689
#
# Velocity S-wave (km/s) = 2.17297 3.85647 3.13003
# Velocity P-wave (km/s) = 3.06467 6.60614 5.14943
#
# Compressibility (1/GPa) = 0.17282630
#
# Stress axis : x y z
#
# Youngs Moduli (GPa) = 80.27365 53.77011 11.53997
#
# Poissons Ratio (x) = 0.01975 -0.04293
# Poissons Ratio (y) = 0.02948 -0.27933
# Poissons Ratio (z) = -0.29863 -1.30151
#
# Static dielectric constant tensor:
#      x y z
#    x 1.630520 -0.028000 0.030420 
#    y -0.028000 1.576400 0.085650 
#    z 0.030420 0.085650 1.518610 
# 
# From -- ./inp_files/55005.got.cif
#   From: 2010.05.17/outbox.cif.g08.bks.cpg/sg2_28_cif.got.tgz:55005.got - 2010.06.03 11:33:40.
