data_PCOD9097697
_publ_section_title
;
Structure prediction by ZEFSAII (Michael W. Deem and Ramdas Pophale) SiO2 
 PCOD9097697
Probable space group: P -1
;
_chemical_formula_sum "Si O2"
_cell_formula_units_Z 15
_cell_length_a 8.931175
_cell_length_b 11.662938
_cell_length_c 9.766923
_cell_angle_alpha 141.786346
_cell_angle_beta 58.859801
_cell_angle_gamma 103.297039
_cell_volume 507.904511
_symmetry_space_group_name_H-M "P -1"
_symmetry_group_IT_number 2
_symmetry_cell_setting 'triclinic'
loop_
_space_group_symop_operation_xyz
x,y,z
-x,-y,-z
loop_
_atom_site_type_symbol
_atom_site_label
_atom_site_fract_x
_atom_site_fract_y
_atom_site_fract_z
Si Si1 0.092991 0.261413 0.088942
Si Si2 0.972159 0.720595 0.548819
Si Si3 0.143321 0.186505 0.600465
Si Si4 0.500000 0.000000 0.000000
Si Si5 0.257087 0.568889 0.939030
Si Si6 0.271668 0.713780 0.778306
Si Si7 0.368779 0.660590 0.378808
Si Si8 0.480378 0.049245 0.740315
O O1 0.993886 0.490534 0.319150
O O2 0.090864 0.212139 0.204699
O O3 0.952355 0.165636 0.995841
O O4 0.307962 0.211273 0.902609
O O5 0.184815 0.709141 0.421254
O O6 0.832739 0.825749 0.590038
O O7 0.188013 0.381267 0.807485
O O8 0.297827 0.013367 0.442899
O O9 0.924665 0.240330 0.775089
O O10 0.403220 0.841994 0.843687
O O11 0.472316 0.098530 0.950362
O O12 0.313177 0.575930 0.760924
O O13 0.441618 0.522182 0.898922
O O14 0.296787 0.624977 0.530937
O O15 0.426797 0.855031 0.546967
#
# Coordination Sequence:
#
# PCOD9097697 Si02
#       8
#     2   2   2   1   2   2   2   2
#     4  10  21  36  62  92 129 154 202 257 311 353
#     4  10  20  36  61  95 119 162 204 253 304 369
#     4  10  21  38  62  86 123 168 208 240 303 369
#     4  10  22  34  62  90 120 154 202 252 316 352
#     4  10  20  38  61  86 124 163 207 249 298 369
#     4  10  20  38  60  93 120 159 196 263 303 365
#     4   9  21  35  62  89 120 155 208 255 310 352
#     4  10  21  38  57  92 122 162 200 253 303 365
#
# _framework density 29.533111999999999
#
# number of rings (size 3 to 8) (size 9 to 14) (size 15 to 20)
#    0.000    2.133    1.333    1.200    1.867    6.400 
#    0.000    1.333    0.000    0.000    0.000    2.800 
#    0.000    0.000    0.000    0.000    0.000    0.000 
#
# Total GULP energy -83812.816761 kJ/mol
# GULP energy per Si atom -5587.521117 kJ/mol
# Density = 2.946589 g / cm^3
# Si number density = 29.533112 Si / 1000 Ang^3
#
#
#
# Elastic Constant Matrix: (Units=GPa)
#
#
# Indices 1 2 3 4 5 6 
#
# 1 236.8202 42.2886 33.5720 7.3439 -42.3199 1.3835
# 2 42.2886 75.2973 18.6645 -6.0196 -0.5932 -10.2358
# 3 33.5720 18.6645 63.0406 2.9385 -28.1192 -11.3446
# 4 7.3439 -6.0196 2.9385 34.2569 -17.8431 10.3220
# 5 -42.3199 -0.5932 -28.1192 -17.8431 54.1801 0.0173
# 6 1.3835 -10.2358 -11.3446 10.3220 0.0173 65.5800
#
#
#
# Elastic Compliance Matrix: (Units=1/GPa)
#
#
# Indices 1 2 3 4 5 6 
#
# 1 0.005586 -0.003079 -0.000242 0.000852 0.004485 -0.000776
# 2 -0.003079 0.016526 -0.004994 0.001212 -0.004417 0.001591
# 3 -0.000242 -0.004994 0.023656 0.003091 0.013051 0.002828
# 4 0.000852 0.001212 0.003091 0.038327 0.014907 -0.005331
# 5 0.004485 -0.004417 0.013051 0.014907 0.033594 -0.000882
# 6 -0.000776 0.001591 0.002828 -0.005331 -0.000882 0.016842
#
#
# Mechanical properties :
#
#
# Convention : Reuss Voigt Hill
#
# Bulk Modulus (GPa) = 34.31844 62.68983 48.50413
# Shear Modulus (GPa) = 31.08001 49.51225 40.29613
#
# Velocity S-wave (km/s) = 3.24756 4.09895 3.69784
# Velocity P-wave (km/s) = 5.07028 6.60870 5.88993
#
# Compressibility (1/GPa) = 0.02913886
#
# Stress axis : x y z
#
# Youngs Moduli (GPa) = 179.00621 60.50944 42.27219
#
# Poissons Ratio (x) = 0.18634 0.01023
# Poissons Ratio (y) = 0.55124 0.21109
# Poissons Ratio (z) = 0.04333 0.30216
#
# Static dielectric constant tensor:
#      x y z
#    x 2.722980 0.459480 -0.975590 
#    y 0.459480 2.643480 -0.906430 
#    z -0.975590 -0.906430 4.218510 
# 
# From -- ./inp_files/396534.got.cif
#   From: 2010.05.17/outbox.cif.g08.bks.cpg/sg2_199_cif.got.tgz:396534.got - 2010.06.03 11:33:40.
