data_PCOD9097442
_publ_section_title
;
Structure prediction by ZEFSAII (Michael W. Deem and Ramdas Pophale) SiO2 
 PCOD9097442
Probable space group: P -1
;
_chemical_formula_sum "Si O2"
_cell_formula_units_Z 16
_cell_length_a 9.161740
_cell_length_b 13.551436
_cell_length_c 7.644986
_cell_angle_alpha 81.898725
_cell_angle_beta 110.717855
_cell_angle_gamma 52.727055
_cell_volume 620.840627
_symmetry_space_group_name_H-M "P -1"
_symmetry_group_IT_number 2
_symmetry_cell_setting 'triclinic'
loop_
_space_group_symop_operation_xyz
x,y,z
-x,-y,-z
loop_
_atom_site_type_symbol
_atom_site_label
_atom_site_fract_x
_atom_site_fract_y
_atom_site_fract_z
Si Si1 0.754933 0.296641 0.862409
Si Si2 0.240228 0.021522 0.733783
Si Si3 0.350897 0.497067 0.811052
Si Si4 0.701213 0.798053 0.121493
Si Si5 0.588228 0.782727 0.478014
Si Si6 0.115210 0.927167 0.251260
Si Si7 0.197366 0.530278 0.348783
Si Si8 0.074855 0.223927 0.288298
O O1 0.559288 0.332816 0.881988
O O2 0.781565 0.228400 0.709259
O O3 0.709946 0.432003 0.759583
O O4 0.972905 0.205663 0.094586
O O5 0.246616 0.107061 0.863027
O O6 0.133899 0.125681 0.498637
O O7 0.079721 0.003116 0.714826
O O8 0.494862 0.873224 0.887869
O O9 0.255810 0.548496 0.560017
O O10 0.117158 0.608555 0.784335
O O11 0.500000 0.500000 0.000000
O O12 0.634158 0.793102 0.291483
O O13 0.930775 0.644576 0.199432
O O14 0.329936 0.895175 0.382262
O O15 0.698084 0.625255 0.590117
O O16 0.708341 0.810099 0.640792
O O17 0.000000 0.000000 0.000000
#
# Coordination Sequence:
#
# PCOD9097442 Si02
#       8
#     2   2   2   2   2   2   2   2
#     4  11  24  40  64  97 128 173 216 260 322 389
#     4  10  20  39  66  86 126 175 212 255 321 387
#     4  10  20  36  60  92 126 165 209 259 310 380
#     4  10  20  37  62  93 122 167 217 254 314 385
#     4  11  23  37  66  95 130 161 215 271 317 369
#     4  12  23  40  66  96 126 163 220 269 315 381
#     4  12  21  37  68  93 129 167 220 258 321 377
#     4  10  23  43  64  92 133 170 215 261 324 381
#
# _framework density 25.771511
#
# number of rings (size 3 to 8) (size 9 to 14) (size 15 to 20)
#    0.000    1.250    6.250    0.750    1.750    0.500 
#    0.000    3.125    2.750    0.000    0.000    0.000 
#    0.000    0.000    0.000    0.000    0.000    0.000 
#
# Total GULP energy -89322.751101 kJ/mol
# GULP energy per Si atom -5582.671944 kJ/mol
# Density = 2.571285 g / cm^3
# Si number density = 25.771511 Si / 1000 Ang^3
#
#
#
# Elastic Constant Matrix: (Units=GPa)
#
#
# Indices 1 2 3 4 5 6 
#
# 1 134.3130 23.8136 60.2370 -15.2268 40.1269 -12.7785
# 2 23.8136 56.8802 17.8606 -17.2675 12.5759 -13.0098
# 3 60.2370 17.8606 141.5960 -10.6470 46.0106 -7.2390
# 4 -15.2268 -17.2675 -10.6470 44.2073 -6.3664 0.3964
# 5 40.1269 12.5759 46.0106 -6.3664 57.4197 -12.9803
# 6 -12.7785 -13.0098 -7.2390 0.3964 -12.9803 30.5648
#
#
#
# Elastic Compliance Matrix: (Units=1/GPa)
#
#
# Indices 1 2 3 4 5 6 
#
# 1 0.010577 -0.001874 -0.002644 0.001626 -0.004435 0.001094
# 2 -0.001874 0.023141 -0.001053 0.008054 -0.000058 0.008688
# 3 -0.002644 -0.001053 0.010407 0.000241 -0.006669 -0.001924
# 4 0.001626 0.008054 0.000241 0.026460 0.000779 0.004153
# 5 -0.004435 -0.000058 -0.006669 0.000779 0.027847 0.008358
# 6 0.001094 0.008688 -0.001924 0.004153 0.008358 0.039912
#
#
# Mechanical properties :
#
#
# Convention : Reuss Voigt Hill
#
# Bulk Modulus (GPa) = 30.31901 59.62349 44.97125
# Shear Modulus (GPa) = 31.15677 41.83022 36.49349
#
# Velocity S-wave (km/s) = 3.48078 4.03317 3.76711
# Velocity P-wave (km/s) = 5.28626 6.69882 6.03402
#
# Compressibility (1/GPa) = 0.03298261
#
# Stress axis : x y z
#
# Youngs Moduli (GPa) = 94.54910 43.21377 96.09204
#
# Poissons Ratio (x) = 0.08096 0.25405
# Poissons Ratio (y) = 0.17714 0.10122
# Poissons Ratio (z) = 0.24997 0.04552
#
# Static dielectric constant tensor:
#      x y z
#    x 2.057390 0.005670 -0.004040 
#    y 0.005670 2.147550 -0.051800 
#    z -0.004040 -0.051800 2.013600 
# 
# From -- ./inp_files/207112.got.cif
#   From: 2010.05.17/outbox.cif.g08.bks.cpg/sg2_104_cif.got.tgz:207112.got - 2010.06.03 11:33:40.
