data_PCOD9097691
_publ_section_title
;
Structure prediction by ZEFSAII (Michael W. Deem and Ramdas Pophale) SiO2 
 PCOD9097691
Probable space group: P -1
;
_chemical_formula_sum "Si O2"
_cell_formula_units_Z 14
_cell_length_a 17.089226
_cell_length_b 7.262933
_cell_length_c 9.092296
_cell_angle_alpha 124.053147
_cell_angle_beta 41.899677
_cell_angle_gamma 120.303103
_cell_volume 616.508465
_symmetry_space_group_name_H-M "P -1"
_symmetry_group_IT_number 2
_symmetry_cell_setting 'triclinic'
loop_
_space_group_symop_operation_xyz
x,y,z
-x,-y,-z
loop_
_atom_site_type_symbol
_atom_site_label
_atom_site_fract_x
_atom_site_fract_y
_atom_site_fract_z
Si Si1 0.834085 0.959385 0.625035
Si Si2 0.268076 0.288404 0.854108
Si Si3 0.759189 0.116833 0.507020
Si Si4 0.637014 0.879270 0.067057
Si Si5 0.006374 0.249607 0.325248
Si Si6 0.401007 0.639572 0.643437
Si Si7 0.320268 0.476418 0.360703
O O1 0.749355 0.059571 0.667707
O O2 0.961438 0.083391 0.450189
O O3 0.806308 0.690281 0.517102
O O4 0.773443 0.984326 0.877370
O O5 0.293614 0.532050 0.852642
O O6 0.281084 0.104161 0.629824
O O7 0.354606 0.248172 0.848890
O O8 0.135449 0.243049 0.081581
O O9 0.698091 0.321708 0.630438
O O10 0.902314 0.184373 0.321828
O O11 0.570093 0.091459 0.262618
O O12 0.604207 0.693973 0.902737
O O13 0.000000 0.500000 0.500000
O O14 0.500000 0.500000 0.500000
O O15 0.367513 0.574033 0.493294
#
# Coordination Sequence:
#
# PCOD9097691 Si02
#       7
#     2   2   2   2   2   2   2
#     4   8  21  39  61  91 133 161 202 245 313 366
#     4  12  22  41  65  92 131 160 220 253 302 379
#     4  10  20  40  63  94 132 169 196 259 305 371
#     4  10  23  40  68  93 120 171 203 251 325 361
#     4  10  20  36  61  94 129 170 202 248 305 369
#     4  12  26  45  66  91 122 165 213 270 316 361
#     4  10  21  44  63  94 131 161 207 256 309 380
#
# _framework density 22.70853
#
# number of rings (size 3 to 8) (size 9 to 14) (size 15 to 20)
#    1.714    0.000    2.857    2.143    2.000    1.714 
#    2.571    2.143    0.000    0.000    0.000    0.000 
#    0.000    0.000    0.000    0.000    0.000    0.000 
#
# Total GULP energy -78100.266526 kJ/mol
# GULP energy per Si atom -5578.590466 kJ/mol
# Density = 2.265684 g / cm^3
# Si number density = 22.708530 Si / 1000 Ang^3
#
#
#
# Elastic Constant Matrix: (Units=GPa)
#
#
# Indices 1 2 3 4 5 6 
#
# 1 8.0186 41.1740 25.0113 -24.5235 -16.8432 -16.4621
# 2 41.1740 119.1518 34.5531 20.8709 17.6007 -14.2973
# 3 25.0113 34.5531 80.7233 14.7977 8.3752 -6.6361
# 4 -24.5235 20.8709 14.7977 29.1787 -8.6712 -5.1999
# 5 -16.8432 17.6007 8.3752 -8.6712 21.6768 -10.6184
# 6 -16.4621 -14.2973 -6.6361 -5.1999 -10.6184 45.9329
#
#
#
# Elastic Compliance Matrix: (Units=1/GPa)
#
#
# Indices 1 2 3 4 5 6 
#
# 1 -0.004307 0.005094 0.003265 -0.014972 -0.017267 -0.005173
# 2 0.005094 0.007653 -0.005468 0.003441 0.003494 0.004615
# 3 0.003265 -0.005468 0.013286 0.001399 0.003564 0.002370
# 4 -0.014972 0.003441 0.001399 0.014035 -0.011931 -0.005262
# 5 -0.017267 0.003494 0.003564 -0.011931 0.023480 -0.000509
# 6 -0.005173 0.004615 0.002370 -0.005262 -0.000509 0.020983
#
#
# Mechanical properties :
#
#
# Convention : Reuss Voigt Hill
#
# Bulk Modulus (GPa) = 44.61626 45.48561 45.05093
# Shear Modulus (GPa) = 65.08763 26.50136 45.79449
#
# Velocity S-wave (km/s) = 5.35952 3.41988 4.49555
# Velocity P-wave (km/s) = 7.61507 5.97225 6.84313
#
# Compressibility (1/GPa) = 0.02241335
#
# Stress axis : x y z
#
# Youngs Moduli (GPa) = -232.19819 130.66602 75.26918
#
# Poissons Ratio (x) = -0.66559 -0.24573
# Poissons Ratio (y) = 1.18278 0.41157
# Poissons Ratio (z) = 0.75807 0.71448
#
# Static dielectric constant tensor:
#      x y z
#    x 1.880960 0.043790 -0.043650 
#    y 0.043790 1.868570 -0.048450 
#    z -0.043650 -0.048450 1.842980 
# 
# From -- ./inp_files/324074.got.cif
#   From: 2010.05.17/outbox.cif.g08.bks.cpg/sg2_163_cif.got.tgz:324074.got - 2010.06.03 11:33:40.
