data_PCOD9097357
_publ_section_title
;
Structure prediction by ZEFSAII (Michael W. Deem and Ramdas Pophale) SiO2 
 PCOD9097357
Probable space group: P -1
;
_chemical_formula_sum "Si O2"
_cell_formula_units_Z 16
_cell_length_a 8.141043
_cell_length_b 13.123739
_cell_length_c 9.008876
_cell_angle_alpha 135.339736
_cell_angle_beta 99.716481
_cell_angle_gamma 68.764487
_cell_volume 624.789455
_symmetry_space_group_name_H-M "P -1"
_symmetry_group_IT_number 2
_symmetry_cell_setting 'triclinic'
loop_
_space_group_symop_operation_xyz
x,y,z
-x,-y,-z
loop_
_atom_site_type_symbol
_atom_site_label
_atom_site_fract_x
_atom_site_fract_y
_atom_site_fract_z
Si Si1 0.359124 0.878400 0.045516
Si Si2 0.878715 0.265358 0.969066
Si Si3 0.977051 0.849421 0.417694
Si Si4 0.746625 0.707564 0.212356
Si Si5 0.373329 0.396250 0.375733
Si Si6 0.051846 0.502786 0.242322
Si Si7 0.464704 0.177448 0.437577
Si Si8 0.844945 0.044258 0.208632
O O1 0.282885 0.783951 0.051770
O O2 0.396568 0.031052 0.262226
O O3 0.535656 0.752556 0.871996
O O4 0.216067 0.926095 0.939234
O O5 0.885104 0.274494 0.800829
O O6 0.053148 0.134624 0.928273
O O7 0.914140 0.418813 0.180115
O O8 0.026277 0.872381 0.618512
O O9 0.776353 0.867372 0.352383
O O10 0.000000 0.000000 0.500000
O O11 0.576485 0.742886 0.324051
O O12 0.920752 0.653105 0.294179
O O13 0.810388 0.595752 0.967770
O O14 0.500000 0.500000 0.500000
O O15 0.182009 0.502647 0.394662
O O16 0.368691 0.312389 0.443447
O O17 0.665546 0.117144 0.350627
#
# Coordination Sequence:
#
# PCOD9097357 Si02
#       8
#     2   2   2   2   2   2   2   2
#     4  11  23  40  64  94 127 166 214 260 316 370
#     4  10  20  38  63  91 122 163 211 258 313 369
#     4   9  19  36  58  89 119 156 209 257 305 367
#     4  10  23  41  66  92 124 168 212 259 318 374
#     4  11  26  44  63  94 134 168 209 261 316 378
#     4  10  23  44  64  90 131 168 209 260 315 381
#     4  11  23  41  64  96 126 165 218 258 320 372
#     4  10  20  36  60  88 128 162 202 263 312 363
#
# _framework density 25.608626000000001
#
# number of rings (size 3 to 8) (size 9 to 14) (size 15 to 20)
#    0.000    1.750    0.000    4.875    5.250    2.500 
#    0.000    7.500    0.000    0.000    0.000    0.000 
#    0.000    0.000    0.000    0.000    0.000    0.000 
#
# Total GULP energy -89315.398476 kJ/mol
# GULP energy per Si atom -5582.212405 kJ/mol
# Density = 2.555034 g / cm^3
# Si number density = 25.608626 Si / 1000 Ang^3
#
#
#
# Elastic Constant Matrix: (Units=GPa)
#
#
# Indices 1 2 3 4 5 6 
#
# 1 61.9376 2.5763 28.2083 -5.5398 -11.7793 19.9250
# 2 2.5763 57.0515 15.9409 -11.3422 0.6723 -2.9793
# 3 28.2083 15.9409 81.0349 -1.0592 -8.8985 1.5379
# 4 -5.5398 -11.3422 -1.0592 25.6898 -0.8471 -0.2144
# 5 -11.7793 0.6723 -8.8985 -0.8471 53.4263 -7.4070
# 6 19.9250 -2.9793 1.5379 -0.2144 -7.4070 47.6807
#
#
#
# Elastic Compliance Matrix: (Units=1/GPa)
#
#
# Indices 1 2 3 4 5 6 
#
# 1 0.023665 0.001782 -0.008049 0.005571 0.002685 -0.009076
# 2 0.001782 0.020623 -0.004612 0.009292 -0.000394 0.000673
# 3 -0.008049 -0.004612 0.016100 -0.003042 0.001297 0.002744
# 4 0.005571 0.009292 -0.003042 0.044131 0.001127 -0.001276
# 5 0.002685 -0.000394 0.001297 0.001127 0.019811 0.001894
# 6 -0.009076 0.000673 0.002744 -0.001276 0.001894 0.025008
#
#
# Mechanical properties :
#
#
# Convention : Reuss Voigt Hill
#
# Bulk Modulus (GPa) = 25.88536 32.60835 29.24686
# Shear Modulus (GPa) = 27.17800 35.57927 31.37863
#
# Velocity S-wave (km/s) = 3.26127 3.73144 3.50425
# Velocity P-wave (km/s) = 4.93064 5.59695 5.27432
#
# Compressibility (1/GPa) = 0.03863187
#
# Stress axis : x y z
#
# Youngs Moduli (GPa) = 42.25574 48.48885 62.11194
#
# Poissons Ratio (x) = -0.08642 0.49992
# Poissons Ratio (y) = -0.07531 0.28646
# Poissons Ratio (z) = 0.34010 0.22363
#
# Static dielectric constant tensor:
#      x y z
#    x 21.613970 16.415110 5.015650 
#    y 16.415110 15.825740 4.230060 
#    z 5.015650 4.230060 3.441560 
# 
# From -- ./inp_files/209028.got.cif
#   From: 2010.05.17/outbox.cif.g08.bks.cpg/sg2_105_cif.got.tgz:209028.got - 2010.06.03 11:33:40.
