data_PCOD9097710
_publ_section_title
;
Structure prediction by ZEFSAII (Michael W. Deem and Ramdas Pophale) SiO2 
 PCOD9097710
Probable space group: P -1
;
_chemical_formula_sum "Si O2"
_cell_formula_units_Z 12
_cell_length_a 18.888750
_cell_length_b 10.521035
_cell_length_c 9.887046
_cell_angle_alpha 151.865555
_cell_angle_beta 35.235145
_cell_angle_gamma 147.242747
_cell_volume 479.054061
_symmetry_space_group_name_H-M "P -1"
_symmetry_group_IT_number 2
_symmetry_cell_setting 'triclinic'
loop_
_space_group_symop_operation_xyz
x,y,z
-x,-y,-z
loop_
_atom_site_type_symbol
_atom_site_label
_atom_site_fract_x
_atom_site_fract_y
_atom_site_fract_z
Si Si1 0.853947 0.705733 0.458777
Si Si2 0.721907 0.100637 0.702170
Si Si3 0.185349 0.902964 0.906212
Si Si4 0.114630 0.263469 0.871606
Si Si5 0.465982 0.058123 0.900004
Si Si6 0.464093 0.316454 0.743248
O O1 0.855073 0.426622 0.277182
O O2 0.826045 0.635913 0.279431
O O3 0.000000 0.000000 0.500000
O O4 0.772765 0.850157 0.806279
O O5 0.586708 0.008161 0.738151
O O6 0.816341 0.939702 0.376842
O O7 0.824783 0.448436 0.858890
O O8 0.659989 0.031033 0.885567
O O9 0.314492 0.037522 0.732454
O O10 0.048765 0.883176 0.027899
O O11 0.440928 0.840773 0.603952
O O12 0.524260 0.414001 0.119208
O O13 0.500000 0.500000 0.000000
#
# Coordination Sequence:
#
# PCOD9097710 Si02
#       6
#     2   2   2   2   2   2
#     4  10  20  36  61  96 138 170 210 274 330 387
#     4  11  24  43  73  94 130 175 229 287 322 382
#     4  11  23  40  62 101 140 171 219 273 333 407
#     4  11  21  38  67 100 127 171 224 276 342 379
#     4  11  26  48  65  98 132 177 236 274 321 398
#     4  12  27  45  70  95 139 185 219 265 342 411
#
# _framework density 25.049363
#
# number of rings (size 3 to 8) (size 9 to 14) (size 15 to 20)
#    0.000    1.000    0.000    8.500    7.000    2.667 
#    0.000    5.000    0.000    0.000    0.000    0.000 
#    0.000    0.000    0.000    0.000    0.000    0.000 
#
# Total GULP energy -67174.216793 kJ/mol
# GULP energy per Si atom -5597.851399 kJ/mol
# Density = 2.499235 g / cm^3
# Si number density = 25.049363 Si / 1000 Ang^3
#
#
#
# Elastic Constant Matrix: (Units=GPa)
#
#
# Indices 1 2 3 4 5 6 
#
# 1 54.2651 9.6182 12.0289 14.0208 -13.9456 20.7857
# 2 9.6182 113.0998 30.3892 4.4627 -22.3798 7.4577
# 3 12.0289 30.3892 216.3709 24.3829 0.1771 10.1169
# 4 14.0208 4.4627 24.3829 55.5888 -8.9256 -2.9698
# 5 -13.9456 -22.3798 0.1771 -8.9256 50.7231 3.9437
# 6 20.7857 7.4577 10.1169 -2.9698 3.9437 31.7955
#
#
#
# Elastic Compliance Matrix: (Units=1/GPa)
#
#
# Indices 1 2 3 4 5 6 
#
# 1 0.031320 0.000992 0.000035 -0.007684 0.009454 -0.022609
# 2 0.000992 0.010351 -0.001380 0.000174 0.005128 -0.003257
# 3 0.000035 -0.001380 0.005151 -0.002383 -0.000924 -0.001446
# 4 -0.007684 0.000174 -0.002383 0.021554 0.001173 0.007608
# 5 0.009454 0.005128 -0.000924 0.001173 0.025576 -0.010152
# 6 -0.022609 -0.003257 -0.001446 0.007608 -0.010152 0.049425
#
#
# Mechanical properties :
#
#
# Convention : Reuss Voigt Hill
#
# Bulk Modulus (GPa) = 21.68557 54.20094 37.94326
# Shear Modulus (GPa) = 31.35708 49.73479 40.54594
#
# Velocity S-wave (km/s) = 3.54193 4.46070 4.02760
# Velocity P-wave (km/s) = 5.04014 6.94371 6.06704
#
# Compressibility (1/GPa) = 0.04611360
#
# Stress axis : x y z
#
# Youngs Moduli (GPa) = 31.92899 96.60921 194.15565
#
# Poissons Ratio (x) = -0.09583 -0.00676
# Poissons Ratio (y) = -0.03167 0.26802
# Poissons Ratio (z) = -0.00111 0.13336
#
# Static dielectric constant tensor:
#      x y z
#    x 2.015750 -0.004140 0.099950 
#    y -0.004140 1.956500 -0.048190 
#    z 0.099950 -0.048190 1.924180 
# 
# From -- ./inp_files/474802.got.cif
#   From: 2010.05.17/outbox.cif.g08.bks.cpg/sg2_238_cif.got.tgz:474802.got - 2010.06.03 11:33:40.
