data_PCOD9097015
_publ_section_title
;
Structure prediction by ZEFSAII (Michael W. Deem and Ramdas Pophale) SiO2 
 PCOD9097015
Probable space group: P -1
;
_chemical_formula_sum "Si O2"
_cell_formula_units_Z 12
_cell_length_a 5.014739
_cell_length_b 11.222654
_cell_length_c 7.860714
_cell_angle_alpha 85.479161
_cell_angle_beta 100.583156
_cell_angle_gamma 85.199024
_cell_volume 431.331352
_symmetry_space_group_name_H-M "P -1"
_symmetry_group_IT_number 2
_symmetry_cell_setting 'triclinic'
loop_
_space_group_symop_operation_xyz
x,y,z
-x,-y,-z
loop_
_atom_site_type_symbol
_atom_site_label
_atom_site_fract_x
_atom_site_fract_y
_atom_site_fract_z
Si Si1 0.782296 0.347486 0.601088
Si Si2 0.681472 0.525397 0.273742
Si Si3 0.958602 0.841467 0.573634
Si Si4 0.320317 0.177355 0.023129
Si Si5 0.157052 0.678490 0.903137
Si Si6 0.392013 0.017785 0.713868
O O1 0.637817 0.416245 0.411624
O O2 0.580013 0.379943 0.731713
O O3 0.874605 0.212819 0.567250
O O4 0.058153 0.409627 0.651015
O O5 0.759749 0.460550 0.111207
O O6 0.968334 0.728367 0.713470
O O7 0.663773 0.896494 0.466245
O O8 0.139819 0.937041 0.668871
O O9 0.568633 0.256595 0.072194
O O10 0.042468 0.264137 0.981599
O O11 0.352657 0.074696 0.186219
O O12 0.353367 0.105538 0.860495
#
# Coordination Sequence:
#
# PCOD9097015 Si02
#       6
#     2   2   2   2   2   2
#     4   9  17  30  51  79 107 135 173 223 270 311
#     4   9  17  31  52  78 106 136 175 221 267 318
#     4   9  19  35  57  84 111 142 183 228 270 316
#     4  10  21  37  57  81 111 147 181 218 272 330
#     4  10  20  36  59  83 108 143 184 224 269 322
#     4   9  20  37  56  81 113 146 182 224 270 323
#
# _framework density 27.820838999999999
#
# number of rings (size 3 to 8) (size 9 to 14) (size 15 to 20)
#    0.000    2.667    0.000    1.000    0.000   14.667 
#    0.000    8.333    0.000    6.000    0.000    0.000 
#    0.000    0.000    0.000    0.000    0.000    0.000 
#
# Total GULP energy -67188.371976 kJ/mol
# GULP energy per Si atom -5599.030998 kJ/mol
# Density = 2.775752 g / cm^3
# Si number density = 27.820839 Si / 1000 Ang^3
#
#
#
# Elastic Constant Matrix: (Units=GPa)
#
#
# Indices 1 2 3 4 5 6 
#
# 1 152.9316 51.2190 11.5087 27.5585 14.3120 -32.6351
# 2 51.2190 123.5071 46.6988 17.1631 11.4709 -35.4085
# 3 11.5087 46.6988 90.1092 17.9672 8.7941 -1.4793
# 4 27.5585 17.1631 17.9672 84.2375 -2.2694 5.3531
# 5 14.3120 11.4709 8.7941 -2.2694 38.7920 -1.2548
# 6 -32.6351 -35.4085 -1.4793 5.3531 -1.2548 49.5856
#
#
#
# Elastic Compliance Matrix: (Units=1/GPa)
#
#
# Indices 1 2 3 4 5 6 
#
# 1 0.008996 -0.001974 0.000862 -0.003109 -0.002957 0.004797
# 2 -0.001974 0.014292 -0.006537 -0.001481 -0.001817 0.008825
# 3 0.000862 -0.006537 0.014903 -0.001960 -0.001991 -0.003495
# 4 -0.003109 -0.001481 -0.001960 0.013974 0.002698 -0.004603
# 5 -0.002957 -0.001817 -0.001991 0.002698 0.027923 -0.002888
# 6 0.004797 0.008825 -0.003495 -0.004603 -0.002888 0.029946
#
#
# Mechanical properties :
#
#
# Convention : Reuss Voigt Hill
#
# Bulk Modulus (GPa) = 43.68418 65.04454 54.36436
# Shear Modulus (GPa) = 37.60432 51.66444 44.63438
#
# Velocity S-wave (km/s) = 3.68048 4.31402 4.00978
# Velocity P-wave (km/s) = 5.81355 6.94585 6.40477
#
# Compressibility (1/GPa) = 0.02289158
#
# Stress axis : x y z
#
# Youngs Moduli (GPa) = 111.15984 69.96984 67.09978
#
# Poissons Ratio (x) = 0.13814 -0.05781
# Poissons Ratio (y) = 0.21947 0.43863
# Poissons Ratio (z) = -0.09577 0.45739
#
# Static dielectric constant tensor:
#      x y z
#    x 2.122880 -0.064600 -0.154590 
#    y -0.064600 2.209980 -0.094080 
#    z -0.154590 -0.094080 2.320530 
# 
# From -- ./inp_files/27167.got.cif
#   From: 2010.05.17/outbox.cif.g08.bks.cpg/sg2_14_cif.got.tgz:27167.got - 2010.06.03 11:33:40.
