data_PCOD9097021
_publ_section_title
;
Structure prediction by ZEFSAII (Michael W. Deem and Ramdas Pophale) SiO2 
 PCOD9097021
Probable space group: P -1
;
_chemical_formula_sum "Si O2"
_cell_formula_units_Z 16
_cell_length_a 19.864761
_cell_length_b 15.543508
_cell_length_c 8.162608
_cell_angle_alpha 125.245909
_cell_angle_beta 123.498261
_cell_angle_gamma 19.028464
_cell_volume 670.901632
_symmetry_space_group_name_H-M "P -1"
_symmetry_group_IT_number 2
_symmetry_cell_setting 'triclinic'
loop_
_space_group_symop_operation_xyz
x,y,z
-x,-y,-z
loop_
_atom_site_type_symbol
_atom_site_label
_atom_site_fract_x
_atom_site_fract_y
_atom_site_fract_z
Si Si1 0.407564 0.188498 0.946996
Si Si2 0.111086 0.929394 0.354416
Si Si3 0.259168 0.316284 0.554890
Si Si4 0.786866 0.011847 0.236277
Si Si5 0.474593 0.463044 0.084107
Si Si6 0.288389 0.518246 0.693655
Si Si7 0.373027 0.440572 0.348498
Si Si8 0.144983 0.291914 0.116930
O O1 0.253814 0.324772 0.754910
O O2 0.615889 0.976603 0.904129
O O3 0.312526 0.402969 0.144153
O O4 0.500000 0.000000 0.000000
O O5 0.071007 0.087389 0.568853
O O6 0.294715 0.720494 0.241564
O O7 0.201855 0.731273 0.379559
O O8 0.901105 0.171490 0.237648
O O9 0.227278 0.472954 0.613340
O O10 0.123278 0.393309 0.358464
O O11 0.500000 0.000000 0.500000
O O12 0.682700 0.215847 0.193557
O O13 0.593751 0.207303 0.307665
O O14 0.877795 0.806498 0.030257
O O15 0.500000 0.500000 0.000000
O O16 0.427466 0.400089 0.895041
O O17 0.394127 0.398405 0.525222
O O18 0.000000 0.500000 0.000000
#
# Coordination Sequence:
#
# PCOD9097021 Si02
#       8
#     2   2   2   2   2   2   2   2
#     4  10  21  38  60  83 112 154 199 239 290 355
#     4  11  22  38  57  86 118 150 191 241 289 343
#     4  10  20  37  59  85 115 153 197 240 289 352
#     4  10  21  38  57  80 115 157 193 229 287 358
#     4  11  22  38  58  83 115 153 190 230 285 354
#     4  12  22  36  61  89 114 148 194 248 292 336
#     4  10  20  36  59  83 115 155 194 234 290 356
#     4  10  20  37  59  85 114 148 191 245 296 338
#
# _framework density 23.848503999999998
#
# number of rings (size 3 to 8) (size 9 to 14) (size 15 to 20)
#    0.000    1.500    0.000    9.000    0.000    0.000 
#    0.000    1.875    0.000    0.000    0.000    0.000 
#    0.000    0.000    0.000    0.000    0.000    0.000 
#
# Total GULP energy -89417.753907 kJ/mol
# GULP energy per Si atom -5588.609619 kJ/mol
# Density = 2.379422 g / cm^3
# Si number density = 23.848504 Si / 1000 Ang^3
#
#
#
# Elastic Constant Matrix: (Units=GPa)
#
#
# Indices 1 2 3 4 5 6 
#
# 1 85.6122 17.0660 38.6877 4.4631 -0.9071 22.5915
# 2 17.0660 78.5669 36.6512 -7.5751 3.5447 19.4748
# 3 38.6877 36.6512 188.2963 -2.6955 6.1463 16.6671
# 4 4.4631 -7.5751 -2.6955 37.9198 7.0829 -1.6275
# 5 -0.9071 3.5447 6.1463 7.0829 33.7073 -5.3331
# 6 22.5915 19.4748 16.6671 -1.6275 -5.3331 30.8307
#
#
#
# Elastic Compliance Matrix: (Units=1/GPa)
#
#
# Indices 1 2 3 4 5 6 
#
# 1 0.015574 0.000053 -0.002316 -0.002375 -0.000306 -0.010372
# 2 0.000053 0.016680 -0.002221 0.003423 -0.003621 -0.009820
# 3 -0.002316 -0.002221 0.006306 0.000472 -0.001154 -0.000484
# 4 -0.002375 0.003423 0.000472 0.028581 -0.006564 -0.000304
# 5 -0.000306 -0.003621 -0.001154 -0.006564 0.032973 0.008493
# 6 -0.010372 -0.009820 -0.000484 -0.000304 0.008493 0.047953
#
#
# Mechanical properties :
#
#
# Convention : Reuss Voigt Hill
#
# Bulk Modulus (GPa) = 33.79256 59.69836 46.74546
# Shear Modulus (GPa) = 29.95800 37.82960 33.89380
#
# Velocity S-wave (km/s) = 3.54811 3.98709 3.77399
# Velocity P-wave (km/s) = 5.56649 6.80313 6.21564
#
# Compressibility (1/GPa) = 0.02959231
#
# Stress axis : x y z
#
# Youngs Moduli (GPa) = 64.20890 59.95132 158.57216
#
# Poissons Ratio (x) = -0.00320 0.36729
# Poissons Ratio (y) = -0.00342 0.35223
# Poissons Ratio (z) = 0.14872 0.13317
#
# Static dielectric constant tensor:
#      x y z
#    x 1.958620 0.002470 0.003320 
#    y 0.002470 1.877080 0.026570 
#    z 0.003320 0.026570 1.979280 
# 
# From -- ./inp_files/299739.got.cif
#   From: 2010.05.17/outbox.cif.g08.bks.cpg/sg2_150_cif.got.tgz:299739.got - 2010.06.03 11:33:40.
