data_PCOD9097693
_publ_section_title
;
Structure prediction by ZEFSAII (Michael W. Deem and Ramdas Pophale) SiO2 
 PCOD9097693
Probable space group: P -1
;
_chemical_formula_sum "Si O2"
_cell_formula_units_Z 16
_cell_length_a 13.909980
_cell_length_b 10.090169
_cell_length_c 14.445545
_cell_angle_alpha 121.904002
_cell_angle_beta 29.214687
_cell_angle_gamma 107.341416
_cell_volume 772.179810
_symmetry_space_group_name_H-M "P -1"
_symmetry_group_IT_number 2
_symmetry_cell_setting 'triclinic'
loop_
_space_group_symop_operation_xyz
x,y,z
-x,-y,-z
loop_
_atom_site_type_symbol
_atom_site_label
_atom_site_fract_x
_atom_site_fract_y
_atom_site_fract_z
Si Si1 0.169082 0.270124 0.571941
Si Si2 0.141742 0.799601 0.317098
Si Si3 0.237154 0.909059 0.725573
Si Si4 0.623440 0.949861 0.518173
Si Si5 0.515973 0.070041 0.915224
Si Si6 0.698118 0.736361 0.986012
Si Si7 0.197700 0.556544 0.337851
Si Si8 0.811614 0.411372 0.428672
O O1 0.212267 0.209789 0.619917
O O2 0.229922 0.420639 0.535714
O O3 0.940841 0.293126 0.726644
O O4 0.330493 0.094989 0.327758
O O5 0.378994 0.793562 0.107821
O O6 0.119625 0.733359 0.413283
O O7 0.000000 0.000000 0.500000
O O8 0.422392 0.907554 0.639070
O O9 0.271452 0.719619 0.596818
O O10 0.261373 0.011395 0.652822
O O11 0.000000 0.000000 0.000000
O O12 0.503849 0.132979 0.739229
O O13 0.305519 0.154115 0.062315
O O14 0.500000 0.000000 0.000000
O O15 0.673607 0.571694 0.901614
O O16 0.927032 0.679753 0.820465
O O17 0.270042 0.558050 0.384016
O O18 0.000000 0.500000 0.500000
#
# Coordination Sequence:
#
# PCOD9097693 Si02
#       8
#     2   2   2   2   2   2   2   2
#     4  10  21  42  58  94 127 165 212 267 321 380
#     4  10  21  35  56  85 132 175 210 249 315 376
#     4  11  24  46  73  93 119 172 222 272 329 384
#     4  10  24  45  70  95 127 163 224 275 315 387
#     4  10  22  34  54  86 135 174 214 251 307 385
#     4  10  20  38  62  94 130 168 214 257 316 385
#     4  10  20  36  61  94 132 171 206 251 316 390
#     4  11  22  38  69  91 134 174 213 260 330 378
#
# _framework density 20.720562999999999
#
# number of rings (size 3 to 8) (size 9 to 14) (size 15 to 20)
#    0.000    1.750    3.750    0.750   10.500    1.000 
#    2.250    0.625    0.000    0.000    0.000    0.000 
#    0.000    0.000    0.000    0.000    0.000    0.000 
#
# Total GULP energy -89124.487666 kJ/mol
# GULP energy per Si atom -5570.280479 kJ/mol
# Density = 2.067340 g / cm^3
# Si number density = 20.720563 Si / 1000 Ang^3
#
#
#
# Elastic Constant Matrix: (Units=GPa)
#
#
# Indices 1 2 3 4 5 6 
#
# 1 82.7220 58.7083 25.6478 3.6089 -0.6417 -8.5791
# 2 58.7083 139.8446 20.0454 -4.3114 -2.3207 -4.6590
# 3 25.6478 20.0454 62.2039 -1.9966 3.3721 -1.6875
# 4 3.6089 -4.3114 -1.9966 30.9492 -1.0827 5.4965
# 5 -0.6417 -2.3207 3.3721 -1.0827 25.5241 6.7977
# 6 -8.5791 -4.6590 -1.6875 5.4965 6.7977 48.9050
#
#
#
# Elastic Compliance Matrix: (Units=1/GPa)
#
#
# Indices 1 2 3 4 5 6 
#
# 1 0.019672 -0.007473 -0.005733 -0.004267 -0.000429 0.003080
# 2 -0.007473 0.010396 -0.000270 0.002476 0.001101 -0.000761
# 3 -0.005733 -0.000270 0.018714 0.001793 -0.002501 -0.000240
# 4 -0.004267 0.002476 0.001793 0.034185 0.002569 -0.004650
# 5 -0.000429 0.001101 -0.002501 0.002569 0.041329 -0.006090
# 6 0.003080 -0.000761 -0.000240 -0.004650 -0.006090 0.022276
#
#
# Mechanical properties :
#
#
# Convention : Reuss Voigt Hill
#
# Bulk Modulus (GPa) = 45.80836 54.84152 50.32494
# Shear Modulus (GPa) = 27.65486 33.10028 30.37757
#
# Velocity S-wave (km/s) = 3.65726 4.00116 3.83307
# Velocity P-wave (km/s) = 6.32374 6.91884 6.62798
#
# Compressibility (1/GPa) = 0.02183007
#
# Stress axis : x y z
#
# Youngs Moduli (GPa) = 50.83373 96.19223 53.43704
#
# Poissons Ratio (x) = 0.71882 0.30636
# Poissons Ratio (y) = 0.37987 0.01442
# Poissons Ratio (z) = 0.29144 0.02595
#
# Static dielectric constant tensor:
#      x y z
#    x 3.914150 -0.817390 0.959000 
#    y -0.817390 2.073920 -0.344210 
#    z 0.959000 -0.344210 2.334710 
# 
# From -- ./inp_files/530054.got.cif
#   From: 2010.05.17/outbox.cif.g08.bks.cpg/sg2_266_cif.got.tgz:530054.got - 2010.06.03 11:33:40.
