data_PCOD9097064
_publ_section_title
;
Structure prediction by ZEFSAII (Michael W. Deem and Ramdas Pophale) SiO2 
 PCOD9097064
Probable space group: P -1
;
_chemical_formula_sum "Si O2"
_cell_formula_units_Z 16
_cell_length_a 7.287115
_cell_length_b 9.181364
_cell_length_c 11.637676
_cell_angle_alpha 97.346994
_cell_angle_beta 72.756903
_cell_angle_gamma 74.057722
_cell_volume 696.212176
_symmetry_space_group_name_H-M "P -1"
_symmetry_group_IT_number 2
_symmetry_cell_setting 'triclinic'
loop_
_space_group_symop_operation_xyz
x,y,z
-x,-y,-z
loop_
_atom_site_type_symbol
_atom_site_label
_atom_site_fract_x
_atom_site_fract_y
_atom_site_fract_z
Si Si1 0.779520 0.133451 0.566413
Si Si2 0.798948 0.648414 0.388278
Si Si3 0.733636 0.478217 0.977091
Si Si4 0.384066 0.124825 0.346794
Si Si5 0.221769 0.385700 0.248040
Si Si6 0.808727 0.151924 0.301011
Si Si7 0.636995 0.460826 0.241744
Si Si8 0.055037 0.811947 0.233028
O O1 0.761503 0.202040 0.448846
O O2 0.795933 0.228765 0.686642
O O3 0.638110 0.032546 0.615837
O O4 0.000000 0.000000 0.500000
O O5 0.713800 0.739310 0.528429
O O6 0.633577 0.587569 0.351100
O O7 0.010866 0.504806 0.348835
O O8 0.861119 0.769688 0.308991
O O9 0.792491 0.585757 0.883662
O O10 0.854486 0.301122 0.900320
O O11 0.500000 0.500000 0.000000
O O12 0.734701 0.507947 0.114453
O O13 0.265302 0.209010 0.263514
O O14 0.618540 0.102981 0.288968
O O15 0.423017 0.429914 0.255407
O O16 0.795505 0.300048 0.243290
O O17 0.998258 0.994392 0.240392
#
# Coordination Sequence:
#
# PCOD9097064 Si02
#       8
#     2   2   2   2   2   2   2   2
#     4  10  20  36  59  85 122 160 188 240 297 358
#     4  11  22  36  62  91 121 158 199 242 298 359
#     4   9  20  43  63  84 117 157 200 254 291 349
#     4  11  21  37  59  89 126 156 193 242 303 351
#     4   9  22  38  59  89 120 152 203 246 290 354
#     4  10  22  38  58  91 124 152 197 244 294 372
#     4  10  23  40  63  87 120 159 202 249 301 334
#     4  10  22  39  60  90 116 156 205 235 304 354
#
# _framework density 22.9815
#
# number of rings (size 3 to 8) (size 9 to 14) (size 15 to 20)
#    0.000    2.000    2.500    0.750    3.500    9.500 
#    0.000    0.000    2.750    2.250    0.000    0.000 
#    0.000    0.000    0.000    0.000    0.000    0.000 
#
# Total GULP energy -89369.980021 kJ/mol
# GULP energy per Si atom -5585.623751 kJ/mol
# Density = 2.292919 g / cm^3
# Si number density = 22.981500 Si / 1000 Ang^3
#
#
#
# Elastic Constant Matrix: (Units=GPa)
#
#
# Indices 1 2 3 4 5 6 
#
# 1 61.2633 10.2509 4.9679 -3.4055 7.7585 2.5695
# 2 10.2509 74.3306 24.4130 -13.1760 1.6340 -10.0645
# 3 4.9679 24.4130 64.4053 -7.6938 -7.0256 -8.2786
# 4 -3.4055 -13.1760 -7.6938 27.7379 -3.7549 2.0222
# 5 7.7585 1.6340 -7.0256 -3.7549 21.8727 0.7463
# 6 2.5695 -10.0645 -8.2786 2.0222 0.7463 38.2805
#
#
#
# Elastic Compliance Matrix: (Units=1/GPa)
#
#
# Indices 1 2 3 4 5 6 
#
# 1 0.017704 -0.002046 -0.001551 0.000025 -0.006555 -0.001935
# 2 -0.002046 0.016991 -0.005313 0.005934 -0.001340 0.003168
# 3 -0.001551 -0.005313 0.019233 0.003469 0.007634 0.002535
# 4 0.000025 0.005934 0.003469 0.040875 0.007679 0.000000
# 5 -0.006555 -0.001340 0.007634 0.007679 0.051904 0.000321
# 6 -0.001935 0.003168 0.002535 0.000000 0.000321 0.027628
#
#
# Mechanical properties :
#
#
# Convention : Reuss Voigt Hill
#
# Bulk Modulus (GPa) = 27.69371 31.02920 29.36146
# Shear Modulus (GPa) = 24.48717 28.26938 26.37827
#
# Velocity S-wave (km/s) = 3.26777 3.51107 3.39160
# Velocity P-wave (km/s) = 5.12975 5.47430 5.30482
#
# Compressibility (1/GPa) = 0.03610928
#
# Stress axis : x y z
#
# Youngs Moduli (GPa) = 56.48542 58.85598 51.99384
#
# Poissons Ratio (x) = 0.12039 0.08064
# Poissons Ratio (y) = 0.11554 0.27622
# Poissons Ratio (z) = 0.08760 0.31268
#
# Static dielectric constant tensor:
#      x y z
#    x 1.934660 -0.024760 0.055810 
#    y -0.024760 1.942420 0.009970 
#    z 0.055810 0.009970 1.903610 
# 
# From -- ./inp_files/382592.got.cif
#   From: 2010.05.17/outbox.cif.g08.bks.cpg/sg2_192_cif.got.tgz:382592.got - 2010.06.03 11:33:40.
