data_PCOD9097349
_publ_section_title
;
Structure prediction by ZEFSAII (Michael W. Deem and Ramdas Pophale) SiO2 
 PCOD9097349
Probable space group: P -1
;
_chemical_formula_sum "Si O2"
_cell_formula_units_Z 16
_cell_length_a 9.135945
_cell_length_b 22.273783
_cell_length_c 24.222605
_cell_angle_alpha 11.357104
_cell_angle_beta 113.813602
_cell_angle_gamma 117.073546
_cell_volume 838.573140
_symmetry_space_group_name_H-M "P -1"
_symmetry_group_IT_number 2
_symmetry_cell_setting 'triclinic'
loop_
_space_group_symop_operation_xyz
x,y,z
-x,-y,-z
loop_
_atom_site_type_symbol
_atom_site_label
_atom_site_fract_x
_atom_site_fract_y
_atom_site_fract_z
Si Si1 0.587686 0.841600 0.111035
Si Si2 0.417709 0.722853 0.819818
Si Si3 0.798130 0.378159 0.572247
Si Si4 0.130996 0.311186 0.337925
Si Si5 0.954054 0.596932 0.965999
Si Si6 0.591058 0.977969 0.807865
Si Si7 0.457690 0.424564 0.209825
Si Si8 0.387681 0.451893 0.337539
O O1 0.712255 0.653631 0.320258
O O2 0.433795 0.576168 0.294353
O O3 0.500000 0.000000 0.000000
O O4 0.704142 0.105191 0.848566
O O5 0.506157 0.109016 0.486277
O O6 0.500000 0.500000 0.000000
O O7 0.233661 0.641369 0.838379
O O8 0.401233 0.581912 0.006323
O O9 0.000000 0.500000 0.500000
O O10 0.747682 0.238689 0.627506
O O11 0.295185 0.292005 0.345675
O O12 0.203150 0.391737 0.338165
O O13 0.981593 0.973060 0.623983
O O14 0.069077 0.553365 0.073332
O O15 0.000000 0.500000 0.000000
O O16 0.460887 0.157383 0.606044
O O17 0.600421 0.722402 0.993055
O O18 0.500965 0.744669 0.053904
#
# Coordination Sequence:
#
# PCOD9097349 Si02
#       8
#     2   2   2   2   2   2   2   2
#     4  10  20  36  60  88 121 158 192 229 288 360
#     4  12  25  37  53  76 109 147 177 217 280 346
#     4  10  20  36  60  91 118 151 196 246 283 329
#     4  11  19  33  58  83 103 133 182 244 267 305
#     4  12  21  35  55  82 104 131 184 228 279 315
#     4   9  18  32  56  84 108 141 189 234 268 324
#     4  11  19  36  57  79 103 140 187 227 270 324
#     4   9  18  32  53  86 112 140 185 228 278 324
#
# _framework density 19.080027000000001
#
# number of rings (size 3 to 8) (size 9 to 14) (size 15 to 20)
#    0.000    1.500    2.500    5.250    0.000    0.000 
#    0.000    0.000    8.250    0.000    0.000    0.000 
#    0.000    0.000    0.000    0.000    0.000    0.000 
#
# Total GULP energy -89127.998329 kJ/mol
# GULP energy per Si atom -5570.499896 kJ/mol
# Density = 1.903660 g / cm^3
# Si number density = 19.080027 Si / 1000 Ang^3
#
#
#
# Elastic Constant Matrix: (Units=GPa)
#
#
# Indices 1 2 3 4 5 6 
#
# 1 41.2110 34.2101 19.5671 -15.8537 12.3528 9.6951
# 2 34.2101 101.0534 34.4156 -12.6417 12.4009 17.9377
# 3 19.5671 34.4156 121.2817 5.0334 10.7446 3.8733
# 4 -15.8537 -12.6417 5.0334 37.6998 -3.2948 -1.7853
# 5 12.3528 12.4009 10.7446 -3.2948 26.0670 0.1406
# 6 9.6951 17.9377 3.8733 -1.7853 0.1406 19.0438
#
#
#
# Elastic Compliance Matrix: (Units=1/GPa)
#
#
# Indices 1 2 3 4 5 6 
#
# 1 0.046485 -0.008248 -0.004093 0.015431 -0.014395 -0.013511
# 2 -0.008248 0.015864 -0.002713 0.001540 -0.002271 -0.010031
# 3 -0.004093 -0.002713 0.009888 -0.003963 -0.001358 0.002267
# 4 0.015431 0.001540 -0.003963 0.033621 -0.002134 -0.005333
# 5 -0.014395 -0.002271 -0.001358 -0.002134 0.046505 0.009200
# 6 -0.013511 -0.010031 0.002267 -0.005333 0.009200 0.067808
#
#
# Mechanical properties :
#
#
# Convention : Reuss Voigt Hill
#
# Bulk Modulus (GPa) = 23.73673 48.88131 36.30902
# Shear Modulus (GPa) = 18.91637 28.25235 23.58436
#
# Velocity S-wave (km/s) = 3.15210 3.85220 3.51960
# Velocity P-wave (km/s) = 5.07102 6.74245 5.96556
#
# Compressibility (1/GPa) = 0.04212880
#
# Stress axis : x y z
#
# Youngs Moduli (GPa) = 21.51242 63.03658 101.13312
#
# Poissons Ratio (x) = 0.51990 0.41393
# Poissons Ratio (y) = 0.17743 0.27441
# Poissons Ratio (z) = 0.08805 0.17104
#
# Static dielectric constant tensor:
#      x y z
#    x 1.623350 -0.021890 0.004800 
#    y -0.021890 1.733350 -0.034710 
#    z 0.004800 -0.034710 1.697070 
# 
# From -- ./inp_files/617607.got.cif
#   From: 2010.05.17/outbox.cif.g08.bks.cpg/sg2_309_cif.got.tgz:617607.got - 2010.06.03 11:33:40.
