data_PCOD9097571
_publ_section_title
;
Structure prediction by ZEFSAII (Michael W. Deem and Ramdas Pophale) SiO2 
 PCOD9097571
Probable space group: P -1
;
_chemical_formula_sum "Si O2"
_cell_formula_units_Z 16
_cell_length_a 11.626232
_cell_length_b 11.272937
_cell_length_c 6.923183
_cell_angle_alpha 55.736916
_cell_angle_beta 96.161625
_cell_angle_gamma 97.972938
_cell_volume 742.178765
_symmetry_space_group_name_H-M "P -1"
_symmetry_group_IT_number 2
_symmetry_cell_setting 'triclinic'
loop_
_space_group_symop_operation_xyz
x,y,z
-x,-y,-z
loop_
_atom_site_type_symbol
_atom_site_label
_atom_site_fract_x
_atom_site_fract_y
_atom_site_fract_z
Si Si1 0.579225 0.643248 0.315135
Si Si2 0.180608 0.479985 0.615387
Si Si3 0.811448 0.287505 0.280059
Si Si4 0.058284 0.624110 0.133911
Si Si5 0.428049 0.803902 0.841092
Si Si6 0.410397 0.131653 0.542095
Si Si7 0.957716 0.067981 0.121982
Si Si8 0.832501 0.952369 0.558521
O O1 0.500000 0.500000 0.500000
O O2 0.704364 0.600840 0.306828
O O3 0.594879 0.755745 0.391254
O O4 0.510707 0.719564 0.065888
O O5 0.206665 0.627798 0.605490
O O6 0.130979 0.513760 0.363998
O O7 0.072818 0.401145 0.787526
O O8 0.697275 0.282376 0.130232
O O9 0.831352 0.120111 0.467667
O O10 0.915712 0.366458 0.098385
O O11 0.101392 0.787202 0.059353
O O12 0.481006 0.826178 0.615624
O O13 0.415271 0.966367 0.764603
O O14 0.295429 0.125736 0.392552
O O15 0.875007 0.960048 0.336916
O O16 0.070089 0.109702 0.238869
O O17 0.000000 0.000000 0.000000
#
# Coordination Sequence:
#
# PCOD9097571 Si02
#       8
#     2   2   2   2   2   2   2   2
#     4  12  26  42  64  98 129 168 213 265 319 378
#     4  11  24  39  60  89 126 163 211 250 312 374
#     4  10  20  42  63  85 124 164 203 260 308 374
#     4  10  23  40  57  90 121 169 205 248 314 370
#     4  10  23  43  69  93 123 170 213 256 328 371
#     4  10  23  43  66  95 129 162 213 267 313 384
#     4  10  20  36  61  88 123 159 203 257 307 365
#     4   9  21  37  60  93 117 158 209 252 310 364
#
# _framework density 21.558147999999999
#
# number of rings (size 3 to 8) (size 9 to 14) (size 15 to 20)
#    0.000    1.750    0.000    3.000    3.500    3.000 
#    4.500    7.500    0.000    0.000    0.000    0.000 
#    0.000    0.000    0.000    0.000    0.000    0.000 
#
# Total GULP energy -89420.429393 kJ/mol
# GULP energy per Si atom -5588.776837 kJ/mol
# Density = 2.150908 g / cm^3
# Si number density = 21.558148 Si / 1000 Ang^3
#
#
#
# Elastic Constant Matrix: (Units=GPa)
#
#
# Indices 1 2 3 4 5 6 
#
# 1 116.3903 15.5883 23.8854 -6.2227 8.8411 -1.7407
# 2 15.5883 69.7705 25.1059 10.5956 -7.9408 -14.1540
# 3 23.8854 25.1059 59.3799 -9.3307 7.3257 -2.0737
# 4 -6.2227 10.5956 -9.3307 19.7589 -8.4151 -10.6467
# 5 8.8411 -7.9408 7.3257 -8.4151 26.6290 -0.3844
# 6 -1.7407 -14.1540 -2.0737 -10.6467 -0.3844 33.7377
#
#
#
# Elastic Compliance Matrix: (Units=1/GPa)
#
#
# Indices 1 2 3 4 5 6 
#
# 1 0.009634 -0.001765 -0.002536 0.001819 -0.002451 0.000147
# 2 -0.001765 0.022451 -0.011413 -0.012698 0.006476 0.004693
# 3 -0.002536 -0.011413 0.025920 0.016720 -0.004381 0.001901
# 4 0.001819 -0.012698 0.016720 0.086357 0.018636 0.023259
# 5 -0.002451 0.006476 -0.004381 0.018636 0.047518 0.008743
# 6 0.000147 0.004693 0.001901 0.023259 0.008743 0.039173
#
#
# Mechanical properties :
#
#
# Convention : Reuss Voigt Hill
#
# Bulk Modulus (GPa) = 37.62492 41.63332 39.62912
# Shear Modulus (GPa) = 18.42702 28.08919 23.25810
#
# Velocity S-wave (km/s) = 2.92680 3.61356 3.28816
# Velocity P-wave (km/s) = 5.37700 6.06337 5.73047
#
# Compressibility (1/GPa) = 0.02657813
#
# Stress axis : x y z
#
# Youngs Moduli (GPa) = 103.79717 44.54092 38.58009
#
# Poissons Ratio (x) = 0.07864 0.09783
# Poissons Ratio (y) = 0.18325 0.44030
# Poissons Ratio (z) = 0.26319 0.50833
#
# Static dielectric constant tensor:
#      x y z
#    x 1.788560 0.010750 -0.003420 
#    y 0.010750 1.787670 -0.007350 
#    z -0.003420 -0.007350 1.765410 
# 
# From -- ./inp_files/68660.got.cif
#   From: 2010.05.17/outbox.cif.g08.bks.cpg/sg2_35_cif.got.tgz:68660.got - 2010.06.03 11:33:40.
