data_PCOD9097835
_publ_section_title
;
Structure prediction by ZEFSAII (Michael W. Deem and Ramdas Pophale) SiO2 
 PCOD9097835
Probable space group: P -1
;
_chemical_formula_sum "Si O2"
_cell_formula_units_Z 16
_cell_length_a 16.755392
_cell_length_b 8.939388
_cell_length_c 8.388546
_cell_angle_alpha 82.689260
_cell_angle_beta 140.692251
_cell_angle_gamma 85.360052
_cell_volume 756.633423
_symmetry_space_group_name_H-M "P -1"
_symmetry_group_IT_number 2
_symmetry_cell_setting 'triclinic'
loop_
_space_group_symop_operation_xyz
x,y,z
-x,-y,-z
loop_
_atom_site_type_symbol
_atom_site_label
_atom_site_fract_x
_atom_site_fract_y
_atom_site_fract_z
Si Si1 0.639201 0.049946 0.011894
Si Si2 0.538238 0.766646 0.853379
Si Si3 0.434803 0.687985 0.382450
Si Si4 0.276612 0.778396 0.613971
Si Si5 0.030094 0.619309 0.700476
Si Si6 0.198956 0.502977 0.702663
Si Si7 0.091436 0.084159 0.728457
Si Si8 0.145909 0.820318 0.073743
O O1 0.711569 0.075851 0.281423
O O2 0.758524 0.965121 0.090946
O O3 0.568218 0.219595 0.800950
O O4 0.545261 0.938436 0.892274
O O5 0.510530 0.759055 0.623655
O O6 0.421658 0.718005 0.768966
O O7 0.676888 0.643805 0.119526
O O8 0.500000 0.500000 0.500000
O O9 0.284436 0.738008 0.207590
O O10 0.236898 0.656435 0.684529
O O11 0.176704 0.811322 0.308138
O O12 0.162232 0.516338 0.832424
O O13 0.924878 0.524958 0.579037
O O14 0.968780 0.737520 0.441892
O O15 0.053445 0.721437 0.871147
O O16 0.000000 0.000000 0.500000
O O17 0.096062 0.002874 0.917889
#
# Coordination Sequence:
#
# PCOD9097835 Si02
#       8
#     2   2   2   2   2   2   2   2
#     4  11  21  38  60  87 121 158 202 240 292 354
#     4  11  22  39  60  89 121 156 199 243 298 355
#     4  10  20  36  62  90 118 152 200 248 293 349
#     4  11  23  38  58  87 126 161 190 239 305 363
#     4  10  20  39  64  89 113 152 209 251 289 346
#     4  11  22  38  64  88 118 157 199 247 302 349
#     4   9  17  36  62  84 113 153 199 250 286 335
#     4   9  20  36  59  87 121 153 197 243 299 352
#
# _framework density 21.146303
#
# number of rings (size 3 to 8) (size 9 to 14) (size 15 to 20)
#    0.000    1.750    1.250    4.875    0.000    1.500 
#    0.000    5.625    5.500    0.000    0.000    0.000 
#    0.000    0.000    0.000    0.000    0.000    0.000 
#
# Total GULP energy -89278.490751 kJ/mol
# GULP energy per Si atom -5579.905672 kJ/mol
# Density = 2.109817 g / cm^3
# Si number density = 21.146303 Si / 1000 Ang^3
#
#
#
# Elastic Constant Matrix: (Units=GPa)
#
#
# Indices 1 2 3 4 5 6 
#
# 1 55.9846 11.7146 20.4514 12.3502 7.2026 10.6517
# 2 11.7146 106.4266 41.9250 25.6572 -2.9443 6.4420
# 3 20.4514 41.9250 77.8238 25.1228 -5.7983 2.9894
# 4 12.3502 25.6572 25.1228 38.8550 -14.6326 5.8053
# 5 7.2026 -2.9443 -5.7983 -14.6326 26.2766 9.6388
# 6 10.6517 6.4420 2.9894 5.8053 9.6388 27.6624
#
#
#
# Elastic Compliance Matrix: (Units=1/GPa)
#
#
# Indices 1 2 3 4 5 6 
#
# 1 0.023280 0.001311 -0.004622 -0.009055 -0.011210 -0.002964
# 2 0.001311 0.012937 -0.005356 -0.006958 -0.003926 -0.000110
# 3 -0.004622 -0.005356 0.019457 -0.008281 -0.000720 0.002913
# 4 -0.009055 -0.006958 -0.008281 0.055581 0.037725 -0.018807
# 5 -0.011210 -0.003926 -0.000720 0.037725 0.071654 -0.027576
# 6 -0.002964 -0.000110 0.002913 -0.018807 -0.027576 0.050558
#
#
# Mechanical properties :
#
#
# Convention : Reuss Voigt Hill
#
# Bulk Modulus (GPa) = 26.08253 43.15744 34.61999
# Shear Modulus (GPa) = 18.96940 29.63507 24.30223
#
# Velocity S-wave (km/s) = 2.99834 3.74763 3.39373
# Velocity P-wave (km/s) = 4.93435 6.25936 5.63593
#
# Compressibility (1/GPa) = 0.03833984
#
# Stress axis : x y z
#
# Youngs Moduli (GPa) = 42.95567 77.29524 51.39483
#
# Poissons Ratio (x) = -0.10130 0.23754
# Poissons Ratio (y) = -0.05630 0.27527
# Poissons Ratio (z) = 0.19854 0.41399
#
# Static dielectric constant tensor:
#      x y z
#    x 1.789390 -0.010600 0.017970 
#    y -0.010600 1.780470 -0.016640 
#    z 0.017970 -0.016640 1.786560 
# 
# From -- ./inp_files/328780.got.cif
#   From: 2010.05.17/outbox.cif.g08.bks.cpg/sg2_165_cif.got.tgz:328780.got - 2010.06.03 11:33:40.
