data_PCOD9097676
_publ_section_title
;
Structure prediction by ZEFSAII (Michael W. Deem and Ramdas Pophale) SiO2 
 PCOD9097676
Probable space group: P -1
;
_chemical_formula_sum "Si O2"
_cell_formula_units_Z 16
_cell_length_a 9.230536
_cell_length_b 16.715487
_cell_length_c 9.100532
_cell_angle_alpha 88.023972
_cell_angle_beta 45.708010
_cell_angle_gamma 58.345836
_cell_volume 717.400089
_symmetry_space_group_name_H-M "P -1"
_symmetry_group_IT_number 2
_symmetry_cell_setting 'triclinic'
loop_
_space_group_symop_operation_xyz
x,y,z
-x,-y,-z
loop_
_atom_site_type_symbol
_atom_site_label
_atom_site_fract_x
_atom_site_fract_y
_atom_site_fract_z
Si Si1 0.072635 0.680536 0.075921
Si Si2 0.209755 0.763127 0.731951
Si Si3 0.933345 0.857904 0.368520
Si Si4 0.583948 0.001607 0.102748
Si Si5 0.026407 0.527533 0.242125
Si Si6 0.712372 0.488701 0.643584
Si Si7 0.756435 0.115441 0.077631
Si Si8 0.373694 0.673256 0.306757
O O1 0.895634 0.792027 0.291310
O O2 0.970303 0.617930 0.167742
O O3 0.128096 0.702735 0.875073
O O4 0.393841 0.594797 0.917887
O O5 0.358299 0.783639 0.739387
O O6 0.371011 0.709746 0.469121
O O7 0.903380 0.886362 0.908084
O O8 0.131017 0.779240 0.370564
O O9 0.096034 0.878056 0.157851
O O10 0.636457 0.974236 0.627696
O O11 0.555980 0.104172 0.149828
O O12 0.500000 0.000000 0.000000
O O13 0.086641 0.550981 0.357422
O O14 0.803018 0.520104 0.441300
O O15 0.319142 0.407760 0.982772
O O16 0.707520 0.397458 0.612816
O O17 0.000000 0.000000 0.000000
#
# Coordination Sequence:
#
# PCOD9097676 Si02
#       8
#     2   2   2   2   2   2   2   2
#     4  10  20  39  60  88 126 167 201 257 319 366
#     4  10  23  42  62  92 134 164 203 265 319 362
#     4  11  21  38  69  90 122 170 212 250 313 372
#     4  11  23  43  67  95 124 163 216 260 302 372
#     4  10  20  36  63  93 125 163 212 255 311 372
#     4  10  20  36  61  93 124 161 213 260 301 377
#     4   9  23  43  61  89 126 162 204 261 315 364
#     4  11  20  40  60  94 125 165 206 260 307 369
#
# _framework density 22.302755000000001
#
# number of rings (size 3 to 8) (size 9 to 14) (size 15 to 20)
#    0.000    1.750    3.750    0.750    0.000   10.000 
#    0.000    6.250    0.000    0.000    0.000    0.000 
#    0.000    0.000    0.000    0.000    0.000    0.000 
#
# Total GULP energy -89419.498101 kJ/mol
# GULP energy per Si atom -5588.718631 kJ/mol
# Density = 2.225199 g / cm^3
# Si number density = 22.302755 Si / 1000 Ang^3
#
#
#
# Elastic Constant Matrix: (Units=GPa)
#
#
# Indices 1 2 3 4 5 6 
#
# 1 73.2892 18.7775 35.5341 -4.9091 12.0722 11.6890
# 2 18.7775 90.4022 21.3885 -24.1366 2.1124 6.6331
# 3 35.5341 21.3885 113.7291 -14.9988 9.7811 16.5196
# 4 -4.9091 -24.1366 -14.9988 23.8866 -1.9348 -6.9432
# 5 12.0722 2.1124 9.7811 -1.9348 31.7332 -3.2832
# 6 11.6890 6.6331 16.5196 -6.9432 -3.2832 18.2914
#
#
#
# Elastic Compliance Matrix: (Units=1/GPa)
#
#
# Indices 1 2 3 4 5 6 
#
# 1 0.018975 -0.003658 -0.003812 -0.005957 -0.007294 -0.010927
# 2 -0.003658 0.015963 -0.000355 0.016279 0.001779 0.003367
# 3 -0.003812 -0.000355 0.011838 0.004018 -0.002662 -0.007079
# 4 -0.005957 0.016279 0.004018 0.066046 0.006085 0.020437
# 5 -0.007294 0.001779 -0.002662 0.006085 0.036950 0.015363
# 6 -0.010927 0.003367 -0.007079 0.020437 0.015363 0.077341
#
#
# Mechanical properties :
#
#
# Convention : Reuss Voigt Hill
#
# Bulk Modulus (GPa) = 32.12594 47.64674 39.88634
# Shear Modulus (GPa) = 19.75216 28.23027 23.99122
#
# Velocity S-wave (km/s) = 2.97920 3.56163 3.28335
# Velocity P-wave (km/s) = 5.12542 6.19061 5.68302
#
# Compressibility (1/GPa) = 0.03112749
#
# Stress axis : x y z
#
# Youngs Moduli (GPa) = 52.70048 62.64524 84.47618
#
# Poissons Ratio (x) = 0.22914 0.32201
# Poissons Ratio (y) = 0.19276 0.02995
# Poissons Ratio (z) = 0.20089 0.02221
#
# Static dielectric constant tensor:
#      x y z
#    x 1.833520 -0.002960 -0.015640 
#    y -0.002960 1.835680 0.011090 
#    z -0.015640 0.011090 1.791290 
# 
# From -- ./inp_files/207507.got.cif
#   From: 2010.05.17/outbox.cif.g08.bks.cpg/sg2_104_cif.got.tgz:207507.got - 2010.06.03 11:33:40.
