data_PCOD9097970
_publ_section_title
;
Structure prediction by ZEFSAII (Michael W. Deem and Ramdas Pophale) SiO2 
 PCOD9097970
Probable space group: P -1
;
_chemical_formula_sum "Si O2"
_cell_formula_units_Z 16
_cell_length_a 13.157626
_cell_length_b 22.735665
_cell_length_c 13.997958
_cell_angle_alpha 19.176371
_cell_angle_beta 149.098467
_cell_angle_gamma 146.116237
_cell_volume 701.550136
_symmetry_space_group_name_H-M "P -1"
_symmetry_group_IT_number 2
_symmetry_cell_setting 'triclinic'
loop_
_space_group_symop_operation_xyz
x,y,z
-x,-y,-z
loop_
_atom_site_type_symbol
_atom_site_label
_atom_site_fract_x
_atom_site_fract_y
_atom_site_fract_z
Si Si1 0.427656 0.053655 0.963647
Si Si2 0.407443 0.006168 0.613179
Si Si3 0.104362 0.748431 0.149669
Si Si4 0.124084 0.933865 0.334690
Si Si5 0.630437 0.427661 0.520886
Si Si6 0.740180 0.513348 0.166595
Si Si7 0.641641 0.334184 0.182857
Si Si8 0.260506 0.214888 0.848193
O O1 0.471025 0.268752 0.676026
O O2 0.560099 0.981710 0.265905
O O3 0.500000 0.000000 0.000000
O O4 0.206135 0.948735 0.946187
O O5 0.198036 0.968104 0.448958
O O6 0.525044 0.181852 0.389458
O O7 0.530251 0.844369 0.924467
O O8 0.211708 0.667656 0.268354
O O9 0.173423 0.633205 0.471369
O O10 0.869324 0.698711 0.017821
O O11 0.238802 0.775261 0.626080
O O12 0.896114 0.870448 0.225280
O O13 0.191881 0.110615 0.052195
O O14 0.728604 0.572087 0.454483
O O15 0.512294 0.549524 0.169119
O O16 0.780291 0.463352 0.166617
O O17 0.500000 0.500000 0.000000
#
# Coordination Sequence:
#
# PCOD9097970 Si02
#       8
#     2   2   2   2   2   2   2   2
#     4  10  24  43  64  87 131 177 207 257 318 373
#     4  11  20  40  64  89 126 166 210 260 312 375
#     4  10  22  40  60  90 123 165 210 256 320 367
#     4  10  20  36  62  97 130 155 208 267 320 369
#     4  11  20  39  66  89 130 170 205 258 319 374
#     4  11  21  36  65  95 117 156 214 271 307 371
#     4  11  19  36  63  95 123 158 209 262 316 368
#     4  10  20  36  63  99 124 161 206 266 319 365
#
# _framework density 22.806636000000001
#
# number of rings (size 3 to 8) (size 9 to 14) (size 15 to 20)
#    0.000    1.500    5.000    1.500    0.000    0.500 
#    2.250    1.250    8.250    0.000    0.000    0.000 
#    0.000    0.000    0.000    0.000    0.000    0.000 
#
# Total GULP energy -89433.715695 kJ/mol
# GULP energy per Si atom -5589.607231 kJ/mol
# Density = 2.275473 g / cm^3
# Si number density = 22.806636 Si / 1000 Ang^3
#
#
#
# Elastic Constant Matrix: (Units=GPa)
#
#
# Indices 1 2 3 4 5 6 
#
# 1 50.4769 53.9549 30.0549 1.3885 2.1622 -6.3197
# 2 53.9549 210.8369 50.8393 4.5643 -1.2835 -11.5745
# 3 30.0549 50.8393 65.4683 -6.5800 -1.5251 0.1698
# 4 1.3885 4.5643 -6.5800 45.0045 -6.3093 1.5646
# 5 2.1622 -1.2835 -1.5251 -6.3093 31.4002 4.7184
# 6 -6.3197 -11.5745 0.1698 1.5646 4.7184 29.6618
#
#
#
# Elastic Compliance Matrix: (Units=1/GPa)
#
#
# Indices 1 2 3 4 5 6 
#
# 1 0.033555 -0.005417 -0.011627 -0.003040 -0.004609 0.005996
# 2 -0.005417 0.006973 -0.003035 -0.001032 0.000058 0.001630
# 3 -0.011627 -0.003035 0.023539 0.004754 0.003466 -0.004598
# 4 -0.003040 -0.001032 0.004754 0.024028 0.005715 -0.003254
# 5 -0.004609 0.000058 0.003466 0.005715 0.034500 -0.006768
# 6 0.005996 0.001630 -0.004598 -0.003254 -0.006768 0.036901
#
#
# Mechanical properties :
#
#
# Convention : Reuss Voigt Hill
#
# Bulk Modulus (GPa) = 41.82118 66.27559 54.04838
# Shear Modulus (GPa) = 24.08200 34.00885 29.04542
#
# Velocity S-wave (km/s) = 3.25302 3.86577 3.57256
# Velocity P-wave (km/s) = 5.69970 7.00346 6.38495
#
# Compressibility (1/GPa) = 0.02391133
#
# Stress axis : x y z
#
# Youngs Moduli (GPa) = 29.80164 143.40724 42.48214
#
# Poissons Ratio (x) = 0.77678 0.49392
# Poissons Ratio (y) = 0.16142 0.12893
# Poissons Ratio (z) = 0.34649 0.43524
#
# Static dielectric constant tensor:
#      x y z
#    x 1.900270 -0.007090 0.028610 
#    y -0.007090 1.888480 -0.016610 
#    z 0.028610 -0.016610 1.852720 
# 
# From -- ./inp_files/535383.got.cif
#   From: 2010.05.17/outbox.cif.g08.bks.cpg/sg2_268_cif.got.tgz:535383.got - 2010.06.03 11:33:40.
