data_PCOD9097568
_publ_section_title
;
Structure prediction by ZEFSAII (Michael W. Deem and Ramdas Pophale) SiO2 
 PCOD9097568
Probable space group: P -1
;
_chemical_formula_sum "Si O2"
_cell_formula_units_Z 16
_cell_length_a 11.746047
_cell_length_b 8.310411
_cell_length_c 9.345307
_cell_angle_alpha 80.264812
_cell_angle_beta 130.669046
_cell_angle_gamma 81.823243
_cell_volume 641.902704
_symmetry_space_group_name_H-M "P -1"
_symmetry_group_IT_number 2
_symmetry_cell_setting 'triclinic'
loop_
_space_group_symop_operation_xyz
x,y,z
-x,-y,-z
loop_
_atom_site_type_symbol
_atom_site_label
_atom_site_fract_x
_atom_site_fract_y
_atom_site_fract_z
Si Si1 0.275525 0.881102 0.238211
Si Si2 0.528483 0.944987 0.253808
Si Si3 0.998399 0.101455 0.630512
Si Si4 0.003257 0.181531 0.092118
Si Si5 0.698368 0.769046 0.128547
Si Si6 0.715586 0.456604 0.365299
Si Si7 0.525911 0.609440 0.643397
Si Si8 0.778136 0.657305 0.662535
O O1 0.387823 0.873407 0.196539
O O2 0.395551 0.798596 0.476963
O O3 0.153669 0.073681 0.134414
O O4 0.158922 0.771093 0.135041
O O5 0.609641 0.866303 0.184029
O O6 0.667079 0.853413 0.494005
O O7 0.428653 0.147233 0.114489
O O8 0.834650 0.262293 0.477296
O O9 0.141957 0.179671 0.756627
O O10 0.007283 0.959108 0.779740
O O11 0.000000 0.000000 0.500000
O O12 0.047148 0.336356 0.172686
O O13 0.728668 0.569862 0.221954
O O14 0.536745 0.462870 0.258609
O O15 0.768857 0.540710 0.536941
O O16 0.500000 0.500000 0.500000
O O17 0.698306 0.617849 0.747513
#
# Coordination Sequence:
#
# PCOD9097568 Si02
#       8
#     2   2   2   2   2   2   2   2
#     4  10  20  38  64  91 126 163 202 264 316 359
#     4   9  18  36  61  91 119 166 207 255 305 365
#     4  12  23  38  61  93 128 165 212 256 307 376
#     4  11  22  38  62  97 121 158 215 259 309 367
#     4  10  20  36  61  88 121 173 211 243 307 375
#     4  10  20  39  60  89 127 171 205 254 313 365
#     4   9  18  36  63  91 123 165 197 253 321 366
#     4   9  20  38  65  95 120 160 211 258 313 371
#
# _framework density 24.925894
#
# number of rings (size 3 to 8) (size 9 to 14) (size 15 to 20)
#    0.000    2.000    2.500    2.625    0.000    2.000 
#    2.250    2.500    0.000   13.500    3.250    0.000 
#    0.000    0.000    0.000    0.000    0.000    0.000 
#
# Total GULP energy -89421.517513 kJ/mol
# GULP energy per Si atom -5588.844845 kJ/mol
# Density = 2.486916 g / cm^3
# Si number density = 24.925894 Si / 1000 Ang^3
#
#
#
# Elastic Constant Matrix: (Units=GPa)
#
#
# Indices 1 2 3 4 5 6 
#
# 1 118.1182 28.5507 26.4369 -3.9516 7.8603 15.9970
# 2 28.5507 93.7162 30.0166 -8.6234 -8.4278 2.6918
# 3 26.4369 30.0166 89.7615 -5.1487 8.5178 8.5049
# 4 -3.9516 -8.6234 -5.1487 44.3936 6.9145 2.4598
# 5 7.8603 -8.4278 8.5178 6.9145 18.5591 -2.1200
# 6 15.9970 2.6918 8.5049 2.4598 -2.1200 40.4669
#
#
#
# Elastic Compliance Matrix: (Units=1/GPa)
#
#
# Indices 1 2 3 4 5 6 
#
# 1 0.010500 -0.003240 -0.000913 0.001445 -0.006515 -0.004173
# 2 -0.003240 0.014103 -0.004895 0.000195 0.010166 0.001892
# 3 -0.000913 -0.004895 0.014374 0.002300 -0.009631 -0.002979
# 4 0.001445 0.000195 0.002300 0.024881 -0.011211 -0.003168
# 5 -0.006515 0.010166 -0.009631 -0.011211 0.070804 0.008314
# 6 -0.004173 0.001892 -0.002979 -0.003168 0.008314 0.027489
#
#
# Mechanical properties :
#
#
# Convention : Reuss Voigt Hill
#
# Bulk Modulus (GPa) = 47.88465 52.40050 50.14258
# Shear Modulus (GPa) = 26.70827 35.12335 30.91581
#
# Velocity S-wave (km/s) = 3.27694 3.75788 3.52562
# Velocity P-wave (km/s) = 5.79399 6.31641 6.06083
#
# Compressibility (1/GPa) = 0.02088352
#
# Stress axis : x y z
#
# Youngs Moduli (GPa) = 95.23402 70.90649 69.56813
#
# Poissons Ratio (x) = 0.22971 0.06350
# Poissons Ratio (y) = 0.30852 0.34052
# Poissons Ratio (z) = 0.08693 0.34707
#
# Static dielectric constant tensor:
#      x y z
#    x 1.949720 0.020390 -0.033850 
#    y 0.020390 2.054570 0.006690 
#    z -0.033850 0.006690 2.012610 
# 
# From -- ./inp_files/414765.got.cif
#   From: 2010.05.17/outbox.cif.g08.bks.cpg/sg2_208_cif.got.tgz:414765.got - 2010.06.03 11:33:40.
