data_PCOD9097466
_publ_section_title
;
Structure prediction by ZEFSAII (Michael W. Deem and Ramdas Pophale) SiO2 
 PCOD9097466
Probable space group: P -1
;
_chemical_formula_sum "Si O2"
_cell_formula_units_Z 14
_cell_length_a 16.487756
_cell_length_b 5.481239
_cell_length_c 6.218115
_cell_angle_alpha 74.825686
_cell_angle_beta 83.127614
_cell_angle_gamma 107.604943
_cell_volume 504.738334
_symmetry_space_group_name_H-M "P -1"
_symmetry_group_IT_number 2
_symmetry_cell_setting 'triclinic'
loop_
_space_group_symop_operation_xyz
x,y,z
-x,-y,-z
loop_
_atom_site_type_symbol
_atom_site_label
_atom_site_fract_x
_atom_site_fract_y
_atom_site_fract_z
Si Si1 0.149752 0.149631 0.845054
Si Si2 0.583872 0.645008 0.127761
Si Si3 0.291776 0.067485 0.596292
Si Si4 0.857321 0.433165 0.575486
Si Si5 0.259861 0.427770 0.142732
Si Si6 0.979691 0.281436 0.253024
Si Si7 0.442192 0.094917 0.328470
O O1 0.204844 0.968147 0.784508
O O2 0.173129 0.426356 0.644649
O O3 0.055163 0.989023 0.814099
O O4 0.184497 0.240261 0.049805
O O5 0.635355 0.765409 0.297839
O O6 0.490158 0.422852 0.257248
O O7 0.647974 0.505968 0.024753
O O8 0.571684 0.884788 0.930153
O O9 0.271321 0.243902 0.375205
O O10 0.345594 0.919102 0.483961
O O11 0.776182 0.354607 0.785649
O O12 0.907892 0.268820 0.465873
O O13 0.933398 0.636120 0.652258
O O14 0.000000 0.500000 0.000000
O O15 0.500000 0.000000 0.500000
#
# Coordination Sequence:
#
# PCOD9097466 Si02
#       7
#     2   2   2   2   2   2   2
#     4  10  21  41  64  84 125 167 207 258 320 375
#     4   9  19  38  64  86 127 171 207 255 318 377
#     4   9  19  38  60  86 120 164 207 250 316 371
#     4  10  22  40  62  89 123 161 211 255 326 372
#     4   9  19  38  65  88 116 171 211 249 316 380
#     4  11  24  39  60  94 123 159 211 265 312 384
#     4  10  20  36  60  94 126 161 213 260 311 375
#
# _framework density 27.737141000000001
#
# number of rings (size 3 to 8) (size 9 to 14) (size 15 to 20)
#    0.000    2.286    0.000    1.714    0.000    7.429 
#   10.286    0.000    3.143    0.000    0.000    0.000 
#    0.000    0.000    0.000    0.000    0.000    0.000 
#
# Total GULP energy -77948.560006 kJ/mol
# GULP energy per Si atom -5567.754286 kJ/mol
# Density = 2.767401 g / cm^3
# Si number density = 27.737141 Si / 1000 Ang^3
#
#
#
# Elastic Constant Matrix: (Units=GPa)
#
#
# Indices 1 2 3 4 5 6 
#
# 1 118.0042 43.5040 67.7046 43.2181 9.5872 -13.8579
# 2 43.5040 45.4489 48.7170 18.3206 4.1525 19.3885
# 3 67.7046 48.7170 201.9582 2.6025 51.0398 -5.2307
# 4 43.2181 18.3206 2.6025 54.1131 -5.4982 22.6725
# 5 9.5872 4.1525 51.0398 -5.4982 78.9399 27.9963
# 6 -13.8579 19.3885 -5.2307 22.6725 27.9963 42.6338
#
#
#
# Elastic Compliance Matrix: (Units=1/GPa)
#
#
# Indices 1 2 3 4 5 6 
#
# 1 -0.008709 0.028417 -0.010847 0.017252 0.022279 -0.040889
# 2 0.028417 -0.010676 0.002073 -0.045772 -0.027556 0.056783
# 3 -0.010847 0.002073 0.007357 0.012270 0.001154 -0.010849
# 4 0.017252 -0.045772 0.012270 -0.001078 -0.023210 0.043743
# 5 0.022279 -0.027556 0.001154 -0.023210 -0.003117 0.034305
# 6 -0.040889 0.056783 -0.010849 0.043743 0.034305 -0.062779
#
#
# Mechanical properties :
#
#
# Convention : Reuss Voigt Hill
#
# Bulk Modulus (GPa) = 36.68539 76.14028 56.41284
# Shear Modulus (GPa) = -45.78705 48.83641 1.52468
#
# Velocity S-wave (km/s) = -4.06735 4.20061 0.74221
# Velocity P-wave (km/s) = 2.96698 7.14402 4.59533
#
# Compressibility (1/GPa) = 0.02725881
#
# Stress axis : x y z
#
# Youngs Moduli (GPa) = -114.82493 -93.67194 135.92297
#
# Poissons Ratio (x) = 2.66186 1.47437
# Poissons Ratio (y) = 3.26296 -0.28182
# Poissons Ratio (z) = -1.24552 0.19422
#
# Static dielectric constant tensor:
#      x y z
#    x 2.242250 -0.060970 -0.111850 
#    y -0.060970 2.234720 0.010990 
#    z -0.111850 0.010990 2.168750 
# 
# From -- ./inp_files/12704.got.cif
#   From: 2010.05.17/outbox.cif.g08.bks.cpg/sg2_7_cif.got.tgz:12704.got - 2010.06.03 11:33:40.
