data_PCOD9097044
_publ_section_title
;
Structure prediction by ZEFSAII (Michael W. Deem and Ramdas Pophale) SiO2 
 PCOD9097044
Probable space group: P -1
;
_chemical_formula_sum "Si O2"
_cell_formula_units_Z 16
_cell_length_a 14.549148
_cell_length_b 10.297864
_cell_length_c 12.126375
_cell_angle_alpha 89.068109
_cell_angle_beta 143.211758
_cell_angle_gamma 117.140625
_cell_volume 731.611495
_symmetry_space_group_name_H-M "P -1"
_symmetry_group_IT_number 2
_symmetry_cell_setting 'triclinic'
loop_
_space_group_symop_operation_xyz
x,y,z
-x,-y,-z
loop_
_atom_site_type_symbol
_atom_site_label
_atom_site_fract_x
_atom_site_fract_y
_atom_site_fract_z
Si Si1 0.699374 0.382708 0.319002
Si Si2 0.193039 0.563772 0.818545
Si Si3 0.155888 0.322211 0.376413
Si Si4 0.731022 0.407087 0.686458
Si Si5 0.366284 0.915476 0.487615
Si Si6 0.240144 0.217055 0.255796
Si Si7 0.340010 0.934193 0.023365
Si Si8 0.137739 0.381438 0.989944
O O1 0.734683 0.454538 0.227106
O O2 0.686863 0.496615 0.390574
O O3 0.928109 0.441878 0.562892
O O4 0.496565 0.151116 0.131135
O O5 0.222168 0.483891 0.950789
O O6 0.315899 0.782692 0.937909
O O7 0.122124 0.393698 0.237470
O O8 0.240457 0.252350 0.387307
O O9 0.910280 0.160890 0.198794
O O10 0.725337 0.287847 0.597544
O O11 0.463622 0.272924 0.446536
O O12 0.832892 0.472392 0.905516
O O13 0.123982 0.835113 0.264857
O O14 0.500000 0.000000 0.500000
O O15 0.544259 0.043116 0.752929
O O16 0.262971 0.349876 0.185581
O O17 0.000000 0.000000 0.000000
#
# Coordination Sequence:
#
# PCOD9097044 Si02
#       8
#     2   2   2   2   2   2   2   2
#     4  10  20  37  58  85 125 158 200 246 300 357
#     4  10  21  36  57  87 122 164 195 246 304 350
#     4  10  20  36  59  85 112 157 203 241 295 354
#     4  11  21  39  57  84 122 158 194 240 302 365
#     4  12  20  31  56  91 124 149 191 248 300 354
#     4  11  24  40  63  88 119 165 201 243 304 368
#     4  11  19  34  55  90 122 157 197 242 299 359
#     4  11  21  37  57  89 125 154 197 253 297 354
#
# _framework density 21.869530000000001
#
# number of rings (size 3 to 8) (size 9 to 14) (size 15 to 20)
#    0.000    1.250    2.500    6.750    0.000    1.000 
#    0.000    0.000    0.000    3.750    0.000    0.000 
#    0.000    0.000    0.000    0.000    0.000    0.000 
#
# Total GULP energy -89134.824021 kJ/mol
# GULP energy per Si atom -5570.926501 kJ/mol
# Density = 2.181975 g / cm^3
# Si number density = 21.869530 Si / 1000 Ang^3
#
#
#
# Elastic Constant Matrix: (Units=GPa)
#
#
# Indices 1 2 3 4 5 6 
#
# 1 109.8912 34.9927 25.0575 -4.0778 -24.0947 16.8772
# 2 34.9927 64.5614 21.8299 16.6770 -11.6416 18.4287
# 3 25.0575 21.8299 68.6316 21.7951 -3.1618 4.4756
# 4 -4.0778 16.6770 21.7951 37.1165 7.8141 -1.2742
# 5 -24.0947 -11.6416 -3.1618 7.8141 27.1824 -8.9497
# 6 16.8772 18.4287 4.4756 -1.2742 -8.9497 34.0509
#
#
#
# Elastic Compliance Matrix: (Units=1/GPa)
#
#
# Indices 1 2 3 4 5 6 
#
# 1 0.013949 -0.005686 -0.004479 0.005081 0.007599 -0.001061
# 2 -0.005686 0.026613 -0.001041 -0.013762 0.006847 -0.010164
# 3 -0.004479 -0.001041 0.020550 -0.012418 0.001553 0.000025
# 4 0.005081 -0.013762 -0.012418 0.044082 -0.014016 0.004527
# 5 0.007599 0.006847 0.001553 -0.014016 0.052510 0.005601
# 6 -0.001061 -0.010164 0.000025 0.004527 0.005601 0.037033
#
#
# Mechanical properties :
#
#
# Convention : Reuss Voigt Hill
#
# Bulk Modulus (GPa) = 25.83812 45.20491 35.52152
# Shear Modulus (GPa) = 21.73457 30.41689 26.07573
#
# Velocity S-wave (km/s) = 3.15592 3.73344 3.45676
# Velocity P-wave (km/s) = 5.01200 6.26896 5.67539
#
# Compressibility (1/GPa) = 0.03870250
#
# Stress axis : x y z
#
# Youngs Moduli (GPa) = 71.68870 37.57511 48.66170
#
# Poissons Ratio (x) = 0.21364 0.21794
# Poissons Ratio (y) = 0.40760 0.05064
# Poissons Ratio (z) = 0.32107 0.03910
#
# Static dielectric constant tensor:
#      x y z
#    x 1.875400 -0.081630 0.034010 
#    y -0.081630 1.975180 0.001430 
#    z 0.034010 0.001430 1.855150 
# 
# From -- ./inp_files/452420.got.cif
#   From: 2010.05.17/outbox.cif.g08.bks.cpg/sg2_227_cif.got.tgz:452420.got - 2010.06.03 11:33:40.
