data_PCOD9097841
_publ_section_title
;
Structure prediction by ZEFSAII (Michael W. Deem and Ramdas Pophale) SiO2 
 PCOD9097841
Probable space group: P -1
;
_chemical_formula_sum "Si O2"
_cell_formula_units_Z 16
_cell_length_a 19.300253
_cell_length_b 17.925961
_cell_length_c 9.080714
_cell_angle_alpha 144.621127
_cell_angle_beta 43.735077
_cell_angle_gamma 158.726742
_cell_volume 649.504292
_symmetry_space_group_name_H-M "P -1"
_symmetry_group_IT_number 2
_symmetry_cell_setting 'triclinic'
loop_
_space_group_symop_operation_xyz
x,y,z
-x,-y,-z
loop_
_atom_site_type_symbol
_atom_site_label
_atom_site_fract_x
_atom_site_fract_y
_atom_site_fract_z
Si Si1 0.332451 0.231303 0.749302
Si Si2 0.229210 0.723990 0.002219
Si Si3 0.971075 0.928981 0.662192
Si Si4 0.325125 0.549096 0.474976
Si Si5 0.176388 0.713686 0.746661
Si Si6 0.975603 0.765714 0.099316
Si Si7 0.374415 0.697405 0.302375
Si Si8 0.221647 0.878663 0.538152
O O1 0.189074 0.157559 0.755054
O O2 0.463536 0.274100 0.526729
O O3 0.205850 0.000473 0.680492
O O4 0.500000 0.500000 0.000000
O O5 0.274847 0.624259 0.759365
O O6 0.278758 0.832829 0.940847
O O7 0.303278 0.871603 0.273756
O O8 0.000000 0.500000 0.000000
O O9 0.928670 0.022724 0.814106
O O10 0.828018 0.726582 0.684028
O O11 0.958906 0.813486 0.360915
O O12 0.319156 0.575658 0.352530
O O13 0.319887 0.788000 0.546321
O O14 0.981581 0.406788 0.560396
O O15 0.094193 0.763547 0.917553
O O16 0.762669 0.505735 0.941783
O O17 0.600890 0.915353 0.290508
#
# Coordination Sequence:
#
# PCOD9097841 Si02
#       8
#     2   2   2   2   2   2   2   2
#     4  11  23  39  63  96 123 153 208 258 297 359
#     4   9  17  34  62  92 117 147 199 254 301 354
#     4  11  23  43  63  83 124 167 196 250 304 349
#     4  10  22  40  67  94 116 156 211 254 303 358
#     4  10  20  37  59  86 121 159 198 242 303 368
#     4  11  24  41  59  86 125 164 201 239 298 371
#     4  10  22  38  59  92 119 148 203 254 297 363
#     4  10  20  36  62  90 120 155 193 257 315 340
#
# _framework density 24.634170000000001
#
# number of rings (size 3 to 8) (size 9 to 14) (size 15 to 20)
#    0.000    1.750    0.000    6.375    0.000    9.000 
#    0.000    5.000    0.000    0.000    0.000    0.000 
#    0.000    0.000    0.000    0.000    0.000    0.000 
#
# Total GULP energy -89578.385135 kJ/mol
# GULP energy per Si atom -5598.649071 kJ/mol
# Density = 2.457810 g / cm^3
# Si number density = 24.634170 Si / 1000 Ang^3
#
#
#
# Elastic Constant Matrix: (Units=GPa)
#
#
# Indices 1 2 3 4 5 6 
#
# 1 100.9942 22.5812 23.9414 14.6339 -32.5243 -2.1846
# 2 22.5812 85.5586 5.9419 1.8365 -12.0302 11.2191
# 3 23.9414 5.9419 97.6071 7.5845 -7.7444 0.1257
# 4 14.6339 1.8365 7.5845 23.5616 7.7566 1.2793
# 5 -32.5243 -12.0302 -7.7444 7.7566 59.7905 -0.4419
# 6 -2.1846 11.2191 0.1257 1.2793 -0.4419 28.3332
#
#
#
# Elastic Compliance Matrix: (Units=1/GPa)
#
#
# Indices 1 2 3 4 5 6 
#
# 1 0.015904 -0.002871 -0.002029 -0.012271 0.009426 0.003073
# 2 -0.002871 0.013292 -0.000080 0.000754 0.000964 -0.005503
# 3 -0.002029 -0.000080 0.010990 -0.002474 0.000624 -0.000052
# 4 -0.012271 0.000754 -0.002474 0.055656 -0.014093 -0.003967
# 5 0.009426 0.000964 0.000624 -0.014093 0.023965 0.001352
# 6 0.003073 -0.005503 -0.000052 -0.003967 0.001352 0.037911
#
#
# Mechanical properties :
#
#
# Convention : Reuss Voigt Hill
#
# Bulk Modulus (GPa) = 33.08374 43.23211 38.15793
# Shear Modulus (GPa) = 28.12887 37.78343 32.95615
#
# Velocity S-wave (km/s) = 3.38281 3.92060 3.66159
# Velocity P-wave (km/s) = 5.35883 6.17111 5.77926
#
# Compressibility (1/GPa) = 0.03022633
#
# Stress axis : x y z
#
# Youngs Moduli (GPa) = 62.87545 75.23238 90.99586
#
# Poissons Ratio (x) = 0.21599 0.18462
# Poissons Ratio (y) = 0.18051 0.00728
# Poissons Ratio (z) = 0.12757 0.00602
#
# Static dielectric constant tensor:
#      x y z
#    x 1.992380 -0.063050 0.005650 
#    y -0.063050 1.970920 0.006290 
#    z 0.005650 0.006290 2.000610 
# 
# From -- ./inp_files/472768.got.cif
#   From: 2010.05.17/outbox.cif.g08.bks.cpg/sg2_237_cif.got.tgz:472768.got - 2010.06.03 11:33:40.
