data_PCOD9097498
_publ_section_title
;
Structure prediction by ZEFSAII (Michael W. Deem and Ramdas Pophale) SiO2 
 PCOD9097498
Probable space group: P -1
;
_chemical_formula_sum "Si O2"
_cell_formula_units_Z 14
_cell_length_a 13.367677
_cell_length_b 5.273394
_cell_length_c 10.716208
_cell_angle_alpha 66.087933
_cell_angle_beta 75.480341
_cell_angle_gamma 75.447299
_cell_volume 658.896015
_symmetry_space_group_name_H-M "P -1"
_symmetry_group_IT_number 2
_symmetry_cell_setting 'triclinic'
loop_
_space_group_symop_operation_xyz
x,y,z
-x,-y,-z
loop_
_atom_site_type_symbol
_atom_site_label
_atom_site_fract_x
_atom_site_fract_y
_atom_site_fract_z
Si Si1 0.723862 0.295380 0.046641
Si Si2 0.476836 0.969908 0.867546
Si Si3 0.177459 0.777480 0.224338
Si Si4 0.290500 0.213570 0.213384
Si Si5 0.740990 0.030150 0.360518
Si Si6 0.974170 0.831026 0.419621
Si Si7 0.606041 0.579644 0.395262
O O1 0.758558 0.170167 0.193122
O O2 0.605958 0.239317 0.076639
O O3 0.794682 0.147630 0.940617
O O4 0.722817 0.621179 0.949102
O O5 0.425630 0.258978 0.758287
O O6 0.586112 0.853235 0.786988
O O7 0.500000 0.000000 0.000000
O O8 0.223161 0.442355 0.279003
O O9 0.057234 0.872831 0.277337
O O10 0.244164 0.932280 0.267669
O O11 0.682727 0.287115 0.409165
O O12 0.665731 0.796847 0.409367
O O13 0.854348 0.912978 0.401988
O O14 0.000000 0.500000 0.500000
O O15 0.000000 0.000000 0.500000
O O16 0.500000 0.500000 0.500000
#
# Coordination Sequence:
#
# PCOD9097498 Si02
#       7
#     2   2   2   2   2   2   2
#     4   9  22  38  65  97 135 161 222 261 347 385
#     4  11  19  38  65  98 138 176 214 271 332 388
#     4  10  23  39  64  96 127 164 226 269 324 385
#     4  10  20  36  61 101 133 165 211 270 325 388
#     4  11  25  46  70  93 135 177 214 282 334 392
#     4  12  27  49  69  93 128 177 231 275 335 397
#     4  11  26  44  67 101 137 179 225 262 335 413
#
# _framework density 21.247661000000001
#
# number of rings (size 3 to 8) (size 9 to 14) (size 15 to 20)
#    0.857    0.571    1.429    3.429    2.000    7.429 
#    0.000    0.714    0.000    0.000    0.000    0.000 
#    0.000    0.000    0.000    0.000    0.000    0.000 
#
# Total GULP energy -78213.322221 kJ/mol
# GULP energy per Si atom -5586.665873 kJ/mol
# Density = 2.119930 g / cm^3
# Si number density = 21.247661 Si / 1000 Ang^3
#
#
#
# Elastic Constant Matrix: (Units=GPa)
#
#
# Indices 1 2 3 4 5 6 
#
# 1 119.6339 36.8382 36.7527 -4.0020 4.0982 -23.5397
# 2 36.8382 125.3992 9.9413 -3.2313 1.4732 -11.3424
# 3 36.7527 9.9413 51.0650 4.4033 -3.1312 -4.8490
# 4 -4.0020 -3.2313 4.4033 14.5516 -6.7583 -3.1715
# 5 4.0982 1.4732 -3.1312 -6.7583 38.8798 3.9860
# 6 -23.5397 -11.3424 -4.8490 -3.1715 3.9860 39.6223
#
#
#
# Elastic Compliance Matrix: (Units=1/GPa)
#
#
# Indices 1 2 3 4 5 6 
#
# 1 0.013644 -0.002440 -0.009370 0.006807 -0.001632 0.006969
# 2 -0.002440 0.008839 0.000018 0.001583 0.000076 0.001202
# 3 -0.009370 0.000018 0.027036 -0.010706 0.001639 -0.003275
# 4 0.006807 0.001583 -0.010706 0.081452 0.011644 0.008535
# 5 -0.001632 0.000076 0.001639 0.011644 0.028318 -0.002664
# 6 0.006969 0.001202 -0.003275 0.008535 -0.002664 0.030273
#
#
# Mechanical properties :
#
#
# Convention : Reuss Voigt Hill
#
# Bulk Modulus (GPa) = 38.55993 51.46251 45.01122
# Shear Modulus (GPa) = 22.54375 32.78180 27.66278
#
# Velocity S-wave (km/s) = 3.26083 3.93216 3.61213
# Velocity P-wave (km/s) = 5.68899 6.69991 6.21504
#
# Compressibility (1/GPa) = 0.02593366
#
# Stress axis : x y z
#
# Youngs Moduli (GPa) = 73.29388 113.14020 36.98798
#
# Poissons Ratio (x) = 0.27610 0.34657
# Poissons Ratio (y) = 0.17886 -0.00066
# Poissons Ratio (z) = 0.68675 -0.00202
#
# Static dielectric constant tensor:
#      x y z
#    x 1.743380 -0.000380 -0.032410 
#    y -0.000380 1.769940 0.009540 
#    z -0.032410 0.009540 1.829590 
# 
# From -- ./inp_files/409821.got.cif
#   From: 2010.05.17/outbox.cif.g08.bks.cpg/sg2_205_cif.got.tgz:409821.got - 2010.06.03 11:33:40.
