data_PCOD9097639
_publ_section_title
;
Structure prediction by ZEFSAII (Michael W. Deem and Ramdas Pophale) SiO2 
 PCOD9097639
Probable space group: P -1
;
_chemical_formula_sum "Si O2"
_cell_formula_units_Z 14
_cell_length_a 6.604315
_cell_length_b 5.896571
_cell_length_c 20.959381
_cell_angle_alpha 66.110302
_cell_angle_beta 55.667855
_cell_angle_gamma 72.881477
_cell_volume 613.917093
_symmetry_space_group_name_H-M "P -1"
_symmetry_group_IT_number 2
_symmetry_cell_setting 'triclinic'
loop_
_space_group_symop_operation_xyz
x,y,z
-x,-y,-z
loop_
_atom_site_type_symbol
_atom_site_label
_atom_site_fract_x
_atom_site_fract_y
_atom_site_fract_z
Si Si1 0.683069 0.691764 0.751705
Si Si2 0.074045 0.391814 0.407794
Si Si3 0.860330 0.481347 0.961696
Si Si4 0.683170 0.667351 0.177484
Si Si5 0.382405 0.903593 0.466872
Si Si6 0.560811 0.237725 0.659470
Si Si7 0.406669 0.168860 0.113144
O O1 0.857903 0.551757 0.684295
O O2 0.421834 0.580538 0.803050
O O3 0.735767 0.702564 0.815263
O O4 0.660030 0.971485 0.699215
O O5 0.197008 0.605827 0.401310
O O6 0.797662 0.313838 0.464673
O O7 0.226266 0.145169 0.437608
O O8 0.775679 0.761936 0.920668
O O9 0.039115 0.337984 0.894498
O O10 0.635302 0.320918 0.036003
O O11 0.000000 0.500000 0.000000
O O12 0.631344 0.662353 0.263246
O O13 0.516032 0.896653 0.147491
O O14 0.542215 0.801636 0.388740
O O15 0.500000 0.000000 0.500000
#
# Coordination Sequence:
#
# PCOD9097639 Si02
#       7
#     2   2   2   2   2   2   2
#     4   9  18  39  60  86 123 162 213 263 306 379
#     4   9  19  37  61  84 126 168 204 261 321 371
#     4  11  22  40  64  91 126 165 211 267 319 380
#     4  10  20  40  65  88 129 170 210 267 320 375
#     4  10  20  36  61  91 124 161 214 262 311 383
#     4   9  19  37  64  86 125 174 208 257 326 375
#     4  10  22  40  62  90 125 165 215 258 324 384
#
# _framework density 22.804382
#
# number of rings (size 3 to 8) (size 9 to 14) (size 15 to 20)
#    0.000    2.286    1.429    0.857    0.000    1.143 
#   10.286    0.000   12.571    0.000    0.000    0.000 
#    0.000    0.000    0.000    0.000    0.000    0.000 
#
# Total GULP energy -78038.149841 kJ/mol
# GULP energy per Si atom -5574.153560 kJ/mol
# Density = 2.275248 g / cm^3
# Si number density = 22.804382 Si / 1000 Ang^3
#
#
#
# Elastic Constant Matrix: (Units=GPa)
#
#
# Indices 1 2 3 4 5 6 
#
# 1 85.3884 32.1245 58.7240 4.2106 30.5602 1.2689
# 2 32.1245 74.2931 29.0618 -13.5798 9.6365 11.4778
# 3 58.7240 29.0618 132.3635 3.6085 15.1613 12.7529
# 4 4.2106 -13.5798 3.6085 32.1606 4.6328 -0.1273
# 5 30.5602 9.6365 15.1613 4.6328 18.3473 -0.3174
# 6 1.2689 11.4778 12.7529 -0.1273 -0.3174 31.5049
#
#
#
# Elastic Compliance Matrix: (Units=1/GPa)
#
#
# Indices 1 2 3 4 5 6 
#
# 1 0.043177 -0.007127 -0.011330 0.001129 -0.059013 0.004854
# 2 -0.007127 0.019565 -0.000730 0.009288 -0.000260 -0.006510
# 3 -0.011330 -0.000730 0.012078 -0.001579 0.009603 -0.004076
# 4 0.001129 0.009288 -0.001579 0.037179 -0.014890 -0.002790
# 5 -0.059013 -0.000260 0.009603 -0.014890 0.148761 0.000023
# 6 0.004854 -0.006510 -0.004076 -0.002790 0.000023 0.035556
#
#
# Mechanical properties :
#
#
# Convention : Reuss Voigt Hill
#
# Bulk Modulus (GPa) = 27.43781 59.09618 43.26699
# Shear Modulus (GPa) = 14.41598 27.87821 21.14709
#
# Velocity S-wave (km/s) = 2.51700 3.50021 3.04851
# Velocity P-wave (km/s) = 4.52825 6.50430 5.60406
#
# Compressibility (1/GPa) = 0.03644606
#
# Stress axis : x y z
#
# Youngs Moduli (GPa) = 23.16038 51.11286 82.79724
#
# Poissons Ratio (x) = 0.36427 0.93809
# Poissons Ratio (y) = 0.16506 0.06044
# Poissons Ratio (z) = 0.26241 0.03731
#
# Static dielectric constant tensor:
#      x y z
#    x 1.862580 0.004560 0.004950 
#    y 0.004560 1.893500 0.069010 
#    z 0.004950 0.069010 1.899920 
# 
# From -- ./inp_files/11701.got.cif
#   From: 2010.05.17/outbox.cif.g08.bks.cpg/sg2_6_cif.got.tgz:11701.got - 2010.06.03 11:33:40.
