data_PCOD9097779
_publ_section_title
;
Structure prediction by ZEFSAII (Michael W. Deem and Ramdas Pophale) SiO2 
 PCOD9097779
Probable space group: P -1
;
_chemical_formula_sum "Si O2"
_cell_formula_units_Z 16
_cell_length_a 21.152760
_cell_length_b 14.796373
_cell_length_c 8.358253
_cell_angle_alpha 89.808747
_cell_angle_beta 100.348498
_cell_angle_gamma 18.243428
_cell_volume 664.816951
_symmetry_space_group_name_H-M "P -1"
_symmetry_group_IT_number 2
_symmetry_cell_setting 'triclinic'
loop_
_space_group_symop_operation_xyz
x,y,z
-x,-y,-z
loop_
_atom_site_type_symbol
_atom_site_label
_atom_site_fract_x
_atom_site_fract_y
_atom_site_fract_z
Si Si1 0.882844 0.710015 0.711251
Si Si2 0.550478 0.035846 0.989342
Si Si3 0.840418 0.400358 0.948238
Si Si4 0.378195 0.471716 0.312776
Si Si5 0.339764 0.167797 0.295076
Si Si6 0.767273 0.007285 0.918741
Si Si7 0.676102 0.319354 0.462562
Si Si8 0.636719 0.243202 0.181556
O O1 0.818005 0.693583 0.688120
O O2 0.871536 0.777995 0.876564
O O3 0.177055 0.316401 0.808244
O O4 0.656143 0.065349 0.507454
O O5 0.328291 0.388565 0.975282
O O6 0.542279 0.052411 0.793972
O O7 0.500000 0.000000 0.000000
O O8 0.779023 0.403455 0.801143
O O9 0.767914 0.597351 0.842663
O O10 0.121876 0.049023 0.103482
O O11 0.222256 0.744560 0.366169
O O12 0.445939 0.438003 0.187117
O O13 0.500000 0.000000 0.500000
O O14 0.482672 0.401329 0.731149
O O15 0.787664 0.981537 0.119638
O O16 0.500000 0.500000 0.500000
O O17 0.786101 0.095664 0.389361
O O18 0.500000 0.500000 0.000000
#
# Coordination Sequence:
#
# PCOD9097779 Si02
#       8
#     2   2   2   2   2   2   2   2
#     4  11  21  38  61  86 120 181 200 244 305 339
#     4  10  22  40  57  82 128 167 208 245 295 351
#     4  11  23  40  54  91 126 163 204 253 293 349
#     4  10  21  37  62  91 121 154 210 245 299 378
#     4  11  22  40  57  84 129 163 206 256 290 346
#     4  10  20  36  62  87 118 156 211 246 299 370
#     4   8  17  38  62  84 114 148 193 251 314 370
#     4   9  19  39  64  90 112 150 198 254 313 371
#
# _framework density 24.066776000000001
#
# number of rings (size 3 to 8) (size 9 to 14) (size 15 to 20)
#    0.000    2.000    3.750    0.375    1.750    0.500 
#    4.500    6.250    0.000    0.000    0.000    0.000 
#    0.000    0.000    0.000    0.000    0.000    0.000 
#
# Total GULP energy -89100.348109 kJ/mol
# GULP energy per Si atom -5568.771757 kJ/mol
# Density = 2.401200 g / cm^3
# Si number density = 24.066776 Si / 1000 Ang^3
#
#
#
# Elastic Constant Matrix: (Units=GPa)
#
#
# Indices 1 2 3 4 5 6 
#
# 1 153.5077 23.7813 48.1759 5.0521 34.9583 4.9668
# 2 23.7813 55.8476 22.2330 17.2588 2.6010 6.5532
# 3 48.1759 22.2330 93.5636 10.1597 9.2472 1.9307
# 4 5.0521 17.2588 10.1597 26.4468 8.3555 10.2792
# 5 34.9583 2.6010 9.2472 8.3555 51.3820 1.4507
# 6 4.9668 6.5532 1.9307 10.2792 1.4507 32.9663
#
#
#
# Elastic Compliance Matrix: (Units=1/GPa)
#
#
# Indices 1 2 3 4 5 6 
#
# 1 0.009657 -0.003456 -0.003987 0.004616 -0.006380 -0.001693
# 2 -0.003456 0.025301 -0.002893 -0.016290 0.004224 0.000554
# 3 -0.003987 -0.002893 0.013682 -0.003443 0.000917 0.001408
# 4 0.004616 -0.016290 -0.003443 0.058055 -0.010716 -0.014886
# 5 -0.006380 0.004224 0.000917 -0.010716 0.025102 0.002305
# 6 -0.001693 0.000554 0.001408 -0.014886 0.002305 0.034937
#
#
# Mechanical properties :
#
#
# Convention : Reuss Voigt Hill
#
# Bulk Modulus (GPa) = 35.75282 54.58879 45.17081
# Shear Modulus (GPa) = 25.41582 36.07427 30.74504
#
# Velocity S-wave (km/s) = 3.25322 3.87579 3.57808
# Velocity P-wave (km/s) = 5.38509 6.53915 5.98998
#
# Compressibility (1/GPa) = 0.02796982
#
# Stress axis : x y z
#
# Youngs Moduli (GPa) = 103.55468 39.52344 73.08644
#
# Poissons Ratio (x) = 0.13657 0.29138
# Poissons Ratio (y) = 0.35784 0.21144
# Poissons Ratio (z) = 0.41285 0.11434
#
# Static dielectric constant tensor:
#      x y z
#    x 1.999410 -0.047220 0.025550 
#    y -0.047220 2.306030 -0.161400 
#    z 0.025550 -0.161400 2.110230 
# 
# From -- ./inp_files/347270.got.cif
#   From: 2010.05.17/outbox.cif.g08.bks.cpg/sg2_174_cif.got.tgz:347270.got - 2010.06.03 11:33:40.
