data_PCOD9097830
_publ_section_title
;
Structure prediction by ZEFSAII (Michael W. Deem and Ramdas Pophale) SiO2 
 PCOD9097830
Probable space group: P -1
;
_chemical_formula_sum "Si O2"
_cell_formula_units_Z 16
_cell_length_a 17.367126
_cell_length_b 22.342750
_cell_length_c 9.504374
_cell_angle_alpha 31.935153
_cell_angle_beta 29.920591
_cell_angle_gamma 29.082069
_cell_volume 828.465459
_symmetry_space_group_name_H-M "P -1"
_symmetry_group_IT_number 2
_symmetry_cell_setting 'triclinic'
loop_
_space_group_symop_operation_xyz
x,y,z
-x,-y,-z
loop_
_atom_site_type_symbol
_atom_site_label
_atom_site_fract_x
_atom_site_fract_y
_atom_site_fract_z
Si Si1 0.912781 0.427900 0.202766
Si Si2 0.120407 0.110010 0.188424
Si Si3 0.905596 0.876890 0.473592
Si Si4 0.498127 0.589378 0.630402
Si Si5 0.061287 0.391100 0.741056
Si Si6 0.719793 0.125672 0.094966
Si Si7 0.276152 0.854142 0.275302
Si Si8 0.429453 0.370146 0.250719
O O1 0.707483 0.490009 0.454958
O O2 0.037174 0.272309 0.351505
O O3 0.000000 0.500000 0.000000
O O4 0.921800 0.435696 0.003327
O O5 0.172155 0.085218 0.320842
O O6 0.920586 0.131601 0.446812
O O7 0.250488 0.980981 0.147687
O O8 0.103570 0.248859 0.901262
O O9 0.772127 0.984697 0.358566
O O10 0.095552 0.872266 0.185751
O O11 0.408318 0.715740 0.419167
O O12 0.490567 0.637257 0.706745
O O13 0.403048 0.503075 0.954580
O O14 0.243425 0.374369 0.550507
O O15 0.000000 0.500000 0.500000
O O16 0.566468 0.244775 0.190963
O O17 0.669481 0.142571 0.977587
#
# Coordination Sequence:
#
# PCOD9097830 Si02
#       8
#     2   2   2   2   2   2   2   2
#     4  11  22  42  60  89 122 162 201 238 304 360
#     4   9  20  41  59  88 121 159 201 238 308 356
#     4   9  19  38  61  85 118 158 198 244 294 357
#     4  11  23  40  63  90 123 159 203 245 294 364
#     4  11  24  40  62  90 125 160 195 252 305 354
#     4  10  20  36  62  90 115 152 204 250 292 348
#     4  10  21  38  64  90 118 160 200 250 296 355
#     4  11  23  40  60  93 120 158 205 245 299 354
#
# _framework density 19.312813999999999
#
# number of rings (size 3 to 8) (size 9 to 14) (size 15 to 20)
#    0.000    1.750    2.500    1.500    1.750    2.500 
#    2.250    2.500    0.000    0.000    0.000    0.000 
#    0.000    0.000    0.000    0.000    0.000    0.000 
#
# Total GULP energy -89368.307810 kJ/mol
# GULP energy per Si atom -5585.519238 kJ/mol
# Density = 1.926886 g / cm^3
# Si number density = 19.312814 Si / 1000 Ang^3
#
#
#
# Elastic Constant Matrix: (Units=GPa)
#
#
# Indices 1 2 3 4 5 6 
#
# 1 61.8439 53.4436 31.8535 -23.5378 23.7533 9.8780
# 2 53.4436 123.1279 49.3901 -17.0452 28.1853 29.0120
# 3 31.8535 49.3901 86.1325 -26.1779 19.0764 14.8459
# 4 -23.5378 -17.0452 -26.1779 43.9758 -5.2720 1.6941
# 5 23.7533 28.1853 19.0764 -5.2720 40.5056 -6.7927
# 6 9.8780 29.0120 14.8459 1.6941 -6.7927 22.9148
#
#
#
# Elastic Compliance Matrix: (Units=1/GPa)
#
#
# Indices 1 2 3 4 5 6 
#
# 1 0.036647 -0.006606 0.001975 0.016636 -0.018233 -0.015349
# 2 -0.006606 0.022792 -0.000318 0.004329 -0.016473 -0.031006
# 3 0.001975 -0.000318 0.020738 0.012530 -0.012160 -0.018414
# 4 0.016636 0.004329 0.012530 0.039699 -0.018391 -0.029157
# 5 -0.018233 -0.016473 -0.012160 -0.018391 0.059498 0.055591
# 6 -0.015349 -0.031006 -0.018414 -0.029157 0.055591 0.120078
#
#
# Mechanical properties :
#
#
# Convention : Reuss Voigt Hill
#
# Bulk Modulus (GPa) = 14.22910 60.05318 37.14114
# Shear Modulus (GPa) = 15.02508 30.57370 22.79939
#
# Velocity S-wave (km/s) = 2.79226 3.98311 3.43961
# Velocity P-wave (km/s) = 4.21656 7.23298 5.92011
#
# Compressibility (1/GPa) = 0.07027851
#
# Stress axis : x y z
#
# Youngs Moduli (GPa) = 27.28732 43.87426 48.22144
#
# Poissons Ratio (x) = 0.28981 -0.09522
# Poissons Ratio (y) = 0.18025 0.01536
# Poissons Ratio (z) = -0.05388 0.01397
#
# Static dielectric constant tensor:
#      x y z
#    x 1.655100 0.005180 0.002770 
#    y 0.005180 1.644050 -0.001720 
#    z 0.002770 -0.001720 1.685290 
# 
# From -- ./inp_files/209149.got.cif
#   From: 2010.05.17/outbox.cif.g08.bks.cpg/sg2_105_cif.got.tgz:209149.got - 2010.06.03 11:33:40.
