data_PCOD9097788
_publ_section_title
;
Structure prediction by ZEFSAII (Michael W. Deem and Ramdas Pophale) SiO2 
 PCOD9097788
Probable space group: P -1
;
_chemical_formula_sum "Si O2"
_cell_formula_units_Z 16
_cell_length_a 7.910042
_cell_length_b 16.034990
_cell_length_c 14.898296
_cell_angle_alpha 144.086828
_cell_angle_beta 122.453029
_cell_angle_gamma 80.692533
_cell_volume 780.327461
_symmetry_space_group_name_H-M "P -1"
_symmetry_group_IT_number 2
_symmetry_cell_setting 'triclinic'
loop_
_space_group_symop_operation_xyz
x,y,z
-x,-y,-z
loop_
_atom_site_type_symbol
_atom_site_label
_atom_site_fract_x
_atom_site_fract_y
_atom_site_fract_z
Si Si1 0.284008 0.623174 0.709869
Si Si2 0.633952 0.905628 0.936022
Si Si3 0.045995 0.929933 0.180660
Si Si4 0.485441 0.842200 0.399996
Si Si5 0.323377 0.434245 0.154778
Si Si6 0.715641 0.511423 0.022173
Si Si7 0.660755 0.051336 0.894324
Si Si8 0.759785 0.276570 0.583602
O O1 0.435423 0.710017 0.736343
O O2 0.425824 0.548743 0.734501
O O3 0.000000 0.500000 0.500000
O O4 0.316031 0.778779 0.915175
O O5 0.735842 0.967811 0.919780
O O6 0.854999 0.962815 0.113673
O O7 0.500000 0.000000 0.000000
O O8 0.191261 0.915833 0.126340
O O9 0.891469 0.751646 0.034240
O O10 0.241984 0.087974 0.434439
O O11 0.345662 0.678765 0.156285
O O12 0.335298 0.789286 0.401287
O O13 0.500000 0.000000 0.500000
O O14 0.287172 0.447862 0.049254
O O15 0.306019 0.582409 0.326929
O O16 0.500000 0.500000 0.000000
O O17 0.958865 0.634670 0.251595
O O18 0.385460 0.893218 0.664176
#
# Coordination Sequence:
#
# PCOD9097788 Si02
#       8
#     2   2   2   2   2   2   2   2
#     4  10  23  40  60  88 121 156 193 241 296 345
#     4   9  20  37  56  83 121 154 188 238 292 344
#     4  10  20  36  62  88 113 154 199 241 290 344
#     4  10  20  38  62  85 115 153 192 239 291 346
#     4  10  22  41  60  84 120 157 193 241 294 345
#     4  11  24  38  59  89 119 155 194 240 294 346
#     4  10  22  38  61  88 115 153 199 242 289 347
#     4  10  22  40  59  85 118 154 195 240 289 347
#
# _framework density 20.504213
#
# number of rings (size 3 to 8) (size 9 to 14) (size 15 to 20)
#    0.000    2.000    0.000    3.375    0.000   15.000 
#    0.000    4.375    0.000    0.000    0.000    0.000 
#    0.000    0.000    0.000    0.000    0.000    0.000 
#
# Total GULP energy -89216.587801 kJ/mol
# GULP energy per Si atom -5576.036738 kJ/mol
# Density = 2.045754 g / cm^3
# Si number density = 20.504213 Si / 1000 Ang^3
#
#
#
# Elastic Constant Matrix: (Units=GPa)
#
#
# Indices 1 2 3 4 5 6 
#
# 1 72.3442 27.4216 50.8135 -5.3888 21.2804 -12.8346
# 2 27.4216 83.5461 25.6088 3.8324 11.8620 -16.1225
# 3 50.8135 25.6088 141.5215 -10.1507 24.1749 -20.6646
# 4 -5.3888 3.8324 -10.1507 21.0009 -5.2754 10.1866
# 5 21.2804 11.8620 24.1749 -5.2754 38.5820 -7.5498
# 6 -12.8346 -16.1225 -20.6646 10.1866 -7.5498 27.6903
#
#
#
# Elastic Compliance Matrix: (Units=1/GPa)
#
#
# Indices 1 2 3 4 5 6 
#
# 1 0.021647 -0.004318 -0.005597 0.001482 -0.006714 0.000967
# 2 -0.004318 0.016129 -0.000266 -0.009582 -0.001715 0.010248
# 3 -0.005597 -0.000266 0.010149 0.001101 -0.002298 0.003794
# 4 0.001482 -0.009582 0.001101 0.064337 0.005079 -0.026354
# 5 -0.006714 -0.001715 -0.002298 0.005079 0.032512 0.001171
# 6 0.000967 0.010248 0.003794 -0.026354 0.001171 0.055375
#
#
# Mechanical properties :
#
#
# Convention : Reuss Voigt Hill
#
# Bulk Modulus (GPa) = 36.27900 56.12219 46.20060
# Shear Modulus (GPa) = 21.76766 30.35914 26.06340
#
# Velocity S-wave (km/s) = 3.26178 3.85207 3.56915
# Velocity P-wave (km/s) = 5.64956 6.87132 6.29017
#
# Compressibility (1/GPa) = 0.02756415
#
# Stress axis : x y z
#
# Youngs Moduli (GPa) = 46.19494 62.00036 98.53046
#
# Poissons Ratio (x) = 0.26770 0.55146
# Poissons Ratio (y) = 0.19945 0.02622
# Poissons Ratio (z) = 0.25855 0.01650
#
# Static dielectric constant tensor:
#      x y z
#    x 1.669810 -0.066990 0.074580 
#    y -0.066990 1.791170 0.006900 
#    z 0.074580 0.006900 1.830390 
# 
# From -- ./inp_files/505624.got.cif
#   From: 2010.05.17/outbox.cif.g08.bks.cpg/sg2_253_cif.got.tgz:505624.got - 2010.06.03 11:33:40.
