data_PCOD9097988
_publ_section_title
;
Structure prediction by ZEFSAII (Michael W. Deem and Ramdas Pophale) SiO2 
 PCOD9097988
Probable space group: P -1
;
_chemical_formula_sum "Si O2"
_cell_formula_units_Z 15
_cell_length_a 18.997834
_cell_length_b 16.034913
_cell_length_c 12.389859
_cell_angle_alpha 156.712195
_cell_angle_beta 29.134186
_cell_angle_gamma 155.843985
_cell_volume 595.848274
_symmetry_space_group_name_H-M "P -1"
_symmetry_group_IT_number 2
_symmetry_cell_setting 'triclinic'
loop_
_space_group_symop_operation_xyz
x,y,z
-x,-y,-z
loop_
_atom_site_type_symbol
_atom_site_label
_atom_site_fract_x
_atom_site_fract_y
_atom_site_fract_z
Si Si1 0.991022 0.887873 0.703307
Si Si2 0.534157 0.178821 0.433398
Si Si3 0.275632 0.340723 0.015156
Si Si4 0.814244 0.265007 0.015149
Si Si5 0.500000 0.000000 0.500000
Si Si6 0.256479 0.741048 0.128798
Si Si7 0.166562 0.694514 0.582091
Si Si8 0.985597 0.187523 0.875739
O O1 0.096754 0.761085 0.400639
O O2 0.126704 0.151872 0.902941
O O3 0.826685 0.728169 0.815201
O O4 0.974176 0.967602 0.700497
O O5 0.440055 0.325613 0.756376
O O6 0.714359 0.345632 0.322566
O O7 0.566817 0.070368 0.367204
O O8 0.409021 0.929635 0.230327
O O9 0.314878 0.624899 0.282397
O O10 0.863504 0.107631 0.838365
O O11 0.702922 0.154664 0.923930
O O12 0.000000 0.500000 0.000000
O O13 0.688204 0.016792 0.303967
O O14 0.179474 0.439338 0.883382
O O15 0.000000 0.500000 0.500000
O O16 0.081038 0.701556 0.813438
#
# Coordination Sequence:
#
# PCOD9097988 Si02
#       8
#     2   2   2   2   1   2   2   2
#     4  10  20  36  63 105 129 173 230 266 342 429
#     4  11  23  42  64 100 133 174 227 288 340 409
#     4  10  22  36  64  99 141 178 219 279 344 422
#     4  10  23  43  68  91 126 181 234 280 336 406
#     4  12  26  38  66 108 138 170 234 278 342 428
#     4  10  22  41  70  91 129 182 225 278 342 403
#     4  12  22  41  67  98 144 185 212 277 354 409
#     4  11  20  39  64  94 132 172 227 274 334 405
#
# _framework density 25.174192999999999
#
# number of rings (size 3 to 8) (size 9 to 14) (size 15 to 20)
#    0.000    1.333    4.000    2.000    1.867    1.067 
#    0.000    1.333    5.867    7.200    0.000    0.000 
#    0.000    0.000    0.000    0.000    0.000    0.000 
#
# Total GULP energy -83577.517319 kJ/mol
# GULP energy per Si atom -5571.834488 kJ/mol
# Density = 2.511690 g / cm^3
# Si number density = 25.174193 Si / 1000 Ang^3
#
#
#
# Elastic Constant Matrix: (Units=GPa)
#
#
# Indices 1 2 3 4 5 6 
#
# 1 102.5080 37.7238 3.1002 -9.3163 19.5397 5.5990
# 2 37.7238 101.0862 34.0423 -23.4017 -6.0611 -5.3001
# 3 3.1002 34.0423 72.7391 -12.7824 -4.5039 -7.6861
# 4 -9.3163 -23.4017 -12.7824 40.4754 0.6343 -2.3797
# 5 19.5397 -6.0611 -4.5039 0.6343 39.0057 3.9175
# 6 5.5990 -5.3001 -7.6861 -2.3797 3.9175 47.4574
#
#
#
# Elastic Compliance Matrix: (Units=1/GPa)
#
#
# Indices 1 2 3 4 5 6 
#
# 1 0.013418 -0.006051 0.001689 0.000157 -0.007332 -0.001372
# 2 -0.006051 0.015784 -0.005640 0.005968 0.004587 0.001484
# 3 0.001689 -0.005640 0.016991 0.002615 -0.000009 0.002055
# 4 0.000157 0.005968 0.002615 0.029159 0.000425 0.002498
# 5 -0.007332 0.004587 -0.000009 0.000425 0.030124 -0.001090
# 6 -0.001372 0.001484 0.002055 0.002498 -0.001090 0.021947
#
#
# Mechanical properties :
#
#
# Convention : Reuss Voigt Hill
#
# Bulk Modulus (GPa) = 38.18371 47.34067 42.76219
# Shear Modulus (GPa) = 32.01885 38.81884 35.41884
#
# Velocity S-wave (km/s) = 3.57023 3.93110 3.75500
# Velocity P-wave (km/s) = 5.67416 6.28099 5.98527
#
# Compressibility (1/GPa) = 0.02618918
#
# Stress axis : x y z
#
# Youngs Moduli (GPa) = 74.52701 63.35368 58.85373
#
# Poissons Ratio (x) = 0.38337 -0.09939
# Poissons Ratio (y) = 0.45098 0.33192
# Poissons Ratio (z) = -0.12586 0.35730
#
# Static dielectric constant tensor:
#      x y z
#    x 2.167640 -0.422360 -0.193770 
#    y -0.422360 -1.233770 -1.330230 
#    z -0.193770 -1.330230 1.519220 
# 
# From -- ./inp_files/273572.got.cif
#   From: 2010.05.17/outbox.cif.g08.bks.cpg/sg2_137_cif.got.tgz:273572.got - 2010.06.03 11:33:40.
