data_PCOD9097622
_publ_section_title
;
Structure prediction by ZEFSAII (Michael W. Deem and Ramdas Pophale) SiO2 
 PCOD9097622
Probable space group: P -1
;
_chemical_formula_sum "Si O2"
_cell_formula_units_Z 14
_cell_length_a 9.081168
_cell_length_b 7.881450
_cell_length_c 18.344090
_cell_angle_alpha 129.623120
_cell_angle_beta 41.008568
_cell_angle_gamma 133.245910
_cell_volume 607.194819
_symmetry_space_group_name_H-M "P -1"
_symmetry_group_IT_number 2
_symmetry_cell_setting 'triclinic'
loop_
_space_group_symop_operation_xyz
x,y,z
-x,-y,-z
loop_
_atom_site_type_symbol
_atom_site_label
_atom_site_fract_x
_atom_site_fract_y
_atom_site_fract_z
Si Si1 0.271627 0.621083 0.589681
Si Si2 0.103315 0.359394 0.734432
Si Si3 0.714544 0.853408 0.583807
Si Si4 0.474275 0.795560 0.803984
Si Si5 0.043098 0.105868 0.270901
Si Si6 0.765764 0.586897 0.958367
Si Si7 0.954754 0.071067 0.937910
O O1 0.152351 0.470477 0.666191
O O2 0.523161 0.828657 0.583072
O O3 0.318577 0.424650 0.469502
O O4 0.092076 0.720062 0.645798
O O5 0.295549 0.540484 0.768090
O O6 0.850713 0.370763 0.858790
O O7 0.093413 0.095288 0.672857
O O8 0.618994 0.934471 0.714944
O O9 0.000000 0.000000 0.500000
O O10 0.675530 0.774047 0.776602
O O11 0.294463 0.902009 0.937572
O O12 0.029147 0.961215 0.162019
O O13 0.819573 0.700969 0.050134
O O14 0.500000 0.500000 0.000000
O O15 0.941579 0.821777 0.910450
#
# Coordination Sequence:
#
# PCOD9097622 Si02
#       7
#     2   2   2   2   2   2   2
#     4  10  23  44  66  97 130 162 223 271 317 386
#     4  10  22  42  60  96 132 168 212 266 318 383
#     4  10  22  44  70  91 126 174 215 274 327 375
#     4  10  23  40  64  95 133 169 220 265 318 389
#     4  12  23  40  68  98 131 174 210 264 327 386
#     4  10  20  36  61  90 125 174 214 255 312 378
#     4  10  22  39  61  95 137 167 213 265 314 388
#
# _framework density 23.056849
#
# number of rings (size 3 to 8) (size 9 to 14) (size 15 to 20)
#    0.000    1.714    1.429    2.143    2.000    5.143 
#    0.000   10.000    0.000    0.000    0.000    0.000 
#    0.000    0.000    0.000    0.000    0.000    0.000 
#
# Total GULP energy -78272.476542 kJ/mol
# GULP energy per Si atom -5590.891182 kJ/mol
# Density = 2.300437 g / cm^3
# Si number density = 23.056849 Si / 1000 Ang^3
#
#
#
# Elastic Constant Matrix: (Units=GPa)
#
#
# Indices 1 2 3 4 5 6 
#
# 1 129.4113 25.0986 32.2381 7.8147 -30.2200 12.2498
# 2 25.0986 47.9625 2.5094 4.6607 -9.7451 0.3039
# 3 32.2381 2.5094 91.4018 13.2500 -8.7240 2.8099
# 4 7.8147 4.6607 13.2500 30.6967 -0.8180 -10.4473
# 5 -30.2200 -9.7451 -8.7240 -0.8180 40.3536 4.3371
# 6 12.2498 0.3039 2.8099 -10.4473 4.3371 45.2077
#
#
#
# Elastic Compliance Matrix: (Units=1/GPa)
#
#
# Indices 1 2 3 4 5 6 
#
# 1 0.011474 -0.004103 -0.002763 -0.002323 0.007404 -0.004157
# 2 -0.004103 0.023834 0.001549 -0.003223 0.002971 -0.000174
# 3 -0.002763 0.001549 0.012826 -0.005530 0.001121 -0.001444
# 4 -0.002323 -0.003223 -0.005530 0.039515 -0.004042 0.010514
# 5 0.007404 0.002971 0.001121 -0.004042 0.031858 -0.006086
# 6 -0.004157 -0.000174 -0.001444 0.010514 -0.006086 0.026351
#
#
# Mechanical properties :
#
#
# Convention : Reuss Voigt Hill
#
# Bulk Modulus (GPa) = 26.66745 43.16308 34.91527
# Shear Modulus (GPa) = 29.58712 37.18022 33.38367
#
# Velocity S-wave (km/s) = 3.58610 4.02001 3.80924
# Velocity P-wave (km/s) = 5.36077 6.34887 5.87563
#
# Compressibility (1/GPa) = 0.03749890
#
# Stress axis : x y z
#
# Youngs Moduli (GPa) = 87.15158 41.95719 77.96826
#
# Poissons Ratio (x) = 0.17217 0.21544
# Poissons Ratio (y) = 0.35762 -0.12078
# Poissons Ratio (z) = 0.24081 -0.06500
#
# Static dielectric constant tensor:
#      x y z
#    x 1.882280 0.007470 0.018760 
#    y 0.007470 1.929660 -0.042660 
#    z 0.018760 -0.042660 1.905530 
# 
# From -- ./inp_files/586866.got.cif
#   From: 2010.05.17/outbox.cif.g08.bks.cpg/sg2_294_cif.got.tgz:586866.got - 2010.06.03 11:33:40.
