data_PCOD9097174
_publ_section_title
;
Structure prediction by ZEFSAII (Michael W. Deem and Ramdas Pophale) SiO2 
 PCOD9097174
Probable space group: P -1
;
_chemical_formula_sum "Si O2"
_cell_formula_units_Z 12
_cell_length_a 9.859138
_cell_length_b 14.696335
_cell_length_c 9.970447
_cell_angle_alpha 112.689980
_cell_angle_beta 151.269499
_cell_angle_gamma 56.650725
_cell_volume 563.145042
_symmetry_space_group_name_H-M "P -1"
_symmetry_group_IT_number 2
_symmetry_cell_setting 'triclinic'
loop_
_space_group_symop_operation_xyz
x,y,z
-x,-y,-z
loop_
_atom_site_type_symbol
_atom_site_label
_atom_site_fract_x
_atom_site_fract_y
_atom_site_fract_z
Si Si1 0.461926 0.047739 0.645286
Si Si2 0.814465 0.192824 0.059436
Si Si3 0.831809 0.807847 0.910096
Si Si4 0.439604 0.543443 0.684765
Si Si5 0.200697 0.417390 0.746437
Si Si6 0.551469 0.328857 0.491077
O O1 0.098686 0.147416 0.389574
O O2 0.500000 0.000000 0.500000
O O3 0.569536 0.938477 0.767668
O O4 0.698082 0.099779 0.896188
O O5 0.959320 0.202780 0.048104
O O6 0.510236 0.308982 0.899250
O O7 0.664997 0.730145 0.704793
O O8 0.079203 0.763340 0.221740
O O9 0.494883 0.426159 0.603746
O O10 0.520045 0.610860 0.680183
O O11 0.062419 0.609545 0.428876
O O12 0.662580 0.526955 0.996414
O O13 0.000000 0.500000 0.500000
#
# Coordination Sequence:
#
# PCOD9097174 Si02
#       6
#     2   2   2   2   2   2
#     4  10  20  36  59  90 124 156 197 253 306 350
#     4  11  22  38  60  92 127 156 193 254 312 357
#     4  11  20  37  64  94 120 156 209 251 304 358
#     4  11  25  43  61  90 125 163 204 249 306 354
#     4  12  25  42  64  90 124 163 202 244 307 379
#     4  11  23  40  65  90 122 161 207 257 292 356
#
# _framework density 21.308896000000001
#
# number of rings (size 3 to 8) (size 9 to 14) (size 15 to 20)
#    0.000    1.000    0.000    9.500    0.000    6.667 
#    0.000    0.000    0.000   20.000    0.000    0.000 
#    0.000    0.000    0.000    0.000    0.000    0.000 
#
# Total GULP energy -67149.791053 kJ/mol
# GULP energy per Si atom -5595.815921 kJ/mol
# Density = 2.126040 g / cm^3
# Si number density = 21.308896 Si / 1000 Ang^3
#
#
#
# Elastic Constant Matrix: (Units=GPa)
#
#
# Indices 1 2 3 4 5 6 
#
# 1 59.9460 50.8355 39.0547 6.1206 5.4521 13.0397
# 2 50.8355 108.7445 43.0719 -7.3298 11.9487 26.0994
# 3 39.0547 43.0719 138.6190 -0.3114 11.5580 13.1479
# 4 6.1206 -7.3298 -0.3114 54.6609 3.8709 14.6127
# 5 5.4521 11.9487 11.5580 3.8709 29.0546 3.2298
# 6 13.0397 26.0994 13.1479 14.6127 3.2298 33.8617
#
#
#
# Elastic Compliance Matrix: (Units=1/GPa)
#
#
# Indices 1 2 3 4 5 6 
#
# 1 0.031964 -0.014491 -0.005052 -0.006650 0.002473 0.003455
# 2 -0.014491 0.020434 -0.000591 0.008193 -0.005097 -0.012989
# 3 -0.005052 -0.000591 0.009159 0.001083 -0.002442 -0.001390
# 4 -0.006650 0.008193 0.001083 0.024248 -0.004200 -0.014238
# 5 0.002473 -0.005097 -0.002442 -0.004200 0.037339 0.002175
# 6 0.003455 -0.012989 -0.001390 -0.014238 0.002175 0.044689
#
#
# Mechanical properties :
#
#
# Convention : Reuss Voigt Hill
#
# Bulk Modulus (GPa) = 46.97236 63.69263 55.33249
# Shear Modulus (GPa) = 23.23461 35.13859 29.18660
#
# Velocity S-wave (km/s) = 3.30566 4.06521 3.70495
# Velocity P-wave (km/s) = 6.05485 7.21038 6.65773
#
# Compressibility (1/GPa) = 0.02128912
#
# Stress axis : x y z
#
# Youngs Moduli (GPa) = 31.28544 48.93839 109.18358
#
# Poissons Ratio (x) = 0.70915 0.55158
# Poissons Ratio (y) = 0.45335 0.06455
# Poissons Ratio (z) = 0.15805 0.02893
#
# Static dielectric constant tensor:
#      x y z
#    x 1.757180 -0.046680 -0.017190 
#    y -0.046680 1.755730 -0.067710 
#    z -0.017190 -0.067710 1.758130 
# 
# From -- ./inp_files/197711.got.cif
#   From: 2010.05.17/outbox.cif.g08.bks.cpg/sg2_99_cif.got.tgz:197711.got - 2010.06.03 11:33:40.
