data_PCOD9097319
_publ_section_title
;
Structure prediction by ZEFSAII (Michael W. Deem and Ramdas Pophale) SiO2 
 PCOD9097319
Probable space group: P -1
;
_chemical_formula_sum "Si O2"
_cell_formula_units_Z 14
_cell_length_a 6.040421
_cell_length_b 6.380332
_cell_length_c 15.261893
_cell_angle_alpha 83.318584
_cell_angle_beta 118.096746
_cell_angle_gamma 77.071861
_cell_volume 488.618690
_symmetry_space_group_name_H-M "P -1"
_symmetry_group_IT_number 2
_symmetry_cell_setting 'triclinic'
loop_
_space_group_symop_operation_xyz
x,y,z
-x,-y,-z
loop_
_atom_site_type_symbol
_atom_site_label
_atom_site_fract_x
_atom_site_fract_y
_atom_site_fract_z
Si Si1 0.798504 0.249460 0.955129
Si Si2 0.650353 0.101974 0.096258
Si Si3 0.276884 0.801418 0.466444
Si Si4 0.393253 0.438339 0.625198
Si Si5 0.179986 0.210162 0.335355
Si Si6 0.768290 0.704328 0.239201
Si Si7 0.687611 0.650198 0.813491
O O1 0.512784 0.275403 0.858731
O O2 0.887842 0.427551 0.906443
O O3 0.749500 0.273328 0.049183
O O4 0.000000 0.000000 0.000000
O O5 0.472390 0.225339 0.138228
O O6 0.853350 0.888298 0.192480
O O7 0.500000 0.000000 0.000000
O O8 0.189837 0.634742 0.521391
O O9 0.393934 0.684215 0.402158
O O10 0.537362 0.813893 0.566361
O O11 0.089357 0.039914 0.387833
O O12 0.291828 0.266127 0.670033
O O13 0.519490 0.555985 0.717317
O O14 0.223281 0.181385 0.240347
O O15 0.975606 0.458367 0.286981
#
# Coordination Sequence:
#
# PCOD9097319 Si02
#       7
#     2   2   2   2   2   2   2
#     4  10  21  40  60  82 114 149 190 237 289 341
#     4  10  21  39  59  84 113 147 193 238 287 341
#     4   9  19  37  59  83 116 155 191 231 284 337
#     4   9  19  37  57  84 116 152 192 232 281 337
#     4  10  20  36  60  87 117 152 190 234 283 338
#     4  10  21  37  57  87 116 149 193 235 283 337
#     4  10  20  38  60  83 116 151 190 234 286 342
#
# _framework density 28.652203
#
# number of rings (size 3 to 8) (size 9 to 14) (size 15 to 20)
#    0.000    2.286    0.000    2.143    0.000    1.143 
#    0.000   37.143    0.000    0.000    0.000    0.000 
#    0.000    0.000    0.000    0.000    0.000    0.000 
#
# Total GULP energy -78264.374477 kJ/mol
# GULP energy per Si atom -5590.312463 kJ/mol
# Density = 2.858699 g / cm^3
# Si number density = 28.652203 Si / 1000 Ang^3
#
#
#
# Elastic Constant Matrix: (Units=GPa)
#
#
# Indices 1 2 3 4 5 6 
#
# 1 77.4502 19.9149 83.7197 -11.6795 -15.9330 19.2202
# 2 19.9149 137.5580 95.8160 -32.7817 -29.1840 -28.4297
# 3 83.7197 95.8160 292.6843 -39.9109 -39.7104 6.4805
# 4 -11.6795 -32.7817 -39.9109 92.3938 19.1207 -10.2339
# 5 -15.9330 -29.1840 -39.7104 19.1207 95.3552 0.4150
# 6 19.2202 -28.4297 6.4805 -10.2339 0.4150 48.6151
#
#
#
# Elastic Compliance Matrix: (Units=1/GPa)
#
#
# Indices 1 2 3 4 5 6 
#
# 1 0.021439 -0.001013 -0.005619 -0.001283 0.001227 -0.008600
# 2 -0.001013 0.012900 -0.003423 0.003658 0.001580 0.009157
# 3 -0.005619 -0.003423 0.006313 0.000641 0.000516 -0.000491
# 4 -0.001283 0.003658 0.000641 0.013134 -0.001485 0.005338
# 5 0.001227 0.001580 0.000516 -0.001485 0.011689 -0.000042
# 6 -0.008600 0.009157 -0.000491 0.005338 -0.000042 0.030514
#
#
# Mechanical properties :
#
#
# Convention : Reuss Voigt Hill
#
# Bulk Modulus (GPa) = 48.68004 100.73261 74.70632
# Shear Modulus (GPa) = 40.66866 67.82227 54.24546
#
# Velocity S-wave (km/s) = 3.77157 4.87055 4.35586
# Velocity P-wave (km/s) = 5.99943 8.17698 7.17134
#
# Compressibility (1/GPa) = 0.02054230
#
# Stress axis : x y z
#
# Youngs Moduli (GPa) = 46.64464 77.51981 158.40950
#
# Poissons Ratio (x) = 0.07850 0.89008
# Poissons Ratio (y) = 0.04724 0.54223
# Poissons Ratio (z) = 0.26209 0.26535
#
# Static dielectric constant tensor:
#      x y z
#    x 2.752160 0.128560 -0.068720 
#    y 0.128560 2.350740 -0.027050 
#    z -0.068720 -0.027050 2.137300 
# 
# From -- ./inp_files/492778.got.cif
#   From: 2010.05.17/outbox.cif.g08.bks.cpg/sg2_247_cif.got.tgz:492778.got - 2010.06.03 11:33:40.
