data_PCOD9097191
_publ_section_title
;
Structure prediction by ZEFSAII (Michael W. Deem and Ramdas Pophale) SiO2 
 PCOD9097191
Probable space group: P -1
;
_chemical_formula_sum "Si O2"
_cell_formula_units_Z 15
_cell_length_a 7.459405
_cell_length_b 11.054364
_cell_length_c 12.762827
_cell_angle_alpha 101.075017
_cell_angle_beta 39.558150
_cell_angle_gamma 121.741873
_cell_volume 523.828334
_symmetry_space_group_name_H-M "P -1"
_symmetry_group_IT_number 2
_symmetry_cell_setting 'triclinic'
loop_
_space_group_symop_operation_xyz
x,y,z
-x,-y,-z
loop_
_atom_site_type_symbol
_atom_site_label
_atom_site_fract_x
_atom_site_fract_y
_atom_site_fract_z
Si Si1 0.531584 0.230022 0.387309
Si Si2 0.500000 0.000000 0.500000
Si Si3 0.018906 0.547528 0.311547
Si Si4 0.797411 0.018509 0.979758
Si Si5 0.560934 0.169223 0.709359
Si Si6 0.236297 0.279848 0.096059
Si Si7 0.547067 0.643229 0.764214
Si Si8 0.019211 0.327980 0.861729
O O1 0.373876 0.260549 0.363338
O O2 0.695263 0.369854 0.420634
O O3 0.896407 0.253715 0.192039
O O4 0.331898 0.073371 0.515574
O O5 0.450645 0.898200 0.405733
O O6 0.128160 0.652531 0.381372
O O7 0.932909 0.621178 0.270919
O O8 0.391718 0.590707 0.104533
O O9 0.181049 0.136703 0.883517
O O10 0.828412 0.145970 0.916059
O O11 0.793520 0.877702 0.914951
O O12 0.482377 0.937959 0.192954
O O13 0.199531 0.302495 0.240198
O O14 0.381342 0.466975 0.778019
O O15 0.251407 0.650333 0.955467
#
# Coordination Sequence:
#
# PCOD9097191 Si02
#       8
#     2   1   2   2   2   2   2   2
#     4  11  22  39  60  87 124 160 201 245 295 370
#     4  12  24  40  60  84 128 162 202 244 302 358
#     4   9  21  36  60  91 115 156 203 243 308 349
#     4  10  20  36  59  92 121 148 206 245 304 350
#     4  10  22  36  58  89 117 163 194 250 295 354
#     4  10  20  36  60  96 120 155 196 251 307 351
#     4   9  20  34  57  90 123 156 195 247 307 344
#     4   9  18  33  56  89 124 150 190 256 301 358
#
# _framework density 28.635334
#
# number of rings (size 3 to 8) (size 9 to 14) (size 15 to 20)
#    0.000    2.133    1.333    2.000    5.600    6.400 
#    0.000    0.667    2.933    1.600    0.000    0.000 
#    0.000    0.000    0.000    0.000    0.000    0.000 
#
# Total GULP energy -83669.971153 kJ/mol
# GULP energy per Si atom -5577.998077 kJ/mol
# Density = 2.857016 g / cm^3
# Si number density = 28.635334 Si / 1000 Ang^3
#
#
#
# Elastic Constant Matrix: (Units=GPa)
#
#
# Indices 1 2 3 4 5 6 
#
# 1 95.2399 35.6895 30.7337 8.4605 31.1384 -12.1706
# 2 35.6895 154.0959 37.4318 17.3724 35.7751 3.6742
# 3 30.7337 37.4318 89.9347 -1.8488 4.8179 7.4832
# 4 8.4605 17.3724 -1.8488 48.9600 1.5251 27.8482
# 5 31.1384 35.7751 4.8179 1.5251 58.0053 5.0950
# 6 -12.1706 3.6742 7.4832 27.8482 5.0950 47.8298
#
#
#
# Elastic Compliance Matrix: (Units=1/GPa)
#
#
# Indices 1 2 3 4 5 6 
#
# 1 0.019026 0.001007 -0.007711 -0.011451 -0.011107 0.013821
# 2 0.001007 0.009306 -0.004369 -0.005905 -0.006141 0.004317
# 3 -0.007711 -0.004369 0.016270 0.009047 0.006131 -0.010092
# 4 -0.011451 -0.005905 0.009047 0.040898 0.010493 -0.028806
# 5 -0.011107 -0.006141 0.006131 0.010493 0.027287 -0.012330
# 6 0.013821 0.004317 -0.010092 -0.028806 -0.012330 0.043757
#
#
# Mechanical properties :
#
#
# Convention : Reuss Voigt Hill
#
# Bulk Modulus (GPa) = 44.53358 60.77560 52.65459
# Shear Modulus (GPa) = 26.85634 46.65339 36.75486
#
# Velocity S-wave (km/s) = 3.06580 4.04074 3.58655
# Velocity P-wave (km/s) = 5.30263 6.56050 5.96482
#
# Compressibility (1/GPa) = 0.02245497
#
# Stress axis : x y z
#
# Youngs Moduli (GPa) = 52.56095 107.45608 61.46298
#
# Poissons Ratio (x) = -0.10817 0.47394
# Poissons Ratio (y) = -0.05291 0.26853
# Poissons Ratio (z) = 0.40530 0.46947
#
# Static dielectric constant tensor:
#      x y z
#    x 2.509800 0.157530 -0.100110 
#    y 0.157530 2.707490 -0.250680 
#    z -0.100110 -0.250680 2.467420 
# 
# From -- ./inp_files/277148.got.cif
#   From: 2010.05.17/outbox.cif.g08.bks.cpg/sg2_139_cif.got.tgz:277148.got - 2010.06.03 11:33:40.
