data_PCOD9097638
_publ_section_title
;
Structure prediction by ZEFSAII (Michael W. Deem and Ramdas Pophale) SiO2 
 PCOD9097638
Probable space group: P -1
;
_chemical_formula_sum "Si O2"
_cell_formula_units_Z 14
_cell_length_a 11.036285
_cell_length_b 14.581876
_cell_length_c 12.170530
_cell_angle_alpha 42.332531
_cell_angle_beta 53.099190
_cell_angle_gamma 30.859928
_cell_volume 673.245566
_symmetry_space_group_name_H-M "P -1"
_symmetry_group_IT_number 2
_symmetry_cell_setting 'triclinic'
loop_
_space_group_symop_operation_xyz
x,y,z
-x,-y,-z
loop_
_atom_site_type_symbol
_atom_site_label
_atom_site_fract_x
_atom_site_fract_y
_atom_site_fract_z
Si Si1 0.547806 0.637142 0.254751
Si Si2 0.143963 0.139938 0.570442
Si Si3 0.839496 0.120124 0.371056
Si Si4 0.894228 0.392910 0.094704
Si Si5 0.374220 0.457729 0.458824
Si Si6 0.583767 0.838614 0.750338
Si Si7 0.560889 0.903077 0.934469
O O1 0.800970 0.448531 0.222518
O O2 0.420339 0.584659 0.349054
O O3 0.564975 0.656973 0.356540
O O4 0.442776 0.835338 0.070111
O O5 0.246924 0.188710 0.394474
O O6 0.906771 0.356824 0.568143
O O7 0.093888 0.043679 0.605614
O O8 0.352687 0.958066 0.702068
O O9 0.879851 0.246030 0.193066
O O10 0.565775 0.290460 0.409446
O O11 0.000000 0.000000 0.500000
O O12 0.154071 0.276465 0.059384
O O13 0.726674 0.609799 0.923535
O O14 0.502119 0.986778 0.768758
O O15 0.500000 0.000000 0.000000
#
# Coordination Sequence:
#
# PCOD9097638 Si02
#       7
#     2   2   2   2   2   2   2
#     4   9  18  34  57  85 118 154 191 253 308 346
#     4  11  23  42  67  85 129 168 203 255 307 375
#     4  11  23  38  66  97 121 162 211 255 305 369
#     4  10  21  40  61  87 125 157 205 258 311 358
#     4  10  20  36  61  91 124 155 204 254 306 363
#     4  10  23  45  59  88 125 170 201 248 324 360
#     4  11  22  34  61  90 117 154 206 253 297 365
#
# _framework density 20.794791
#
# number of rings (size 3 to 8) (size 9 to 14) (size 15 to 20)
#    0.000    1.714    0.000    6.857    6.000    0.571 
#    2.571    7.857    0.000    0.000    0.000    0.000 
#    0.000    0.000    0.000    0.000    0.000    0.000 
#
# Total GULP energy -78031.175085 kJ/mol
# GULP energy per Si atom -5573.655363 kJ/mol
# Density = 2.074746 g / cm^3
# Si number density = 20.794791 Si / 1000 Ang^3
#
#
#
# Elastic Constant Matrix: (Units=GPa)
#
#
# Indices 1 2 3 4 5 6 
#
# 1 64.9982 20.4959 29.2230 -0.5890 12.2236 -8.4236
# 2 20.4959 92.2908 16.9171 20.7931 5.2440 -8.9762
# 3 29.2230 16.9171 99.7664 1.6845 -1.3348 -13.7067
# 4 -0.5890 20.7931 1.6845 22.1061 -2.3638 -3.6522
# 5 12.2236 5.2440 -1.3348 -2.3638 31.0329 -1.6315
# 6 -8.4236 -8.9762 -13.7067 -3.6522 -1.6315 27.1043
#
#
#
# Elastic Compliance Matrix: (Units=1/GPa)
#
#
# Indices 1 2 3 4 5 6 
#
# 1 0.020716 -0.003953 -0.005205 0.004329 -0.007247 0.002644
# 2 -0.003953 0.015434 -0.001070 -0.014563 -0.002141 0.001250
# 3 -0.005205 -0.001070 0.012388 0.001016 0.003084 0.004615
# 4 0.004329 -0.014563 0.001016 0.060496 0.005698 0.005531
# 5 -0.007247 -0.002141 0.003084 0.005698 0.036088 0.001538
# 6 0.002644 0.001250 0.004615 0.005531 0.001538 0.041302
#
#
# Mechanical properties :
#
#
# Convention : Reuss Voigt Hill
#
# Bulk Modulus (GPa) = 35.60976 43.36971 39.48973
# Shear Modulus (GPa) = 23.12259 28.74328 25.93294
#
# Velocity S-wave (km/s) = 3.33820 3.72188 3.53524
# Velocity P-wave (km/s) = 5.65859 6.27464 5.97456
#
# Compressibility (1/GPa) = 0.02808219
#
# Stress axis : x y z
#
# Youngs Moduli (GPa) = 48.27122 64.79350 80.72644
#
# Poissons Ratio (x) = 0.25612 0.42015
# Poissons Ratio (y) = 0.19081 0.08639
# Poissons Ratio (z) = 0.25123 0.06934
#
# Static dielectric constant tensor:
#      x y z
#    x 1.751130 0.056650 -0.036440 
#    y 0.056650 1.845480 -0.031240 
#    z -0.036440 -0.031240 1.775040 
# 
# From -- ./inp_files/432422.got.cif
#   From: 2010.05.17/outbox.cif.g08.bks.cpg/sg2_217_cif.got.tgz:432422.got - 2010.06.03 11:33:40.
