data_PCOD9097001
_publ_section_title
;
Structure prediction by ZEFSAII (Michael W. Deem and Ramdas Pophale) SiO2 
 PCOD9097001
Probable space group: P -1
;
_chemical_formula_sum "Si O2"
_cell_formula_units_Z 12
_cell_length_a 11.072433
_cell_length_b 9.198058
_cell_length_c 7.166073
_cell_angle_alpha 131.255207
_cell_angle_beta 67.240303
_cell_angle_gamma 117.917949
_cell_volume 481.450620
_symmetry_space_group_name_H-M "P -1"
_symmetry_group_IT_number 2
_symmetry_cell_setting 'triclinic'
loop_
_space_group_symop_operation_xyz
x,y,z
-x,-y,-z
loop_
_atom_site_type_symbol
_atom_site_label
_atom_site_fract_x
_atom_site_fract_y
_atom_site_fract_z
Si Si1 0.070777 0.940479 0.685355
Si Si2 0.768943 0.435186 0.028664
Si Si3 0.186033 0.931811 0.202343
Si Si4 0.409838 0.633117 0.250358
Si Si5 0.125187 0.339889 0.182220
Si Si6 0.597645 0.700716 0.515494
O O1 0.149948 0.917085 0.433597
O O2 0.153828 0.129856 0.922808
O O3 0.937844 0.006506 0.760866
O O4 0.006253 0.736763 0.671470
O O5 0.648691 0.298614 0.846267
O O6 0.889210 0.547384 0.906884
O O7 0.800811 0.287842 0.035055
O O8 0.718121 0.616573 0.291525
O O9 0.327566 0.110084 0.240756
O O10 0.267472 0.488487 0.304297
O O11 0.508277 0.762915 0.458895
O O12 0.500000 0.500000 0.000000
O O13 0.500000 0.500000 0.500000
#
# Coordination Sequence:
#
# PCOD9097001 Si02
#       6
#     2   2   2   2   2   2
#     4  10  20  36  59  81 118 149 182 235 273 335
#     4   9  21  38  57  85 110 148 190 224 279 336
#     4  11  22  37  57  88 110 148 190 227 284 325
#     4   8  16  35  56  76 109 148 174 228 274 323
#     4   9  18  38  57  82 109 154 184 219 290 319
#     4  11  21  38  59  82 117 144 183 238 283 325
#
# _framework density 24.924675000000001
#
# number of rings (size 3 to 8) (size 9 to 14) (size 15 to 20)
#    1.000    1.333    1.667    1.000    0.000    2.667 
#    0.000    3.333    0.000    0.000    0.000    0.000 
#    0.000    0.000    0.000    0.000    0.000    0.000 
#
# Total GULP energy -66939.864818 kJ/mol
# GULP energy per Si atom -5578.322068 kJ/mol
# Density = 2.486795 g / cm^3
# Si number density = 24.924675 Si / 1000 Ang^3
#
#
#
# Elastic Constant Matrix: (Units=GPa)
#
#
# Indices 1 2 3 4 5 6 
#
# 1 99.0194 0.6996 2.8645 25.2096 4.6980 -1.1172
# 2 0.6996 105.0395 9.7912 9.7222 -13.7140 12.9568
# 3 2.8645 9.7912 34.9209 0.6973 -0.1493 2.1259
# 4 25.2096 9.7222 0.6973 35.4058 3.0106 -2.0090
# 5 4.6980 -13.7140 -0.1493 3.0106 16.6180 2.5769
# 6 -1.1172 12.9568 2.1259 -2.0090 2.5769 32.2723
#
#
#
# Elastic Compliance Matrix: (Units=1/GPa)
#
#
# Indices 1 2 3 4 5 6 
#
# 1 0.012461 0.000701 -0.001031 -0.008948 -0.001296 -0.000236
# 2 0.000701 0.012628 -0.003067 -0.005284 0.012105 -0.006139
# 3 -0.001031 -0.003067 0.029580 0.001143 -0.002101 -0.000514
# 4 -0.008948 -0.005284 0.001143 0.037105 -0.009285 0.004788
# 5 -0.001296 0.012105 -0.002101 -0.009285 0.073939 -0.011248
# 6 -0.000236 -0.006139 -0.000514 0.004788 -0.011248 0.034673
#
#
# Mechanical properties :
#
#
# Convention : Reuss Voigt Hill
#
# Bulk Modulus (GPa) = 20.88787 29.52116 25.20452
# Shear Modulus (GPa) = 22.40755 31.90085 27.15420
#
# Velocity S-wave (km/s) = 3.00160 3.58144 3.30426
# Velocity P-wave (km/s) = 4.51790 5.38257 4.96908
#
# Compressibility (1/GPa) = 0.04787467
#
# Stress axis : x y z
#
# Youngs Moduli (GPa) = 80.25202 79.18731 33.80639
#
# Poissons Ratio (x) = -0.05553 0.03486
# Poissons Ratio (y) = -0.05628 0.10369
# Poissons Ratio (z) = 0.08276 0.24289
#
# Static dielectric constant tensor:
#      x y z
#    x 1.973060 -0.007230 0.040620 
#    y -0.007230 2.024940 -0.026140 
#    z 0.040620 -0.026140 1.998530 
# 
# From -- ./inp_files/47907.got.cif
#   From: 2010.05.17/outbox.cif.g08.bks.cpg/sg2_24_cif.got.tgz:47907.got - 2010.06.03 11:33:40.
