data_PCOD9097969
_publ_section_title
;
Structure prediction by ZEFSAII (Michael W. Deem and Ramdas Pophale) SiO2 
 PCOD9097969
Probable space group: P -1
;
_chemical_formula_sum "Si O2"
_cell_formula_units_Z 16
_cell_length_a 5.310036
_cell_length_b 14.360154
_cell_length_c 16.266666
_cell_angle_alpha 40.836953
_cell_angle_beta 105.297594
_cell_angle_gamma 88.614360
_cell_volume 731.457316
_symmetry_space_group_name_H-M "P -1"
_symmetry_group_IT_number 2
_symmetry_cell_setting 'triclinic'
loop_
_space_group_symop_operation_xyz
x,y,z
-x,-y,-z
loop_
_atom_site_type_symbol
_atom_site_label
_atom_site_fract_x
_atom_site_fract_y
_atom_site_fract_z
Si Si1 0.884856 0.759027 0.538107
Si Si2 0.271079 0.211525 0.005395
Si Si3 0.075991 0.114700 0.202268
Si Si4 0.496934 0.349325 0.297880
Si Si5 0.814776 0.897505 0.275730
Si Si6 0.585959 0.396159 0.996734
Si Si7 0.396138 0.931643 0.615179
Si Si8 0.827388 0.897898 0.090526
O O1 0.698713 0.694952 0.624314
O O2 0.769572 0.788823 0.414699
O O3 0.210552 0.655518 0.634989
O O4 0.851604 0.926497 0.462510
O O5 0.354879 0.341461 0.969598
O O6 0.163790 0.229320 0.891328
O O7 0.045508 0.176729 0.065634
O O8 0.543245 0.053532 0.140167
O O9 0.365349 0.105926 0.270505
O O10 0.049462 0.952322 0.300695
O O11 0.833232 0.240389 0.146395
O O12 0.334123 0.505094 0.132306
O O13 0.604141 0.225102 0.316574
O O14 0.905785 0.842645 0.227659
O O15 0.500000 0.500000 0.000000
O O16 0.500000 0.000000 0.500000
O O17 0.500000 0.000000 0.000000
O O18 0.000000 0.000000 0.000000
#
# Coordination Sequence:
#
# PCOD9097969 Si02
#       8
#     2   2   2   2   2   2   2   2
#     4  11  23  40  62  88 121 164 208 264 311 373
#     4  10  21  38  61  93 126 162 204 261 317 374
#     4  11  21  38  63  88 128 161 209 258 314 373
#     4  11  26  41  58  85 125 170 216 252 305 365
#     4  10  20  36  63  96 124 154 200 261 330 377
#     4  11  27  40  61  89 127 179 217 256 301 374
#     4  10  21  36  59  86 120 159 205 258 312 363
#     4  10  20  36  62  97 129 154 195 259 331 380
#
# _framework density 21.874141999999999
#
# number of rings (size 3 to 8) (size 9 to 14) (size 15 to 20)
#    0.000    1.500    2.500    2.625    7.000    1.000 
#    0.000    0.000    0.000    1.500    0.000    0.000 
#    0.000    0.000    0.000    0.000    0.000    0.000 
#
# Total GULP energy -89286.068408 kJ/mol
# GULP energy per Si atom -5580.379276 kJ/mol
# Density = 2.182436 g / cm^3
# Si number density = 21.874142 Si / 1000 Ang^3
#
#
#
# Elastic Constant Matrix: (Units=GPa)
#
#
# Indices 1 2 3 4 5 6 
#
# 1 91.0690 23.7271 21.9988 8.9387 -9.6994 -2.1795
# 2 23.7271 113.1449 28.1462 36.2886 -15.4288 -1.9388
# 3 21.9988 28.1462 87.3369 23.9738 -20.4833 -0.8615
# 4 8.9387 36.2886 23.9738 35.2914 -12.2957 -7.7340
# 5 -9.6994 -15.4288 -20.4833 -12.2957 41.3228 5.9544
# 6 -2.1795 -1.9388 -0.8615 -7.7340 5.9544 21.9751
#
#
#
# Elastic Compliance Matrix: (Units=1/GPa)
#
#
# Indices 1 2 3 4 5 6 
#
# 1 0.012164 -0.002270 -0.002505 0.001585 0.001068 0.001176
# 2 -0.002270 0.014001 0.000287 -0.014591 0.001132 -0.004421
# 3 -0.002505 0.000287 0.015765 -0.009539 0.005122 -0.004350
# 4 0.001585 -0.014591 -0.009539 0.054445 0.004008 0.016571
# 5 0.001068 0.001132 0.005122 0.004008 0.029495 -0.006175
# 6 0.001176 -0.004421 -0.004350 0.016571 -0.006175 0.052567
#
#
# Mechanical properties :
#
#
# Convention : Reuss Voigt Hill
#
# Bulk Modulus (GPa) = 30.34646 48.81057 39.57851
# Shear Modulus (GPa) = 25.20172 34.22977 29.71575
#
# Velocity S-wave (km/s) = 3.39798 3.96011 3.68977
# Velocity P-wave (km/s) = 5.41279 6.57820 6.02375
#
# Compressibility (1/GPa) = 0.03295277
#
# Stress axis : x y z
#
# Youngs Moduli (GPa) = 82.21222 71.42159 63.43055
#
# Poissons Ratio (x) = 0.16214 0.15891
# Poissons Ratio (y) = 0.18664 -0.01819
# Poissons Ratio (z) = 0.20597 -0.02048
#
# Static dielectric constant tensor:
#      x y z
#    x 1.675420 -0.072360 -0.155320 
#    y -0.072360 1.864070 0.016980 
#    z -0.155320 0.016980 1.792050 
# 
# From -- ./inp_files/78227.got.cif
#   From: 2010.05.17/outbox.cif.g08.bks.cpg/sg2_40_cif.got.tgz:78227.got - 2010.06.03 11:33:40.
