data_PCOD9097020
_publ_section_title
;
Structure prediction by ZEFSAII (Michael W. Deem and Ramdas Pophale) SiO2 
 PCOD9097020
Probable space group: P -1
;
_chemical_formula_sum "Si O2"
_cell_formula_units_Z 16
_cell_length_a 7.827230
_cell_length_b 14.936289
_cell_length_c 18.091625
_cell_angle_alpha 158.933078
_cell_angle_beta 107.868829
_cell_angle_gamma 83.069162
_cell_volume 633.122118
_symmetry_space_group_name_H-M "P -1"
_symmetry_group_IT_number 2
_symmetry_cell_setting 'triclinic'
loop_
_space_group_symop_operation_xyz
x,y,z
-x,-y,-z
loop_
_atom_site_type_symbol
_atom_site_label
_atom_site_fract_x
_atom_site_fract_y
_atom_site_fract_z
Si Si1 0.619021 0.164955 0.955397
Si Si2 0.251134 0.583057 0.689120
Si Si3 0.970783 0.259371 0.871199
Si Si4 0.063108 0.325500 0.103200
Si Si5 0.323566 0.214383 0.155970
Si Si6 0.179124 0.132990 0.685019
Si Si7 0.577213 0.201509 0.808485
Si Si8 0.808865 0.369511 0.499437
O O1 0.411766 0.895812 0.748357
O O2 0.569707 0.226058 0.914363
O O3 0.685640 0.416204 0.216731
O O4 0.823662 0.133844 0.946651
O O5 0.431302 0.582332 0.664347
O O6 0.006842 0.386879 0.498909
O O7 0.281674 0.902613 0.930184
O O8 0.726521 0.078205 0.711255
O O9 0.076840 0.093865 0.721264
O O10 0.000000 0.500000 0.000000
O O11 0.060511 0.371348 0.050886
O O12 0.211357 0.203969 0.055412
O O13 0.143016 0.591979 0.375949
O O14 0.221651 0.352092 0.302196
O O15 0.348459 0.036212 0.621274
O O16 0.308002 0.473286 0.952991
O O17 0.000000 0.000000 0.500000
#
# Coordination Sequence:
#
# PCOD9097020 Si02
#       8
#     2   2   2   2   2   2   2   2
#     4  10  20  36  59  83 115 150 188 234 282 329
#     4  10  20  38  56  85 113 152 184 237 286 329
#     4   9  18  36  59  78 110 150 181 226 283 326
#     4   8  19  37  55  79 113 146 184 234 278 333
#     4   9  20  39  57  79 120 146 189 235 284 337
#     4  10  21  37  59  85 110 147 187 231 280 332
#     4   9  21  38  54  83 116 145 185 229 281 333
#     4   9  20  37  57  82 110 153 188 229 280 340
#
# _framework density 25.271585999999999
#
# number of rings (size 3 to 8) (size 9 to 14) (size 15 to 20)
#    0.750    2.000    0.000    0.375    1.750    5.000 
#    2.250   10.000    0.000    0.000    0.000    0.000 
#    0.000    0.000    0.000    0.000    0.000    0.000 
#
# Total GULP energy -89297.423298 kJ/mol
# GULP energy per Si atom -5581.088956 kJ/mol
# Density = 2.521407 g / cm^3
# Si number density = 25.271586 Si / 1000 Ang^3
#
#
#
# Elastic Constant Matrix: (Units=GPa)
#
#
# Indices 1 2 3 4 5 6 
#
# 1 139.7136 31.5564 69.2134 -13.0349 50.3785 -7.7437
# 2 31.5564 92.1898 26.2911 -27.7840 5.7607 8.1218
# 3 69.2134 26.2911 101.8206 -11.0402 29.2102 -3.9862
# 4 -13.0349 -27.7840 -11.0402 34.8757 -4.1336 -0.2603
# 5 50.3785 5.7607 29.2102 -4.1336 30.2087 -3.2101
# 6 -7.7437 8.1218 -3.9862 -0.2603 -3.2101 28.9146
#
#
#
# Elastic Compliance Matrix: (Units=1/GPa)
#
#
# Indices 1 2 3 4 5 6 
#
# 1 0.021573 -0.004614 -0.004740 -0.000680 -0.030282 0.003052
# 2 -0.004614 0.016567 -0.002330 0.011624 0.007823 -0.005237
# 3 -0.004740 -0.002330 0.015630 0.000543 -0.006604 0.000812
# 4 -0.000680 0.011624 0.000543 0.038228 0.003340 -0.002657
# 5 -0.030282 0.007823 -0.006604 0.003340 0.088814 -0.001328
# 6 0.003052 -0.005237 0.000812 -0.002657 -0.001328 0.036814
#
#
# Mechanical properties :
#
#
# Convention : Reuss Voigt Hill
#
# Bulk Modulus (GPa) = 32.89293 65.31619 49.10456
# Shear Modulus (GPa) = 19.91025 32.57734 26.24380
#
# Velocity S-wave (km/s) = 2.80991 3.59428 3.22603
# Velocity P-wave (km/s) = 4.85505 6.56711 5.77488
#
# Compressibility (1/GPa) = 0.03040167
#
# Stress axis : x y z
#
# Youngs Moduli (GPa) = 46.35481 60.36115 63.97965
#
# Poissons Ratio (x) = 0.27852 0.30324
# Poissons Ratio (y) = 0.21389 0.14908
# Poissons Ratio (z) = 0.21971 0.14065
#
# Static dielectric constant tensor:
#      x y z
#    x 2.058760 -0.034360 -0.032030 
#    y -0.034360 2.043150 0.027860 
#    z -0.032030 0.027860 1.983780 
# 
# From -- ./inp_files/281762.got.cif
#   From: 2010.05.17/outbox.cif.g08.bks.cpg/sg2_141_cif.got.tgz:281762.got - 2010.06.03 11:33:40.
