data_PCOD9097283
_publ_section_title
;
Structure prediction by ZEFSAII (Michael W. Deem and Ramdas Pophale) SiO2 
 PCOD9097283
Probable space group: P -1
;
_chemical_formula_sum "Si O2"
_cell_formula_units_Z 15
_cell_length_a 8.874830
_cell_length_b 24.441507
_cell_length_c 7.806014
_cell_angle_alpha 57.851435
_cell_angle_beta 62.935225
_cell_angle_gamma 25.336569
_cell_volume 611.919548
_symmetry_space_group_name_H-M "P -1"
_symmetry_group_IT_number 2
_symmetry_cell_setting 'triclinic'
loop_
_space_group_symop_operation_xyz
x,y,z
-x,-y,-z
loop_
_atom_site_type_symbol
_atom_site_label
_atom_site_fract_x
_atom_site_fract_y
_atom_site_fract_z
Si Si1 0.499126 0.693466 0.201161
Si Si2 0.917898 0.143203 0.389293
Si Si3 0.107096 0.736112 0.580792
Si Si4 0.127522 0.656227 0.379819
Si Si5 0.542840 0.791454 0.251970
Si Si6 0.549904 0.605419 0.004718
Si Si7 0.500000 0.500000 0.000000
Si Si8 0.756322 0.974742 0.935266
O O1 0.429444 0.666628 0.436033
O O2 0.629849 0.716015 0.175654
O O3 0.714765 0.586175 0.117813
O O4 0.111686 0.839022 0.080358
O O5 0.095571 0.140063 0.417767
O O6 0.768067 0.139180 0.598029
O O7 0.136785 0.042655 0.285430
O O8 0.596912 0.290190 0.218650
O O9 0.948302 0.750711 0.477479
O O10 0.257255 0.634075 0.803996
O O11 0.500000 0.500000 0.500000
O O12 0.221127 0.677474 0.150571
O O13 0.882985 0.685238 0.372444
O O14 0.427265 0.902848 0.083828
O O15 0.699572 0.494241 0.012536
O O16 0.500000 0.000000 0.000000
#
# Coordination Sequence:
#
# PCOD9097283 Si02
#       8
#     2   2   2   2   2   2   1   2
#     4   9  20  37  58  89 128 158 202 258 311 374
#     4   9  20  38  59  91 129 155 197 268 314 370
#     4   9  18  35  59  86 121 158 208 253 311 363
#     4  11  21  39  64  89 118 170 220 257 301 373
#     4  11  22  39  62  91 126 167 207 259 324 365
#     4   9  18  36  61  85 120 160 208 249 303 367
#     4  10  16  30  62  84 112 162 204 254 296 350
#     4  11  21  40  67  94 120 167 210 252 313 387
#
# _framework density 24.513024999999999
#
# number of rings (size 3 to 8) (size 9 to 14) (size 15 to 20)
#    0.000    2.133    1.333    3.200    0.000    0.000 
#    0.000   22.000    0.000    0.000    0.000    0.000 
#    0.000    0.000    0.000    0.000    0.000    0.000 
#
# Total GULP energy -83563.507284 kJ/mol
# GULP energy per Si atom -5570.900486 kJ/mol
# Density = 2.445723 g / cm^3
# Si number density = 24.513025 Si / 1000 Ang^3
#
#
#
# Elastic Constant Matrix: (Units=GPa)
#
#
# Indices 1 2 3 4 5 6 
#
# 1 206.3709 52.9642 23.5228 -0.8821 8.7672 46.5758
# 2 52.9642 49.9505 6.5110 -12.2289 -1.4416 11.7104
# 3 23.5228 6.5110 55.6103 -6.5957 1.3523 4.5532
# 4 -0.8821 -12.2289 -6.5957 31.0966 15.1138 4.5312
# 5 8.7672 -1.4416 1.3523 15.1138 31.4769 -8.4425
# 6 46.5758 11.7104 4.5532 4.5312 -8.4425 40.1743
#
#
#
# Elastic Compliance Matrix: (Units=1/GPa)
#
#
# Indices 1 2 3 4 5 6 
#
# 1 0.009514 -0.007219 -0.001994 0.001616 -0.006415 -0.010230
# 2 -0.007219 0.032202 0.001657 0.016039 -0.005400 -0.004149
# 3 -0.001994 0.001657 0.019752 0.007134 -0.004206 -0.002099
# 4 0.001616 0.016039 0.007134 0.059918 -0.034524 -0.021371
# 5 -0.006415 -0.005400 -0.004206 -0.034524 0.056861 0.025331
# 6 -0.010230 -0.004149 -0.002099 -0.021371 0.025331 0.045932
#
#
# Mechanical properties :
#
#
# Convention : Reuss Voigt Hill
#
# Bulk Modulus (GPa) = 21.57241 53.10307 37.33774
# Shear Modulus (GPa) = 19.62763 35.81181 27.71972
#
# Velocity S-wave (km/s) = 2.83274 3.82636 3.36641
# Velocity P-wave (km/s) = 4.41800 6.42118 5.51136
#
# Compressibility (1/GPa) = 0.04635550
#
# Stress axis : x y z
#
# Youngs Moduli (GPa) = 105.10989 31.05400 50.62797
#
# Poissons Ratio (x) = 0.22418 0.10094
# Poissons Ratio (y) = 0.75879 -0.08387
# Poissons Ratio (z) = 0.20956 -0.05145
#
# Static dielectric constant tensor:
#      x y z
#    x 2.037200 0.002740 0.034920 
#    y 0.002740 2.003630 0.052990 
#    z 0.034920 0.052990 1.939970 
# 
# From -- ./inp_files/225348.got.cif
#   From: 2010.05.17/outbox.cif.g08.bks.cpg/sg2_113_cif.got.tgz:225348.got - 2010.06.03 11:33:40.
