data_PCOD9097820
_publ_section_title
;
Structure prediction by ZEFSAII (Michael W. Deem and Ramdas Pophale) SiO2 
 PCOD9097820
Probable space group: P -1
;
_chemical_formula_sum "Si O2"
_cell_formula_units_Z 14
_cell_length_a 18.818275
_cell_length_b 9.760532
_cell_length_c 9.856847
_cell_angle_alpha 74.519938
_cell_angle_beta 129.156647
_cell_angle_gamma 146.759385
_cell_volume 607.070911
_symmetry_space_group_name_H-M "P -1"
_symmetry_group_IT_number 2
_symmetry_cell_setting 'triclinic'
loop_
_space_group_symop_operation_xyz
x,y,z
-x,-y,-z
loop_
_atom_site_type_symbol
_atom_site_label
_atom_site_fract_x
_atom_site_fract_y
_atom_site_fract_z
Si Si1 0.693407 0.648528 0.511477
Si Si2 0.082121 0.447383 0.030292
Si Si3 0.726224 0.817006 0.939289
Si Si4 0.262857 0.832711 0.397909
Si Si5 0.226068 0.474345 0.551846
Si Si6 0.286737 0.450584 0.177085
Si Si7 0.240378 0.212726 0.740289
O O1 0.466990 0.393843 0.320427
O O2 0.704091 0.499837 0.512318
O O3 0.794522 0.774175 0.746406
O O4 0.777981 0.846552 0.427063
O O5 0.246108 0.759512 0.238432
O O6 0.189627 0.470078 0.073479
O O7 0.939169 0.348089 0.789434
O O8 0.925237 0.170709 0.029401
O O9 0.749574 0.682493 0.970484
O O10 0.657081 0.741060 0.032329
O O11 0.259333 0.686763 0.525985
O O12 0.472231 0.198792 0.594227
O O13 0.320031 0.487140 0.764311
O O14 0.987519 0.115516 0.385390
#
# Coordination Sequence:
#
# PCOD9097820 Si02
#       7
#     2   2   2   2   2   2   2
#     4  10  20  36  62  89 120 162 199 249 297 362
#     4  11  23  37  63  89 126 162 205 246 302 368
#     4  12  22  39  59  98 124 153 209 254 303 361
#     4  11  22  40  60  93 123 160 208 246 306 363
#     4   9  19  37  64  84 118 154 215 247 286 355
#     4  12  24  39  61  96 129 155 195 265 313 344
#     4   9  19  39  61  90 114 164 209 244 290 367
#
# _framework density 23.061556
#
# number of rings (size 3 to 8) (size 9 to 14) (size 15 to 20)
#    0.857    0.571    4.286    1.714    0.000    0.000 
#    0.000    0.714    0.000    1.714    0.000    0.000 
#    0.000    0.000    0.000    0.000    0.000    0.000 
#
# Total GULP energy -77970.207869 kJ/mol
# GULP energy per Si atom -5569.300562 kJ/mol
# Density = 2.300907 g / cm^3
# Si number density = 23.061556 Si / 1000 Ang^3
#
#
#
# Elastic Constant Matrix: (Units=GPa)
#
#
# Indices 1 2 3 4 5 6 
#
# 1 69.0740 15.4083 13.9631 1.2052 3.9681 5.7073
# 2 15.4083 96.1426 24.0366 -12.7233 -10.4867 -0.4626
# 3 13.9631 24.0366 63.3927 -3.6623 2.0771 -7.2158
# 4 1.2052 -12.7233 -3.6623 45.2175 -5.6074 -1.2907
# 5 3.9681 -10.4867 2.0771 -5.6074 28.8787 -6.5305
# 6 5.7073 -0.4626 -7.2158 -1.2907 -6.5305 25.3239
#
#
#
# Elastic Compliance Matrix: (Units=1/GPa)
#
#
# Indices 1 2 3 4 5 6 
#
# 1 0.016559 -0.002681 -0.003294 -0.002234 -0.004820 -0.006076
# 2 -0.002681 0.013184 -0.004197 0.004312 0.006653 0.001585
# 3 -0.003294 -0.004197 0.018811 0.000468 -0.001025 0.005785
# 4 -0.002234 0.004312 0.000468 0.024463 0.007468 0.003888
# 5 -0.004820 0.006653 -0.001025 0.007468 0.041970 0.012119
# 6 -0.006076 0.001585 0.005785 0.003888 0.012119 0.045859
#
#
# Mechanical properties :
#
#
# Convention : Reuss Voigt Hill
#
# Bulk Modulus (GPa) = 35.44760 37.26949 36.35854
# Shear Modulus (GPa) = 26.23405 31.56410 28.89908
#
# Velocity S-wave (km/s) = 3.37644 3.70359 3.54379
# Velocity P-wave (km/s) = 5.53215 5.87237 5.70480
#
# Compressibility (1/GPa) = 0.02821066
#
# Stress axis : x y z
#
# Youngs Moduli (GPa) = 60.39050 75.84912 53.16138
#
# Poissons Ratio (x) = 0.20334 0.17509
# Poissons Ratio (y) = 0.16190 0.22312
# Poissons Ratio (z) = 0.19890 0.31834
#
# Static dielectric constant tensor:
#      x y z
#    x 1.872320 0.002630 0.032130 
#    y 0.002630 1.899020 -0.058960 
#    z 0.032130 -0.058960 2.057430 
# 
# From -- ./inp_files/461255.got.cif
#   From: 2010.05.17/outbox.cif.g08.bks.cpg/sg2_231_cif.got.tgz:461255.got - 2010.06.03 11:33:40.
