data_PCOD9097468
_publ_section_title
;
Structure prediction by ZEFSAII (Michael W. Deem and Ramdas Pophale) SiO2 
 PCOD9097468
Probable space group: P -1
;
_chemical_formula_sum "Si O2"
_cell_formula_units_Z 14
_cell_length_a 11.971560
_cell_length_b 8.043600
_cell_length_c 8.867584
_cell_angle_alpha 116.651868
_cell_angle_beta 75.232446
_cell_angle_gamma 123.802191
_cell_volume 634.150580
_symmetry_space_group_name_H-M "P -1"
_symmetry_group_IT_number 2
_symmetry_cell_setting 'triclinic'
loop_
_space_group_symop_operation_xyz
x,y,z
-x,-y,-z
loop_
_atom_site_type_symbol
_atom_site_label
_atom_site_fract_x
_atom_site_fract_y
_atom_site_fract_z
Si Si1 0.696981 0.170665 0.797762
Si Si2 0.205720 0.243879 0.130173
Si Si3 0.792399 0.196126 0.106763
Si Si4 0.438606 0.062978 0.687129
Si Si5 0.048361 0.465819 0.309610
Si Si6 0.428585 0.329515 0.322938
Si Si7 0.387946 0.433033 0.883311
O O1 0.566106 0.180478 0.802795
O O2 0.817276 0.320093 0.704824
O O3 0.646894 0.916535 0.697247
O O4 0.744251 0.233463 0.978592
O O5 0.084155 0.275751 0.230871
O O6 0.320455 0.352393 0.265675
O O7 0.255102 0.357645 0.995079
O O8 0.186318 0.008159 0.015460
O O9 0.930333 0.394025 0.199915
O O10 0.680825 0.123848 0.247998
O O11 0.384635 0.222432 0.725982
O O12 0.500000 0.000000 0.500000
O O13 0.000000 0.500000 0.500000
O O14 0.500000 0.500000 0.500000
O O15 0.550258 0.382886 0.188125
O O16 0.500000 0.500000 0.000000
#
# Coordination Sequence:
#
# PCOD9097468 Si02
#       7
#     2   2   2   2   2   2   2
#     4  11  23  39  61  94 126 159 206 260 309 362
#     4   9  21  42  63  85 120 169 208 240 301 385
#     4  10  23  42  64  90 126 168 206 248 308 373
#     4  11  21  37  64  95 123 156 202 254 300 355
#     4  12  25  43  64  90 122 163 211 262 310 364
#     4  10  20  36  60  94 128 157 196 255 312 360
#     4   9  18  35  57  84 118 158 194 231 294 367
#
# _framework density 22.076775000000001
#
# number of rings (size 3 to 8) (size 9 to 14) (size 15 to 20)
#    0.000    1.714    0.000    5.571    0.000    3.429 
#    0.000    4.286    0.000    0.000    0.000    0.000 
#    0.000    0.000    0.000    0.000    0.000    0.000 
#
# Total GULP energy -78226.800718 kJ/mol
# GULP energy per Si atom -5587.628623 kJ/mol
# Density = 2.202653 g / cm^3
# Si number density = 22.076775 Si / 1000 Ang^3
#
#
#
# Elastic Constant Matrix: (Units=GPa)
#
#
# Indices 1 2 3 4 5 6 
#
# 1 93.2777 25.5336 45.2260 -0.6946 -5.1992 6.8082
# 2 25.5336 90.8093 13.8155 -11.3294 -2.4097 1.8087
# 3 45.2260 13.8155 137.4091 -3.1830 -11.2695 -0.7554
# 4 -0.6946 -11.3294 -3.1830 30.3881 11.7303 4.0752
# 5 -5.1992 -2.4097 -11.2695 11.7303 45.4466 0.1890
# 6 6.8082 1.8087 -0.7554 4.0752 0.1890 28.1517
#
#
#
# Elastic Compliance Matrix: (Units=1/GPa)
#
#
# Indices 1 2 3 4 5 6 
#
# 1 0.013951 -0.003350 -0.004243 -0.001228 0.000696 -0.003100
# 2 -0.003350 0.012600 -0.000137 0.005117 -0.001067 -0.000737
# 3 -0.004243 -0.000137 0.008834 -0.000051 0.001706 0.001268
# 4 -0.001228 0.005117 -0.000051 0.039415 -0.010032 -0.005672
# 5 0.000696 -0.001067 0.001706 -0.010032 0.025034 0.001230
# 6 -0.003100 -0.000737 0.001268 -0.005672 0.001230 0.037165
#
#
# Mechanical properties :
#
#
# Convention : Reuss Voigt Hill
#
# Bulk Modulus (GPa) = 50.19298 54.51626 52.35462
# Shear Modulus (GPa) = 31.42656 36.59203 34.00929
#
# Velocity S-wave (km/s) = 3.77704 4.07564 3.92918
# Velocity P-wave (km/s) = 6.46579 6.84802 6.65965
#
# Compressibility (1/GPa) = 0.01992311
#
# Stress axis : x y z
#
# Youngs Moduli (GPa) = 71.67955 79.36692 113.20375
#
# Poissons Ratio (x) = 0.26589 0.48036
# Poissons Ratio (y) = 0.24013 0.01553
# Poissons Ratio (z) = 0.30416 0.01089
#
# Static dielectric constant tensor:
#      x y z
#    x 1.838420 -0.048320 -0.040670 
#    y -0.048320 1.889410 0.045150 
#    z -0.040670 0.045150 1.859920 
# 
# From -- ./inp_files/245452.got.cif
#   From: 2010.05.17/outbox.cif.g08.bks.cpg/sg2_123_cif.got.tgz:245452.got - 2010.06.03 11:33:40.
