data_PCOD9097865
_publ_section_title
;
Structure prediction by ZEFSAII (Michael W. Deem and Ramdas Pophale) SiO2 
 PCOD9097865
Probable space group: P -1
;
_chemical_formula_sum "Si O2"
_cell_formula_units_Z 14
_cell_length_a 10.899113
_cell_length_b 14.573984
_cell_length_c 24.717062
_cell_angle_alpha 17.648494
_cell_angle_beta 32.047406
_cell_angle_gamma 27.472277
_cell_volume 549.051459
_symmetry_space_group_name_H-M "P -1"
_symmetry_group_IT_number 2
_symmetry_cell_setting 'triclinic'
loop_
_space_group_symop_operation_xyz
x,y,z
-x,-y,-z
loop_
_atom_site_type_symbol
_atom_site_label
_atom_site_fract_x
_atom_site_fract_y
_atom_site_fract_z
Si Si1 0.052345 0.302196 0.648266
Si Si2 0.839692 0.687072 0.154242
Si Si3 0.414953 0.523770 0.198593
Si Si4 0.355107 0.655636 0.024205
Si Si5 0.624828 0.409271 0.592560
Si Si6 0.028817 0.823093 0.845475
Si Si7 0.195876 0.185576 0.209321
O O1 0.306539 0.288547 0.589879
O O2 0.000000 0.500000 0.500000
O O3 0.801997 0.496388 0.672090
O O4 0.076241 0.945165 0.819089
O O5 0.671430 0.526418 0.334786
O O6 0.051330 0.765263 0.062287
O O7 0.007849 0.397486 0.209364
O O8 0.633391 0.087024 0.989438
O O9 0.379707 0.478828 0.173126
O O10 0.723436 0.245969 0.246543
O O11 0.500000 0.500000 0.000000
O O12 0.505401 0.874163 0.860166
O O13 0.773909 0.180895 0.612773
O O14 0.764601 0.139865 0.742167
O O15 0.071226 0.447876 0.057093
#
# Coordination Sequence:
#
# PCOD9097865 Si02
#       7
#     2   2   2   2   2   2   2
#     4  10  24  42  58  88 128 168 197 239 305 372
#     4  11  21  36  63  93 116 158 203 252 305 348
#     4  11  21  38  67  86 118 170 200 241 303 360
#     4   9  20  38  64  94 116 153 209 255 297 355
#     4  11  23  36  58  92 125 154 196 261 298 346
#     4  10  21  39  59  89 121 158 209 243 298 369
#     4  10  20  36  62  91 117 150 209 258 289 353
#
# _framework density 25.498521
#
# number of rings (size 3 to 8) (size 9 to 14) (size 15 to 20)
#    0.000    1.714    4.286    0.857    0.000    6.286 
#    0.000    0.714    0.000    5.143    0.000    0.000 
#    0.000    0.000    0.000    0.000    0.000    0.000 
#
# Total GULP energy -78063.597881 kJ/mol
# GULP energy per Si atom -5575.971277 kJ/mol
# Density = 2.544049 g / cm^3
# Si number density = 25.498521 Si / 1000 Ang^3
#
#
#
# Elastic Constant Matrix: (Units=GPa)
#
#
# Indices 1 2 3 4 5 6 
#
# 1 98.0135 40.9652 32.3117 13.4784 -8.0442 3.1627
# 2 40.9652 134.5463 24.6932 31.6649 -3.9422 15.0329
# 3 32.3117 24.6932 60.0568 8.4839 -8.4784 5.3790
# 4 13.4784 31.6649 8.4839 34.6217 5.3181 -3.4874
# 5 -8.0442 -3.9422 -8.4784 5.3181 43.4390 1.7455
# 6 3.1627 15.0329 5.3790 -3.4874 1.7455 42.1232
#
#
#
# Elastic Compliance Matrix: (Units=1/GPa)
#
#
# Indices 1 2 3 4 5 6 
#
# 1 0.013558 -0.002725 -0.005826 -0.001504 0.001289 0.000521
# 2 -0.002725 0.011325 -0.001172 -0.009725 0.001668 -0.004561
# 3 -0.005826 -0.001172 0.021316 -0.002627 0.003386 -0.002224
# 4 -0.001504 -0.009725 -0.002627 0.040844 -0.006979 0.007590
# 5 0.001289 0.001668 0.003386 -0.006979 0.025036 -0.002740
# 6 0.000521 -0.004561 -0.002224 0.007590 -0.002740 0.026355
#
#
# Mechanical properties :
#
#
# Convention : Reuss Voigt Hill
#
# Bulk Modulus (GPa) = 37.38143 54.28409 45.83276
# Shear Modulus (GPa) = 29.97641 37.01320 33.49481
#
# Velocity S-wave (km/s) = 3.43244 3.81410 3.62829
# Velocity P-wave (km/s) = 5.51370 6.38215 5.96375
#
# Compressibility (1/GPa) = 0.02675125
#
# Stress axis : x y z
#
# Youngs Moduli (GPa) = 73.75588 88.30386 46.91345
#
# Poissons Ratio (x) = 0.24066 0.27333
# Poissons Ratio (y) = 0.20101 0.05499
# Poissons Ratio (z) = 0.42972 0.10350
#
# Static dielectric constant tensor:
#      x y z
#    x 2.124280 -0.016990 -0.032770 
#    y -0.016990 2.033350 -0.051510 
#    z -0.032770 -0.051510 2.088130 
# 
# From -- ./inp_files/448304.got.cif
#   From: 2010.05.17/outbox.cif.g08.bks.cpg/sg2_225_cif.got.tgz:448304.got - 2010.06.03 11:33:40.
