data_PCOD9097961
_publ_section_title
;
Structure prediction by ZEFSAII (Michael W. Deem and Ramdas Pophale) SiO2 
 PCOD9097961
Probable space group: P -1
;
_chemical_formula_sum "Si O2"
_cell_formula_units_Z 16
_cell_length_a 12.008409
_cell_length_b 9.437057
_cell_length_c 8.404376
_cell_angle_alpha 64.330990
_cell_angle_beta 130.992578
_cell_angle_gamma 95.450329
_cell_volume 622.383718
_symmetry_space_group_name_H-M "P -1"
_symmetry_group_IT_number 2
_symmetry_cell_setting 'triclinic'
loop_
_space_group_symop_operation_xyz
x,y,z
-x,-y,-z
loop_
_atom_site_type_symbol
_atom_site_label
_atom_site_fract_x
_atom_site_fract_y
_atom_site_fract_z
Si Si1 0.417359 0.137250 0.729998
Si Si2 0.274038 0.617352 0.473987
Si Si3 0.206402 0.568076 0.090249
Si Si4 0.847278 0.759578 0.314345
Si Si5 0.033119 0.948885 0.739176
Si Si6 0.557220 0.353835 0.930887
Si Si7 0.057759 0.430874 0.785975
Si Si8 0.307373 0.908209 0.536001
O O1 0.259754 0.216391 0.642327
O O2 0.524269 0.256586 0.789919
O O3 0.390225 0.050044 0.584022
O O4 0.500000 0.000000 0.000000
O O5 0.288184 0.542868 0.347438
O O6 0.395625 0.482783 0.758149
O O7 0.095195 0.632636 0.337119
O O8 0.315311 0.788600 0.451331
O O9 0.325096 0.552695 0.065076
O O10 0.114697 0.440068 0.013574
O O11 0.108061 0.757414 0.915133
O O12 0.861467 0.932849 0.180893
O O13 0.000340 0.621151 0.583248
O O14 0.815784 0.673389 0.164971
O O15 0.872966 0.004597 0.653234
O O16 0.000000 0.000000 0.500000
O O17 0.631673 0.222345 0.199185
#
# Coordination Sequence:
#
# PCOD9097961 Si02
#       8
#     2   2   2   2   2   2   2   2
#     4  10  20  36  62  96 125 158 211 270 318 363
#     4  12  26  43  62 100 135 170 213 259 332 390
#     4  12  26  43  65  93 137 175 207 268 325 384
#     4  11  20  37  65  98 120 159 219 276 303 373
#     4  12  19  39  67  93 125 162 216 262 320 371
#     4  11  23  43  66  92 127 176 218 263 315 385
#     4  11  23  40  66  94 131 166 216 266 323 378
#     4  11  22  40  68  98 125 166 217 273 314 377
#
# _framework density 25.707614
#
# number of rings (size 3 to 8) (size 9 to 14) (size 15 to 20)
#    0.000    0.750    6.250    1.875    1.750    2.500 
#    0.000    0.625    0.000    0.000    0.000    0.000 
#    0.000    0.000    0.000    0.000    0.000    0.000 
#
# Total GULP energy -89367.039490 kJ/mol
# GULP energy per Si atom -5585.439968 kJ/mol
# Density = 2.564910 g / cm^3
# Si number density = 25.707614 Si / 1000 Ang^3
#
#
#
# Elastic Constant Matrix: (Units=GPa)
#
#
# Indices 1 2 3 4 5 6 
#
# 1 35.1332 10.4522 9.7709 8.6005 6.5480 -2.7715
# 2 10.4522 135.5192 41.1512 28.5256 10.3779 -9.2453
# 3 9.7709 41.1512 77.0251 7.4930 2.5446 -8.3272
# 4 8.6005 28.5256 7.4930 54.4632 -3.3343 -1.5387
# 5 6.5480 10.3779 2.5446 -3.3343 25.4665 4.3618
# 6 -2.7715 -9.2453 -8.3272 -1.5387 4.3618 31.0840
#
#
#
# Elastic Compliance Matrix: (Units=1/GPa)
#
#
# Indices 1 2 3 4 5 6 
#
# 1 0.032579 0.000586 -0.003240 -0.005499 -0.009574 0.003282
# 2 0.000586 0.010381 -0.004706 -0.005121 -0.004979 0.002324
# 3 -0.003240 -0.004706 0.016070 0.000888 0.000826 0.002544
# 4 -0.005499 -0.005121 0.000888 0.022147 0.006587 -0.001603
# 5 -0.009574 -0.004979 0.000826 0.006587 0.045948 -0.008235
# 6 0.003282 0.002324 0.002544 -0.001603 -0.008235 0.034913
#
#
# Mechanical properties :
#
#
# Convention : Reuss Voigt Hill
#
# Bulk Modulus (GPa) = 22.56879 41.15847 31.86363
# Shear Modulus (GPa) = 26.10578 34.62294 30.36436
#
# Velocity S-wave (km/s) = 3.19013 3.67385 3.44050
# Velocity P-wave (km/s) = 4.72941 5.83449 5.31077
#
# Compressibility (1/GPa) = 0.04430897
#
# Stress axis : x y z
#
# Youngs Moduli (GPa) = 30.69427 96.33166 62.22952
#
# Poissons Ratio (x) = -0.05641 0.20160
# Poissons Ratio (y) = -0.01797 0.29287
# Poissons Ratio (z) = 0.09944 0.45337
#
# Static dielectric constant tensor:
#      x y z
#    x 2.253220 0.054320 0.400720 
#    y 0.054320 2.114750 0.117270 
#    z 0.400720 0.117270 2.778130 
# 
# From -- ./inp_files/239948.got.cif
#   From: 2010.05.17/outbox.cif.g08.bks.cpg/sg2_120_cif.got.tgz:239948.got - 2010.06.03 11:33:40.
