data_PCOD9097562
_publ_section_title
;
Structure prediction by ZEFSAII (Michael W. Deem and Ramdas Pophale) SiO2 
 PCOD9097562
Probable space group: P -1
;
_chemical_formula_sum "Si O2"
_cell_formula_units_Z 14
_cell_length_a 10.175960
_cell_length_b 5.454379
_cell_length_c 16.794543
_cell_angle_alpha 83.763284
_cell_angle_beta 47.136006
_cell_angle_gamma 84.510506
_cell_volume 678.896598
_symmetry_space_group_name_H-M "P -1"
_symmetry_group_IT_number 2
_symmetry_cell_setting 'triclinic'
loop_
_space_group_symop_operation_xyz
x,y,z
-x,-y,-z
loop_
_atom_site_type_symbol
_atom_site_label
_atom_site_fract_x
_atom_site_fract_y
_atom_site_fract_z
Si Si1 0.296408 0.271191 0.570150
Si Si2 0.490524 0.785770 0.077044
Si Si3 0.600243 0.112272 0.334947
Si Si4 0.676012 0.995463 0.142367
Si Si5 0.797430 0.520200 0.865223
Si Si6 0.892124 0.218715 0.320393
Si Si7 0.997203 0.315218 0.932486
O O1 0.451370 0.266022 0.440365
O O2 0.197483 0.536095 0.610834
O O3 0.392197 0.158532 0.615254
O O4 0.164199 0.044924 0.611998
O O5 0.304927 0.649218 0.148079
O O6 0.542410 0.886126 0.137616
O O7 0.650641 0.599825 0.988883
O O8 0.500000 0.000000 0.000000
O O9 0.573717 0.130886 0.251566
O O10 0.797219 0.206846 0.272912
O O11 0.803941 0.800503 0.142919
O O12 0.829354 0.142925 0.027954
O O13 0.896495 0.745373 0.775664
O O14 0.953075 0.391710 0.857883
O O15 0.000000 0.500000 0.000000
#
# Coordination Sequence:
#
# PCOD9097562 Si02
#       7
#     2   2   2   2   2   2   2
#     4   9  20  36  58  92 121 147 196 256 307 360
#     4  11  24  40  55  80 126 162 206 238 294 369
#     4   9  20  33  58  89 121 151 193 251 312 351
#     4  11  22  36  58  87 119 159 192 253 300 357
#     4  11  23  38  59  85 118 168 199 247 297 365
#     4  10  20  36  61  88 114 159 196 246 302 358
#     4  11  21  35  56  88 119 146 202 249 296 359
#
# _framework density 20.621697999999999
#
# number of rings (size 3 to 8) (size 9 to 14) (size 15 to 20)
#    0.857    0.857    2.857    2.143    4.000    0.000 
#    0.000    0.000    0.000    1.714    0.000    0.000 
#    0.000    0.000    0.000    0.000    0.000    0.000 
#
# Total GULP energy -78022.625945 kJ/mol
# GULP energy per Si atom -5573.044710 kJ/mol
# Density = 2.057476 g / cm^3
# Si number density = 20.621698 Si / 1000 Ang^3
#
#
#
# Elastic Constant Matrix: (Units=GPa)
#
#
# Indices 1 2 3 4 5 6 
#
# 1 117.9732 36.5076 31.8439 -11.2158 2.6675 34.8986
# 2 36.5076 66.7481 4.2687 1.7130 -4.2214 24.8540
# 3 31.8439 4.2687 66.6550 -4.0779 13.0322 21.6479
# 4 -11.2158 1.7130 -4.0779 27.3338 9.5861 -10.9746
# 5 2.6675 -4.2214 13.0322 9.5861 22.0713 -0.6785
# 6 34.8986 24.8540 21.6479 -10.9746 -0.6785 42.2644
#
#
#
# Elastic Compliance Matrix: (Units=1/GPa)
#
#
# Indices 1 2 3 4 5 6 
#
# 1 0.012926 -0.005358 -0.003609 0.004060 -0.002362 -0.004657
# 2 -0.005358 0.023768 0.003415 -0.011605 0.007781 -0.014190
# 3 -0.003609 0.003415 0.022636 0.002347 -0.013610 -0.010231
# 4 0.004060 -0.011605 0.002347 0.055583 -0.027737 0.016257
# 5 -0.002362 0.007781 -0.013610 -0.027737 0.067110 -0.001779
# 6 -0.004657 -0.014190 -0.010231 0.016257 -0.001779 0.045284
#
#
# Mechanical properties :
#
#
# Convention : Reuss Voigt Hill
#
# Bulk Modulus (GPa) = 20.73668 44.06853 32.40260
# Shear Modulus (GPa) = 19.64741 30.25096 24.94919
#
# Velocity S-wave (km/s) = 3.09002 3.83423 3.48206
# Velocity P-wave (km/s) = 4.77583 6.40454 5.64919
#
# Compressibility (1/GPa) = 0.04822373
#
# Stress axis : x y z
#
# Youngs Moduli (GPa) = 77.36317 42.07397 44.17823
#
# Poissons Ratio (x) = 0.22545 0.15945
# Poissons Ratio (y) = 0.41455 -0.15087
# Poissons Ratio (z) = 0.27923 -0.14368
#
# Static dielectric constant tensor:
#      x y z
#    x 1.740030 -0.025510 -0.029290 
#    y -0.025510 1.892500 0.032260 
#    z -0.029290 0.032260 1.847950 
# 
# From -- ./inp_files/553589.got.cif
#   From: 2010.05.17/outbox.cif.g08.bks.cpg/sg2_277_cif.got.tgz:553589.got - 2010.06.03 11:33:40.
