data_PCOD9097723
_publ_section_title
;
Structure prediction by ZEFSAII (Michael W. Deem and Ramdas Pophale) SiO2 
 PCOD9097723
Probable space group: P -1
;
_chemical_formula_sum "Si O2"
_cell_formula_units_Z 16
_cell_length_a 9.256964
_cell_length_b 10.833156
_cell_length_c 13.008539
_cell_angle_alpha 70.909164
_cell_angle_beta 127.057718
_cell_angle_gamma 66.519272
_cell_volume 603.558928
_symmetry_space_group_name_H-M "P -1"
_symmetry_group_IT_number 2
_symmetry_cell_setting 'triclinic'
loop_
_space_group_symop_operation_xyz
x,y,z
-x,-y,-z
loop_
_atom_site_type_symbol
_atom_site_label
_atom_site_fract_x
_atom_site_fract_y
_atom_site_fract_z
Si Si1 0.403832 0.473360 0.717385
Si Si2 0.075782 0.968847 0.818896
Si Si3 0.022845 0.347528 0.151891
Si Si4 0.836430 0.844679 0.065666
Si Si5 0.137556 0.188774 0.451934
Si Si6 0.563188 0.164829 0.170800
Si Si7 0.714460 0.533674 0.764498
Si Si8 0.558322 0.189056 0.685281
O O1 0.443666 0.600317 0.664006
O O2 0.394114 0.389059 0.633540
O O3 0.144642 0.617598 0.650393
O O4 0.692458 0.256646 0.960381
O O5 0.758693 0.125058 0.693753
O O6 0.187992 0.902349 0.768302
O O7 0.147570 0.079416 0.846979
O O8 0.089625 0.202680 0.305397
O O9 0.266977 0.322115 0.268292
O O10 0.709184 0.586204 0.987791
O O11 0.969599 0.351866 0.008732
O O12 0.595093 0.868364 0.945214
O O13 0.770077 0.993347 0.911022
O O14 0.149448 0.599374 0.245122
O O15 0.339670 0.201959 0.548891
O O16 0.293561 0.977815 0.628169
#
# Coordination Sequence:
#
# PCOD9097723 Si02
#       8
#     2   2   2   2   2   2   2   2
#     4  11  20  39  65  96 129 168 213 260 318 380
#     4  11  18  36  66  96 127 167 207 258 320 385
#     4  10  23  44  66  92 125 173 215 263 313 370
#     4   9  17  35  61  94 123 166 211 257 316 377
#     4  11  24  42  62  97 133 165 210 264 318 375
#     4  10  22  39  62  93 131 168 210 257 320 377
#     4  10  20  40  68  91 122 171 222 256 311 381
#     4  10  20  36  61  98 133 163 209 262 318 382
#
# _framework density 26.509423999999999
#
# number of rings (size 3 to 8) (size 9 to 14) (size 15 to 20)
#    0.000    1.750    3.750    1.500    0.000    1.500 
#    4.500   11.875    0.000    0.000    0.000    0.000 
#    0.000    0.000    0.000    0.000    0.000    0.000 
#
# Total GULP energy -89597.285489 kJ/mol
# GULP energy per Si atom -5599.830343 kJ/mol
# Density = 2.644909 g / cm^3
# Si number density = 26.509424 Si / 1000 Ang^3
#
#
#
# Elastic Constant Matrix: (Units=GPa)
#
#
# Indices 1 2 3 4 5 6 
#
# 1 172.1908 33.4498 40.3467 -6.2887 1.8423 -23.9396
# 2 33.4498 49.9873 4.4152 -13.5918 0.3010 -7.7665
# 3 40.3467 4.4152 73.3516 -6.8997 3.9500 -9.9849
# 4 -6.2887 -13.5918 -6.8997 32.1585 -11.0470 5.0182
# 5 1.8423 0.3010 3.9500 -11.0470 26.6476 -5.6838
# 6 -23.9396 -7.7665 -9.9849 5.0182 -5.6838 45.1836
#
#
#
# Elastic Compliance Matrix: (Units=1/GPa)
#
#
# Indices 1 2 3 4 5 6 
#
# 1 0.008026 -0.005122 -0.003911 -0.001900 -0.000129 0.002703
# 2 -0.005122 0.026816 0.002315 0.012347 0.005187 0.001689
# 3 -0.003911 0.002315 0.016181 0.003292 -0.000475 0.001476
# 4 -0.001900 0.012347 0.003292 0.042609 0.017008 -0.000750
# 5 -0.000129 0.005187 -0.000475 0.017008 0.045571 0.004562
# 6 0.002703 0.001689 0.001476 -0.000750 0.004562 0.024838
#
#
# Mechanical properties :
#
#
# Convention : Reuss Voigt Hill
#
# Bulk Modulus (GPa) = 26.60340 50.21702 38.41021
# Shear Modulus (GPa) = 26.31508 35.28582 30.80045
#
# Velocity S-wave (km/s) = 3.15408 3.65234 3.41232
# Velocity P-wave (km/s) = 4.82924 6.06385 5.48142
#
# Compressibility (1/GPa) = 0.03758918
#
# Stress axis : x y z
#
# Youngs Moduli (GPa) = 124.58736 37.29092 61.80179
#
# Poissons Ratio (x) = 0.19099 0.24168
# Poissons Ratio (y) = 0.63808 -0.14307
# Poissons Ratio (z) = 0.48720 -0.08633
#
# Static dielectric constant tensor:
#      x y z
#    x 2.005890 0.018590 -0.014110 
#    y 0.018590 2.055930 0.042770 
#    z -0.014110 0.042770 2.105530 
# 
# From -- ./inp_files/187325.got.cif
#   From: 2010.05.17/outbox.cif.g08.bks.cpg/sg2_94_cif.got.tgz:187325.got - 2010.06.03 11:33:40.
