data_PCOD9097859
_publ_section_title
;
Structure prediction by ZEFSAII (Michael W. Deem and Ramdas Pophale) SiO2 
 PCOD9097859
Probable space group: P -1
;
_chemical_formula_sum "Si O2"
_cell_formula_units_Z 16
_cell_length_a 14.907251
_cell_length_b 18.459551
_cell_length_c 25.411816
_cell_angle_alpha 18.808899
_cell_angle_beta 30.448422
_cell_angle_gamma 21.285287
_cell_volume 806.474950
_symmetry_space_group_name_H-M "P -1"
_symmetry_group_IT_number 2
_symmetry_cell_setting 'triclinic'
loop_
_space_group_symop_operation_xyz
x,y,z
-x,-y,-z
loop_
_atom_site_type_symbol
_atom_site_label
_atom_site_fract_x
_atom_site_fract_y
_atom_site_fract_z
Si Si1 0.777280 0.331172 0.079610
Si Si2 0.862126 0.674692 0.164980
Si Si3 0.235599 0.139339 0.647723
Si Si4 0.400187 0.043429 0.080194
Si Si5 0.127836 0.713990 0.812597
Si Si6 0.214921 0.132514 0.447948
Si Si7 0.726043 0.142562 0.994277
Si Si8 0.045607 0.633988 0.263720
O O1 0.807261 0.309800 0.142170
O O2 0.778066 0.083887 0.223202
O O3 0.499181 0.678452 0.974697
O O4 0.971589 0.323320 0.959504
O O5 0.042250 0.373798 0.320377
O O6 0.646331 0.742587 0.194914
O O7 0.706022 0.997586 0.055457
O O8 0.000000 0.500000 0.500000
O O9 0.175626 0.158083 0.726224
O O10 0.503455 0.020735 0.590425
O O11 0.169344 0.077295 0.178785
O O12 0.277069 0.379616 0.937244
O O13 0.500000 0.000000 0.000000
O O14 0.195412 0.883787 0.632399
O O15 0.113248 0.327747 0.420519
O O16 0.746208 0.388005 0.801838
O O17 0.977230 0.821498 0.115118
#
# Coordination Sequence:
#
# PCOD9097859 Si02
#       8
#     2   2   2   2   2   2   2   2
#     4  12  22  38  67  94 128 177 215 260 306 389
#     4  11  23  42  70  96 127 173 216 267 325 376
#     4  12  26  36  59  96 139 177 213 254 315 378
#     4  11  24  47  73  94 118 164 223 272 331 392
#     4  11  26  43  67  97 126 164 217 274 326 384
#     4  11  26  43  62  98 139 169 212 267 320 380
#     4  10  20  36  62  90 128 168 219 255 299 372
#     4  10  21  38  57  91 131 176 209 253 304 368
#
# _framework density 19.839426
#
# number of rings (size 3 to 8) (size 9 to 14) (size 15 to 20)
#    0.000    1.000    5.000    1.500    3.500    3.500 
#    0.000    0.625    0.000    0.000    0.000    0.000 
#    0.000    0.000    0.000    0.000    0.000    0.000 
#
# Total GULP energy -89153.434639 kJ/mol
# GULP energy per Si atom -5572.089665 kJ/mol
# Density = 1.979427 g / cm^3
# Si number density = 19.839426 Si / 1000 Ang^3
#
#
#
# Elastic Constant Matrix: (Units=GPa)
#
#
# Indices 1 2 3 4 5 6 
#
# 1 102.6131 47.3058 48.0139 3.2769 7.8577 -9.5742
# 2 47.3058 119.9461 32.4883 7.1922 -0.5793 -4.1555
# 3 48.0139 32.4883 65.7883 10.7040 5.0087 -12.3991
# 4 3.2769 7.1922 10.7040 24.6400 -4.1297 -0.5271
# 5 7.8577 -0.5793 5.0087 -4.1297 28.2285 -0.0221
# 6 -9.5742 -4.1555 -12.3991 -0.5271 -0.0221 44.2612
#
#
#
# Elastic Compliance Matrix: (Units=1/GPa)
#
#
# Indices 1 2 3 4 5 6 
#
# 1 0.016511 -0.003882 -0.010386 0.003056 -0.002385 0.000333
# 2 -0.003882 0.010585 -0.002403 -0.001284 0.001536 -0.000534
# 3 -0.010386 -0.002403 0.026777 -0.010010 -0.003370 0.004908
# 4 0.003056 -0.001284 -0.010010 0.046146 0.007649 -0.001710
# 5 -0.002385 0.001536 -0.003370 0.007649 0.037837 -0.001206
# 6 0.000333 -0.000534 0.004908 -0.001710 -0.001206 0.023969
#
#
# Mechanical properties :
#
#
# Convention : Reuss Voigt Hill
#
# Bulk Modulus (GPa) = 48.70572 60.44041 54.57306
# Shear Modulus (GPa) = 24.75139 30.12857 27.43998
#
# Velocity S-wave (km/s) = 3.53595 3.90118 3.72304
# Velocity P-wave (km/s) = 6.42447 7.12904 6.78591
#
# Compressibility (1/GPa) = 0.02053147
#
# Stress axis : x y z
#
# Youngs Moduli (GPa) = 60.56670 94.47569 37.34568
#
# Poissons Ratio (x) = 0.36674 0.38787
# Poissons Ratio (y) = 0.23511 0.08973
# Poissons Ratio (z) = 0.62904 0.22699
#
# Static dielectric constant tensor:
#      x y z
#    x 1.781290 -0.020410 0.019680 
#    y -0.020410 1.752860 0.019020 
#    z 0.019680 0.019020 1.752520 
# 
# From -- ./inp_files/101294.got.cif
#   From: 2010.05.17/outbox.cif.g08.bks.cpg/sg2_51_cif.got.tgz:101294.got - 2010.06.03 11:33:40.
