data_PCOD9097058
_publ_section_title
;
Structure prediction by ZEFSAII (Michael W. Deem and Ramdas Pophale) SiO2 
 PCOD9097058
Probable space group: P -1
;
_chemical_formula_sum "Si O2"
_cell_formula_units_Z 16
_cell_length_a 14.337928
_cell_length_b 7.641662
_cell_length_c 14.612545
_cell_angle_alpha 111.061164
_cell_angle_beta 31.816947
_cell_angle_gamma 92.788957
_cell_volume 671.963701
_symmetry_space_group_name_H-M "P -1"
_symmetry_group_IT_number 2
_symmetry_cell_setting 'triclinic'
loop_
_space_group_symop_operation_xyz
x,y,z
-x,-y,-z
loop_
_atom_site_type_symbol
_atom_site_label
_atom_site_fract_x
_atom_site_fract_y
_atom_site_fract_z
Si Si1 0.261808 0.694004 0.277185
Si Si2 0.991354 0.044792 0.123065
Si Si3 0.627100 0.084157 0.102158
Si Si4 0.265381 0.164375 0.697221
Si Si5 0.743406 0.584305 0.622567
Si Si6 0.805211 0.585615 0.860065
Si Si7 0.974154 0.462326 0.164004
Si Si8 0.233143 0.037057 0.240653
O O1 0.325055 0.566370 0.296889
O O2 0.294348 0.525283 0.136341
O O3 0.013365 0.837951 0.522650
O O4 0.318209 0.862836 0.219623
O O5 0.924769 0.298349 0.229599
O O6 0.834887 0.976875 0.278285
O O7 0.215768 0.904612 0.956699
O O8 0.000000 0.000000 0.000000
O O9 0.657700 0.845170 0.050019
O O10 0.708394 0.066689 0.927440
O O11 0.394472 0.288668 0.326918
O O12 0.219284 0.336919 0.687475
O O13 0.500000 0.000000 0.500000
O O14 0.135520 0.312525 0.921040
O O15 0.704433 0.782490 0.760500
O O16 0.989573 0.456941 0.374501
O O17 0.904494 0.472271 0.853346
#
# Coordination Sequence:
#
# PCOD9097058 Si02
#       8
#     2   2   2   2   2   2   2   2
#     4  10  20  36  60  82 119 163 195 245 301 341
#     4   9  21  41  62  87 123 157 193 246 307 355
#     4  11  21  37  63  84 117 158 201 245 296 360
#     4  10  21  41  67  90 119 155 198 254 303 356
#     4  11  21  39  57  87 120 157 203 246 292 348
#     4  10  20  38  59  84 124 158 194 246 297 350
#     4   9  21  39  62  91 123 156 198 242 307 362
#     4  10  20  36  59  85 119 157 204 243 292 356
#
# _framework density 23.81081
#
# number of rings (size 3 to 8) (size 9 to 14) (size 15 to 20)
#    0.000    2.000    2.500    1.125    1.750    4.000 
#    0.000    6.250    0.000    0.000    0.000    0.000 
#    0.000    0.000    0.000    0.000    0.000    0.000 
#
# Total GULP energy -89413.101965 kJ/mol
# GULP energy per Si atom -5588.318873 kJ/mol
# Density = 2.375662 g / cm^3
# Si number density = 23.810810 Si / 1000 Ang^3
#
#
#
# Elastic Constant Matrix: (Units=GPa)
#
#
# Indices 1 2 3 4 5 6 
#
# 1 112.3052 11.6331 8.2492 16.4636 -19.7213 -18.4736
# 2 11.6331 93.2047 8.7970 12.7243 -12.6412 -22.1779
# 3 8.2492 8.7970 65.1162 22.7828 -19.9801 -13.1626
# 4 16.4636 12.7243 22.7828 29.8386 -13.5750 -8.2145
# 5 -19.7213 -12.6412 -19.9801 -13.5750 45.5362 7.6921
# 6 -18.4736 -22.1779 -13.1626 -8.2145 7.6921 33.3499
#
#
#
# Elastic Compliance Matrix: (Units=1/GPa)
#
#
# Indices 1 2 3 4 5 6 
#
# 1 0.010932 0.000917 0.002539 -0.005186 0.003619 0.005555
# 2 0.000917 0.013372 0.002036 -0.004371 0.002245 0.008609
# 3 0.002539 0.002036 0.023450 -0.015493 0.006191 0.006771
# 4 -0.005186 -0.004371 -0.015493 0.052475 0.005424 -0.000220
# 5 0.003619 0.002245 0.006191 0.005424 0.028360 0.000736
# 6 0.005555 0.008609 0.006771 -0.000220 0.000736 0.041236
#
#
# Mechanical properties :
#
#
# Convention : Reuss Voigt Hill
#
# Bulk Modulus (GPa) = 17.02510 36.44275 26.73393
# Shear Modulus (GPa) = 28.02341 37.87472 32.94907
#
# Velocity S-wave (km/s) = 3.43435 3.99263 3.72396
# Velocity P-wave (km/s) = 4.78456 6.04922 5.45367
#
# Compressibility (1/GPa) = 0.05873680
#
# Stress axis : x y z
#
# Youngs Moduli (GPa) = 91.47132 74.78122 42.64477
#
# Poissons Ratio (x) = -0.06854 -0.10827
# Poissons Ratio (y) = -0.08383 -0.08682
# Poissons Ratio (z) = -0.23224 -0.15224
#
# Static dielectric constant tensor:
#      x y z
#    x 1.918320 0.005000 0.007170 
#    y 0.005000 1.930200 0.012240 
#    z 0.007170 0.012240 1.981480 
# 
# From -- ./inp_files/529983.got.cif
#   From: 2010.05.17/outbox.cif.g08.bks.cpg/sg2_265_cif.got.tgz:529983.got - 2010.06.03 11:33:40.
