data_PCOD9097576
_publ_section_title
;
Structure prediction by ZEFSAII (Michael W. Deem and Ramdas Pophale) SiO2 
 PCOD9097576
Probable space group: P -1
;
_chemical_formula_sum "Si O2"
_cell_formula_units_Z 16
_cell_length_a 10.451525
_cell_length_b 16.800850
_cell_length_c 7.524056
_cell_angle_alpha 78.822925
_cell_angle_beta 69.676911
_cell_angle_gamma 134.948863
_cell_volume 657.367511
_symmetry_space_group_name_H-M "P -1"
_symmetry_group_IT_number 2
_symmetry_cell_setting 'triclinic'
loop_
_space_group_symop_operation_xyz
x,y,z
-x,-y,-z
loop_
_atom_site_type_symbol
_atom_site_label
_atom_site_fract_x
_atom_site_fract_y
_atom_site_fract_z
Si Si1 0.328715 0.258550 0.797689
Si Si2 0.454097 0.991898 0.816475
Si Si3 0.132235 0.495048 0.606622
Si Si4 0.187952 0.973364 0.423407
Si Si5 0.128742 0.318699 0.756140
Si Si6 0.863836 0.326922 0.451611
Si Si7 0.917117 0.940806 0.311796
Si Si8 0.781312 0.641169 0.733214
O O1 0.600849 0.369098 0.687953
O O2 0.300428 0.340656 0.765659
O O3 0.091991 0.095501 0.068420
O O4 0.297038 0.208540 0.635071
O O5 0.587761 0.978206 0.678337
O O6 0.603034 0.148377 0.626831
O O7 0.500000 0.000000 0.000000
O O8 0.159123 0.848526 0.989087
O O9 0.156861 0.427137 0.741863
O O10 0.109301 0.569482 0.680547
O O11 0.913580 0.367868 0.622652
O O12 0.214777 0.071658 0.468174
O O13 0.936948 0.795804 0.665715
O O14 0.114872 0.970108 0.264131
O O15 0.179697 0.337244 0.510296
O O16 0.074591 0.368358 0.274207
O O17 0.500000 0.500000 0.000000
#
# Coordination Sequence:
#
# PCOD9097576 Si02
#       8
#     2   2   2   2   2   2   2   2
#     4  11  23  39  64  89 132 166 204 257 317 381
#     4  11  18  37  67  88 126 155 214 265 303 364
#     4  10  21  36  59  89 124 155 206 257 297 370
#     4  10  21  40  62  95 123 159 211 266 305 360
#     4  11  22  40  60  98 121 168 206 252 320 376
#     4   9  21  36  60  97 113 161 215 255 305 357
#     4  10  23  38  60  96 121 163 215 252 317 362
#     4  10  20  36  61  88 128 159 202 260 312 361
#
# _framework density 24.339507000000001
#
# number of rings (size 3 to 8) (size 9 to 14) (size 15 to 20)
#    0.000    1.750    5.000    0.375    8.750    0.000 
#    2.250    0.625    0.000    1.500    0.000    0.000 
#    0.000    0.000    0.000    0.000    0.000    0.000 
#
# Total GULP energy -89416.581293 kJ/mol
# GULP energy per Si atom -5588.536331 kJ/mol
# Density = 2.428411 g / cm^3
# Si number density = 24.339507 Si / 1000 Ang^3
#
#
#
# Elastic Constant Matrix: (Units=GPa)
#
#
# Indices 1 2 3 4 5 6 
#
# 1 118.0463 45.9361 27.8349 -13.6434 -5.5119 -40.2302
# 2 45.9361 96.1545 25.5076 -18.1368 -0.1365 -27.6009
# 3 27.8349 25.5076 78.5967 -22.0436 -19.4472 -3.8842
# 4 -13.6434 -18.1368 -22.0436 26.1759 6.3569 3.4771
# 5 -5.5119 -0.1365 -19.4472 6.3569 28.3098 -11.4347
# 6 -40.2302 -27.6009 -3.8842 3.4771 -11.4347 48.2161
#
#
#
# Elastic Compliance Matrix: (Units=1/GPa)
#
#
# Indices 1 2 3 4 5 6 
#
# 1 0.014331 -0.002865 -0.001833 0.000967 0.005949 0.011511
# 2 -0.002865 0.015124 -0.002012 0.006896 -0.001272 0.005306
# 3 -0.001833 -0.002012 0.020115 0.011801 0.011092 0.000718
# 4 0.000967 0.006896 0.011801 0.054123 -0.003426 0.000989
# 5 0.005949 -0.001272 0.011092 -0.003426 0.052018 0.017712
# 6 0.011511 0.005306 0.000718 0.000989 0.017712 0.037569
#
#
# Mechanical properties :
#
#
# Convention : Reuss Voigt Hill
#
# Bulk Modulus (GPa) = 27.66375 54.59496 41.12935
# Shear Modulus (GPa) = 22.85692 33.44161 28.14926
#
# Velocity S-wave (km/s) = 3.06778 3.71072 3.40446
# Velocity P-wave (km/s) = 4.89273 6.39051 5.69111
#
# Compressibility (1/GPa) = 0.03614840
#
# Stress axis : x y z
#
# Youngs Moduli (GPa) = 69.77994 66.11790 49.71371
#
# Poissons Ratio (x) = 0.18943 0.09115
# Poissons Ratio (y) = 0.19992 0.10005
# Poissons Ratio (z) = 0.12794 0.13306
#
# Static dielectric constant tensor:
#      x y z
#    x 1.959160 0.030900 0.041110 
#    y 0.030900 2.001510 0.063190 
#    z 0.041110 0.063190 1.994910 
# 
# From -- ./inp_files/277776.got.cif
#   From: 2010.05.17/outbox.cif.g08.bks.cpg/sg2_139_cif.got.tgz:277776.got - 2010.06.03 11:33:40.
