data_PCOD9097418
_publ_section_title
;
Structure prediction by ZEFSAII (Michael W. Deem and Ramdas Pophale) SiO2 
 PCOD9097418
Probable space group: P -1
;
_chemical_formula_sum "Si O2"
_cell_formula_units_Z 14
_cell_length_a 8.277506
_cell_length_b 16.293188
_cell_length_c 9.605043
_cell_angle_alpha 129.946534
_cell_angle_beta 126.188164
_cell_angle_gamma 93.694288
_cell_volume 558.857331
_symmetry_space_group_name_H-M "P -1"
_symmetry_group_IT_number 2
_symmetry_cell_setting 'triclinic'
loop_
_space_group_symop_operation_xyz
x,y,z
-x,-y,-z
loop_
_atom_site_type_symbol
_atom_site_label
_atom_site_fract_x
_atom_site_fract_y
_atom_site_fract_z
Si Si1 0.710036 0.149057 0.378380
Si Si2 0.608239 0.617093 0.060395
Si Si3 0.987008 0.827850 0.914641
Si Si4 0.884212 0.555265 0.589525
Si Si5 0.255333 0.045221 0.760985
Si Si6 0.190303 0.122465 0.405109
Si Si7 0.580881 0.320065 0.391108
O O1 0.645126 0.250033 0.459330
O O2 0.052858 0.277186 0.665157
O O3 0.682518 0.047629 0.371889
O O4 0.500000 0.000000 0.000000
O O5 0.578792 0.727738 0.221593
O O6 0.500000 0.500000 0.000000
O O7 0.423278 0.532895 0.736249
O O8 0.064262 0.733318 0.856448
O O9 0.869860 0.827400 0.705880
O O10 0.709604 0.732305 0.770722
O O11 0.220380 0.008954 0.265694
O O12 0.823278 0.493886 0.650350
O O13 0.000000 0.500000 0.500000
O O14 0.519068 0.223400 0.117130
O O15 0.000000 0.000000 0.500000
O O16 0.099565 0.983323 0.766629
#
# Coordination Sequence:
#
# PCOD9097418 Si02
#       7
#     2   2   2   2   2   2   2
#     4   9  19  35  61  93 127 166 214 265 319 390
#     4  11  20  38  66  95 128 168 222 272 321 384
#     4  10  21  40  63  92 132 176 210 269 337 391
#     4  12  25  40  65  95 131 173 223 275 326 391
#     4   9  17  33  61  93 121 163 214 266 313 378
#     4   9  19  37  66  87 127 168 216 256 338 380
#     4  10  20  36  60  91 123 168 216 261 327 385
#
# _framework density 25.051114999999999
#
# number of rings (size 3 to 8) (size 9 to 14) (size 15 to 20)
#    0.000    2.000    1.429    3.857    2.000    0.000 
#    2.571    1.429    9.429    0.000    0.000    0.000 
#    0.000    0.000    0.000    0.000    0.000    0.000 
#
# Total GULP energy -77966.945931 kJ/mol
# GULP energy per Si atom -5569.067567 kJ/mol
# Density = 2.499410 g / cm^3
# Si number density = 25.051115 Si / 1000 Ang^3
#
#
#
# Elastic Constant Matrix: (Units=GPa)
#
#
# Indices 1 2 3 4 5 6 
#
# 1 77.6534 31.6834 0.9042 17.2930 2.1675 -11.5431
# 2 31.6834 127.3481 15.5658 41.3030 -11.4545 -19.2202
# 3 0.9042 15.5658 76.0520 26.3494 -7.7340 -9.7418
# 4 17.2930 41.3030 26.3494 44.2432 -10.0999 -2.7220
# 5 2.1675 -11.4545 -7.7340 -10.0999 31.4365 12.9846
# 6 -11.5431 -19.2202 -9.7418 -2.7220 12.9846 46.3176
#
#
#
# Elastic Compliance Matrix: (Units=1/GPa)
#
#
# Indices 1 2 3 4 5 6 
#
# 1 0.016050 -0.001721 0.002754 -0.007242 -0.005432 0.004962
# 2 -0.001721 0.012672 0.002250 -0.012351 -0.000644 0.004757
# 3 0.002754 0.002250 0.017963 -0.013906 -0.001482 0.004996
# 4 -0.007242 -0.012351 -0.013906 0.047368 0.012120 -0.010469
# 5 -0.005432 -0.000644 -0.001482 0.012120 0.040696 -0.012629
# 6 0.004962 0.004757 0.004996 -0.010469 -0.012629 0.028777
#
#
# Mechanical properties :
#
#
# Convention : Reuss Voigt Hill
#
# Bulk Modulus (GPa) = 18.77929 41.92893 30.35411
# Shear Modulus (GPa) = 28.61915 39.92612 34.27263
#
# Velocity S-wave (km/s) = 3.38365 3.99656 3.70281
# Velocity P-wave (km/s) = 4.77264 6.17011 5.51582
#
# Compressibility (1/GPa) = 0.05325015
#
# Stress axis : x y z
#
# Youngs Moduli (GPa) = 62.30671 78.91680 55.67078
#
# Poissons Ratio (x) = 0.13578 -0.15329
# Poissons Ratio (y) = 0.10720 -0.12527
# Poissons Ratio (z) = -0.17156 -0.17758
#
# Static dielectric constant tensor:
#      x y z
#    x 2.001380 -0.072510 0.022140 
#    y -0.072510 2.283500 0.017820 
#    z 0.022140 0.017820 2.041970 
# 
# From -- ./inp_files/402391.got.cif
#   From: 2010.05.17/outbox.cif.g08.bks.cpg/sg2_202_cif.got.tgz:402391.got - 2010.06.03 11:33:40.
