data_PCOD9097509
_publ_section_title
;
Structure prediction by ZEFSAII (Michael W. Deem and Ramdas Pophale) SiO2 
 PCOD9097509
Probable space group: P -1
;
_chemical_formula_sum "Si O2"
_cell_formula_units_Z 14
_cell_length_a 5.698674
_cell_length_b 16.816806
_cell_length_c 7.502563
_cell_angle_alpha 127.926724
_cell_angle_beta 90.143567
_cell_angle_gamma 90.527410
_cell_volume 567.088491
_symmetry_space_group_name_H-M "P -1"
_symmetry_group_IT_number 2
_symmetry_cell_setting 'triclinic'
loop_
_space_group_symop_operation_xyz
x,y,z
-x,-y,-z
loop_
_atom_site_type_symbol
_atom_site_label
_atom_site_fract_x
_atom_site_fract_y
_atom_site_fract_z
Si Si1 0.362897 0.073799 0.969265
Si Si2 0.947214 0.737001 0.424335
Si Si3 0.665378 0.256816 0.258730
Si Si4 0.596317 0.174152 0.787397
Si Si5 0.054289 0.940625 0.596214
Si Si6 0.429575 0.422902 0.654453
Si Si7 0.684557 0.373093 0.937747
O O1 0.448941 0.092979 0.789323
O O2 0.113171 0.021383 0.859860
O O3 0.437206 0.183939 0.191775
O O4 0.500000 0.000000 0.000000
O O5 0.143229 0.756010 0.605933
O O6 0.875085 0.850833 0.525580
O O7 0.073586 0.683040 0.181718
O O8 0.770054 0.655109 0.389393
O O9 0.564634 0.369160 0.419904
O O10 0.756694 0.218284 0.014481
O O11 0.716856 0.121880 0.549227
O O12 0.504576 0.281739 0.864838
O O13 0.000000 0.000000 0.500000
O O14 0.617779 0.420211 0.811923
O O15 0.325348 0.533826 0.800155
#
# Coordination Sequence:
#
# PCOD9097509 Si02
#       7
#     2   2   2   2   2   2   2
#     4  10  20  39  57  77 115 160 181 227 299 334
#     4  10  20  37  57  84 117 145 193 237 283 343
#     4   9  21  37  56  82 114 154 188 228 292 343
#     4   9  21  38  57  78 116 147 188 234 286 338
#     4  11  22  35  58  89 111 150 199 236 281 342
#     4  10  20  36  61  83 112 147 193 235 285 347
#     4   9  20  38  58  84 110 151 187 237 295 333
#
# _framework density 24.687505999999999
#
# number of rings (size 3 to 8) (size 9 to 14) (size 15 to 20)
#    0.857    1.429    1.429    0.857    2.000    2.857 
#    0.000    2.857    0.000    0.000    0.000    0.000 
#    0.000    0.000    0.000    0.000    0.000    0.000 
#
# Total GULP energy -77943.557536 kJ/mol
# GULP energy per Si atom -5567.396967 kJ/mol
# Density = 2.463132 g / cm^3
# Si number density = 24.687506 Si / 1000 Ang^3
#
#
#
# Elastic Constant Matrix: (Units=GPa)
#
#
# Indices 1 2 3 4 5 6 
#
# 1 29.3291 15.5102 14.3374 -0.2787 -0.2668 8.5307
# 2 15.5102 95.2471 23.5463 -1.6157 -0.4978 16.7742
# 3 14.3374 23.5463 89.1829 14.6104 5.7413 -1.6522
# 4 -0.2787 -1.6157 14.6104 43.7708 4.7877 -6.8024
# 5 -0.2668 -0.4978 5.7413 4.7877 20.1661 -2.8270
# 6 8.5307 16.7742 -1.6522 -6.8024 -2.8270 31.7660
#
#
#
# Elastic Compliance Matrix: (Units=1/GPa)
#
#
# Indices 1 2 3 4 5 6 
#
# 1 0.041731 -0.003622 -0.006075 0.000617 0.000726 -0.009413
# 2 -0.003622 0.012878 -0.003025 0.000532 0.000184 -0.005855
# 3 -0.006075 -0.003025 0.013880 -0.004041 -0.002749 0.002841
# 4 0.000617 0.000532 -0.004041 0.025365 -0.004234 0.004398
# 5 0.000726 0.000184 -0.002749 -0.004234 0.051849 0.003272
# 6 -0.009413 -0.005855 0.002841 0.004398 0.003272 0.038480
#
#
# Mechanical properties :
#
#
# Convention : Reuss Voigt Hill
#
# Bulk Modulus (GPa) = 23.23147 35.61633 29.42390
# Shear Modulus (GPa) = 22.32385 29.83159 26.07772
#
# Velocity S-wave (km/s) = 3.01035 3.47993 3.25362
# Velocity P-wave (km/s) = 4.63827 5.53215 5.10482
#
# Compressibility (1/GPa) = 0.04304507
#
# Stress axis : x y z
#
# Youngs Moduli (GPa) = 23.96282 77.65367 72.04641
#
# Poissons Ratio (x) = 0.28124 0.43768
# Poissons Ratio (y) = 0.08679 0.21796
# Poissons Ratio (z) = 0.14557 0.23492
#
# Static dielectric constant tensor:
#      x y z
#    x 2.029810 0.019120 -0.041770 
#    y 0.019120 2.002180 0.000080 
#    z -0.041770 0.000080 2.024920 
# 
# From -- ./inp_files/117186.got.cif
#   From: 2010.05.17/outbox.cif.g08.bks.cpg/sg2_59_cif.got.tgz:117186.got - 2010.06.03 11:33:40.
