data_PCOD9097276
_publ_section_title
;
Structure prediction by ZEFSAII (Michael W. Deem and Ramdas Pophale) SiO2 
 PCOD9097276
Probable space group: P -1
;
_chemical_formula_sum "Si O2"
_cell_formula_units_Z 12
_cell_length_a 11.013059
_cell_length_b 7.982802
_cell_length_c 10.294392
_cell_angle_alpha 103.542300
_cell_angle_beta 120.434280
_cell_angle_gamma 39.692435
_cell_volume 478.054629
_symmetry_space_group_name_H-M "P -1"
_symmetry_group_IT_number 2
_symmetry_cell_setting 'triclinic'
loop_
_space_group_symop_operation_xyz
x,y,z
-x,-y,-z
loop_
_atom_site_type_symbol
_atom_site_label
_atom_site_fract_x
_atom_site_fract_y
_atom_site_fract_z
Si Si1 0.246052 0.805291 0.035395
Si Si2 0.051191 0.828429 0.718410
Si Si3 0.058836 0.284300 0.583839
Si Si4 0.993407 0.272102 0.824154
Si Si5 0.449491 0.182895 0.314078
Si Si6 0.597692 0.150086 0.654146
O O1 0.204339 0.031839 0.985625
O O2 0.589033 0.318466 0.779345
O O3 0.000000 0.000000 0.000000
O O4 0.260719 0.650925 0.899654
O O5 0.077028 0.734287 0.570587
O O6 0.962599 0.108411 0.720290
O O7 0.853004 0.908543 0.693921
O O8 0.000000 0.500000 0.500000
O O9 0.018545 0.361196 0.726074
O O10 0.321780 0.993065 0.665556
O O11 0.777174 0.547453 0.831087
O O12 0.453888 0.287120 0.470459
O O13 0.453319 0.980504 0.324664
#
# Coordination Sequence:
#
# PCOD9097276 Si02
#       6
#     2   2   2   2   2   2
#     4   8  17  34  57  82 110 148 184 225 281 331
#     4   8  18  33  57  82 106 145 190 222 276 321
#     4  11  21  36  57  85 116 146 183 232 276 332
#     4  10  20  36  60  85 109 146 187 234 274 324
#     4  10  21  34  58  88 108 146 189 227 277 328
#     4   9  16  34  54  81 116 143 184 225 273 335
#
# _framework density 25.101734
#
# number of rings (size 3 to 8) (size 9 to 14) (size 15 to 20)
#    1.000    1.667    0.000    3.500    0.000    3.333 
#    0.000    2.500    0.000   11.000    0.000    0.000 
#    0.000    0.000    0.000    0.000    0.000    0.000 
#
# Total GULP energy -66883.930399 kJ/mol
# GULP energy per Si atom -5573.660867 kJ/mol
# Density = 2.504460 g / cm^3
# Si number density = 25.101734 Si / 1000 Ang^3
#
#
#
# Elastic Constant Matrix: (Units=GPa)
#
#
# Indices 1 2 3 4 5 6 
#
# 1 32.6634 -9.1296 11.7131 -5.8899 -4.2599 -2.2355
# 2 -9.1296 48.7932 -11.7831 -8.2668 -3.6287 -5.0487
# 3 11.7131 -11.7831 72.5372 3.4721 -3.8564 -18.6753
# 4 -5.8899 -8.2668 3.4721 29.0970 -2.5231 -0.2125
# 5 -4.2599 -3.6287 -3.8564 -2.5231 28.5591 -3.1072
# 6 -2.2355 -5.0487 -18.6753 -0.2125 -3.1072 33.0889
#
#
#
# Elastic Compliance Matrix: (Units=1/GPa)
#
#
# Indices 1 2 3 4 5 6 
#
# 1 0.037731 0.008732 -0.004240 0.011283 0.007407 0.002257
# 2 0.008732 0.026227 0.004847 0.009305 0.006987 0.008043
# 3 -0.004240 0.004847 0.018381 -0.001284 0.003566 0.011154
# 4 0.011283 0.009305 -0.001284 0.040028 0.006481 0.002323
# 5 0.007407 0.006987 0.003566 0.006481 0.038853 0.007269
# 6 0.002257 0.008043 0.011154 0.002323 0.007269 0.038594
#
#
# Mechanical properties :
#
#
# Convention : Reuss Voigt Hill
#
# Bulk Modulus (GPa) = 9.89910 15.06605 12.48258
# Shear Modulus (GPa) = 23.27669 29.02857 26.15263
#
# Velocity S-wave (km/s) = 3.04845 3.40433 3.23130
# Velocity P-wave (km/s) = 4.04264 4.63332 4.34802
#
# Compressibility (1/GPa) = 0.10101924
#
# Stress axis : x y z
#
# Youngs Moduli (GPa) = 26.50312 38.12797 54.40496
#
# Poissons Ratio (x) = -0.33294 0.23065
# Poissons Ratio (y) = -0.23143 -0.26372
# Poissons Ratio (z) = 0.11236 -0.18482
#
# Static dielectric constant tensor:
#      x y z
#    x 2.071940 -0.031920 -0.016980 
#    y -0.031920 1.978370 0.000760 
#    z -0.016980 0.000760 2.056720 
# 
# From -- ./inp_files/417881.got.cif
#   From: 2010.05.17/outbox.cif.g08.bks.cpg/sg2_209_cif.got.tgz:417881.got - 2010.06.03 11:33:40.
