data_PCOD9097721
_publ_section_title
;
Structure prediction by ZEFSAII (Michael W. Deem and Ramdas Pophale) SiO2 
 PCOD9097721
Probable space group: P -1
;
_chemical_formula_sum "Si O2"
_cell_formula_units_Z 14
_cell_length_a 15.238565
_cell_length_b 5.542441
_cell_length_c 23.796565
_cell_angle_alpha 98.744925
_cell_angle_beta 20.449177
_cell_angle_gamma 88.199392
_cell_volume 599.621744
_symmetry_space_group_name_H-M "P -1"
_symmetry_group_IT_number 2
_symmetry_cell_setting 'triclinic'
loop_
_space_group_symop_operation_xyz
x,y,z
-x,-y,-z
loop_
_atom_site_type_symbol
_atom_site_label
_atom_site_fract_x
_atom_site_fract_y
_atom_site_fract_z
Si Si1 0.809151 0.246016 0.181720
Si Si2 0.720048 0.283997 0.518656
Si Si3 0.849753 0.035033 0.261181
Si Si4 0.153329 0.416016 0.677707
Si Si5 0.918714 0.622894 0.491016
Si Si6 0.366222 0.105106 0.804332
Si Si7 0.824693 0.335738 0.775425
O O1 0.500470 0.523820 0.391457
O O2 0.946790 0.003358 0.137245
O O3 0.711210 0.117802 0.185558
O O4 0.056111 0.323766 0.023457
O O5 0.820996 0.433900 0.507971
O O6 0.501974 0.209131 0.679695
O O7 0.006409 0.994898 0.321312
O O8 0.498492 0.201419 0.470319
O O9 0.923559 0.271071 0.247446
O O10 0.962852 0.749406 0.218358
O O11 0.019009 0.435103 0.697285
O O12 0.000000 0.500000 0.500000
O O13 0.135814 0.642006 0.314995
O O14 0.634746 0.933312 0.678572
O O15 0.500000 0.500000 0.000000
#
# Coordination Sequence:
#
# PCOD9097721 Si02
#       7
#     2   2   2   2   2   2   2
#     4  10  20  36  61  98 127 173 214 277 343 410
#     4  10  21  40  68  87 132 172 220 276 344 410
#     4  10  22  38  66  95 136 173 223 279 343 419
#     4  10  23  41  62  96 132 178 223 276 348 407
#     4  10  23  44  67  94 125 173 227 283 340 404
#     4   9  20  37  61  95 130 163 223 273 342 410
#     4  11  26  45  65  95 132 181 232 281 344 413
#
# _framework density 23.348051000000002
#
# number of rings (size 3 to 8) (size 9 to 14) (size 15 to 20)
#    0.000    2.000    0.000    3.000   10.000    4.000 
#    5.143    0.000    0.000    0.000    0.000    0.000 
#    0.000    0.000    0.000    0.000    0.000    0.000 
#
# Total GULP energy -78048.662561 kJ/mol
# GULP energy per Si atom -5574.904469 kJ/mol
# Density = 2.329491 g / cm^3
# Si number density = 23.348051 Si / 1000 Ang^3
#
#
#
# Elastic Constant Matrix: (Units=GPa)
#
#
# Indices 1 2 3 4 5 6 
#
# 1 123.7378 22.1448 22.6413 1.3503 3.3188 -34.4176
# 2 22.1448 77.8604 38.2873 -4.0548 -1.9290 -23.4155
# 3 22.6413 38.2873 113.2896 6.4842 -0.4721 -11.3357
# 4 1.3503 -4.0548 6.4842 17.0858 -2.0391 0.9279
# 5 3.3188 -1.9290 -0.4721 -2.0391 15.0624 -2.7969
# 6 -34.4176 -23.4155 -11.3357 0.9279 -2.7969 47.1147
#
#
#
# Elastic Compliance Matrix: (Units=1/GPa)
#
#
# Indices 1 2 3 4 5 6 
#
# 1 0.010369 -0.000303 -0.001212 -0.000956 -0.001176 0.007082
# 2 -0.000303 0.018589 -0.005814 0.006772 0.004623 0.007760
# 3 -0.001212 -0.005814 0.011249 -0.005626 -0.001076 -0.001021
# 4 -0.000956 0.006772 -0.005626 0.063459 0.009610 0.000634
# 5 -0.001176 0.004623 -0.001076 0.009610 0.069459 0.005114
# 6 0.007082 0.007760 -0.001021 0.000634 0.005114 0.030300
#
#
# Mechanical properties :
#
#
# Convention : Reuss Voigt Hill
#
# Bulk Modulus (GPa) = 39.13602 53.44827 46.29214
# Shear Modulus (GPa) = 22.06544 31.30688 26.68616
#
# Velocity S-wave (km/s) = 3.07753 3.66577 3.38445
# Velocity P-wave (km/s) = 5.42463 6.39209 5.92813
#
# Compressibility (1/GPa) = 0.02555191
#
# Stress axis : x y z
#
# Youngs Moduli (GPa) = 96.43884 53.79408 88.89432
#
# Poissons Ratio (x) = 0.01627 0.10771
# Poissons Ratio (y) = 0.02917 0.51682
# Poissons Ratio (z) = 0.11685 0.31275
#
# Static dielectric constant tensor:
#      x y z
#    x 1.945550 -0.055980 0.111270 
#    y -0.055980 2.048180 0.014220 
#    z 0.111270 0.014220 2.004560 
# 
# From -- ./inp_files/93219.got.cif
#   From: 2010.05.17/outbox.cif.g08.bks.cpg/sg2_47_cif.got.tgz:93219.got - 2010.06.03 11:33:40.
