data_PCOD9097336
_publ_section_title
;
Structure prediction by ZEFSAII (Michael W. Deem and Ramdas Pophale) SiO2 
 PCOD9097336
Probable space group: P -1
;
_chemical_formula_sum "Si O2"
_cell_formula_units_Z 14
_cell_length_a 13.098869
_cell_length_b 9.431724
_cell_length_c 12.595235
_cell_angle_alpha 140.289328
_cell_angle_beta 46.776251
_cell_angle_gamma 142.056851
_cell_volume 599.083300
_symmetry_space_group_name_H-M "P -1"
_symmetry_group_IT_number 2
_symmetry_cell_setting 'triclinic'
loop_
_space_group_symop_operation_xyz
x,y,z
-x,-y,-z
loop_
_atom_site_type_symbol
_atom_site_label
_atom_site_fract_x
_atom_site_fract_y
_atom_site_fract_z
Si Si1 0.071047 0.308326 0.628502
Si Si2 0.670194 0.134176 0.271107
Si Si3 0.044995 0.353150 0.123719
Si Si4 0.006136 0.818273 0.161298
Si Si5 0.092993 0.352426 0.326554
Si Si6 0.410226 0.068716 0.015196
Si Si7 0.523062 0.409056 0.812997
O O1 0.248938 0.548120 0.588596
O O2 0.933020 0.362057 0.715725
O O3 0.087044 0.364160 0.775729
O O4 0.000000 0.000000 0.500000
O O5 0.843250 0.153927 0.137781
O O6 0.591360 0.913509 0.292044
O O7 0.566223 0.021311 0.170898
O O8 0.082024 0.279259 0.166959
O O9 0.100329 0.334421 0.957087
O O10 0.014931 0.092414 0.305821
O O11 0.205683 0.923489 0.091668
O O12 0.292004 0.525184 0.300080
O O13 0.000000 0.500000 0.500000
O O14 0.491867 0.388834 0.134505
O O15 0.500000 0.000000 0.000000
O O16 0.500000 0.500000 0.000000
#
# Coordination Sequence:
#
# PCOD9097336 Si02
#       7
#     2   2   2   2   2   2   2
#     4  10  20  36  60  87 127 167 210 273 329 371
#     4   8  19  37  56  89 124 161 215 260 321 383
#     4   9  20  37  61  90 123 166 219 270 317 390
#     4  10  20  37  61  92 124 164 220 272 318 386
#     4  11  22  38  65  97 128 168 214 267 337 391
#     4   9  18  34  60  91 121 159 213 271 319 378
#     4   9  19  39  61  90 131 169 211 270 321 393
#
# _framework density 23.369036000000001
#
# number of rings (size 3 to 8) (size 9 to 14) (size 15 to 20)
#    0.857    1.714    0.000    2.571    0.000    2.286 
#    2.571    0.714    0.000    4.286    0.000    0.000 
#    0.000    0.000    0.000    0.000    0.000    0.000 
#
# Total GULP energy -77935.058626 kJ/mol
# GULP energy per Si atom -5566.789902 kJ/mol
# Density = 2.331585 g / cm^3
# Si number density = 23.369036 Si / 1000 Ang^3
#
#
#
# Elastic Constant Matrix: (Units=GPa)
#
#
# Indices 1 2 3 4 5 6 
#
# 1 127.2998 51.5736 30.5152 5.3401 -8.8896 -28.8993
# 2 51.5736 139.6244 34.1563 28.4377 -11.5719 -33.8167
# 3 30.5152 34.1563 72.1537 9.5842 -10.3332 -4.8370
# 4 5.3401 28.4377 9.5842 37.5873 -13.5861 -4.1456
# 5 -8.8896 -11.5719 -10.3332 -13.5861 42.2217 0.1881
# 6 -28.8993 -33.8167 -4.8370 -4.1456 0.1881 33.7912
#
#
#
# Elastic Compliance Matrix: (Units=1/GPa)
#
#
# Indices 1 2 3 4 5 6 
#
# 1 0.011110 -0.001720 -0.003412 0.002019 0.001649 0.007531
# 2 -0.001720 0.012469 -0.003594 -0.007291 -0.000213 0.009600
# 3 -0.003412 -0.003594 0.017155 -0.000817 0.002251 -0.004171
# 4 0.002019 -0.007291 -0.000817 0.035362 0.009612 -0.001402
# 5 0.001649 -0.000213 0.002251 0.009612 0.027606 0.002545
# 6 0.007531 0.009600 -0.004171 -0.001402 0.002545 0.044858
#
#
# Mechanical properties :
#
#
# Convention : Reuss Voigt Hill
#
# Bulk Modulus (GPa) = 42.94976 63.50759 53.22867
# Shear Modulus (GPa) = 28.77353 37.57556 33.17455
#
# Velocity S-wave (km/s) = 3.51275 4.01424 3.77184
# Velocity P-wave (km/s) = 5.90520 6.98000 6.46497
#
# Compressibility (1/GPa) = 0.02328302
#
# Stress axis : x y z
#
# Youngs Moduli (GPa) = 90.00769 80.19994 58.29341
#
# Poissons Ratio (x) = 0.13793 0.19888
# Poissons Ratio (y) = 0.15480 0.20949
# Poissons Ratio (z) = 0.30709 0.28821
#
# Static dielectric constant tensor:
#      x y z
#    x 1.747700 0.057440 0.010460 
#    y 0.057440 1.876040 0.032850 
#    z 0.010460 0.032850 2.076300 
# 
# From -- ./inp_files/419970.got.cif
#   From: 2010.05.17/outbox.cif.g08.bks.cpg/sg2_210_cif.got.tgz:419970.got - 2010.06.03 11:33:40.
