data_PCOD9097036
_publ_section_title
;
Structure prediction by ZEFSAII (Michael W. Deem and Ramdas Pophale) SiO2 
 PCOD9097036
Probable space group: P -1
;
_chemical_formula_sum "Si O2"
_cell_formula_units_Z 16
_cell_length_a 9.240181
_cell_length_b 5.518882
_cell_length_c 21.648020
_cell_angle_alpha 75.803698
_cell_angle_beta 50.945901
_cell_angle_gamma 51.194292
_cell_volume 647.318144
_symmetry_space_group_name_H-M "P -1"
_symmetry_group_IT_number 2
_symmetry_cell_setting 'triclinic'
loop_
_space_group_symop_operation_xyz
x,y,z
-x,-y,-z
loop_
_atom_site_type_symbol
_atom_site_label
_atom_site_fract_x
_atom_site_fract_y
_atom_site_fract_z
Si Si1 0.056395 0.835805 0.839459
Si Si2 0.817396 0.677299 0.708929
Si Si3 0.268263 0.485129 0.990785
Si Si4 0.361586 0.280980 0.569278
Si Si5 0.830629 0.565532 0.847470
Si Si6 0.720750 0.266412 0.543902
Si Si7 0.392103 0.591625 0.300962
Si Si8 0.771248 0.949146 0.036340
O O1 0.973764 0.695768 0.821150
O O2 0.340381 0.588955 0.783606
O O3 0.917792 0.885187 0.937127
O O4 0.981109 0.182684 0.822877
O O5 0.723332 0.540291 0.697344
O O6 0.104746 0.402870 0.652498
O O7 0.721944 0.710073 0.801086
O O8 0.743456 0.024619 0.689827
O O9 0.346255 0.215007 0.937665
O O10 0.323551 0.364927 0.053327
O O11 0.359997 0.681691 0.938202
O O12 0.977932 0.739660 0.045098
O O13 0.546231 0.181577 0.580913
O O14 0.291098 0.577562 0.527157
O O15 0.500000 0.000000 0.500000
O O16 0.609231 0.482630 0.621551
O O17 0.000000 0.000000 0.500000
#
# Coordination Sequence:
#
# PCOD9097036 Si02
#       8
#     2   2   2   2   2   2   2   2
#     4  10  20  36  59  86 113 156 198 251 296 355
#     4  12  26  42  60  89 122 160 200 243 301 361
#     4   8  14  26  48  79 109 146 182 248 294 342
#     4  11  26  41  69  92 121 160 199 252 299 363
#     4  10  20  36  59  84 118 150 203 247 298 357
#     4  11  24  45  65  93 123 156 202 246 305 359
#     4  12  26  41  63  85 124 161 197 247 300 359
#     4   8  14  26  48  79 111 139 193 239 296 347
#
# _framework density 24.717365000000001
#
# number of rings (size 3 to 8) (size 9 to 14) (size 15 to 20)
#    0.000    1.750    1.250    3.000    5.250    1.000 
#    0.000    0.000    0.000    1.500    0.000    0.000 
#    0.000    0.000    0.000    0.000    0.000    0.000 
#
# Total GULP energy -89482.474929 kJ/mol
# GULP energy per Si atom -5592.654683 kJ/mol
# Density = 2.466111 g / cm^3
# Si number density = 24.717365 Si / 1000 Ang^3
#
#
#
# Elastic Constant Matrix: (Units=GPa)
#
#
# Indices 1 2 3 4 5 6 
#
# 1 210.4100 64.7095 48.1416 12.5323 14.5829 28.1185
# 2 64.7095 110.4150 17.6816 11.3596 -0.4100 26.3984
# 3 48.1416 17.6816 110.1094 11.7263 -1.8212 5.3218
# 4 12.5323 11.3596 11.7263 41.7036 -11.6598 2.2292
# 5 14.5829 -0.4100 -1.8212 -11.6598 44.0343 5.0114
# 6 28.1185 26.3984 5.3218 2.2292 5.0114 52.2073
#
#
#
# Elastic Compliance Matrix: (Units=1/GPa)
#
#
# Indices 1 2 3 4 5 6 
#
# 1 0.006654 -0.003067 -0.002263 -0.001132 -0.002453 -0.001519
# 2 -0.003067 0.012148 -0.000184 -0.001769 0.001166 -0.004508
# 3 -0.002263 -0.000184 0.010312 -0.002015 0.000608 0.000289
# 4 -0.001132 -0.001769 -0.002015 0.027496 0.007578 -0.000192
# 5 -0.002453 0.001166 0.000608 0.007578 0.025807 -0.002131
# 6 -0.001519 -0.004508 0.000289 -0.000192 -0.002131 0.022435
#
#
# Mechanical properties :
#
#
# Convention : Reuss Voigt Hill
#
# Bulk Modulus (GPa) = 55.29587 76.88887 66.09237
# Shear Modulus (GPa) = 41.01431 47.61582 44.31507
#
# Velocity S-wave (km/s) = 4.07791 4.39385 4.23883
# Velocity P-wave (km/s) = 6.67775 7.54427 7.12419
#
# Compressibility (1/GPa) = 0.01808453
#
# Stress axis : x y z
#
# Youngs Moduli (GPa) = 150.28546 82.32033 96.97724
#
# Poissons Ratio (x) = 0.25245 0.21949
# Poissons Ratio (y) = 0.46088 0.01788
# Poissons Ratio (z) = 0.34015 0.01518
#
# Static dielectric constant tensor:
#      x y z
#    x 2.026400 0.037550 -0.099310 
#    y 0.037550 2.166340 -0.123650 
#    z -0.099310 -0.123650 2.030950 
# 
# From -- ./inp_files/10733.got.cif
#   From: 2010.05.17/outbox.cif.g08.bks.cpg/sg2_6_cif.got.tgz:10733.got - 2010.06.03 11:33:40.
