data_PCOD9097608
_publ_section_title
;
Structure prediction by ZEFSAII (Michael W. Deem and Ramdas Pophale) SiO2 
 PCOD9097608
Probable space group: P -1
;
_chemical_formula_sum "Si O2"
_cell_formula_units_Z 14
_cell_length_a 6.582120
_cell_length_b 22.704874
_cell_length_c 8.011567
_cell_angle_alpha 144.947949
_cell_angle_beta 114.097641
_cell_angle_gamma 55.124531
_cell_volume 559.570357
_symmetry_space_group_name_H-M "P -1"
_symmetry_group_IT_number 2
_symmetry_cell_setting 'triclinic'
loop_
_space_group_symop_operation_xyz
x,y,z
-x,-y,-z
loop_
_atom_site_type_symbol
_atom_site_label
_atom_site_fract_x
_atom_site_fract_y
_atom_site_fract_z
Si Si1 0.461945 0.127521 0.251328
Si Si2 0.745704 0.509324 0.140223
Si Si3 0.207286 0.173474 0.788270
Si Si4 0.063147 0.809016 0.932670
Si Si5 0.272812 0.347622 0.850667
Si Si6 0.627452 0.629702 0.721996
Si Si7 0.253329 0.959010 0.163565
O O1 0.450759 0.211107 0.590562
O O2 0.179006 0.192464 0.234812
O O3 0.683041 0.104376 0.140332
O O4 0.500000 0.000000 0.000000
O O5 0.726483 0.606923 0.229695
O O6 0.751927 0.542023 0.410284
O O7 0.500000 0.500000 0.000000
O O8 0.982707 0.393078 0.898301
O O9 0.473675 0.098087 0.791984
O O10 0.179700 0.094153 0.450243
O O11 0.233638 0.288459 0.031747
O O12 0.995510 0.189684 0.888546
O O13 0.336809 0.705628 0.752307
O O14 0.080075 0.921983 0.130742
O O15 0.357518 0.408163 0.167089
#
# Coordination Sequence:
#
# PCOD9097608 Si02
#       7
#     2   2   2   2   2   2   2
#     4  11  23  40  62  94 137 177 217 269 327 391
#     4  11  25  46  71  97 131 171 220 278 331 390
#     4   9  18  33  56  88 125 164 211 264 315 377
#     4  10  20  36  61  89 131 177 219 267 323 386
#     4  11  25  44  68  99 133 173 220 272 330 390
#     4  11  23  42  68  97 129 169 219 273 332 393
#     4   9  18  33  54  84 125 173 217 258 311 376
#
# _framework density 25.019193000000001
#
# number of rings (size 3 to 8) (size 9 to 14) (size 15 to 20)
#    0.000    1.714    0.000    5.143    0.000    6.857 
#    0.000    1.429    0.000    0.000    0.000    0.000 
#    0.000    0.000    0.000    0.000    0.000    0.000 
#
# Total GULP energy -78233.055192 kJ/mol
# GULP energy per Si atom -5588.075371 kJ/mol
# Density = 2.496225 g / cm^3
# Si number density = 25.019193 Si / 1000 Ang^3
#
#
#
# Elastic Constant Matrix: (Units=GPa)
#
#
# Indices 1 2 3 4 5 6 
#
# 1 127.2069 11.7937 48.6310 -2.2166 -8.8157 -8.8682
# 2 11.7937 66.8664 20.8915 -5.9760 -5.3993 -7.3765
# 3 48.6310 20.8915 156.0531 -11.5383 -28.7812 -0.6315
# 4 -2.2166 -5.9760 -11.5383 33.1478 8.5524 0.9846
# 5 -8.8157 -5.3993 -28.7812 8.5524 11.3600 -14.1959
# 6 -8.8682 -7.3765 -0.6315 0.9846 -14.1959 23.3121
#
#
#
# Elastic Compliance Matrix: (Units=1/GPa)
#
#
# Indices 1 2 3 4 5 6 
#
# 1 0.008724 -0.001225 -0.004280 0.001522 -0.009893 -0.003274
# 2 -0.001225 0.015002 -0.004278 0.005565 -0.016473 -0.006101
# 3 -0.004280 -0.004278 0.003418 0.008355 -0.029432 -0.021165
# 4 0.001522 0.005565 0.008355 0.022451 0.042310 0.027383
# 5 -0.009893 -0.016473 -0.029432 0.042310 -0.202261 -0.134727
# 6 -0.003274 -0.006101 -0.021165 0.027383 -0.134727 -0.044052
#
#
# Mechanical properties :
#
#
# Convention : Reuss Voigt Hill
#
# Bulk Modulus (GPa) = 131.96517 56.97318 94.46917
# Shear Modulus (GPa) = -28.63270 31.48466 1.42598
#
# Velocity S-wave (km/s) = -3.38661 3.55127 0.75577
# Velocity P-wave (km/s) = 6.12927 6.29576 6.21307
#
# Compressibility (1/GPa) = 0.00757776
#
# Stress axis : x y z
#
# Youngs Moduli (GPa) = 114.63083 66.65773 292.53398
#
# Poissons Ratio (x) = 0.08169 1.25200
# Poissons Ratio (y) = 0.14047 1.25142
# Poissons Ratio (z) = 0.49060 0.28515
#
# Static dielectric constant tensor:
#      x y z
#    x 2.004900 0.132810 0.005260 
#    y 0.132810 2.149020 -0.007040 
#    z 0.005260 -0.007040 2.026070 
# 
# From -- ./inp_files/143191.got.cif
#   From: 2010.05.17/outbox.cif.g08.bks.cpg/sg2_72_cif.got.tgz:143191.got - 2010.06.03 11:33:40.
