data_PCOD9097893
_publ_section_title
;
Structure prediction by ZEFSAII (Michael W. Deem and Ramdas Pophale) SiO2 
 PCOD9097893
Probable space group: P -1
;
_chemical_formula_sum "Si O2"
_cell_formula_units_Z 12
_cell_length_a 7.256184
_cell_length_b 10.492134
_cell_length_c 16.546448
_cell_angle_alpha 35.118895
_cell_angle_beta 132.305786
_cell_angle_gamma 111.034941
_cell_volume 478.515859
_symmetry_space_group_name_H-M "P -1"
_symmetry_group_IT_number 2
_symmetry_cell_setting 'triclinic'
loop_
_space_group_symop_operation_xyz
x,y,z
-x,-y,-z
loop_
_atom_site_type_symbol
_atom_site_label
_atom_site_fract_x
_atom_site_fract_y
_atom_site_fract_z
Si Si1 0.859390 0.302024 0.601976
Si Si2 0.425153 0.527403 0.073345
Si Si3 0.967694 0.209293 0.313403
Si Si4 0.669011 0.785068 0.098750
Si Si5 0.486453 0.980459 0.360787
Si Si6 0.357936 0.194894 0.681115
O O1 0.765219 0.089157 0.680393
O O2 0.596883 0.573107 0.393011
O O3 0.022573 0.313561 0.725445
O O4 0.068408 0.257785 0.611289
O O5 0.719614 0.452723 0.152230
O O6 0.513912 0.609699 0.139790
O O7 0.392924 0.274316 0.191504
O O8 0.170569 0.752956 0.835817
O O9 0.283004 0.166571 0.426268
O O10 0.000000 0.000000 0.500000
O O11 0.500000 0.000000 0.000000
O O12 0.605008 0.939375 0.917806
O O13 0.646642 0.858249 0.387057
#
# Coordination Sequence:
#
# PCOD9097893 Si02
#       6
#     2   2   2   2   2   2
#     4  10  23  40  62  94 125 160 207 253 302 366
#     4  10  20  36  62  92 121 161 207 251 304 365
#     4   9  18  33  59  91 122 156 201 249 302 362
#     4  10  21  39  62  86 123 166 200 248 310 364
#     4  11  22  38  66  95 121 160 207 255 307 359
#     4  10  21  39  62  89 126 164 202 249 306 365
#
# _framework density 25.077541
#
# number of rings (size 3 to 8) (size 9 to 14) (size 15 to 20)
#    0.000    2.000    0.000    4.500    0.000    3.333 
#    0.000    3.333    0.000   56.000    0.000    1.167 
#    0.000    0.000    0.000    0.000    0.000    0.000 
#
# Total GULP energy -66845.805751 kJ/mol
# GULP energy per Si atom -5570.483813 kJ/mol
# Density = 2.502046 g / cm^3
# Si number density = 25.077541 Si / 1000 Ang^3
#
#
#
# Elastic Constant Matrix: (Units=GPa)
#
#
# Indices 1 2 3 4 5 6 
#
# 1 61.3359 48.5008 16.3350 -2.8629 3.8643 1.4915
# 2 48.5008 196.3311 67.2211 -19.9972 -2.8309 16.8340
# 3 16.3350 67.2211 132.5493 8.9413 -5.4029 6.7178
# 4 -2.8629 -19.9972 8.9413 62.0928 -1.0294 2.7695
# 5 3.8643 -2.8309 -5.4029 -1.0294 2.5732 -13.3370
# 6 1.4915 16.8340 6.7178 2.7695 -13.3370 31.6831
#
#
#
# Elastic Compliance Matrix: (Units=1/GPa)
#
#
# Indices 1 2 3 4 5 6 
#
# 1 0.019085 -0.005751 0.000919 -0.001239 0.019309 0.010199
# 2 -0.005751 0.008139 -0.003324 0.002983 0.005841 -0.001151
# 3 0.000919 -0.003324 0.009057 -0.002308 -0.011066 -0.004654
# 4 -0.001239 0.002983 -0.002308 0.017444 0.005080 -0.000423
# 5 0.019309 0.005841 -0.011066 0.005080 -0.282537 -0.121044
# 6 0.010199 -0.001151 -0.004654 -0.000423 -0.121044 -0.018236
#
#
# Mechanical properties :
#
#
# Convention : Reuss Voigt Hill
#
# Bulk Modulus (GPa) = 50.08045 72.70336 61.39191
# Shear Modulus (GPa) = -22.31347 36.48042 7.08347
#
# Velocity S-wave (km/s) = -2.98615 3.81820 1.68249
# Velocity P-wave (km/s) = 2.85028 6.96366 5.32056
#
# Compressibility (1/GPa) = 0.01996787
#
# Stress axis : x y z
#
# Youngs Moduli (GPa) = 52.39842 122.86691 110.40965
#
# Poissons Ratio (x) = 0.70666 -0.10142
# Poissons Ratio (y) = 0.30137 0.36695
# Poissons Ratio (z) = -0.04813 0.40836
#
# Static dielectric constant tensor:
#      x y z
#    x 2.096720 0.035750 -0.084510 
#    y 0.035750 2.175760 0.116410 
#    z -0.084510 0.116410 2.206060 
# 
# From -- ./inp_files/588349.got.cif
#   From: 2010.05.17/outbox.cif.g08.bks.cpg/sg2_295_cif.got.tgz:588349.got - 2010.06.03 11:33:40.
