data_PCOD9097073
_publ_section_title
;
Structure prediction by ZEFSAII (Michael W. Deem and Ramdas Pophale) SiO2 
 PCOD9097073
Probable space group: P -1
;
_chemical_formula_sum "Si O2"
_cell_formula_units_Z 15
_cell_length_a 9.596996
_cell_length_b 14.618047
_cell_length_c 7.889023
_cell_angle_alpha 139.234322
_cell_angle_beta 100.728874
_cell_angle_gamma 87.352102
_cell_volume 702.241333
_symmetry_space_group_name_H-M "P -1"
_symmetry_group_IT_number 2
_symmetry_cell_setting 'triclinic'
loop_
_space_group_symop_operation_xyz
x,y,z
-x,-y,-z
loop_
_atom_site_type_symbol
_atom_site_label
_atom_site_fract_x
_atom_site_fract_y
_atom_site_fract_z
Si Si1 0.802660 0.525668 0.015508
Si Si2 0.750829 0.054828 0.355896
Si Si3 0.383192 0.391839 0.645687
Si Si4 0.500000 0.000000 0.500000
Si Si5 0.039433 0.691245 0.091022
Si Si6 0.503181 0.305633 0.068210
Si Si7 0.797519 0.743769 0.875292
Si Si8 0.349200 0.719664 0.577216
O O1 0.667021 0.584682 0.143604
O O2 0.924874 0.648477 0.155968
O O3 0.761542 0.416545 0.698735
O O4 0.860530 0.430651 0.042699
O O5 0.611008 0.012106 0.379669
O O6 0.710357 0.141223 0.304008
O O7 0.864377 0.160682 0.639149
O O8 0.811939 0.913286 0.121089
O O9 0.437488 0.541455 0.778997
O O10 0.248312 0.315969 0.402304
O O11 0.507848 0.296519 0.519765
O O12 0.513035 0.175768 0.762852
O O13 0.941585 0.695964 0.911624
O O14 0.341764 0.306498 0.105943
O O15 0.602830 0.282190 0.220954
#
# Coordination Sequence:
#
# PCOD9097073 Si02
#       8
#     2   2   2   1   2   2   2   2
#     4  10  21  35  58  84 110 148 189 231 281 330
#     4  10  22  39  58  82 113 150 188 229 282 333
#     4  11  21  35  58  88 113 143 191 236 275 327
#     4  10  22  38  58  86 110 140 188 230 276 334
#     4  10  20  38  56  78 113 152 186 227 281 336
#     4  10  20  36  59  86 114 146 184 231 284 330
#     4  10  21  36  56  81 115 153 186 228 280 332
#     4  10  20  37  59  84 116 147 184 235 282 327
#
# _framework density 21.360178000000001
#
# number of rings (size 3 to 8) (size 9 to 14) (size 15 to 20)
#    0.000    1.867    0.000    5.600    0.000    7.467 
#    0.000    4.667    0.000    0.000    0.000    0.000 
#    0.000    0.000    0.000    0.000    0.000    0.000 
#
# Total GULP energy -83611.963483 kJ/mol
# GULP energy per Si atom -5574.130899 kJ/mol
# Density = 2.131156 g / cm^3
# Si number density = 21.360178 Si / 1000 Ang^3
#
#
#
# Elastic Constant Matrix: (Units=GPa)
#
#
# Indices 1 2 3 4 5 6 
#
# 1 26.8760 9.0724 -2.4293 -4.4449 8.1124 -8.4823
# 2 9.0724 52.6641 12.7345 -3.7263 13.2506 -11.6010
# 3 -2.4293 12.7345 51.7357 1.4878 3.1276 -4.4177
# 4 -4.4449 -3.7263 1.4878 27.0897 -4.2802 10.9362
# 5 8.1124 13.2506 3.1276 -4.2802 32.4721 -2.0743
# 6 -8.4823 -11.6010 -4.4177 10.9362 -2.0743 33.7435
#
#
#
# Elastic Compliance Matrix: (Units=1/GPa)
#
#
# Indices 1 2 3 4 5 6 
#
# 1 0.045039 -0.004387 0.004514 0.001292 -0.009124 0.009425
# 2 -0.004387 0.024361 -0.005140 -0.000949 -0.008065 0.006412
# 3 0.004514 -0.005140 0.021196 -0.002482 -0.001215 0.002872
# 4 0.001292 -0.000949 -0.002482 0.043663 0.005154 -0.014161
# 5 -0.009124 -0.008065 -0.001215 0.005154 0.036867 -0.004630
# 6 0.009425 0.006412 0.002872 -0.014161 -0.004630 0.038890
#
#
# Mechanical properties :
#
#
# Convention : Reuss Voigt Hill
#
# Bulk Modulus (GPa) = 12.41148 18.89232 15.65190
# Shear Modulus (GPa) = 20.25109 26.12094 23.18602
#
# Velocity S-wave (km/s) = 3.08243 3.50076 3.29823
# Velocity P-wave (km/s) = 4.30019 5.02039 4.67418
#
# Compressibility (1/GPa) = 0.08057054
#
# Stress axis : x y z
#
# Youngs Moduli (GPa) = 22.20285 41.04853 47.17804
#
# Poissons Ratio (x) = 0.18008 -0.21296
# Poissons Ratio (y) = 0.09741 0.24250
# Poissons Ratio (z) = -0.10022 0.21099
#
# Static dielectric constant tensor:
#      x y z
#    x 1.764440 -0.033680 0.037990 
#    y -0.033680 1.780910 -0.006460 
#    z 0.037990 -0.006460 1.764530 
# 
# From -- ./inp_files/209551.got.cif
#   From: 2010.05.17/outbox.cif.g08.bks.cpg/sg2_105_cif.got.tgz:209551.got - 2010.06.03 11:33:40.
