data_PCOD9097650
_publ_section_title
;
Structure prediction by ZEFSAII (Michael W. Deem and Ramdas Pophale) SiO2 
 PCOD9097650
Probable space group: P -1
;
_chemical_formula_sum "Si O2"
_cell_formula_units_Z 15
_cell_length_a 11.585243
_cell_length_b 11.156053
_cell_length_c 9.048018
_cell_angle_alpha 138.735146
_cell_angle_beta 133.589616
_cell_angle_gamma 59.133504
_cell_volume 558.600552
_symmetry_space_group_name_H-M "P -1"
_symmetry_group_IT_number 2
_symmetry_cell_setting 'triclinic'
loop_
_space_group_symop_operation_xyz
x,y,z
-x,-y,-z
loop_
_atom_site_type_symbol
_atom_site_label
_atom_site_fract_x
_atom_site_fract_y
_atom_site_fract_z
Si Si1 0.443532 0.011128 0.779024
Si Si2 0.500000 0.500000 0.000000
Si Si3 0.289779 0.795472 0.921540
Si Si4 0.049688 0.374429 0.603373
Si Si5 0.950676 0.243293 0.944376
Si Si6 0.383349 0.620849 0.341096
Si Si7 0.219035 0.279225 0.974833
Si Si8 0.231867 0.069887 0.367831
O O1 0.304190 0.094789 0.831816
O O2 0.482812 0.800931 0.637824
O O3 0.378080 0.039256 0.579402
O O4 0.592573 0.147082 0.051887
O O5 0.379020 0.659606 0.984638
O O6 0.549985 0.456483 0.826573
O O7 0.123766 0.710722 0.647269
O O8 0.265641 0.985792 0.162901
O O9 0.041698 0.590342 0.779583
O O10 0.110743 0.331511 0.783841
O O11 0.183608 0.278958 0.531032
O O12 0.104581 0.253289 0.988072
O O13 0.790598 0.287009 0.752767
O O14 0.914221 0.051328 0.809434
O O15 0.340180 0.451259 0.250917
#
# Coordination Sequence:
#
# PCOD9097650 Si02
#       8
#     2   1   2   2   2   2   2   2
#     4  10  21  37  63  87 122 161 206 248 303 369
#     4  12  22  38  64  90 130 164 206 246 312 386
#     4  12  23  41  60  97 130 159 203 254 317 372
#     4  10  23  39  62  93 129 158 201 265 309 356
#     4  10  21  41  66  91 120 163 216 252 301 362
#     4  10  20  36  61  92 113 162 210 242 301 364
#     4  10  21  41  68  89 120 163 215 255 296 365
#     4  10  22  40  63  95 120 165 209 245 311 372
#
# _framework density 26.852820000000001
#
# number of rings (size 3 to 8) (size 9 to 14) (size 15 to 20)
#    0.000    1.600    4.000    2.400    0.000    6.400 
#    2.400    0.667    0.000    8.000    0.000    0.000 
#    0.000    0.000    0.000    0.000    0.000    0.000 
#
# Total GULP energy -83899.661405 kJ/mol
# GULP energy per Si atom -5593.310760 kJ/mol
# Density = 2.679170 g / cm^3
# Si number density = 26.852820 Si / 1000 Ang^3
#
#
#
# Elastic Constant Matrix: (Units=GPa)
#
#
# Indices 1 2 3 4 5 6 
#
# 1 127.9945 11.7802 8.8103 14.9135 10.4215 -14.2384
# 2 11.7802 96.9241 18.9748 3.4067 -1.5898 17.9562
# 3 8.8103 18.9748 113.1484 8.2283 12.3132 1.2027
# 4 14.9135 3.4067 8.2283 45.1194 -2.3217 -5.8185
# 5 10.4215 -1.5898 12.3132 -2.3217 28.5774 7.3427
# 6 -14.2384 17.9562 1.2027 -5.8185 7.3427 32.0413
#
#
#
# Elastic Compliance Matrix: (Units=1/GPa)
#
#
# Indices 1 2 3 4 5 6 
#
# 1 0.009461 -0.002411 0.000389 -0.002482 -0.005591 0.006371
# 2 -0.002411 0.012945 -0.002375 -0.000717 0.005009 -0.009515
# 3 0.000389 -0.002375 0.009877 -0.001759 -0.005187 0.002002
# 4 -0.002482 -0.000717 -0.001759 0.023897 0.002776 0.003068
# 5 -0.005591 0.005009 -0.005187 0.002776 0.043513 -0.014564
# 6 0.006371 -0.009515 0.002002 0.003068 -0.014564 0.043193
#
#
# Mechanical properties :
#
#
# Convention : Reuss Voigt Hill
#
# Bulk Modulus (GPa) = 42.57238 46.35528 44.46383
# Shear Modulus (GPa) = 31.34590 41.04773 36.19682
#
# Velocity S-wave (km/s) = 3.42032 3.91400 3.67546
# Velocity P-wave (km/s) = 5.61128 6.14215 5.88271
#
# Compressibility (1/GPa) = 0.02348941
#
# Stress axis : x y z
#
# Youngs Moduli (GPa) = 105.69607 77.24730 101.24443
#
# Poissons Ratio (x) = 0.18623 -0.03936
# Poissons Ratio (y) = 0.25481 0.24046
# Poissons Ratio (z) = -0.04109 0.18347
#
# Static dielectric constant tensor:
#      x y z
#    x 2.028730 0.018450 -0.003190 
#    y 0.018450 2.086010 -0.058130 
#    z -0.003190 -0.058130 2.161620 
# 
# From -- ./inp_files/433600.got.cif
#   From: 2010.05.17/outbox.cif.g08.bks.cpg/sg2_217_cif.got.tgz:433600.got - 2010.06.03 11:33:40.
