data_PCOD9097573
_publ_section_title
;
Structure prediction by ZEFSAII (Michael W. Deem and Ramdas Pophale) SiO2 
 PCOD9097573
Probable space group: P -1
;
_chemical_formula_sum "Si O2"
_cell_formula_units_Z 16
_cell_length_a 11.284978
_cell_length_b 19.563498
_cell_length_c 16.237632
_cell_angle_alpha 156.718919
_cell_angle_beta 35.990790
_cell_angle_gamma 133.102056
_cell_volume 804.442005
_symmetry_space_group_name_H-M "P -1"
_symmetry_group_IT_number 2
_symmetry_cell_setting 'triclinic'
loop_
_space_group_symop_operation_xyz
x,y,z
-x,-y,-z
loop_
_atom_site_type_symbol
_atom_site_label
_atom_site_fract_x
_atom_site_fract_y
_atom_site_fract_z
Si Si1 0.388215 0.513183 0.666224
Si Si2 0.488184 0.362029 0.925021
Si Si3 0.852276 0.813138 0.138277
Si Si4 0.720639 0.859020 0.702932
Si Si5 0.136896 0.650259 0.522499
Si Si6 0.934185 0.098625 0.731670
Si Si7 0.091224 0.839501 0.585356
Si Si8 0.185376 0.562286 0.569638
O O1 0.500000 0.500000 0.500000
O O2 0.305293 0.334402 0.524363
O O3 0.575293 0.501692 0.612384
O O4 0.219915 0.704033 0.977082
O O5 0.364958 0.227732 0.806843
O O6 0.731085 0.271088 0.700652
O O7 0.500000 0.500000 0.000000
O O8 0.334331 0.476068 0.205460
O O9 0.881761 0.868554 0.276435
O O10 0.888431 0.963596 0.223581
O O11 0.044327 0.645030 0.819468
O O12 0.866915 0.825715 0.665045
O O13 0.830010 0.966475 0.696676
O O14 0.500000 0.000000 0.000000
O O15 0.138673 0.777133 0.583720
O O16 0.156440 0.700356 0.661659
O O17 0.921852 0.591500 0.569351
O O18 0.000000 0.000000 0.500000
#
# Coordination Sequence:
#
# PCOD9097573 Si02
#       8
#     2   2   2   2   2   2   2   2
#     4  12  21  40  72  92 127 186 216 264 349 381
#     4   9  19  35  59  87 119 164 205 254 318 393
#     4  10  20  38  61  84 128 164 210 261 327 385
#     4  11  23  41  68 101 130 172 228 270 323 409
#     4   9  20  36  58  91 124 154 211 266 308 377
#     4  11  26  44  63 100 135 170 228 283 322 391
#     4  10  20  36  61  88 126 164 204 258 331 371
#     4  10  20  37  59  93 121 161 216 262 307 404
#
# _framework density 19.889564
#
# number of rings (size 3 to 8) (size 9 to 14) (size 15 to 20)
#    0.000    1.750    2.500    1.875    3.500    3.000 
#    4.500    1.250    0.000    0.000    0.000    0.000 
#    0.000    0.000    0.000    0.000    0.000    0.000 
#
# Total GULP energy -89171.430252 kJ/mol
# GULP energy per Si atom -5573.214391 kJ/mol
# Density = 1.984429 g / cm^3
# Si number density = 19.889564 Si / 1000 Ang^3
#
#
#
# Elastic Constant Matrix: (Units=GPa)
#
#
# Indices 1 2 3 4 5 6 
#
# 1 101.4170 19.6944 30.7818 -3.1071 -4.0669 -11.8060
# 2 19.6944 54.7945 10.1534 10.0821 -1.6374 3.5968
# 3 30.7818 10.1534 93.2512 3.6247 -3.2179 -2.9462
# 4 -3.1071 10.0821 3.6247 32.5035 -3.8040 1.1289
# 5 -4.0669 -1.6374 -3.2179 -3.8040 32.8848 -7.2530
# 6 -11.8060 3.5968 -2.9462 1.1289 -7.2530 27.1024
#
#
#
# Elastic Compliance Matrix: (Units=1/GPa)
#
#
# Indices 1 2 3 4 5 6 
#
# 1 0.012851 -0.004903 -0.003533 0.003246 0.002804 0.006480
# 2 -0.004903 0.021750 -0.000691 -0.007140 -0.001568 -0.005220
# 3 -0.003533 -0.000691 0.012041 -0.001403 0.000560 0.000070
# 4 0.003246 -0.007140 -0.001403 0.033878 0.004255 0.001937
# 5 0.002804 -0.001568 0.000560 0.004255 0.033491 0.010276
# 6 0.006480 -0.005220 0.000070 0.001937 0.010276 0.043090
#
#
# Mechanical properties :
#
#
# Convention : Reuss Voigt Hill
#
# Bulk Modulus (GPa) = 35.22647 41.19134 38.20891
# Shear Modulus (GPa) = 27.05359 31.08701 29.07030
#
# Velocity S-wave (km/s) = 3.69208 3.95774 3.82722
# Velocity P-wave (km/s) = 5.99372 6.45290 6.22755
#
# Compressibility (1/GPa) = 0.02838775
#
# Stress axis : x y z
#
# Youngs Moduli (GPa) = 77.81521 45.97707 83.04795
#
# Poissons Ratio (x) = 0.22543 0.29340
# Poissons Ratio (y) = 0.38154 0.05740
# Poissons Ratio (z) = 0.27491 0.03178
#
# Static dielectric constant tensor:
#      x y z
#    x 1.711380 -0.009160 -0.001200 
#    y -0.009160 1.695600 0.009250 
#    z -0.001200 0.009250 1.746410 
# 
# From -- ./inp_files/570765.got.cif
#   From: 2010.05.17/outbox.cif.g08.bks.cpg/sg2_286_cif.got.tgz:570765.got - 2010.06.03 11:33:40.
