data_PCOD9097995
_publ_section_title
;
Structure prediction by ZEFSAII (Michael W. Deem and Ramdas Pophale) SiO2 
 PCOD9097995
Probable space group: P -1
;
_chemical_formula_sum "Si O2"
_cell_formula_units_Z 16
_cell_length_a 24.554721
_cell_length_b 6.772794
_cell_length_c 15.458709
_cell_angle_alpha 71.906751
_cell_angle_beta 162.989977
_cell_angle_gamma 106.597938
_cell_volume 714.291437
_symmetry_space_group_name_H-M "P -1"
_symmetry_group_IT_number 2
_symmetry_cell_setting 'triclinic'
loop_
_space_group_symop_operation_xyz
x,y,z
-x,-y,-z
loop_
_atom_site_type_symbol
_atom_site_label
_atom_site_fract_x
_atom_site_fract_y
_atom_site_fract_z
Si Si1 0.739819 0.589021 0.521199
Si Si2 0.347549 0.322689 0.803969
Si Si3 0.476289 0.234390 0.182435
Si Si4 0.033534 0.587682 0.682250
Si Si5 0.325176 0.042559 0.343490
Si Si6 0.727776 0.178696 0.876928
Si Si7 0.910757 0.799106 0.302875
Si Si8 0.058070 0.231309 0.032116
O O1 0.707324 0.736604 0.368433
O O2 0.554758 0.463769 0.273988
O O3 0.812313 0.693072 0.703262
O O4 0.890321 0.404202 0.748118
O O5 0.157237 0.392305 0.555416
O O6 0.500000 0.500000 0.000000
O O7 0.440698 0.170121 0.037934
O O8 0.615938 0.076785 0.463748
O O9 0.289298 0.238021 0.953373
O O10 0.041906 0.755913 0.591605
O O11 0.039672 0.372490 0.669959
O O12 0.204298 0.614826 0.003352
O O13 0.513800 0.139822 0.581585
O O14 0.166029 0.206537 0.108767
O O15 0.259799 0.871159 0.198915
O O16 0.874647 0.011815 0.167195
O O17 0.000000 0.000000 0.000000
#
# Coordination Sequence:
#
# PCOD9097995 Si02
#       8
#     2   2   2   2   2   2   2   2
#     4  10  22  38  62  85 113 159 195 235 295 340
#     4   9  20  38  62  86 116 149 192 244 287 342
#     4   9  18  40  61  80 122 152 185 247 289 340
#     4  10  20  36  63  84 116 154 192 236 296 345
#     4  10  22  40  57  87 123 151 197 240 290 341
#     4  10  22  38  59  87 117 155 191 243 285 347
#     4   9  20  37  58  89 114 150 193 239 290 343
#     4  11  23  38  59  85 118 156 196 243 284 347
#
# _framework density 22.399822
#
# number of rings (size 3 to 8) (size 9 to 14) (size 15 to 20)
#    0.000    2.250    1.250    0.375    5.250    0.000 
#    0.000    2.500    0.000    0.000    0.000    0.000 
#    0.000    0.000    0.000    0.000    0.000    0.000 
#
# Total GULP energy -89263.221573 kJ/mol
# GULP energy per Si atom -5578.951348 kJ/mol
# Density = 2.234884 g / cm^3
# Si number density = 22.399822 Si / 1000 Ang^3
#
#
#
# Elastic Constant Matrix: (Units=GPa)
#
#
# Indices 1 2 3 4 5 6 
#
# 1 91.8319 9.7397 24.1194 -1.8000 -16.4886 -6.3143
# 2 9.7397 27.5461 2.8203 -0.0760 -10.3952 -3.2440
# 3 24.1194 2.8203 57.0980 16.3384 -21.2466 -9.5186
# 4 -1.8000 -0.0760 16.3384 18.7134 -4.8740 -7.6525
# 5 -16.4886 -10.3952 -21.2466 -4.8740 28.9704 -2.0808
# 6 -6.3143 -3.2440 -9.5186 -7.6525 -2.0808 29.0942
#
#
#
# Elastic Compliance Matrix: (Units=1/GPa)
#
#
# Indices 1 2 3 4 5 6 
#
# 1 0.013985 -0.002195 -0.006253 0.009391 0.004419 0.003531
# 2 -0.002195 0.045659 0.007517 0.002940 0.021817 0.009408
# 3 -0.006253 0.007517 0.035699 -0.023354 0.021864 0.006582
# 4 0.009391 0.002940 -0.023354 0.082764 0.004404 0.016809
# 5 0.004419 0.021817 0.021864 0.004404 0.062800 0.016195
# 6 0.003531 0.009408 0.006582 0.016809 0.016195 0.043919
#
#
# Mechanical properties :
#
#
# Convention : Reuss Voigt Hill
#
# Bulk Modulus (GPa) = 10.69738 27.75944 19.22841
# Shear Modulus (GPa) = 15.73078 24.67537 20.20307
#
# Velocity S-wave (km/s) = 2.65292 3.32262 3.00647
# Velocity P-wave (km/s) = 3.76430 5.20954 4.54474
#
# Compressibility (1/GPa) = 0.09348086
#
# Stress axis : x y z
#
# Youngs Moduli (GPa) = 71.50508 21.90172 28.01178
#
# Poissons Ratio (x) = 0.04808 0.17516
# Poissons Ratio (y) = 0.15696 -0.21057
# Poissons Ratio (z) = 0.44713 -0.16464
#
# Static dielectric constant tensor:
#      x y z
#    x 1.860580 0.028270 0.006820 
#    y 0.028270 1.883800 -0.045930 
#    z 0.006820 -0.045930 1.917450 
# 
# From -- ./inp_files/112512.got.cif
#   From: 2010.05.17/outbox.cif.g08.bks.cpg/sg2_57_cif.got.tgz:112512.got - 2010.06.03 11:33:40.
