data_PCOD9097587
_publ_section_title
;
Structure prediction by ZEFSAII (Michael W. Deem and Ramdas Pophale) SiO2 
 PCOD9097587
Probable space group: P -1
;
_chemical_formula_sum "Si O2"
_cell_formula_units_Z 16
_cell_length_a 9.515855
_cell_length_b 11.226999
_cell_length_c 16.895095
_cell_angle_alpha 57.984330
_cell_angle_beta 152.516563
_cell_angle_gamma 115.067159
_cell_volume 701.254395
_symmetry_space_group_name_H-M "P -1"
_symmetry_group_IT_number 2
_symmetry_cell_setting 'triclinic'
loop_
_space_group_symop_operation_xyz
x,y,z
-x,-y,-z
loop_
_atom_site_type_symbol
_atom_site_label
_atom_site_fract_x
_atom_site_fract_y
_atom_site_fract_z
Si Si1 0.281027 0.324683 0.051068
Si Si2 0.386285 0.259089 0.550387
Si Si3 0.161568 0.822625 0.794525
Si Si4 0.366868 0.962199 0.703227
Si Si5 0.040558 0.717589 0.262722
Si Si6 0.648535 0.323705 0.818288
Si Si7 0.603148 0.572577 0.183903
Si Si8 0.806919 0.029368 0.095703
O O1 0.465763 0.170895 0.212472
O O2 0.523222 0.433441 0.149486
O O3 0.147588 0.319582 0.897123
O O4 0.980862 0.359437 0.943179
O O5 0.423472 0.332975 0.626738
O O6 0.609375 0.312832 0.578368
O O7 0.062146 0.248375 0.351483
O O8 0.507878 0.097590 0.694115
O O9 0.368665 0.915690 0.811971
O O10 0.999707 0.914683 0.752998
O O11 0.375380 0.698911 0.986668
O O12 0.000000 0.000000 0.500000
O O13 0.931366 0.621717 0.311781
O O14 0.969833 0.883463 0.192430
O O15 0.492061 0.421534 0.774600
O O16 0.720066 0.162280 0.946198
O O17 0.500000 0.000000 0.000000
#
# Coordination Sequence:
#
# PCOD9097587 Si02
#       8
#     2   2   2   2   2   2   2   2
#     4  11  21  38  62  93 116 162 219 246 292 374
#     4  10  22  38  60  94 122 155 203 255 317 354
#     4  10  21  37  61  90 122 163 195 253 311 363
#     4  10  20  36  61  89 119 156 196 258 307 356
#     4  11  21  35  60  91 119 158 205 258 295 363
#     4  10  21  36  62  92 122 161 205 259 296 361
#     4  11  22  39  65  87 122 167 211 245 298 365
#     4  11  18  34  61  91 119 151 207 255 303 347
#
# _framework density 22.816255999999999
#
# number of rings (size 3 to 8) (size 9 to 14) (size 15 to 20)
#    0.000    1.500    3.750    3.000    0.000    2.500 
#    0.000    3.750    0.000    6.000    0.000    0.000 
#    0.000    0.000    0.000    0.000    0.000    0.000 
#
# Total GULP energy -89318.319461 kJ/mol
# GULP energy per Si atom -5582.394966 kJ/mol
# Density = 2.276433 g / cm^3
# Si number density = 22.816256 Si / 1000 Ang^3
#
#
#
# Elastic Constant Matrix: (Units=GPa)
#
#
# Indices 1 2 3 4 5 6 
#
# 1 119.9302 8.2091 21.8285 10.3570 0.2380 -4.5244
# 2 8.2091 66.7091 3.3863 7.6194 -0.9359 -13.2612
# 3 21.8285 3.3863 48.7109 10.7854 -9.0232 -1.6112
# 4 10.3570 7.6194 10.7854 23.0188 1.5687 3.3062
# 5 0.2380 -0.9359 -9.0232 1.5687 19.5394 7.1481
# 6 -4.5244 -13.2612 -1.6112 3.3062 7.1481 21.7944
#
#
#
# Elastic Compliance Matrix: (Units=1/GPa)
#
#
# Indices 1 2 3 4 5 6 
#
# 1 0.009423 -0.000131 -0.004097 -0.002497 -0.002871 0.002894
# 2 -0.000131 0.018551 0.000384 -0.007988 -0.003255 0.013568
# 3 -0.004097 0.000384 0.027592 -0.011978 0.014303 -0.001451
# 4 -0.002497 -0.007988 -0.011978 0.055040 -0.005632 -0.012767
# 5 -0.002871 -0.003255 0.014303 -0.005632 0.066315 -0.022414
# 6 0.002894 0.013568 -0.001451 -0.012767 -0.022414 0.063921
#
#
# Mechanical properties :
#
#
# Convention : Reuss Voigt Hill
#
# Bulk Modulus (GPa) = 20.88670 33.57755 27.23213
# Shear Modulus (GPa) = 18.90427 26.33229 22.61828
#
# Velocity S-wave (km/s) = 2.88157 3.40089 3.15194
# Velocity P-wave (km/s) = 4.49949 5.49271 5.02072
#
# Compressibility (1/GPa) = 0.04787735
#
# Stress axis : x y z
#
# Youngs Moduli (GPa) = 106.11927 53.90506 36.24216
#
# Poissons Ratio (x) = 0.00709 0.14849
# Poissons Ratio (y) = 0.01395 -0.01391
# Poissons Ratio (z) = 0.43477 -0.02069
#
# Static dielectric constant tensor:
#      x y z
#    x 1.875550 -0.015070 -0.034370 
#    y -0.015070 1.889530 0.029150 
#    z -0.034370 0.029150 1.905900 
# 
# From -- ./inp_files/466531.got.cif
#   From: 2010.05.17/outbox.cif.g08.bks.cpg/sg2_234_cif.got.tgz:466531.got - 2010.06.03 11:33:40.
