data_PCOD9097230
_publ_section_title
;
Structure prediction by ZEFSAII (Michael W. Deem and Ramdas Pophale) SiO2 
 PCOD9097230
Probable space group: P -1
;
_chemical_formula_sum "Si O2"
_cell_formula_units_Z 16
_cell_length_a 10.215059
_cell_length_b 8.203926
_cell_length_c 9.973835
_cell_angle_alpha 55.657284
_cell_angle_beta 106.890543
_cell_angle_gamma 104.882875
_cell_volume 655.781104
_symmetry_space_group_name_H-M "P -1"
_symmetry_group_IT_number 2
_symmetry_cell_setting 'triclinic'
loop_
_space_group_symop_operation_xyz
x,y,z
-x,-y,-z
loop_
_atom_site_type_symbol
_atom_site_label
_atom_site_fract_x
_atom_site_fract_y
_atom_site_fract_z
Si Si1 0.924048 0.993780 0.204720
Si Si2 0.178040 0.188136 0.017503
Si Si3 0.490391 0.119478 0.738711
Si Si4 0.492472 0.268763 0.132353
Si Si5 0.673830 0.457537 0.771899
Si Si6 0.130338 0.589977 0.910269
Si Si7 0.777937 0.645772 0.456493
Si Si8 0.405895 0.694762 0.579933
O O1 0.069563 0.073691 0.142173
O O2 0.909343 0.789923 0.379958
O O3 0.882394 0.173601 0.203120
O O4 0.832829 0.926565 0.075014
O O5 0.328510 0.201359 0.121075
O O6 0.142337 0.417663 0.882132
O O7 0.613122 0.248981 0.789839
O O8 0.351220 0.223096 0.654590
O O9 0.547279 0.138578 0.592881
O O10 0.467890 0.894617 0.884558
O O11 0.598746 0.243326 0.297016
O O12 0.500000 0.500000 0.000000
O O13 0.742364 0.434094 0.943409
O O14 0.780114 0.571122 0.644604
O O15 0.539772 0.573611 0.681206
O O16 0.000000 0.500000 0.000000
O O17 0.724521 0.450935 0.443449
#
# Coordination Sequence:
#
# PCOD9097230 Si02
#       8
#     2   2   2   2   2   2   2   2
#     4  10  21  39  61  78 115 154 193 240 277 344
#     4  10  22  38  55  83 115 154 191 230 297 334
#     4   9  20  34  57  83 112 153 182 228 299 340
#     4  12  22  32  54  85 117 144 190 242 279 338
#     4   9  17  36  59  80 113 149 190 233 283 351
#     4  10  20  36  60  80 112 158 188 232 289 339
#     4   9  19  36  60  86 108 148 195 233 285 335
#     4   9  18  35  55  80 116 147 180 235 290 341
#
# _framework density 24.398385999999999
#
# number of rings (size 3 to 8) (size 9 to 14) (size 15 to 20)
#    0.000    2.250    1.250    3.375    1.750    0.000 
#    0.000    5.625    0.000   17.250    0.000    0.000 
#    0.000    0.000    0.000    0.000    0.000    0.000 
#
# Total GULP energy -89264.889516 kJ/mol
# GULP energy per Si atom -5579.055595 kJ/mol
# Density = 2.434285 g / cm^3
# Si number density = 24.398386 Si / 1000 Ang^3
#
#
#
# Elastic Constant Matrix: (Units=GPa)
#
#
# Indices 1 2 3 4 5 6 
#
# 1 40.0225 10.6774 13.8530 -11.6159 -10.3163 7.5542
# 2 10.6774 109.8786 24.7684 -37.3033 -4.8704 4.2764
# 3 13.8530 24.7684 61.7383 -23.8711 -25.2584 7.6504
# 4 -11.6159 -37.3033 -23.8711 33.3041 2.7454 -4.1206
# 5 -10.3163 -4.8704 -25.2584 2.7454 33.4496 -8.0277
# 6 7.5542 4.2764 7.6504 -4.1206 -8.0277 32.6893
#
#
#
# Elastic Compliance Matrix: (Units=1/GPa)
#
#
# Indices 1 2 3 4 5 6 
#
# 1 0.030609 0.001290 0.001169 0.011765 0.008605 -0.003920
# 2 0.001290 0.014846 0.001746 0.018158 0.002445 0.000241
# 3 0.001169 0.001746 0.035593 0.025857 0.025538 0.000702
# 4 0.011765 0.018158 0.025857 0.071667 0.020624 0.002953
# 5 0.008605 0.002445 0.025538 0.020624 0.052210 0.007136
# 6 -0.003920 0.000241 0.000702 0.002953 0.007136 0.033426
#
#
# Mechanical properties :
#
#
# Convention : Reuss Voigt Hill
#
# Bulk Modulus (GPa) = 11.17831 34.47077 22.82454
# Shear Modulus (GPa) = 19.24856 30.71131 24.97994
#
# Velocity S-wave (km/s) = 2.81183 3.55173 3.20321
# Velocity P-wave (km/s) = 3.89017 5.56585 4.80167
#
# Compressibility (1/GPa) = 0.08945895
#
# Stress axis : x y z
#
# Youngs Moduli (GPa) = 32.66964 67.36031 28.09507
#
# Poissons Ratio (x) = -0.08689 -0.03285
# Poissons Ratio (y) = -0.04214 -0.04906
# Poissons Ratio (z) = -0.03820 -0.11762
#
# Static dielectric constant tensor:
#      x y z
#    x 2.039410 -0.047950 -0.081000 
#    y -0.047950 1.978500 -0.000380 
#    z -0.081000 -0.000380 1.995430 
# 
# From -- ./inp_files/179201.got.cif
#   From: 2010.05.17/outbox.cif.g08.bks.cpg/sg2_90_cif.got.tgz:179201.got - 2010.06.03 11:33:40.
