data_PCOD9097704
_publ_section_title
;
Structure prediction by ZEFSAII (Michael W. Deem and Ramdas Pophale) SiO2 
 PCOD9097704
Probable space group: P -1
;
_chemical_formula_sum "Si O2"
_cell_formula_units_Z 16
_cell_length_a 18.102076
_cell_length_b 11.709594
_cell_length_c 8.486529
_cell_angle_alpha 127.668716
_cell_angle_beta 147.011619
_cell_angle_gamma 45.834144
_cell_volume 700.928849
_symmetry_space_group_name_H-M "P -1"
_symmetry_group_IT_number 2
_symmetry_cell_setting 'triclinic'
loop_
_space_group_symop_operation_xyz
x,y,z
-x,-y,-z
loop_
_atom_site_type_symbol
_atom_site_label
_atom_site_fract_x
_atom_site_fract_y
_atom_site_fract_z
Si Si1 0.892813 0.438628 0.957334
Si Si2 0.453556 0.687535 0.064800
Si Si3 0.017580 0.886076 0.718790
Si Si4 0.380587 0.652786 0.577840
Si Si5 0.067955 0.270363 0.829920
Si Si6 0.340792 0.679627 0.188540
Si Si7 0.641612 0.868650 0.554521
Si Si8 0.862661 0.872443 0.729470
O O1 0.738496 0.425588 0.706076
O O2 0.935762 0.379270 0.803096
O O3 0.894291 0.610497 0.114269
O O4 0.028099 0.311588 0.194479
O O5 0.379653 0.748646 0.155545
O O6 0.597939 0.721954 0.333853
O O7 0.500000 0.500000 0.000000
O O8 0.358679 0.746323 0.782888
O O9 0.975214 0.852721 0.443765
O O10 0.885243 0.909505 0.622495
O O11 0.165409 0.727642 0.898741
O O12 0.066787 0.027801 0.957241
O O13 0.362832 0.740016 0.451893
O O14 0.546890 0.507426 0.761223
O O15 0.215269 0.179553 0.119373
O O16 0.697252 0.910645 0.525672
O O17 0.500000 0.000000 0.500000
#
# Coordination Sequence:
#
# PCOD9097704 Si02
#       8
#     2   2   2   2   2   2   2   2
#     4  10  20  40  60  96 130 159 215 263 313 384
#     4  10  21  39  64  90 126 166 211 264 319 376
#     4  11  22  43  62  94 126 171 213 259 326 383
#     4  10  20  36  61  96 125 168 209 265 323 373
#     4  10  23  39  67  91 127 170 207 267 323 379
#     4  10  20  36  62  94 125 163 212 267 307 387
#     4  11  24  45  62  94 127 164 213 265 320 389
#     4  10  24  41  63  88 134 163 209 267 313 390
#
# _framework density 22.826853
#
# number of rings (size 3 to 8) (size 9 to 14) (size 15 to 20)
#    0.000    1.750    1.250    3.000    0.000    8.500 
#    9.000    0.625    0.000    0.000    0.000    0.000 
#    0.000    0.000    0.000    0.000    0.000    0.000 
#
# Total GULP energy -89363.087366 kJ/mol
# GULP energy per Si atom -5585.192960 kJ/mol
# Density = 2.277490 g / cm^3
# Si number density = 22.826853 Si / 1000 Ang^3
#
#
#
# Elastic Constant Matrix: (Units=GPa)
#
#
# Indices 1 2 3 4 5 6 
#
# 1 158.6215 16.2045 41.7728 5.9925 9.8532 7.5819
# 2 16.2045 51.0092 2.4331 -2.2964 16.0333 -8.6287
# 3 41.7728 2.4331 66.6967 0.0947 -7.9344 0.6095
# 4 5.9925 -2.2964 0.0947 24.6013 -5.7131 9.2693
# 5 9.8532 16.0333 -7.9344 -5.7131 45.3813 -7.6403
# 6 7.5819 -8.6287 0.6095 9.2693 -7.6403 23.2624
#
#
#
# Elastic Compliance Matrix: (Units=1/GPa)
#
#
# Indices 1 2 3 4 5 6 
#
# 1 0.008379 -0.002219 -0.005464 -0.001467 -0.002806 -0.003748
# 2 -0.002219 0.023757 -0.000363 -0.001860 -0.006857 0.008034
# 3 -0.005464 -0.000363 0.019027 0.001597 0.005217 0.002225
# 4 -0.001467 -0.001860 0.001597 0.048701 0.004314 -0.018242
# 5 -0.002806 -0.006857 0.005217 0.004314 0.027454 0.005532
# 6 -0.003748 0.008034 0.002225 -0.018242 0.005532 0.056217
#
#
# Mechanical properties :
#
#
# Convention : Reuss Voigt Hill
#
# Bulk Modulus (GPa) = 28.51483 44.12760 36.32121
# Shear Modulus (GPa) = 23.66092 33.04345 28.35219
#
# Velocity S-wave (km/s) = 3.22303 3.80882 3.52810
# Velocity P-wave (km/s) = 5.13512 6.22224 5.70463
#
# Compressibility (1/GPa) = 0.03506947
#
# Stress axis : x y z
#
# Youngs Moduli (GPa) = 119.34683 42.09257 52.55715
#
# Poissons Ratio (x) = 0.09341 0.28719
# Poissons Ratio (y) = 0.26485 0.01909
# Poissons Ratio (z) = 0.65215 0.01529
#
# Static dielectric constant tensor:
#      x y z
#    x 1.954650 0.020420 -0.025290 
#    y 0.020420 1.920860 0.023470 
#    z -0.025290 0.023470 1.823070 
# 
# From -- ./inp_files/333858.got.cif
#   From: 2010.05.17/outbox.cif.g08.bks.cpg/sg2_167_cif.got.tgz:333858.got - 2010.06.03 11:33:40.
