data_PCOD9097211
_publ_section_title
;
Structure prediction by ZEFSAII (Michael W. Deem and Ramdas Pophale) SiO2 
 PCOD9097211
Probable space group: P -1
;
_chemical_formula_sum "Si O2"
_cell_formula_units_Z 14
_cell_length_a 27.203441
_cell_length_b 14.310907
_cell_length_c 4.893889
_cell_angle_alpha 88.015914
_cell_angle_beta 85.391874
_cell_angle_gamma 19.804545
_cell_volume 638.674347
_symmetry_space_group_name_H-M "P -1"
_symmetry_group_IT_number 2
_symmetry_cell_setting 'triclinic'
loop_
_space_group_symop_operation_xyz
x,y,z
-x,-y,-z
loop_
_atom_site_type_symbol
_atom_site_label
_atom_site_fract_x
_atom_site_fract_y
_atom_site_fract_z
Si Si1 0.896747 0.819220 0.373355
Si Si2 0.619670 0.085918 0.962740
Si Si3 0.081320 0.057969 0.084000
Si Si4 0.419993 0.560038 0.366601
Si Si5 0.070800 0.961897 0.613841
Si Si6 0.822569 0.743691 0.390332
Si Si7 0.636158 0.517376 0.230453
O O1 0.929517 0.829021 0.103025
O O2 0.866453 0.769529 0.276359
O O3 0.033608 0.565606 0.540384
O O4 0.752039 0.105785 0.583363
O O5 0.519320 0.352723 0.084185
O O6 0.727494 0.866702 0.183311
O O7 0.510559 0.197876 0.899721
O O8 0.721690 0.933147 0.683149
O O9 0.007599 0.109584 0.916735
O O10 0.253669 0.725027 0.013321
O O11 0.047280 0.091455 0.404812
O O12 0.500000 0.500000 0.500000
O O13 0.418817 0.466132 0.548515
O O14 0.245223 0.634794 0.634522
O O15 0.000000 0.000000 0.500000
#
# Coordination Sequence:
#
# PCOD9097211 Si02
#       7
#     2   2   2   2   2   2   2
#     4  10  23  43  58  89 125 173 208 260 296 363
#     4  12  22  41  57  89 119 167 213 257 302 358
#     4   9  21  35  59  87 121 155 195 253 313 363
#     4  11  20  40  60  88 122 164 207 251 303 360
#     4  10  20  36  59  94 123 149 192 264 327 366
#     4  11  26  40  58  85 130 171 219 246 300 354
#     4   9  21  34  59  86 122 149 204 249 309 363
#
# _framework density 21.920403
#
# number of rings (size 3 to 8) (size 9 to 14) (size 15 to 20)
#    0.857    0.857    2.857    1.286    0.000    6.857 
#    5.143    0.000    0.000    0.000    0.000    6.000 
#    0.000    0.000    0.000    0.000    0.000    0.000 
#
# Total GULP energy -78047.549363 kJ/mol
# GULP energy per Si atom -5574.824954 kJ/mol
# Density = 2.187051 g / cm^3
# Si number density = 21.920403 Si / 1000 Ang^3
#
#
#
# Elastic Constant Matrix: (Units=GPa)
#
#
# Indices 1 2 3 4 5 6 
#
# 1 78.6051 43.2805 19.0300 -8.3685 11.7268 -30.8748
# 2 43.2805 146.2357 35.3220 -24.9672 13.0696 -25.6271
# 3 19.0300 35.3220 115.3948 -10.5142 15.7769 -12.0571
# 4 -8.3685 -24.9672 -10.5142 37.0753 -5.8304 14.2158
# 5 11.7268 13.0696 15.7769 -5.8304 24.0073 -14.3353
# 6 -30.8748 -25.6271 -12.0571 14.2158 -14.3353 31.8996
#
#
#
# Elastic Compliance Matrix: (Units=1/GPa)
#
#
# Indices 1 2 3 4 5 6 
#
# 1 0.023016 -0.003816 -0.001309 -0.006012 0.004115 0.023244
# 2 -0.003816 0.009351 -0.001657 0.004521 -0.000460 0.000971
# 3 -0.001309 -0.001657 0.010115 0.001300 -0.006020 -0.002060
# 4 -0.006012 0.004521 0.001300 0.035850 -0.003041 -0.019037
# 5 0.004115 -0.000460 -0.006020 -0.003041 0.061121 0.030160
# 6 0.023244 0.000971 -0.002060 -0.019037 0.030160 0.075884
#
#
# Mechanical properties :
#
#
# Convention : Reuss Voigt Hill
#
# Bulk Modulus (GPa) = 34.58044 59.50006 47.04025
# Shear Modulus (GPa) = 20.96064 34.76999 27.86532
#
# Velocity S-wave (km/s) = 3.09563 3.98702 3.56926
# Velocity P-wave (km/s) = 5.34667 6.95685 6.20422
#
# Compressibility (1/GPa) = 0.02891808
#
# Stress axis : x y z
#
# Youngs Moduli (GPa) = 43.44777 106.93867 98.86056
#
# Poissons Ratio (x) = 0.40813 0.12942
# Poissons Ratio (y) = 0.16582 0.16378
# Poissons Ratio (z) = 0.05688 0.17716
#
# Static dielectric constant tensor:
#      x y z
#    x 1.872920 0.001810 0.049750 
#    y 0.001810 1.862140 -0.016060 
#    z 0.049750 -0.016060 1.895920 
# 
# From -- ./inp_files/127033.got.cif
#   From: 2010.05.17/outbox.cif.g08.bks.cpg/sg2_64_cif.got.tgz:127033.got - 2010.06.03 11:33:40.
