data_PCOD9097706
_publ_section_title
;
Structure prediction by ZEFSAII (Michael W. Deem and Ramdas Pophale) SiO2 
 PCOD9097706
Probable space group: P -1
;
_chemical_formula_sum "Si O2"
_cell_formula_units_Z 14
_cell_length_a 13.684229
_cell_length_b 21.697415
_cell_length_c 11.649485
_cell_angle_alpha 147.443075
_cell_angle_beta 145.211822
_cell_angle_gamma 20.878919
_cell_volume 653.019080
_symmetry_space_group_name_H-M "P -1"
_symmetry_group_IT_number 2
_symmetry_cell_setting 'triclinic'
loop_
_space_group_symop_operation_xyz
x,y,z
-x,-y,-z
loop_
_atom_site_type_symbol
_atom_site_label
_atom_site_fract_x
_atom_site_fract_y
_atom_site_fract_z
Si Si1 0.195146 0.797430 0.317053
Si Si2 0.690318 0.703541 0.989328
Si Si3 0.595285 0.821010 0.325464
Si Si4 0.517701 0.016447 0.180780
Si Si5 0.971616 0.359756 0.136365
Si Si6 0.417025 0.787595 0.323903
Si Si7 0.236234 0.437975 0.388380
O O1 0.107365 0.712772 0.124148
O O2 0.197562 0.814266 0.207097
O O3 0.516733 0.639617 0.419929
O O4 0.000000 0.000000 0.500000
O O5 0.611380 0.662201 0.744241
O O6 0.544452 0.783875 0.097226
O O7 0.000000 0.500000 0.000000
O O8 0.666204 0.841164 0.123169
O O9 0.430753 0.840088 0.295886
O O10 0.929575 0.652803 0.410127
O O11 0.500000 0.000000 0.500000
O O12 0.622019 0.085970 0.426898
O O13 0.192627 0.198281 0.188803
O O14 0.500000 0.000000 0.000000
O O15 0.708635 0.564289 0.254314
O O16 0.136684 0.369184 0.238380
#
# Coordination Sequence:
#
# PCOD9097706 Si02
#       7
#     2   2   2   2   2   2   2
#     4  12  25  40  65  99 133 171 217 278 341 389
#     4  10  20  36  61  96 129 170 217 256 325 400
#     4  10  21  37  67  96 122 182 218 261 328 400
#     4  12  20  36  67  97 125 168 219 273 323 389
#     4  11  23  39  67  99 132 168 211 284 341 377
#     4  11  23  40  60  98 133 162 226 273 328 394
#     4  10  22  41  66  98 132 165 223 271 326 396
#
# _framework density 21.438882
#
# number of rings (size 3 to 8) (size 9 to 14) (size 15 to 20)
#    0.000    1.143    4.286    2.571    2.000    0.000 
#    0.000    0.000    0.000   33.429    0.000    0.000 
#    0.000    0.000    0.000    0.000    0.000    0.000 
#
# Total GULP energy -77938.411904 kJ/mol
# GULP energy per Si atom -5567.029422 kJ/mol
# Density = 2.139009 g / cm^3
# Si number density = 21.438882 Si / 1000 Ang^3
#
#
#
# Elastic Constant Matrix: (Units=GPa)
#
#
# Indices 1 2 3 4 5 6 
#
# 1 127.6807 32.4948 40.1334 -3.6801 -18.0649 -0.5550
# 2 32.4948 110.1890 20.5562 25.8531 19.5862 28.5431
# 3 40.1334 20.5562 78.2803 1.8681 3.2307 6.0232
# 4 -3.6801 25.8531 1.8681 32.1364 -5.4351 4.6729
# 5 -18.0649 19.5862 3.2307 -5.4351 43.0241 5.0145
# 6 -0.5550 28.5431 6.0232 4.6729 5.0145 30.9515
#
#
#
# Elastic Compliance Matrix: (Units=1/GPa)
#
#
# Indices 1 2 3 4 5 6 
#
# 1 0.013777 -0.008840 -0.005909 0.009939 0.010774 0.006303
# 2 -0.008840 0.022963 0.000825 -0.019699 -0.014837 -0.016117
# 3 -0.005909 0.000825 0.016041 -0.002526 -0.004036 -0.002953
# 4 0.009939 -0.019699 -0.002526 0.050220 0.018716 0.008222
# 5 0.010774 -0.014837 -0.004036 0.018716 0.036498 0.005923
# 6 0.006303 -0.016117 -0.002953 0.008222 0.005923 0.045658
#
#
# Mechanical properties :
#
#
# Convention : Reuss Voigt Hill
#
# Bulk Modulus (GPa) = 40.10766 55.83545 47.97155
# Shear Modulus (GPa) = 22.59198 36.08679 29.33939
#
# Velocity S-wave (km/s) = 3.24973 4.10718 3.70335
# Velocity P-wave (km/s) = 5.72970 6.97083 6.38052
#
# Compressibility (1/GPa) = 0.02493289
#
# Stress axis : x y z
#
# Youngs Moduli (GPa) = 72.58226 43.54903 62.33838
#
# Poissons Ratio (x) = 0.38499 0.36835
# Poissons Ratio (y) = 0.64166 -0.05143
# Poissons Ratio (z) = 0.42888 -0.03593
#
# Static dielectric constant tensor:
#      x y z
#    x 1.847430 -0.010230 -0.049980 
#    y -0.010230 1.858240 0.024100 
#    z -0.049980 0.024100 1.849330 
# 
# From -- ./inp_files/391511.got.cif
#   From: 2010.05.17/outbox.cif.g08.bks.cpg/sg2_196_cif.got.tgz:391511.got - 2010.06.03 11:33:40.
