data_PCOD9097619
_publ_section_title
;
Structure prediction by ZEFSAII (Michael W. Deem and Ramdas Pophale) SiO2 
 PCOD9097619
Probable space group: P -1
;
_chemical_formula_sum "Si O2"
_cell_formula_units_Z 16
_cell_length_a 10.939950
_cell_length_b 15.920933
_cell_length_c 6.439103
_cell_angle_alpha 80.087743
_cell_angle_beta 101.679713
_cell_angle_gamma 48.373425
_cell_volume 745.481262
_symmetry_space_group_name_H-M "P -1"
_symmetry_group_IT_number 2
_symmetry_cell_setting 'triclinic'
loop_
_space_group_symop_operation_xyz
x,y,z
-x,-y,-z
loop_
_atom_site_type_symbol
_atom_site_label
_atom_site_fract_x
_atom_site_fract_y
_atom_site_fract_z
Si Si1 0.335961 0.598396 0.241135
Si Si2 0.733750 0.586661 0.292378
Si Si3 0.478847 0.727050 0.474633
Si Si4 0.187697 0.934569 0.989673
Si Si5 0.265317 0.744819 0.770917
Si Si6 0.191400 0.484656 0.118195
Si Si7 0.999656 0.192497 0.681881
Si Si8 0.084722 0.342168 0.752949
O O1 0.500000 0.500000 0.500000
O O2 0.260432 0.541709 0.197249
O O3 0.170848 0.728283 0.249036
O O4 0.355383 0.632889 0.007742
O O5 0.555724 0.644609 0.325693
O O6 0.910308 0.464492 0.519252
O O7 0.745529 0.683885 0.240542
O O8 0.759210 0.541399 0.091491
O O9 0.383712 0.721750 0.628204
O O10 0.676518 0.651410 0.671333
O O11 0.334784 0.860175 0.259064
O O12 0.223697 0.848794 0.853541
O O13 0.148773 0.046906 0.837513
O O14 0.000000 0.000000 0.000000
O O15 0.094540 0.781969 0.584136
O O16 0.980216 0.595093 0.064481
O O17 0.086354 0.242456 0.736402
#
# Coordination Sequence:
#
# PCOD9097619 Si02
#       8
#     2   2   2   2   2   2   2   2
#     4  11  23  37  56  92 132 156 193 252 310 376
#     4  10  20  42  63  90 122 158 207 255 310 365
#     4  11  24  37  60  89 123 163 205 248 303 365
#     4  12  23  41  60  86 124 163 208 252 299 368
#     4  12  22  38  61  87 121 165 199 244 309 378
#     4  10  20  36  61  90 120 162 202 248 312 366
#     4  11  23  38  60  92 120 158 208 251 307 360
#     4   9  21  39  65  90 121 156 203 263 309 361
#
# _framework density 21.462645999999999
#
# number of rings (size 3 to 8) (size 9 to 14) (size 15 to 20)
#    0.000    1.250    2.500    3.750    0.000    4.000 
#    0.000    3.750    0.000    1.500    0.000    0.000 
#    0.000    0.000    0.000    0.000    0.000    0.000 
#
# Total GULP energy -89129.459158 kJ/mol
# GULP energy per Si atom -5570.591197 kJ/mol
# Density = 2.141380 g / cm^3
# Si number density = 21.462646 Si / 1000 Ang^3
#
#
#
# Elastic Constant Matrix: (Units=GPa)
#
#
# Indices 1 2 3 4 5 6 
#
# 1 74.4778 42.0401 47.5582 0.3568 -18.2383 9.5079
# 2 42.0401 109.2551 45.3459 -1.7289 -15.2167 9.3139
# 3 47.5582 45.3459 133.5976 -3.4991 -15.5898 -2.5882
# 4 0.3568 -1.7289 -3.4991 41.7534 -4.9455 -4.6375
# 5 -18.2383 -15.2167 -15.5898 -4.9455 30.6873 1.0005
# 6 9.5079 9.3139 -2.5882 -4.6375 1.0005 31.6058
#
#
#
# Elastic Compliance Matrix: (Units=1/GPa)
#
#
# Indices 1 2 3 4 5 6 
#
# 1 0.022434 -0.004643 -0.005575 -0.000553 0.008311 -0.006181
# 2 -0.004643 0.012458 -0.002338 0.000364 0.002370 -0.002487
# 3 -0.005575 -0.002338 0.010474 0.001317 0.000951 0.003387
# 4 -0.000553 0.000364 0.001317 0.025016 0.004432 0.003697
# 5 0.008311 0.002370 0.000951 0.004432 0.040021 -0.003737
# 6 -0.006181 -0.002487 0.003387 0.003697 -0.003737 0.035170
#
#
# Mechanical properties :
#
#
# Convention : Reuss Voigt Hill
#
# Bulk Modulus (GPa) = 49.36910 65.24654 57.30782
# Shear Modulus (GPa) = 28.17919 32.96838 30.57378
#
# Velocity S-wave (km/s) = 3.62738 3.92354 3.77836
# Velocity P-wave (km/s) = 6.37151 7.14084 6.76712
#
# Compressibility (1/GPa) = 0.02025559
#
# Stress axis : x y z
#
# Youngs Moduli (GPa) = 44.57423 80.27242 95.47316
#
# Poissons Ratio (x) = 0.37270 0.53223
# Poissons Ratio (y) = 0.20696 0.22318
# Poissons Ratio (z) = 0.24849 0.18765
#
# Static dielectric constant tensor:
#      x y z
#    x 1.870000 -0.003630 -0.009810 
#    y -0.003630 1.827190 0.042570 
#    z -0.009810 0.042570 1.879290 
# 
# From -- ./inp_files/77648.got.cif
#   From: 2010.05.17/outbox.cif.g08.bks.cpg/sg2_39_cif.got.tgz:77648.got - 2010.06.03 11:33:40.
