data_PCOD9097717
_publ_section_title
;
Structure prediction by ZEFSAII (Michael W. Deem and Ramdas Pophale) SiO2 
 PCOD9097717
Probable space group: P -1
;
_chemical_formula_sum "Si O2"
_cell_formula_units_Z 14
_cell_length_a 15.890950
_cell_length_b 9.296050
_cell_length_c 9.183942
_cell_angle_alpha 100.904531
_cell_angle_beta 79.387399
_cell_angle_gamma 149.863538
_cell_volume 668.255514
_symmetry_space_group_name_H-M "P -1"
_symmetry_group_IT_number 2
_symmetry_cell_setting 'triclinic'
loop_
_space_group_symop_operation_xyz
x,y,z
-x,-y,-z
loop_
_atom_site_type_symbol
_atom_site_label
_atom_site_fract_x
_atom_site_fract_y
_atom_site_fract_z
Si Si1 0.907841 0.121795 0.730886
Si Si2 0.605501 0.775692 0.932672
Si Si3 0.725692 0.567312 0.678872
Si Si4 0.506013 0.100144 0.869787
Si Si5 0.274547 0.685334 0.606716
Si Si6 0.552125 0.598310 0.335794
Si Si7 0.814851 0.159113 0.483747
O O1 0.814953 0.067210 0.615446
O O2 0.101964 0.443993 0.708295
O O3 0.796300 0.011863 0.881229
O O4 0.881343 0.907609 0.694042
O O5 0.495716 0.612423 0.786361
O O6 0.500000 0.500000 0.000000
O O7 0.599211 0.912302 0.052804
O O8 0.734868 0.469457 0.523249
O O9 0.569116 0.449037 0.688963
O O10 0.685816 0.420379 0.811987
O O11 0.421364 0.899638 0.719039
O O12 0.500000 0.000000 0.000000
O O13 0.290350 0.850170 0.526488
O O14 0.500000 0.500000 0.500000
O O15 0.744012 0.938225 0.345221
O O16 0.000000 0.500000 0.500000
#
# Coordination Sequence:
#
# PCOD9097717 Si02
#       7
#     2   2   2   2   2   2   2
#     4  10  22  40  67  92 118 162 207 252 308 360
#     4  11  21  41  65  85 123 160 211 246 296 377
#     4  11  22  41  65  90 123 163 210 249 301 369
#     4  12  27  39  60  94 126 168 199 254 310 354
#     4  11  24  41  62  93 128 156 204 261 307 354
#     4  11  20  36  67  91 115 162 211 248 295 361
#     4  10  20  36  61  98 120 147 200 259 306 345
#
# _framework density 20.950068999999999
#
# number of rings (size 3 to 8) (size 9 to 14) (size 15 to 20)
#    0.000    1.143    7.143    0.857    4.000    0.571 
#    0.000    0.714    0.000    0.000    0.000    0.000 
#    0.000    0.000    0.000    0.000    0.000    0.000 
#
# Total GULP energy -77937.779933 kJ/mol
# GULP energy per Si atom -5566.984281 kJ/mol
# Density = 2.090239 g / cm^3
# Si number density = 20.950069 Si / 1000 Ang^3
#
#
#
# Elastic Constant Matrix: (Units=GPa)
#
#
# Indices 1 2 3 4 5 6 
#
# 1 31.8020 4.9898 11.3078 -14.0676 0.1012 -12.0440
# 2 4.9898 90.5011 7.9445 -16.1884 0.5866 1.3568
# 3 11.3078 7.9445 73.8959 -16.1935 -6.0961 -11.3293
# 4 -14.0676 -16.1884 -16.1935 38.4097 -10.6185 4.0111
# 5 0.1012 0.5866 -6.0961 -10.6185 45.4622 -2.9658
# 6 -12.0440 1.3568 -11.3293 4.0111 -2.9658 34.5249
#
#
#
# Elastic Compliance Matrix: (Units=1/GPa)
#
#
# Indices 1 2 3 4 5 6 
#
# 1 0.043678 0.000209 -0.000890 0.015482 0.004278 0.013506
# 2 0.000209 0.012040 -0.000202 0.005455 0.001025 -0.001012
# 3 -0.000890 -0.000202 0.016297 0.007131 0.004154 0.004574
# 4 0.015482 0.005455 0.007131 0.039464 0.010319 0.003828
# 5 0.004278 0.001025 0.004154 0.010319 0.025187 0.003780
# 6 0.013506 -0.001012 0.004574 0.003828 0.003780 0.035097
#
#
# Mechanical properties :
#
#
# Convention : Reuss Voigt Hill
#
# Bulk Modulus (GPa) = 14.23480 27.18701 20.71091
# Shear Modulus (GPa) = 25.38793 35.14316 30.26555
#
# Velocity S-wave (km/s) = 3.48491 4.10014 3.80498
# Velocity P-wave (km/s) = 4.79606 5.95148 5.40473
#
# Compressibility (1/GPa) = 0.07025038
#
# Stress axis : x y z
#
# Youngs Moduli (GPa) = 22.89483 83.05586 61.36147
#
# Poissons Ratio (x) = -0.01737 0.05461
# Poissons Ratio (y) = -0.00479 0.01237
# Poissons Ratio (z) = 0.02037 0.01674
#
# Static dielectric constant tensor:
#      x y z
#    x 1.836010 -0.050260 0.122030 
#    y -0.050260 1.869490 -0.074230 
#    z 0.122030 -0.074230 1.980220 
# 
# From -- ./inp_files/176457.got.cif
#   From: 2010.05.17/outbox.cif.g08.bks.cpg/sg2_89_cif.got.tgz:176457.got - 2010.06.03 11:33:40.
