data_PCOD9097858
_publ_section_title
;
Structure prediction by ZEFSAII (Michael W. Deem and Ramdas Pophale) SiO2 
 PCOD9097858
Probable space group: P -1
;
_chemical_formula_sum "Si O2"
_cell_formula_units_Z 13
_cell_length_a 5.721658
_cell_length_b 19.669699
_cell_length_c 5.065566
_cell_angle_alpha 116.758654
_cell_angle_beta 88.561733
_cell_angle_gamma 90.791608
_cell_volume 508.882090
_symmetry_space_group_name_H-M "P -1"
_symmetry_group_IT_number 2
_symmetry_cell_setting 'triclinic'
loop_
_space_group_symop_operation_xyz
x,y,z
-x,-y,-z
loop_
_atom_site_type_symbol
_atom_site_label
_atom_site_fract_x
_atom_site_fract_y
_atom_site_fract_z
Si Si1 0.995463 0.911836 0.256183
Si Si2 0.498879 0.055222 0.848553
Si Si3 0.500000 0.500000 0.000000
Si Si4 0.698133 0.660066 0.297212
Si Si5 0.932539 0.227944 0.648236
Si Si6 0.686221 0.282046 0.235409
Si Si7 0.920915 0.435327 0.584783
O O1 0.250037 0.902051 0.091246
O O2 0.992306 0.855565 0.408898
O O3 0.749743 0.900801 0.087288
O O4 0.000000 0.000000 0.500000
O O5 0.500000 0.000000 0.500000
O O6 0.500000 0.000000 0.000000
O O7 0.448738 0.408995 0.944279
O O8 0.762380 0.475411 0.875973
O O9 0.551551 0.715801 0.588618
O O10 0.861072 0.710925 0.194139
O O11 0.861538 0.611180 0.400026
O O12 0.864610 0.244023 0.376078
O O13 0.716590 0.247087 0.884578
O O14 0.753051 0.370800 0.356820
O O15 0.000000 0.500000 0.500000
#
# Coordination Sequence:
#
# PCOD9097858 Si02
#       7
#     2   2   1   2   2   2   2
#     4  10  24  46  74 108 143 191 243 302 366 437
#     4  10  22  42  69 103 140 178 232 293 356 427
#     4  10  20  36  62  90 126 172 226 274 344 406
#     4  10  23  41  64  97 137 180 229 291 348 424
#     4  11  25  45  68  98 141 180 236 288 361 421
#     4  10  25  43  65  97 135 182 229 288 352 426
#     4  10  21  37  61  95 130 174 227 283 346 414
#
# _framework density 25.546194
#
# number of rings (size 3 to 8) (size 9 to 14) (size 15 to 20)
#    0.000    1.846    0.000    1.846    2.154   16.000 
#    2.769    0.000    0.000    0.000    0.000    0.000 
#    0.000    0.000    0.000    0.000    0.000    0.000 
#
# Total GULP energy -72424.589966 kJ/mol
# GULP energy per Si atom -5571.122305 kJ/mol
# Density = 2.548805 g / cm^3
# Si number density = 25.546194 Si / 1000 Ang^3
#
#
#
# Elastic Constant Matrix: (Units=GPa)
#
#
# Indices 1 2 3 4 5 6 
#
# 1 169.5038 68.5280 20.7441 -16.4657 -28.9801 -13.8067
# 2 68.5280 191.3809 27.9848 -15.2848 1.0013 20.9057
# 3 20.7441 27.9848 65.1266 -6.7463 6.1804 3.3059
# 4 -16.4657 -15.2848 -6.7463 44.7861 1.9005 3.4694
# 5 -28.9801 1.0013 6.1804 1.9005 28.2653 -4.5729
# 6 -13.8067 20.9057 3.3059 3.4694 -4.5729 36.5026
#
#
#
# Elastic Compliance Matrix: (Units=1/GPa)
#
#
# Indices 1 2 3 4 5 6 
#
# 1 0.011310 -0.004533 -0.003331 0.000837 0.013857 0.008832
# 2 -0.004533 0.007915 -0.000851 0.001710 -0.006003 -0.007085
# 3 -0.003331 -0.000851 0.017908 0.001798 -0.007999 -0.003568
# 4 0.000837 0.001710 0.001798 0.023820 -0.001732 -0.003307
# 5 0.013857 -0.006003 -0.007999 -0.001732 0.054314 0.016373
# 6 0.008832 -0.007085 -0.003568 -0.003307 0.016373 0.037482
#
#
# Mechanical properties :
#
#
# Convention : Reuss Voigt Hill
#
# Bulk Modulus (GPa) = 50.75492 73.39168 62.07330
# Shear Modulus (GPa) = 28.28918 42.49442 35.39180
#
# Velocity S-wave (km/s) = 3.33133 4.08295 3.72614
# Velocity P-wave (km/s) = 5.89136 7.14273 6.54701
#
# Compressibility (1/GPa) = 0.01970252
#
# Stress axis : x y z
#
# Youngs Moduli (GPa) = 88.41856 126.34819 55.84179
#
# Poissons Ratio (x) = 0.57274 0.18602
# Poissons Ratio (y) = 0.40081 0.04750
# Poissons Ratio (z) = 0.29454 0.10747
#
# Static dielectric constant tensor:
#      x y z
#    x 2.051280 -0.011010 -0.007100 
#    y -0.011010 1.960490 0.052710 
#    z -0.007100 0.052710 1.946590 
# 
# From -- ./inp_files/6108.got.cif
#   From: 2010.05.17/outbox.cif.g08.bks.cpg/sg2_4_cif.got.tgz:6108.got - 2010.06.03 11:33:40.
