data_PCOD9097953
_publ_section_title
;
Structure prediction by ZEFSAII (Michael W. Deem and Ramdas Pophale) SiO2 
 PCOD9097953
Probable space group: P -1
;
_chemical_formula_sum "Si O2"
_cell_formula_units_Z 16
_cell_length_a 27.262802
_cell_length_b 8.930388
_cell_length_c 26.915863
_cell_angle_alpha 139.287887
_cell_angle_beta 169.342552
_cell_angle_gamma 41.411086
_cell_volume 789.786378
_symmetry_space_group_name_H-M "P -1"
_symmetry_group_IT_number 2
_symmetry_cell_setting 'triclinic'
loop_
_space_group_symop_operation_xyz
x,y,z
-x,-y,-z
loop_
_atom_site_type_symbol
_atom_site_label
_atom_site_fract_x
_atom_site_fract_y
_atom_site_fract_z
Si Si1 0.667365 0.229345 0.360144
Si Si2 0.960213 0.194518 0.787036
Si Si3 0.741063 0.164841 0.785145
Si Si4 0.413969 0.428873 0.341682
Si Si5 0.371987 0.540978 0.937069
Si Si6 0.252307 0.040952 0.728385
Si Si7 0.138088 0.443820 0.926324
Si Si8 0.843134 0.818567 0.506795
O O1 0.366022 0.315846 0.089218
O O2 0.728967 0.128233 0.342305
O O3 0.726659 0.021752 0.406079
O O4 0.862207 0.431067 0.619510
O O5 0.679306 0.324248 0.552394
O O6 0.906551 0.935223 0.652078
O O7 0.179863 0.246362 0.060195
O O8 0.087022 0.302505 0.890720
O O9 0.702652 0.348147 0.748191
O O10 0.763820 0.315180 0.895682
O O11 0.500000 0.000000 0.500000
O O12 0.000000 0.000000 0.000000
O O13 0.500000 0.500000 0.500000
O O14 0.613943 0.634965 0.234121
O O15 0.500000 0.500000 0.000000
O O16 0.263158 0.300643 0.785464
O O17 0.117390 0.717221 0.730631
O O18 0.000000 0.000000 0.500000
O O19 0.500000 0.000000 0.000000
#
# Coordination Sequence:
#
# PCOD9097953 Si02
#       8
#     2   2   2   2   2   2   2   2
#     4  11  21  38  66  91 120 159 210 259 307 364
#     4  10  20  36  62  95 125 158 208 258 314 365
#     4  11  21  37  63  92 121 156 205 261 302 352
#     4  11  22  39  63  91 128 169 206 245 314 393
#     4  12  24  39  66  96 122 158 213 264 312 363
#     4  12  27  43  63  89 129 172 206 246 320 391
#     4  10  20  36  62  95 118 154 211 260 301 360
#     4  11  21  37  66  96 124 149 213 277 310 341
#
# _framework density 20.258642999999999
#
# number of rings (size 3 to 8) (size 9 to 14) (size 15 to 20)
#    0.000    1.000    1.250    9.750    1.750    0.000 
#    0.000    0.000   27.500    0.000    0.000    0.000 
#    0.000    0.000    0.000    0.000    0.000    0.000 
#
# Total GULP energy -89407.647346 kJ/mol
# GULP energy per Si atom -5587.977959 kJ/mol
# Density = 2.021253 g / cm^3
# Si number density = 20.258643 Si / 1000 Ang^3
#
#
#
# Elastic Constant Matrix: (Units=GPa)
#
#
# Indices 1 2 3 4 5 6 
#
# 1 79.8235 33.6479 31.5952 9.6566 0.2864 -18.7329
# 2 33.6479 76.5996 34.2096 12.8869 13.1713 -20.0338
# 3 31.5952 34.2096 146.8972 11.5867 11.0603 -13.8459
# 4 9.6566 12.8869 11.5867 48.5184 -16.7985 -2.8365
# 5 0.2864 13.1713 11.0603 -16.7985 42.6725 1.4847
# 6 -18.7329 -20.0338 -13.8459 -2.8365 1.4847 27.0175
#
#
#
# Elastic Compliance Matrix: (Units=1/GPa)
#
#
# Indices 1 2 3 4 5 6 
#
# 1 0.017103 -0.004911 -0.001909 -0.000762 0.001349 0.007085
# 2 -0.004911 0.021814 -0.001658 -0.007003 -0.009434 0.011704
# 3 -0.001909 -0.001658 0.008067 -0.001827 -0.002339 0.001518
# 4 -0.000762 -0.007003 -0.001827 0.027513 0.013628 -0.004518
# 5 0.001349 -0.009434 -0.002339 0.013628 0.032573 -0.007618
# 6 0.007085 0.011704 0.001518 -0.004518 -0.007618 0.051326
#
#
# Mechanical properties :
#
#
# Convention : Reuss Voigt Hill
#
# Bulk Modulus (GPa) = 33.30098 55.80284 44.55191
# Shear Modulus (GPa) = 26.97408 37.23287 32.10348
#
# Velocity S-wave (km/s) = 3.65291 4.29170 3.98512
# Velocity P-wave (km/s) = 5.85365 7.22241 6.57375
#
# Compressibility (1/GPa) = 0.03002914
#
# Stress axis : x y z
#
# Youngs Moduli (GPa) = 58.46789 45.84192 123.95565
#
# Poissons Ratio (x) = 0.22515 0.23658
# Poissons Ratio (y) = 0.28716 0.20550
# Poissons Ratio (z) = 0.11159 0.07600
#
# Static dielectric constant tensor:
#      x y z
#    x 1.706990 -0.004910 -0.029930 
#    y -0.004910 1.713050 0.072200 
#    z -0.029930 0.072200 1.694590 
# 
# From -- ./inp_files/621174.got.cif
#   From: 2010.05.17/outbox.cif.g08.bks.cpg/sg2_311_cif.got.tgz:621174.got - 2010.06.03 11:33:40.
