data_PCOD9097133
_publ_section_title
;
Structure prediction by ZEFSAII (Michael W. Deem and Ramdas Pophale) SiO2 
 PCOD9097133
Probable space group: P -1
;
_chemical_formula_sum "Si O2"
_cell_formula_units_Z 16
_cell_length_a 8.663221
_cell_length_b 20.696371
_cell_length_c 27.660676
_cell_angle_alpha 15.350006
_cell_angle_beta 143.922802
_cell_angle_gamma 150.069995
_cell_volume 640.683577
_symmetry_space_group_name_H-M "P -1"
_symmetry_group_IT_number 2
_symmetry_cell_setting 'triclinic'
loop_
_space_group_symop_operation_xyz
x,y,z
-x,-y,-z
loop_
_atom_site_type_symbol
_atom_site_label
_atom_site_fract_x
_atom_site_fract_y
_atom_site_fract_z
Si Si1 0.566947 0.691546 0.221018
Si Si2 0.467507 0.217151 0.298691
Si Si3 0.851157 0.771037 0.062574
Si Si4 0.614176 0.060649 0.347190
Si Si5 0.752666 0.920237 0.306209
Si Si6 0.428279 0.747408 0.251350
Si Si7 0.319645 0.469202 0.221962
Si Si8 0.347586 0.789016 0.384064
O O1 0.537143 0.817973 0.172209
O O2 0.358151 0.636374 0.161048
O O3 0.466401 0.362659 0.444732
O O4 0.923716 0.905977 0.136484
O O5 0.693048 0.536377 0.148736
O O6 0.562886 0.193605 0.285611
O O7 0.500000 0.000000 0.500000
O O8 0.107416 0.121994 0.270441
O O9 0.575319 0.684634 0.092514
O O10 0.103013 0.729461 0.184573
O O11 0.956093 0.286880 0.246963
O O12 0.604927 0.777636 0.569468
O O13 0.370354 0.967318 0.308619
O O14 0.677218 0.945201 0.213395
O O15 0.662549 0.585349 0.525865
O O16 0.520420 0.945674 0.265325
O O17 0.000000 0.500000 0.500000
#
# Coordination Sequence:
#
# PCOD9097133 Si02
#       8
#     2   2   2   2   2   2   2   2
#     4  10  23  38  60  91 124 159 202 242 303 367
#     4  12  22  37  63  90 120 158 206 252 294 351
#     4  12  22  38  63  90 125 163 199 246 305 361
#     4  10  21  35  60  92 116 152 205 250 300 339
#     4  10  22  38  60  92 118 154 208 251 298 349
#     4  10  21  37  61  87 125 155 200 252 299 356
#     4  10  20  36  59  88 124 150 198 256 292 353
#     4  10  23  39  65  88 122 157 198 253 303 357
#
# _framework density 24.973326
#
# number of rings (size 3 to 8) (size 9 to 14) (size 15 to 20)
#    0.000    1.500    2.500    2.250   12.250    0.000 
#    0.000    0.625    2.750    1.500    0.000    0.000 
#    0.000    0.000    0.000    0.000    0.000    0.000 
#
# Total GULP energy -89510.178499 kJ/mol
# GULP energy per Si atom -5594.386156 kJ/mol
# Density = 2.491649 g / cm^3
# Si number density = 24.973326 Si / 1000 Ang^3
#
#
#
# Elastic Constant Matrix: (Units=GPa)
#
#
# Indices 1 2 3 4 5 6 
#
# 1 125.4604 48.9113 21.6066 3.4907 -23.7556 -17.6580
# 2 48.9113 165.0208 17.7372 -9.1165 -18.3697 -20.6825
# 3 21.6066 17.7372 62.8329 12.1742 -19.7255 -6.8876
# 4 3.4907 -9.1165 12.1742 35.3504 -5.0332 -2.1363
# 5 -23.7556 -18.3697 -19.7255 -5.0332 38.7628 -9.3357
# 6 -17.6580 -20.6825 -6.8876 -2.1363 -9.3357 51.1011
#
#
#
# Elastic Compliance Matrix: (Units=1/GPa)
#
#
# Indices 1 2 3 4 5 6 
#
# 1 0.010540 -0.001889 -0.000710 -0.000177 0.006118 0.003892
# 2 -0.001889 0.007604 -0.000753 0.003044 0.003188 0.003033
# 3 -0.000710 -0.000753 0.021089 -0.005707 0.010139 0.003906
# 4 -0.000177 0.003044 -0.005707 0.031634 0.003088 0.002288
# 5 0.006118 0.003188 0.010139 0.003088 0.039539 0.012123
# 6 0.003892 0.003033 0.003906 0.002288 0.012123 0.024979
#
#
# Mechanical properties :
#
#
# Convention : Reuss Voigt Hill
#
# Bulk Modulus (GPa) = 30.74145 58.86938 44.80541
# Shear Modulus (GPa) = 32.69426 42.71346 37.70386
#
# Velocity S-wave (km/s) = 3.62217 4.14014 3.88979
# Velocity P-wave (km/s) = 5.46168 6.81751 6.17691
#
# Compressibility (1/GPa) = 0.03252937
#
# Stress axis : x y z
#
# Youngs Moduli (GPa) = 94.87332 131.51179 47.41789
#
# Poissons Ratio (x) = 0.24839 0.03366
# Poissons Ratio (y) = 0.17919 0.03573
# Poissons Ratio (z) = 0.06734 0.09908
#
# Static dielectric constant tensor:
#      x y z
#    x 1.976320 -0.004810 0.030120 
#    y -0.004810 2.031220 0.089920 
#    z 0.030120 0.089920 2.080540 
# 
# From -- ./inp_files/565922.got.cif
#   From: 2010.05.17/outbox.cif.g08.bks.cpg/sg2_283_cif.got.tgz:565922.got - 2010.06.03 11:33:40.
