data_PCOD9097082
_publ_section_title
;
Structure prediction by ZEFSAII (Michael W. Deem and Ramdas Pophale) SiO2 
 PCOD9097082
Probable space group: P -1
;
_chemical_formula_sum "Si O2"
_cell_formula_units_Z 14
_cell_length_a 10.658529
_cell_length_b 11.066126
_cell_length_c 8.794799
_cell_angle_alpha 40.550374
_cell_angle_beta 71.804586
_cell_angle_gamma 64.947433
_cell_volume 610.862056
_symmetry_space_group_name_H-M "P -1"
_symmetry_group_IT_number 2
_symmetry_cell_setting 'triclinic'
loop_
_space_group_symop_operation_xyz
x,y,z
-x,-y,-z
loop_
_atom_site_type_symbol
_atom_site_label
_atom_site_fract_x
_atom_site_fract_y
_atom_site_fract_z
Si Si1 0.209827 0.231206 0.850748
Si Si2 0.565286 0.120795 0.979583
Si Si3 0.928620 0.164903 0.990010
Si Si4 0.714273 0.406363 0.616025
Si Si5 0.139347 0.080395 0.472128
Si Si6 0.172810 0.716122 0.639790
Si Si7 0.312669 0.293554 0.088999
O O1 0.282911 0.372943 0.602661
O O2 0.044908 0.274530 0.868411
O O3 0.247360 0.247542 0.997470
O O4 0.279242 0.022892 0.944553
O O5 0.580172 0.330655 0.725794
O O6 0.473237 0.175676 0.113392
O O7 0.500000 0.000000 0.000000
O O8 0.793632 0.314348 0.826179
O O9 0.894064 0.046524 0.257665
O O10 0.000000 0.000000 0.000000
O O11 0.800614 0.322453 0.511303
O O12 0.242864 0.207240 0.332431
O O13 0.993007 0.226319 0.330474
O O14 0.206857 0.911759 0.485437
O O15 0.263707 0.528568 0.878066
#
# Coordination Sequence:
#
# PCOD9097082 Si02
#       7
#     2   2   2   2   2   2   2
#     4  10  21  38  63  92 117 154 201 246 295 346
#     4  10  20  37  60  91 121 154 199 242 291 345
#     4  12  22  40  62  88 120 156 197 244 302 350
#     4  11  22  39  63  90 121 155 198 247 290 349
#     4  11  21  37  58  85 124 152 190 246 295 350
#     4  10  20  36  59  86 117 151 197 241 297 341
#     4  10  22  36  60  89 119 155 197 238 295 349
#
# _framework density 22.918430000000001
#
# number of rings (size 3 to 8) (size 9 to 14) (size 15 to 20)
#    0.000    1.429    2.857    4.286    0.000    7.429 
#    2.571    0.714    0.000    1.714    0.000    0.000 
#    0.000    0.000    0.000    0.000    0.000    0.000 
#
# Total GULP energy -78073.346120 kJ/mol
# GULP energy per Si atom -5576.667580 kJ/mol
# Density = 2.286627 g / cm^3
# Si number density = 22.918430 Si / 1000 Ang^3
#
#
#
# Elastic Constant Matrix: (Units=GPa)
#
#
# Indices 1 2 3 4 5 6 
#
# 1 53.0670 -12.3391 24.6235 -1.9270 -18.0133 -0.5997
# 2 -12.3391 42.1689 3.6160 -8.2725 0.4269 -7.7030
# 3 24.6235 3.6160 113.6311 -14.2334 -24.7139 -7.5439
# 4 -1.9270 -8.2725 -14.2334 20.7115 4.1342 -3.0433
# 5 -18.0133 0.4269 -24.7139 4.1342 34.8354 -0.8963
# 6 -0.5997 -7.7030 -7.5439 -3.0433 -0.8963 19.3357
#
#
#
# Elastic Compliance Matrix: (Units=1/GPa)
#
#
# Indices 1 2 3 4 5 6 
#
# 1 0.026257 0.009055 -0.002969 0.002398 0.011182 0.004159
# 2 0.009055 0.032359 0.000827 0.016037 0.003385 0.016176
# 3 -0.002969 0.000827 0.012263 0.008184 0.006353 0.006604
# 4 0.002398 0.016037 0.008184 0.063455 -0.000176 0.019635
# 5 0.011182 0.003385 0.006353 -0.000176 0.039129 0.005960
# 6 0.004159 0.016176 0.006604 0.019635 0.005960 0.064235
#
#
# Mechanical properties :
#
#
# Convention : Reuss Voigt Hill
#
# Bulk Modulus (GPa) = 11.80580 26.74085 19.27332
# Shear Modulus (GPa) = 19.83277 27.84095 23.83686
#
# Velocity S-wave (km/s) = 2.94490 3.48916 3.22852
# Velocity P-wave (km/s) = 4.08970 5.28445 4.72499
#
# Compressibility (1/GPa) = 0.08470413
#
# Stress axis : x y z
#
# Youngs Moduli (GPa) = 38.08475 30.90291 81.54738
#
# Poissons Ratio (x) = -0.27982 0.24215
# Poissons Ratio (y) = -0.34485 -0.06745
# Poissons Ratio (z) = 0.11309 -0.02556
#
# Static dielectric constant tensor:
#      x y z
#    x 1.948480 -0.004960 -0.011280 
#    y -0.004960 1.866000 0.004920 
#    z -0.011280 0.004920 1.906470 
# 
# From -- ./inp_files/255661.got.cif
#   From: 2010.05.17/outbox.cif.g08.bks.cpg/sg2_128_cif.got.tgz:255661.got - 2010.06.03 11:33:40.
