data_PCOD9097804
_publ_section_title
;
Structure prediction by ZEFSAII (Michael W. Deem and Ramdas Pophale) SiO2 
 PCOD9097804
Probable space group: P -1
;
_chemical_formula_sum "Si O2"
_cell_formula_units_Z 16
_cell_length_a 15.645760
_cell_length_b 11.437970
_cell_length_c 9.882587
_cell_angle_alpha 97.674411
_cell_angle_beta 59.643676
_cell_angle_gamma 145.797519
_cell_volume 694.871187
_symmetry_space_group_name_H-M "P -1"
_symmetry_group_IT_number 2
_symmetry_cell_setting 'triclinic'
loop_
_space_group_symop_operation_xyz
x,y,z
-x,-y,-z
loop_
_atom_site_type_symbol
_atom_site_label
_atom_site_fract_x
_atom_site_fract_y
_atom_site_fract_z
Si Si1 0.301709 0.832270 0.044476
Si Si2 0.059294 0.674391 0.881876
Si Si3 0.946085 0.808411 0.968710
Si Si4 0.511425 0.156197 0.656306
Si Si5 0.971480 0.128283 0.402746
Si Si6 0.506648 0.632040 0.835347
Si Si7 0.585972 0.460315 0.807409
Si Si8 0.043740 0.435939 0.551806
O O1 0.162812 0.786137 0.221244
O O2 0.123245 0.541137 0.118024
O O3 0.500000 0.000000 0.000000
O O4 0.405003 0.984376 0.846690
O O5 0.028011 0.776399 0.975526
O O6 0.312052 0.936519 0.678420
O O7 0.000000 0.500000 0.000000
O O8 0.033581 0.887689 0.757033
O O9 0.686793 0.522589 0.122976
O O10 0.000000 0.000000 0.000000
O O11 0.556293 0.338425 0.690162
O O12 0.744495 0.342479 0.488455
O O13 0.063685 0.348512 0.420629
O O14 0.161093 0.242777 0.322756
O O15 0.734269 0.873302 0.615879
O O16 0.458099 0.442817 0.872592
O O17 0.493293 0.671175 0.003548
O O18 0.000000 0.500000 0.500000
#
# Coordination Sequence:
#
# PCOD9097804 Si02
#       8
#     2   2   2   2   2   2   2   2
#     4  11  22  37  65  92 125 164 218 269 322 387
#     4  10  24  43  63  94 133 177 216 272 335 398
#     4  11  24  42  64  91 129 175 223 268 330 396
#     4  10  21  39  58  85 129 161 209 266 325 385
#     4  10  22  36  61  94 123 161 224 273 322 395
#     4  10  20  36  62  88 123 165 216 271 321 381
#     4   9  19  36  59  90 124 165 208 269 328 387
#     4  11  21  35  61  93 118 162 209 265 324 383
#
# _framework density 23.025849999999998
#
# number of rings (size 3 to 8) (size 9 to 14) (size 15 to 20)
#    0.000    1.750    1.250    2.625    5.250    1.000 
#    0.000    7.500    0.000    0.000    0.000    0.000 
#    0.000    0.000    0.000    0.000    0.000    0.000 
#
# Total GULP energy -89230.661470 kJ/mol
# GULP energy per Si atom -5576.916342 kJ/mol
# Density = 2.297344 g / cm^3
# Si number density = 23.025850 Si / 1000 Ang^3
#
#
#
# Elastic Constant Matrix: (Units=GPa)
#
#
# Indices 1 2 3 4 5 6 
#
# 1 84.7722 30.9627 16.2000 -12.4745 -35.1766 -3.0777
# 2 30.9627 106.8462 30.1772 1.0708 -14.4484 -0.9742
# 3 16.2000 30.1772 130.4515 -20.6929 -23.9932 14.5993
# 4 -12.4745 1.0708 -20.6929 45.7427 4.3037 -16.3186
# 5 -35.1766 -14.4484 -23.9932 4.3037 36.6543 -7.0105
# 6 -3.0777 -0.9742 14.5993 -16.3186 -7.0105 29.8386
#
#
#
# Elastic Compliance Matrix: (Units=1/GPa)
#
#
# Indices 1 2 3 4 5 6 
#
# 1 0.025853 -0.004780 0.002927 0.010689 0.026085 0.013052
# 2 -0.004780 0.011299 -0.002709 -0.002916 -0.001716 -0.000797
# 3 0.002927 -0.002709 0.010126 0.004562 0.007753 -0.000425
# 4 0.010689 -0.002916 0.004562 0.032735 0.011979 0.019492
# 5 0.026085 -0.001716 0.007753 0.011979 0.058989 0.019252
# 6 0.013052 -0.000797 -0.000425 0.019492 0.019252 0.050225
#
#
# Mechanical properties :
#
#
# Convention : Reuss Voigt Hill
#
# Bulk Modulus (GPa) = 26.20855 52.97220 39.59037
# Shear Modulus (GPa) = 23.68890 38.76247 31.22569
#
# Velocity S-wave (km/s) = 3.21096 4.10742 3.68654
# Velocity P-wave (km/s) = 5.01538 6.74907 5.94575
#
# Compressibility (1/GPa) = 0.03815549
#
# Stress axis : x y z
#
# Youngs Moduli (GPa) = 38.67979 88.50004 98.75604
#
# Poissons Ratio (x) = 0.42299 -0.28910
# Poissons Ratio (y) = 0.18487 0.26758
# Poissons Ratio (z) = -0.11323 0.23979
#
# Static dielectric constant tensor:
#      x y z
#    x 2.238060 0.066780 -0.161930 
#    y 0.066780 1.957860 -0.019400 
#    z -0.161930 -0.019400 1.939530 
# 
# From -- ./inp_files/464673.got.cif
#   From: 2010.05.17/outbox.cif.g08.bks.cpg/sg2_233_cif.got.tgz:464673.got - 2010.06.03 11:33:40.
