data_PCOD9097481
_publ_section_title
;
Structure prediction by ZEFSAII (Michael W. Deem and Ramdas Pophale) SiO2 
 PCOD9097481
Probable space group: P -1
;
_chemical_formula_sum "Si O2"
_cell_formula_units_Z 16
_cell_length_a 14.720689
_cell_length_b 15.675793
_cell_length_c 11.266919
_cell_angle_alpha 36.231112
_cell_angle_beta 150.915554
_cell_angle_gamma 132.691747
_cell_volume 743.701215
_symmetry_space_group_name_H-M "P -1"
_symmetry_group_IT_number 2
_symmetry_cell_setting 'triclinic'
loop_
_space_group_symop_operation_xyz
x,y,z
-x,-y,-z
loop_
_atom_site_type_symbol
_atom_site_label
_atom_site_fract_x
_atom_site_fract_y
_atom_site_fract_z
Si Si1 0.839246 0.833354 0.427864
Si Si2 0.194815 0.074044 0.157122
Si Si3 0.071761 0.372714 0.816550
Si Si4 0.429345 0.475762 0.239620
Si Si5 0.479161 0.307552 0.729046
Si Si6 0.227500 0.884835 0.833469
Si Si7 0.723071 0.276121 0.674378
Si Si8 0.413528 0.014566 0.234675
O O1 0.744195 0.691009 0.511741
O O2 0.051082 0.821296 0.640318
O O3 0.823959 0.944792 0.396194
O O4 0.698376 0.907344 0.087936
O O5 0.362695 0.980939 0.524394
O O6 0.308170 0.084018 0.151863
O O7 0.149340 0.228673 0.994505
O O8 0.000000 0.000000 0.000000
O O9 0.000000 0.500000 0.500000
O O10 0.904772 0.323439 0.763269
O O11 0.233503 0.430399 0.018919
O O12 0.498645 0.395702 0.530908
O O13 0.432517 0.637724 0.110643
O O14 0.581907 0.417478 0.382149
O O15 0.585350 0.154302 0.982443
O O16 0.235049 0.806566 0.059075
O O17 0.626308 0.155248 0.624025
#
# Coordination Sequence:
#
# PCOD9097481 Si02
#       8
#     2   2   2   2   2   2   2   2
#     4  10  20  36  60  96 121 154 199 261 302 363
#     4  11  23  43  65  90 122 164 212 259 310 368
#     4  12  26  41  64  93 123 166 212 261 312 370
#     4  10  23  41  60  86 124 168 207 246 313 377
#     4  10  21  39  62  87 124 166 204 249 307 374
#     4   9  20  36  61  92 125 153 202 249 313 366
#     4  10  20  42  62  86 122 166 199 254 311 367
#     4  10  22  39  65  90 121 162 207 251 315 367
#
# _framework density 21.514016999999999
#
# number of rings (size 3 to 8) (size 9 to 14) (size 15 to 20)
#    0.000    1.750    2.500    1.125    0.000    5.500 
#    2.250    3.750    0.000    0.000    0.000    0.000 
#    0.000    0.000    0.000    0.000    0.000    0.000 
#
# Total GULP energy -89191.408566 kJ/mol
# GULP energy per Si atom -5574.463035 kJ/mol
# Density = 2.146505 g / cm^3
# Si number density = 21.514017 Si / 1000 Ang^3
#
#
#
# Elastic Constant Matrix: (Units=GPa)
#
#
# Indices 1 2 3 4 5 6 
#
# 1 88.8796 41.6138 30.2502 5.8697 20.4331 -5.5013
# 2 41.6138 112.1822 20.2952 25.3919 16.1124 -9.1496
# 3 30.2502 20.2952 51.5979 24.5899 16.4566 -2.8231
# 4 5.8697 25.3919 24.5899 34.9246 8.6560 5.6451
# 5 20.4331 16.1124 16.4566 8.6560 26.0789 6.0789
# 6 -5.5013 -9.1496 -2.8231 5.6451 6.0789 27.6458
#
#
#
# Elastic Compliance Matrix: (Units=1/GPa)
#
#
# Indices 1 2 3 4 5 6 
#
# 1 0.019386 -0.006722 -0.012206 0.012095 -0.007234 -0.000492
# 2 -0.006722 0.015000 0.007553 -0.015069 -0.005805 0.008751
# 3 -0.012206 0.007553 0.045893 -0.034192 -0.016285 0.015320
# 4 0.012095 -0.015069 -0.034192 0.063655 0.004982 -0.020166
# 5 -0.007234 -0.005805 -0.016285 0.004982 0.060744 -0.019397
# 6 -0.000492 0.008751 0.015320 -0.020166 -0.019397 0.048917
#
#
# Mechanical properties :
#
#
# Convention : Reuss Voigt Hill
#
# Bulk Modulus (GPa) = 17.38261 48.55310 32.96786
# Shear Modulus (GPa) = 16.91925 28.42988 22.67456
#
# Velocity S-wave (km/s) = 2.80738 3.63913 3.24997
# Velocity P-wave (km/s) = 4.31343 6.34624 5.42589
#
# Compressibility (1/GPa) = 0.05752875
#
# Stress axis : x y z
#
# Youngs Moduli (GPa) = 51.58229 66.66862 21.78998
#
# Poissons Ratio (x) = 0.44816 0.26596
# Poissons Ratio (y) = 0.34674 -0.16458
# Poissons Ratio (z) = 0.62960 -0.50354
#
# Static dielectric constant tensor:
#      x y z
#    x 1.765180 0.014190 -0.044860 
#    y 0.014190 1.890910 -0.042950 
#    z -0.044860 -0.042950 1.835680 
# 
# From -- ./inp_files/434230.got.cif
#   From: 2010.05.17/outbox.cif.g08.bks.cpg/sg2_218_cif.got.tgz:434230.got - 2010.06.03 11:33:40.
