data_PCOD9097032
_publ_section_title
;
Structure prediction by ZEFSAII (Michael W. Deem and Ramdas Pophale) SiO2 
 PCOD9097032
Probable space group: P -1
;
_chemical_formula_sum "Si O2"
_cell_formula_units_Z 16
_cell_length_a 7.407116
_cell_length_b 5.669965
_cell_length_c 20.608450
_cell_angle_alpha 75.730056
_cell_angle_beta 70.154427
_cell_angle_gamma 43.159156
_cell_volume 556.874911
_symmetry_space_group_name_H-M "P -1"
_symmetry_group_IT_number 2
_symmetry_cell_setting 'triclinic'
loop_
_space_group_symop_operation_xyz
x,y,z
-x,-y,-z
loop_
_atom_site_type_symbol
_atom_site_label
_atom_site_fract_x
_atom_site_fract_y
_atom_site_fract_z
Si Si1 0.701785 0.953763 0.861512
Si Si2 0.710571 0.522601 0.986496
Si Si3 0.916672 0.708198 0.231158
Si Si4 0.517992 0.083803 0.360678
Si Si5 0.245396 0.470049 0.485604
Si Si6 0.311040 0.695562 0.265531
Si Si7 0.112753 0.902914 0.892393
Si Si8 0.959148 0.863574 0.609907
O O1 0.613136 0.838163 0.934506
O O2 0.930580 0.609538 0.813997
O O3 0.854466 0.020664 0.880244
O O4 0.546292 0.232229 0.802931
O O5 0.500000 0.500000 0.000000
O O6 0.752576 0.447374 0.063635
O O7 0.999171 0.187225 0.942222
O O8 0.146494 0.657357 0.243246
O O9 0.740941 0.763290 0.308261
O O10 0.751221 0.042143 0.180636
O O11 0.511168 0.140493 0.435167
O O12 0.499251 0.369345 0.311706
O O13 0.245620 0.177698 0.373233
O O14 0.000000 0.500000 0.500000
O O15 0.235513 0.545177 0.558444
O O16 0.155582 0.799052 0.438114
O O17 0.085815 0.018494 0.318580
#
# Coordination Sequence:
#
# PCOD9097032 Si02
#       8
#     2   2   2   2   2   2   2   2
#     4  10  21  39  59  82 118 153 185 232 286 337
#     4  10  21  39  61  85 112 144 187 235 281 334
#     4  10  22  38  56  83 118 151 189 236 282 336
#     4  10  20  36  59  84 114 152 193 235 285 340
#     4   8  16  32  55  84 114 148 191 237 283 334
#     4  10  21  37  56  83 117 151 191 238 286 337
#     4   9  21  39  57  82 115 148 184 231 282 335
#     4   9  17  32  58  83 111 152 192 235 287 335
#
# _framework density 28.731766
#
# number of rings (size 3 to 8) (size 9 to 14) (size 15 to 20)
#    0.000    2.500    0.000    1.125    0.000    8.500 
#    0.000    6.875    0.000   30.750    0.000    0.000 
#    0.000    0.000    0.000    0.000    0.000    0.000 
#
# Total GULP energy -89496.650034 kJ/mol
# GULP energy per Si atom -5593.540627 kJ/mol
# Density = 2.866637 g / cm^3
# Si number density = 28.731766 Si / 1000 Ang^3
#
#
#
# Elastic Constant Matrix: (Units=GPa)
#
#
# Indices 1 2 3 4 5 6 
#
# 1 59.8428 -7.6459 26.4872 -2.2817 -2.6477 -2.1079
# 2 -7.6459 101.6376 27.9125 3.2937 -1.0295 13.7520
# 3 26.4872 27.9125 270.3889 -6.0233 -4.9260 12.5897
# 4 -2.2817 3.2937 -6.0233 76.0450 11.9137 -4.3173
# 5 -2.6477 -1.0295 -4.9260 11.9137 37.8651 -1.6731
# 6 -2.1079 13.7520 12.5897 -4.3173 -1.6731 26.5742
#
#
#
# Elastic Compliance Matrix: (Units=1/GPa)
#
#
# Indices 1 2 3 4 5 6 
#
# 1 0.017911 0.001678 -0.001978 0.000236 0.001037 0.001593
# 2 0.001678 0.010989 -0.001072 -0.000853 0.000317 -0.005165
# 3 -0.001978 -0.001072 0.004081 0.000188 0.000238 -0.001490
# 4 0.000236 -0.000853 0.000188 0.014016 -0.004287 0.002378
# 5 0.001037 0.000317 0.000238 -0.004287 0.027909 0.000866
# 6 0.001593 -0.005165 -0.001490 0.002378 0.000866 0.041576
#
#
# Mechanical properties :
#
#
# Convention : Reuss Voigt Hill
#
# Bulk Modulus (GPa) = 33.07105 58.37523 45.72314
# Shear Modulus (GPa) = 38.66857 53.77124 46.21990
#
# Velocity S-wave (km/s) = 3.67256 4.33077 4.01517
# Velocity P-wave (km/s) = 5.43312 6.73564 6.11914
#
# Compressibility (1/GPa) = 0.03023793
#
# Stress axis : x y z
#
# Youngs Moduli (GPa) = 55.83097 90.99980 245.05888
#
# Poissons Ratio (x) = -0.15268 0.48468
# Poissons Ratio (y) = -0.09368 0.26259
# Poissons Ratio (z) = 0.11042 0.09751
#
# Static dielectric constant tensor:
#      x y z
#    x 2.116300 -0.034910 0.011290 
#    y -0.034910 2.463890 -0.024040 
#    z 0.011290 -0.024040 2.269340 
# 
# From -- ./inp_files/9919.got.cif
#   From: 2010.05.17/outbox.cif.g08.bks.cpg/sg2_5_cif.got.tgz:9919.got - 2010.06.03 11:33:40.
