data_PCOD9097976
_publ_section_title
;
Structure prediction by ZEFSAII (Michael W. Deem and Ramdas Pophale) SiO2 
 PCOD9097976
Probable space group: P -1
;
_chemical_formula_sum "Si O2"
_cell_formula_units_Z 16
_cell_length_a 15.505115
_cell_length_b 10.177770
_cell_length_c 12.190229
_cell_angle_alpha 102.256644
_cell_angle_beta 27.437936
_cell_angle_gamma 121.067983
_cell_volume 594.190861
_symmetry_space_group_name_H-M "P -1"
_symmetry_group_IT_number 2
_symmetry_cell_setting 'triclinic'
loop_
_space_group_symop_operation_xyz
x,y,z
-x,-y,-z
loop_
_atom_site_type_symbol
_atom_site_label
_atom_site_fract_x
_atom_site_fract_y
_atom_site_fract_z
Si Si1 0.631774 0.696262 0.504525
Si Si2 0.771027 0.386612 0.465226
Si Si3 0.823512 0.609360 0.896038
Si Si4 0.731353 0.508498 0.746222
Si Si5 0.740018 0.048421 0.849326
Si Si6 0.329757 0.700609 0.667311
Si Si7 0.731696 0.976592 0.618253
Si Si8 0.873268 0.178530 0.952885
O O1 0.490090 0.672838 0.550534
O O2 0.638852 0.822524 0.605730
O O3 0.933429 0.795244 0.173899
O O4 0.439309 0.494513 0.754264
O O5 0.663780 0.364120 0.703798
O O6 0.585089 0.253110 0.547443
O O7 0.941920 0.607516 0.275242
O O8 0.978858 0.372451 0.246070
O O9 0.762693 0.487221 0.834764
O O10 0.975103 0.817573 0.715231
O O11 0.018847 0.726981 0.427263
O O12 0.500000 0.500000 0.000000
O O13 0.808114 0.051757 0.899044
O O14 0.731239 0.936099 0.740133
O O15 0.470669 0.000599 0.151933
O O16 0.000000 0.500000 0.000000
O O17 0.353180 0.851606 0.735217
#
# Coordination Sequence:
#
# PCOD9097976 Si02
#       8
#     2   2   2   2   2   2   2   2
#     4  12  22  41  70  94 134 174 211 279 324 381
#     4  10  20  38  60  94 129 169 217 262 319 388
#     4  11  21  39  67  96 129 169 216 268 329 392
#     4  10  20  36  62  98 133 163 214 274 326 393
#     4   9  18  39  59  92 138 168 217 264 323 401
#     4  10  20  40  65  94 130 172 229 259 317 398
#     4  10  22  38  65  96 132 177 216 264 335 388
#     4  10  20  37  66  97 126 171 222 264 325 384
#
# _framework density 26.927375000000001
#
# number of rings (size 3 to 8) (size 9 to 14) (size 15 to 20)
#    0.000    1.750    3.750    2.625    0.000    4.500 
#    2.250    4.375    0.000    0.750    0.000    0.000 
#    0.000    0.000    0.000    0.000    0.000    0.000 
#
# Total GULP energy -89614.768792 kJ/mol
# GULP energy per Si atom -5600.923049 kJ/mol
# Density = 2.686609 g / cm^3
# Si number density = 26.927375 Si / 1000 Ang^3
#
#
#
# Elastic Constant Matrix: (Units=GPa)
#
#
# Indices 1 2 3 4 5 6 
#
# 1 188.8418 26.3051 38.2266 8.5336 9.6225 33.4057
# 2 26.3051 92.8604 14.0954 1.2293 15.6142 26.9322
# 3 38.2266 14.0954 73.8567 4.5054 3.1504 0.0424
# 4 8.5336 1.2293 4.5054 35.7052 2.2787 1.7041
# 5 9.6225 15.6142 3.1504 2.2787 34.1570 8.9741
# 6 33.4057 26.9322 0.0424 1.7041 8.9741 43.4182
#
#
#
# Elastic Compliance Matrix: (Units=1/GPa)
#
#
# Indices 1 2 3 4 5 6 
#
# 1 0.007011 0.000183 -0.003592 -0.000955 -0.000241 -0.005417
# 2 0.000183 0.014157 -0.002641 0.000455 -0.004189 -0.008072
# 3 -0.003592 -0.002641 0.015992 -0.001261 -0.000356 0.004510
# 4 -0.000955 0.000455 -0.001261 0.028499 -0.001638 -0.000326
# 5 -0.000241 -0.004189 -0.000356 -0.001638 0.032413 -0.003851
# 6 -0.005417 -0.008072 0.004510 -0.000326 -0.003851 0.033011
#
#
# Mechanical properties :
#
#
# Convention : Reuss Voigt Hill
#
# Bulk Modulus (GPa) = 39.90255 56.97924 48.44090
# Shear Modulus (GPa) = 32.99518 41.11822 37.05670
#
# Velocity S-wave (km/s) = 3.50428 3.91193 3.71370
# Velocity P-wave (km/s) = 5.58785 6.45062 6.03468
#
# Compressibility (1/GPa) = 0.02506105
#
# Stress axis : x y z
#
# Youngs Moduli (GPa) = 142.64000 70.63424 62.52939
#
# Poissons Ratio (x) = -0.01296 0.22460
# Poissons Ratio (y) = -0.02617 0.16516
# Poissons Ratio (z) = 0.51236 0.18657
#
# Static dielectric constant tensor:
#      x y z
#    x 2.095830 0.071050 0.003510 
#    y 0.071050 2.158440 -0.076430 
#    z 0.003510 -0.076430 2.101530 
# 
# From -- ./inp_files/452443.got.cif
#   From: 2010.05.17/outbox.cif.g08.bks.cpg/sg2_227_cif.got.tgz:452443.got - 2010.06.03 11:33:40.
