data_PCOD9097244
_publ_section_title
;
Structure prediction by ZEFSAII (Michael W. Deem and Ramdas Pophale) SiO2 
 PCOD9097244
Probable space group: P -1
;
_chemical_formula_sum "Si O2"
_cell_formula_units_Z 16
_cell_length_a 15.203681
_cell_length_b 9.251224
_cell_length_c 14.313364
_cell_angle_alpha 104.342891
_cell_angle_beta 152.812166
_cell_angle_gamma 93.076796
_cell_volume 699.900112
_symmetry_space_group_name_H-M "P -1"
_symmetry_group_IT_number 2
_symmetry_cell_setting 'triclinic'
loop_
_space_group_symop_operation_xyz
x,y,z
-x,-y,-z
loop_
_atom_site_type_symbol
_atom_site_label
_atom_site_fract_x
_atom_site_fract_y
_atom_site_fract_z
Si Si1 0.177355 0.351936 0.725825
Si Si2 0.861855 0.301080 0.701451
Si Si3 0.239357 0.045575 0.185618
Si Si4 0.559951 0.418989 0.458759
Si Si5 0.502284 0.111533 0.629092
Si Si6 0.493379 0.241541 0.975912
Si Si7 0.607615 0.476043 0.843368
Si Si8 0.644272 0.134987 0.269274
O O1 0.261732 0.238551 0.740017
O O2 0.893396 0.224933 0.460407
O O3 0.276445 0.540782 0.791829
O O4 0.322388 0.429161 0.974214
O O5 0.798592 0.432376 0.703934
O O6 0.725799 0.233729 0.461554
O O7 0.729436 0.104489 0.600018
O O8 0.144312 0.410738 0.965974
O O9 0.334516 0.192964 0.214568
O O10 0.444995 0.147789 0.478075
O O11 0.261262 0.883996 0.147969
O O12 0.000000 0.000000 0.000000
O O13 0.500000 0.500000 0.500000
O O14 0.573210 0.512744 0.388853
O O15 0.522090 0.264269 0.737305
O O16 0.487677 0.088319 0.885132
O O17 0.495148 0.179836 0.073301
#
# Coordination Sequence:
#
# PCOD9097244 Si02
#       8
#     2   2   2   2   2   2   2   2
#     4  10  21  36  56  87 113 143 184 225 273 330
#     4  10  23  38  55  83 114 144 185 231 273 327
#     4  10  21  37  54  76 106 139 185 232 270 320
#     4  11  22  37  55  81 109 144 189 229 274 326
#     4  10  21  37  54  78 106 142 184 224 271 325
#     4  10  20  36  60  83 113 146 180 226 272 328
#     4  11  22  37  59  81 113 148 182 229 279 322
#     4  10  20  37  58  82 113 148 182 222 276 329
#
# _framework density 22.860405
#
# number of rings (size 3 to 8) (size 9 to 14) (size 15 to 20)
#    0.000    1.750    1.250    3.000    1.750    0.500 
#    0.000    0.000    0.000   16.500    0.000    0.000 
#    0.000    0.000    0.000    0.000    0.000    0.000 
#
# Total GULP energy -89405.519168 kJ/mol
# GULP energy per Si atom -5587.844948 kJ/mol
# Density = 2.280837 g / cm^3
# Si number density = 22.860405 Si / 1000 Ang^3
#
#
#
# Elastic Constant Matrix: (Units=GPa)
#
#
# Indices 1 2 3 4 5 6 
#
# 1 36.0578 18.0051 -2.9072 -3.6350 8.0997 2.6618
# 2 18.0051 150.1417 21.8720 5.4425 5.7249 -6.1903
# 3 -2.9072 21.8720 26.9893 2.3660 4.0063 -2.6486
# 4 -3.6350 5.4425 2.3660 21.8975 2.6010 4.9322
# 5 8.0997 5.7249 4.0063 2.6010 37.1064 -0.9939
# 6 2.6618 -6.1903 -2.6486 4.9322 -0.9939 34.8473
#
#
#
# Elastic Compliance Matrix: (Units=1/GPa)
#
#
# Indices 1 2 3 4 5 6 
#
# 1 0.034069 -0.005433 0.008152 0.008068 -0.008160 -0.004322
# 2 -0.005433 0.008498 -0.007188 -0.002747 0.000891 0.001793
# 3 0.008152 -0.007188 0.044829 -0.001416 -0.005370 0.001555
# 4 0.008068 -0.002747 -0.001416 0.050339 -0.004940 -0.008478
# 5 -0.008160 0.000891 -0.005370 -0.004940 0.029570 0.001916
# 6 -0.004322 0.001793 0.001555 -0.008478 0.001916 0.030718
#
#
# Mechanical properties :
#
#
# Convention : Reuss Voigt Hill
#
# Bulk Modulus (GPa) = 12.74545 31.90317 22.32431
# Shear Modulus (GPa) = 21.44885 30.51817 25.98351
#
# Velocity S-wave (km/s) = 3.06641 3.65770 3.37503
# Velocity P-wave (km/s) = 4.25730 5.64130 4.99745
#
# Compressibility (1/GPa) = 0.07845937
#
# Stress axis : x y z
#
# Youngs Moduli (GPa) = 29.35245 117.66828 22.30708
#
# Poissons Ratio (x) = 0.63925 -0.18185
# Poissons Ratio (y) = 0.15946 0.16034
# Poissons Ratio (z) = -0.23929 0.84579
#
# Static dielectric constant tensor:
#      x y z
#    x 1.868350 -0.029580 -0.008300 
#    y -0.029580 1.873880 0.022590 
#    z -0.008300 0.022590 1.830440 
# 
# From -- ./inp_files/51873.got.cif
#   From: 2010.05.17/outbox.cif.g08.bks.cpg/sg2_26_cif.got.tgz:51873.got - 2010.06.03 11:33:40.
