data_PCOD9097179
_publ_section_title
;
Structure prediction by ZEFSAII (Michael W. Deem and Ramdas Pophale) SiO2 
 PCOD9097179
Probable space group: P -1
;
_chemical_formula_sum "Si O2"
_cell_formula_units_Z 16
_cell_length_a 10.263435
_cell_length_b 14.189045
_cell_length_c 8.318265
_cell_angle_alpha 70.741112
_cell_angle_beta 96.500064
_cell_angle_gamma 42.158428
_cell_volume 633.539471
_symmetry_space_group_name_H-M "P -1"
_symmetry_group_IT_number 2
_symmetry_cell_setting 'triclinic'
loop_
_space_group_symop_operation_xyz
x,y,z
-x,-y,-z
loop_
_atom_site_type_symbol
_atom_site_label
_atom_site_fract_x
_atom_site_fract_y
_atom_site_fract_z
Si Si1 0.290030 0.425461 0.890927
Si Si2 0.929199 0.344854 0.987562
Si Si3 0.700225 0.993792 0.534561
Si Si4 0.687130 0.794168 0.106383
Si Si5 0.346566 0.506889 0.547920
Si Si6 0.019958 0.835825 0.149677
Si Si7 0.226431 0.235051 0.507609
Si Si8 0.718675 0.136309 0.696409
O O1 0.406602 0.245757 0.973244
O O2 0.379653 0.455766 0.766992
O O3 0.269924 0.470411 0.047357
O O4 0.022721 0.579506 0.706505
O O5 0.111311 0.187873 0.232423
O O6 0.096138 0.302460 0.916659
O O7 0.838801 0.305677 0.899567
O O8 0.440037 0.144395 0.483995
O O9 0.761811 0.066439 0.563218
O O10 0.717847 0.920067 0.414711
O O11 0.768035 0.722839 0.338808
O O12 0.500000 0.000000 0.000000
O O13 0.500000 0.500000 0.500000
O O14 0.081820 0.710625 0.359463
O O15 0.453953 0.343802 0.562694
O O16 0.113435 0.877156 0.223216
O O17 0.786325 0.012948 0.915694
#
# Coordination Sequence:
#
# PCOD9097179 Si02
#       8
#     2   2   2   2   2   2   2   2
#     4  11  24  40  62  94 132 172 212 274 328 387
#     4  10  21  39  61  92 138 167 213 269 325 389
#     4   9  18  35  60  89 130 171 203 271 322 383
#     4  12  23  38  60  93 127 174 214 254 326 399
#     4  10  21  40  66  93 124 171 222 267 324 391
#     4   9  19  37  65  93 122 174 219 268 322 388
#     4  10  20  36  59  90 127 168 214 257 326 391
#     4   9  18  36  64  93 127 171 216 271 327 376
#
# _framework density 25.254937999999999
#
# number of rings (size 3 to 8) (size 9 to 14) (size 15 to 20)
#    0.000    2.000    1.250    2.250    1.750    1.000 
#    2.250    2.500    0.000   52.500    0.000    0.000 
#    0.000    0.000    0.000    0.000    0.000    0.000 
#
# Total GULP energy -89164.589540 kJ/mol
# GULP energy per Si atom -5572.786846 kJ/mol
# Density = 2.519746 g / cm^3
# Si number density = 25.254938 Si / 1000 Ang^3
#
#
#
# Elastic Constant Matrix: (Units=GPa)
#
#
# Indices 1 2 3 4 5 6 
#
# 1 90.2579 54.0930 16.4410 11.5796 -3.8262 23.2730
# 2 54.0930 173.5665 24.1783 18.3106 -21.6211 30.7931
# 3 16.4410 24.1783 67.3825 -20.4389 -13.1592 9.8561
# 4 11.5796 18.3106 -20.4389 47.2084 3.6609 0.2410
# 5 -3.8262 -21.6211 -13.1592 3.6609 26.0152 1.4379
# 6 23.2730 30.7931 9.8561 0.2410 1.4379 37.0009
#
#
#
# Elastic Compliance Matrix: (Units=1/GPa)
#
#
# Indices 1 2 3 4 5 6 
#
# 1 0.015551 -0.002961 -0.003154 -0.003932 -0.000861 -0.006418
# 2 -0.002961 0.009259 -0.001572 -0.004087 0.007353 -0.005683
# 3 -0.003154 -0.001572 0.021069 0.009927 0.007638 -0.002682
# 4 -0.003932 -0.004087 0.009927 0.028255 -0.003105 0.003167
# 5 -0.000861 0.007353 0.007638 -0.003105 0.049250 -0.009506
# 6 -0.006418 -0.005683 -0.002682 0.003167 -0.009506 0.036856
#
#
# Mechanical properties :
#
#
# Convention : Reuss Voigt Hill
#
# Bulk Modulus (GPa) = 32.78132 57.84796 45.31464
# Shear Modulus (GPa) = 26.91318 37.81122 32.36220
#
# Velocity S-wave (km/s) = 3.26799 3.87354 3.58358
# Velocity P-wave (km/s) = 5.21996 6.55447 5.92491
#
# Compressibility (1/GPa) = 0.03050518
#
# Stress axis : x y z
#
# Youngs Moduli (GPa) = 64.30302 108.00606 47.46245
#
# Poissons Ratio (x) = 0.31982 0.14970
# Poissons Ratio (y) = 0.19041 0.07461
# Poissons Ratio (z) = 0.20281 0.16978
#
# Static dielectric constant tensor:
#      x y z
#    x 2.120890 0.008950 -0.000620 
#    y 0.008950 2.047910 -0.027690 
#    z -0.000620 -0.027690 2.086540 
# 
# From -- ./inp_files/272522.got.cif
#   From: 2010.05.17/outbox.cif.g08.bks.cpg/sg2_137_cif.got.tgz:272522.got - 2010.06.03 11:33:40.
