data_PCOD9097590
_publ_section_title
;
Structure prediction by ZEFSAII (Michael W. Deem and Ramdas Pophale) SiO2 
 PCOD9097590
Probable space group: P -1
;
_chemical_formula_sum "Si O2"
_cell_formula_units_Z 16
_cell_length_a 7.596888
_cell_length_b 17.138900
_cell_length_c 11.784080
_cell_angle_alpha 28.490840
_cell_angle_beta 88.607795
_cell_angle_gamma 76.019833
_cell_volume 648.980231
_symmetry_space_group_name_H-M "P -1"
_symmetry_group_IT_number 2
_symmetry_cell_setting 'triclinic'
loop_
_space_group_symop_operation_xyz
x,y,z
-x,-y,-z
loop_
_atom_site_type_symbol
_atom_site_label
_atom_site_fract_x
_atom_site_fract_y
_atom_site_fract_z
Si Si1 0.001787 0.466966 0.408043
Si Si2 0.136863 0.013744 0.354192
Si Si3 0.169261 0.938171 0.214063
Si Si4 0.226326 0.263901 0.208774
Si Si5 0.418446 0.654160 0.900288
Si Si6 0.951519 0.698007 0.595924
Si Si7 0.242797 0.682221 0.092176
Si Si8 0.236678 0.712922 0.304277
O O1 0.136585 0.303687 0.525980
O O2 0.000000 0.500000 0.500000
O O3 0.796814 0.449626 0.428996
O O4 0.077249 0.612100 0.185632
O O5 0.190485 0.131425 0.292411
O O6 0.902761 0.107746 0.207786
O O7 0.248535 0.988521 0.262660
O O8 0.207012 0.810470 0.662074
O O9 0.303979 0.818336 0.260419
O O10 0.074729 0.809789 0.428095
O O11 0.990071 0.128164 0.926478
O O12 0.444212 0.246483 0.218776
O O13 0.185556 0.235353 0.376861
O O14 0.088330 0.479305 0.900091
O O15 0.392984 0.587016 0.109838
O O16 0.500000 0.500000 0.000000
O O17 0.330461 0.663822 0.240316
#
# Coordination Sequence:
#
# PCOD9097590 Si02
#       8
#     2   2   2   2   2   2   2   2
#     4   9  16  32  58  90 115 147 201 253 288 345
#     4  11  23  39  62  88 121 160 203 241 295 360
#     4   9  18  33  59  92 117 151 197 254 288 349
#     4  11  24  38  59  89 125 161 195 248 296 357
#     4  12  26  40  58  90 128 158 197 247 303 352
#     4  10  20  36  61  89 120 158 202 238 298 358
#     4  10  20  37  65  90 117 159 201 243 294 360
#     4   8  17  32  57  94 116 146 202 252 292 339
#
# _framework density 24.654064999999999
#
# number of rings (size 3 to 8) (size 9 to 14) (size 15 to 20)
#    0.000    2.000    1.250    2.250    7.000    0.000 
#    0.000    0.000    0.000   14.250    0.000    0.000 
#    0.000    0.000    0.000    0.000    0.000    0.000 
#
# Total GULP energy -89136.845426 kJ/mol
# GULP energy per Si atom -5571.052839 kJ/mol
# Density = 2.459795 g / cm^3
# Si number density = 24.654065 Si / 1000 Ang^3
#
#
#
# Elastic Constant Matrix: (Units=GPa)
#
#
# Indices 1 2 3 4 5 6 
#
# 1 46.1906 46.3211 25.3946 4.9869 -2.9299 2.2063
# 2 46.3211 253.3157 40.3453 34.0027 -14.1288 23.3346
# 3 25.3946 40.3453 86.2809 5.1996 -9.9533 -6.5022
# 4 4.9869 34.0027 5.1996 44.9908 0.5771 -11.2278
# 5 -2.9299 -14.1288 -9.9533 0.5771 27.2505 5.6892
# 6 2.2063 23.3346 -6.5022 -11.2278 5.6892 30.6191
#
#
#
# Elastic Compliance Matrix: (Units=1/GPa)
#
#
# Indices 1 2 3 4 5 6 
#
# 1 0.029832 -0.004729 -0.006806 0.001289 -0.001934 0.000841
# 2 -0.004729 0.007047 -0.001627 -0.006849 0.004518 -0.008726
# 3 -0.006806 -0.001627 0.014964 0.001444 0.002835 0.004911
# 4 0.001289 -0.006849 0.001444 0.031798 -0.007415 0.018471
# 5 -0.001934 0.004518 0.002835 -0.007415 0.042816 -0.013376
# 6 0.000841 -0.008726 0.004911 0.018471 -0.013376 0.049550
#
#
# Mechanical properties :
#
#
# Convention : Reuss Voigt Hill
#
# Bulk Modulus (GPa) = 39.18787 67.76768 53.47777
# Shear Modulus (GPa) = 23.71500 38.82050 31.26775
#
# Velocity S-wave (km/s) = 3.10483 3.97244 3.56513
# Velocity P-wave (km/s) = 5.36497 6.97047 6.21974
#
# Compressibility (1/GPa) = 0.02551810
#
# Stress axis : x y z
#
# Youngs Moduli (GPa) = 33.52093 141.91167 66.82695
#
# Poissons Ratio (x) = 0.67116 0.45484
# Poissons Ratio (y) = 0.15853 0.10871
# Poissons Ratio (z) = 0.22815 0.23085
#
# Static dielectric constant tensor:
#      x y z
#    x 1.957500 -0.001060 0.028430 
#    y -0.001060 2.099670 0.006260 
#    z 0.028430 0.006260 2.116270 
# 
# From -- ./inp_files/401652.got.cif
#   From: 2010.05.17/outbox.cif.g08.bks.cpg/sg2_201_cif.got.tgz:401652.got - 2010.06.03 11:33:40.
