data_PCOD9097113
_publ_section_title
;
Structure prediction by ZEFSAII (Michael W. Deem and Ramdas Pophale) SiO2 
 PCOD9097113
Probable space group: P -1
;
_chemical_formula_sum "Si O2"
_cell_formula_units_Z 16
_cell_length_a 9.445531
_cell_length_b 10.832958
_cell_length_c 20.384717
_cell_angle_alpha 31.203450
_cell_angle_beta 94.566967
_cell_angle_gamma 114.441321
_cell_volume 800.331496
_symmetry_space_group_name_H-M "P -1"
_symmetry_group_IT_number 2
_symmetry_cell_setting 'triclinic'
loop_
_space_group_symop_operation_xyz
x,y,z
-x,-y,-z
loop_
_atom_site_type_symbol
_atom_site_label
_atom_site_fract_x
_atom_site_fract_y
_atom_site_fract_z
Si Si1 0.787747 0.361463 0.069338
Si Si2 0.872451 0.400506 0.699305
Si Si3 0.336379 0.307784 0.024241
Si Si4 0.154009 0.788572 0.422325
Si Si5 0.939960 0.725929 0.674475
Si Si6 0.323087 0.463938 0.135415
Si Si7 0.453557 0.744281 0.420471
Si Si8 0.288006 0.310747 0.492508
O O1 0.634469 0.019678 0.256035
O O2 0.786332 0.595540 0.009790
O O3 0.699213 0.344614 0.003515
O O4 0.000000 0.500000 0.000000
O O5 0.916633 0.463016 0.749625
O O6 0.731010 0.466326 0.650494
O O7 0.067128 0.675446 0.542911
O O8 0.788702 0.071289 0.812176
O O9 0.500000 0.500000 0.000000
O O10 0.467713 0.418716 0.914212
O O11 0.348324 0.860819 0.388063
O O12 0.000000 0.500000 0.500000
O O13 0.185839 0.100817 0.267962
O O14 0.748800 0.556347 0.785758
O O15 0.000000 0.000000 0.500000
O O16 0.109304 0.942595 0.635292
O O17 0.304825 0.432485 0.511407
O O18 0.528901 0.654554 0.520697
#
# Coordination Sequence:
#
# PCOD9097113 Si02
#       8
#     2   2   2   2   2   2   2   2
#     4  11  23  35  59  89 126 155 192 247 319 361
#     4  11  22  38  64  88 121 162 209 250 292 368
#     4  10  21  37  58  90 121 152 199 251 304 355
#     4  12  20  34  61  90 117 157 200 255 302 350
#     4  10  20  38  60  86 119 163 210 247 293 359
#     4  11  20  36  59  82 119 159 200 244 299 356
#     4  11  22  36  59  94 123 151 203 259 310 357
#     4  10  20  36  59  87 121 155 196 256 304 346
#
# _framework density 19.991714999999999
#
# number of rings (size 3 to 8) (size 9 to 14) (size 15 to 20)
#    0.000    1.250    5.000    3.750    0.000    2.500 
#    0.000    0.625    0.000    3.000    0.000    0.000 
#    0.000    0.000    0.000    0.000    0.000    0.000 
#
# Total GULP energy -89123.282982 kJ/mol
# GULP energy per Si atom -5570.205186 kJ/mol
# Density = 1.994621 g / cm^3
# Si number density = 19.991715 Si / 1000 Ang^3
#
#
#
# Elastic Constant Matrix: (Units=GPa)
#
#
# Indices 1 2 3 4 5 6 
#
# 1 114.1778 40.4405 27.4823 5.4255 -11.6901 -9.1541
# 2 40.4405 76.1368 29.1621 -6.0050 -5.8336 -20.6376
# 3 27.4823 29.1621 84.4389 -1.0270 -5.4421 -12.6459
# 4 5.4255 -6.0050 -1.0270 34.5025 -13.7628 -7.2859
# 5 -11.6901 -5.8336 -5.4421 -13.7628 34.6774 2.2630
# 6 -9.1541 -20.6376 -12.6459 -7.2859 2.2630 23.9577
#
#
#
# Elastic Compliance Matrix: (Units=1/GPa)
#
#
# Indices 1 2 3 4 5 6 
#
# 1 0.011528 -0.006354 -0.001974 -0.003049 0.001505 -0.003180
# 2 -0.006354 0.024245 -0.002892 0.011177 0.004620 0.019893
# 3 -0.001974 -0.002892 0.014311 0.001834 0.001514 0.004724
# 4 -0.003049 0.011177 0.001834 0.042492 0.016649 0.020781
# 5 0.001505 0.004620 0.001514 0.016649 0.036512 0.006968
# 6 -0.003180 0.019893 0.004724 0.020781 0.006968 0.065816
#
#
# Mechanical properties :
#
#
# Convention : Reuss Voigt Hill
#
# Bulk Modulus (GPa) = 36.17454 52.10259 44.13857
# Shear Modulus (GPa) = 22.06922 30.47210 26.27066
#
# Velocity S-wave (km/s) = 3.32613 3.90838 3.62895
# Velocity P-wave (km/s) = 5.73454 6.81806 6.29964
#
# Compressibility (1/GPa) = 0.02764375
#
# Stress axis : x y z
#
# Youngs Moduli (GPa) = 86.74553 41.24587 69.87420
#
# Poissons Ratio (x) = 0.26209 0.13792
# Poissons Ratio (y) = 0.55120 0.20209
# Poissons Ratio (z) = 0.17122 0.11929
#
# Static dielectric constant tensor:
#      x y z
#    x 1.759030 0.002430 -0.006350 
#    y 0.002430 1.750390 0.014270 
#    z -0.006350 0.014270 1.819840 
# 
# From -- ./inp_files/607468.got.cif
#   From: 2010.05.17/outbox.cif.g08.bks.cpg/sg2_304_cif.got.tgz:607468.got - 2010.06.03 11:33:40.
