data_PCOD9097432
_publ_section_title
;
Structure prediction by ZEFSAII (Michael W. Deem and Ramdas Pophale) SiO2 
 PCOD9097432
Probable space group: P -1
;
_chemical_formula_sum "Si O2"
_cell_formula_units_Z 14
_cell_length_a 12.143375
_cell_length_b 17.714296
_cell_length_c 7.333843
_cell_angle_alpha 104.830132
_cell_angle_beta 89.319522
_cell_angle_gamma 154.084531
_cell_volume 570.606053
_symmetry_space_group_name_H-M "P -1"
_symmetry_group_IT_number 2
_symmetry_cell_setting 'triclinic'
loop_
_space_group_symop_operation_xyz
x,y,z
-x,-y,-z
loop_
_atom_site_type_symbol
_atom_site_label
_atom_site_fract_x
_atom_site_fract_y
_atom_site_fract_z
Si Si1 0.735538 0.691514 0.467109
Si Si2 0.175282 0.488216 0.703332
Si Si3 0.302880 0.950747 0.946840
Si Si4 0.208176 0.894692 0.479881
Si Si5 0.282337 0.510370 0.300625
Si Si6 0.811608 0.376816 0.736172
Si Si7 0.208058 0.066348 0.962903
O O1 0.500000 0.500000 0.500000
O O2 0.572304 0.652811 0.342692
O O3 0.899904 0.737855 0.365918
O O4 0.010027 0.906517 0.703921
O O5 0.258360 0.504389 0.518575
O O6 0.475062 0.688465 0.933259
O O7 0.901666 0.264069 0.666735
O O8 0.046228 0.488821 0.671811
O O9 0.283422 0.939489 0.721322
O O10 0.994443 0.722492 0.896839
O O11 0.500000 0.000000 0.000000
O O12 0.306357 0.048042 0.051750
O O13 0.499161 0.127994 0.548621
O O14 0.255889 0.578466 0.268768
O O15 0.000000 0.500000 0.000000
O O16 0.000000 0.000000 0.000000
#
# Coordination Sequence:
#
# PCOD9097432 Si02
#       7
#     2   2   2   2   2   2   2
#     4  11  18  40  65  93 124 164 211 262 316 372
#     4  11  22  40  65  92 125 166 218 254 311 375
#     4  10  20  36  60  92 120 162 216 260 306 373
#     4  10  22  39  63  86 128 170 201 259 321 374
#     4  11  22  39  67  92 122 166 215 261 309 380
#     4  12  25  42  61  94 132 168 206 262 325 378
#     4  11  19  33  62  96 123 155 207 269 313 360
#
# _framework density 24.535319000000001
#
# number of rings (size 3 to 8) (size 9 to 14) (size 15 to 20)
#    0.000    1.143    5.714    4.286    0.000    1.714 
#    0.000    1.429    0.000    1.714    0.000    0.000 
#    0.000    0.000    0.000    0.000    0.000    0.000 
#
# Total GULP energy -77963.282614 kJ/mol
# GULP energy per Si atom -5568.805901 kJ/mol
# Density = 2.447948 g / cm^3
# Si number density = 24.535319 Si / 1000 Ang^3
#
#
#
# Elastic Constant Matrix: (Units=GPa)
#
#
# Indices 1 2 3 4 5 6 
#
# 1 228.3515 32.9067 24.2236 20.3100 23.3531 8.7025
# 2 32.9067 67.2258 35.4349 43.4238 9.3812 1.4045
# 3 24.2236 35.4349 51.6421 32.5471 6.9981 -10.5524
# 4 20.3100 43.4238 32.5471 45.8853 4.7019 -5.5853
# 5 23.3531 9.3812 6.9981 4.7019 37.5743 5.7968
# 6 8.7025 1.4045 -10.5524 -5.5853 5.7968 35.6371
#
#
#
# Elastic Compliance Matrix: (Units=1/GPa)
#
#
# Indices 1 2 3 4 5 6 
#
# 1 0.005007 -0.001644 -0.001418 0.000445 -0.002319 -0.001131
# 2 -0.001644 0.043318 -0.008189 -0.035281 -0.002487 -0.008855
# 3 -0.001418 -0.008189 0.039669 -0.018135 -0.003764 0.010185
# 4 0.000445 -0.035281 -0.018135 0.068362 0.002393 0.006237
# 5 -0.002319 -0.002487 -0.003764 0.002393 0.029838 -0.004929
# 6 -0.001131 -0.008855 0.010185 0.006237 -0.004929 0.033481
#
#
# Mechanical properties :
#
#
# Convention : Reuss Voigt Hill
#
# Bulk Modulus (GPa) = 15.26898 59.14995 37.20947
# Shear Modulus (GPa) = 18.93883 40.79628 29.86755
#
# Velocity S-wave (km/s) = 2.78132 4.08212 3.49281
# Velocity P-wave (km/s) = 4.06831 6.81019 5.60936
#
# Compressibility (1/GPa) = 0.06549227
#
# Stress axis : x y z
#
# Youngs Moduli (GPa) = 199.71311 23.08520 25.20860
#
# Poissons Ratio (x) = 0.03795 0.03575
# Poissons Ratio (y) = 0.32830 0.20643
# Poissons Ratio (z) = 0.28325 0.18904
#
# Static dielectric constant tensor:
#      x y z
#    x 2.491150 0.013680 -0.135980 
#    y 0.013680 2.011430 -0.040940 
#    z -0.135980 -0.040940 2.041030 
# 
# From -- ./inp_files/204416.got.cif
#   From: 2010.05.17/outbox.cif.g08.bks.cpg/sg2_103_cif.got.tgz:204416.got - 2010.06.03 11:33:40.
