data_PCOD9097734
_publ_section_title
;
Structure prediction by ZEFSAII (Michael W. Deem and Ramdas Pophale) SiO2 
 PCOD9097734
Probable space group: P -1
;
_chemical_formula_sum "Si O2"
_cell_formula_units_Z 14
_cell_length_a 17.618479
_cell_length_b 8.975690
_cell_length_c 9.920854
_cell_angle_alpha 29.685199
_cell_angle_beta 121.559131
_cell_angle_gamma 121.359414
_cell_volume 653.967094
_symmetry_space_group_name_H-M "P -1"
_symmetry_group_IT_number 2
_symmetry_cell_setting 'triclinic'
loop_
_space_group_symop_operation_xyz
x,y,z
-x,-y,-z
loop_
_atom_site_type_symbol
_atom_site_label
_atom_site_fract_x
_atom_site_fract_y
_atom_site_fract_z
Si Si1 0.666396 0.890482 0.562414
Si Si2 0.023826 0.722494 0.645579
Si Si3 0.143006 0.227370 0.237933
Si Si4 0.432273 0.221631 0.718578
Si Si5 0.709760 0.813778 0.145278
Si Si6 0.396862 0.479535 0.962059
Si Si7 0.174918 0.535900 0.304841
O O1 0.769539 0.836910 0.709727
O O2 0.634929 0.883531 0.384099
O O3 0.641362 0.207294 0.342831
O O4 0.611627 0.622816 0.810650
O O5 0.930397 0.490877 0.734035
O O6 0.069040 0.922207 0.406634
O O7 0.097417 0.520438 0.924751
O O8 0.000000 0.000000 0.500000
O O9 0.175928 0.302765 0.363414
O O10 0.500000 0.500000 0.500000
O O11 0.369666 0.251123 0.766433
O O12 0.500000 0.000000 0.000000
O O13 0.663915 0.765684 0.995238
O O14 0.775241 0.576636 0.432263
O O15 0.771119 0.144349 0.946516
O O16 0.500000 0.500000 0.000000
#
# Coordination Sequence:
#
# PCOD9097734 Si02
#       7
#     2   2   2   2   2   2   2
#     4  12  25  44  69  95 133 174 224 274 327 401
#     4  10  20  36  62 101 140 171 205 271 333 402
#     4  11  21  38  65 100 137 169 217 268 336 392
#     4  12  25  42  65  97 128 165 217 285 341 375
#     4  12  24  41  67  94 132 170 223 275 321 396
#     4  12  27  47  66  92 132 183 228 265 332 406
#     4  11  21  38  65  99 133 165 218 268 335 382
#
# _framework density 21.407806000000001
#
# number of rings (size 3 to 8) (size 9 to 14) (size 15 to 20)
#    0.000    0.571    1.429    9.857    2.000    0.000 
#    0.000    0.000    0.000   17.143    0.000    0.000 
#    0.000    0.000    0.000    0.000    0.000    0.000 
#
# Total GULP energy -78183.954894 kJ/mol
# GULP energy per Si atom -5584.568207 kJ/mol
# Density = 2.135908 g / cm^3
# Si number density = 21.407806 Si / 1000 Ang^3
#
#
#
# Elastic Constant Matrix: (Units=GPa)
#
#
# Indices 1 2 3 4 5 6 
#
# 1 149.7416 16.3145 53.8730 -15.3569 27.1897 22.7525
# 2 16.3145 45.6506 16.3436 -6.0232 13.2156 14.2874
# 3 53.8730 16.3436 138.4775 -7.8317 9.0448 12.6542
# 4 -15.3569 -6.0232 -7.8317 35.3288 12.1596 -10.7057
# 5 27.1897 13.2156 9.0448 12.1596 35.5532 0.2816
# 6 22.7525 14.2874 12.6542 -10.7057 0.2816 21.4989
#
#
#
# Elastic Compliance Matrix: (Units=1/GPa)
#
#
# Indices 1 2 3 4 5 6 
#
# 1 0.011563 0.004291 -0.002972 0.006026 -0.011662 -0.010186
# 2 0.004291 0.034062 -0.002135 0.006361 -0.017396 -0.022525
# 3 -0.002972 -0.002135 0.008610 -0.000283 0.000978 -0.000658
# 4 0.006026 0.006361 -0.000283 0.042761 -0.021614 0.011138
# 5 -0.011662 -0.017396 0.000978 -0.021614 0.050562 0.011903
# 6 -0.010186 -0.022525 -0.000658 0.011138 0.011903 0.078041
#
#
# Mechanical properties :
#
#
# Convention : Reuss Voigt Hill
#
# Bulk Modulus (GPa) = 19.01034 56.32577 37.66806
# Shear Modulus (GPa) = 20.42781 34.96544 27.69662
#
# Velocity S-wave (km/s) = 3.09240 4.04580 3.60079
# Velocity P-wave (km/s) = 4.65295 6.94209 5.90942
#
# Compressibility (1/GPa) = 0.05260295
#
# Stress axis : x y z
#
# Youngs Moduli (GPa) = 86.48131 29.35854 116.14888
#
# Poissons Ratio (x) = -0.12597 0.34514
# Poissons Ratio (y) = -0.37107 0.24798
# Poissons Ratio (z) = 0.25698 0.06268
#
# Static dielectric constant tensor:
#      x y z
#    x 1.808040 0.018000 0.012530 
#    y 0.018000 1.844240 -0.023200 
#    z 0.012530 -0.023200 1.785310 
# 
# From -- ./inp_files/216890.got.cif
#   From: 2010.05.17/outbox.cif.g08.bks.cpg/sg2_109_cif.got.tgz:216890.got - 2010.06.03 11:33:40.
