data_PCOD9097379
_publ_section_title
;
Structure prediction by ZEFSAII (Michael W. Deem and Ramdas Pophale) SiO2 
 PCOD9097379
Probable space group: P -1
;
_chemical_formula_sum "Si O2"
_cell_formula_units_Z 14
_cell_length_a 9.193090
_cell_length_b 10.910547
_cell_length_c 9.467964
_cell_angle_alpha 125.621771
_cell_angle_beta 116.524254
_cell_angle_gamma 72.702145
_cell_volume 689.795415
_symmetry_space_group_name_H-M "P -1"
_symmetry_group_IT_number 2
_symmetry_cell_setting 'triclinic'
loop_
_space_group_symop_operation_xyz
x,y,z
-x,-y,-z
loop_
_atom_site_type_symbol
_atom_site_label
_atom_site_fract_x
_atom_site_fract_y
_atom_site_fract_z
Si Si1 0.044917 0.735281 0.123121
Si Si2 0.261636 0.650257 0.415087
Si Si3 0.069305 0.955107 0.848635
Si Si4 0.961121 0.640582 0.476822
Si Si5 0.611839 0.227677 0.159766
Si Si6 0.690606 0.617865 0.933753
Si Si7 0.269945 0.546108 0.880615
O O1 0.190423 0.736143 0.302335
O O2 0.980878 0.905185 0.178843
O O3 0.125074 0.651994 0.963878
O O4 0.882577 0.649783 0.041416
O O5 0.362179 0.727868 0.634382
O O6 0.340116 0.494043 0.285290
O O7 0.094029 0.619995 0.399477
O O8 0.262878 0.913972 0.907029
O O9 0.670341 0.353924 0.156880
O O10 0.000000 0.000000 0.000000
O O11 0.986784 0.802305 0.662329
O O12 0.000000 0.500000 0.500000
O O13 0.787643 0.608305 0.317389
O O14 0.422120 0.231587 0.040234
O O15 0.641651 0.522716 0.986989
#
# Coordination Sequence:
#
# PCOD9097379 Si02
#       7
#     2   2   2   2   2   2   2
#     4  11  21  38  63  85 120 152 196 240 289 344
#     4  10  20  36  60  90 115 151 197 237 287 343
#     4  11  23  37  60  87 116 155 198 242 284 348
#     4  11  18  34  62  88 108 148 207 237 275 338
#     4  11  23  36  60  88 122 152 196 236 298 339
#     4  11  22  36  59  92 123 149 186 250 296 338
#     4  11  19  39  62  89 111 159 200 238 276 355
#
# _framework density 20.295874000000001
#
# number of rings (size 3 to 8) (size 9 to 14) (size 15 to 20)
#    0.000    1.143    7.143    1.714    0.000    2.857 
#    0.000    0.000    0.000    0.857    0.000    0.000 
#    0.000    0.000    0.000    0.000    0.000    0.000 
#
# Total GULP energy -77947.746437 kJ/mol
# GULP energy per Si atom -5567.696174 kJ/mol
# Density = 2.024968 g / cm^3
# Si number density = 20.295874 Si / 1000 Ang^3
#
#
#
# Elastic Constant Matrix: (Units=GPa)
#
#
# Indices 1 2 3 4 5 6 
#
# 1 38.9395 24.0021 34.4230 -2.5788 -10.9696 -7.0367
# 2 24.0021 119.6691 30.7986 1.7421 -5.0570 -24.2815
# 3 34.4230 30.7986 63.7732 -7.8793 -22.0964 -1.0611
# 4 -2.5788 1.7421 -7.8793 30.5608 -1.4527 3.6132
# 5 -10.9696 -5.0570 -22.0964 -1.4527 25.9203 -3.0790
# 6 -7.0367 -24.2815 -1.0611 3.6132 -3.0790 42.3575
#
#
#
# Elastic Compliance Matrix: (Units=1/GPa)
#
#
# Indices 1 2 3 4 5 6 
#
# 1 0.052426 -0.001776 -0.028369 -0.003718 -0.001700 0.007174
# 2 -0.001776 0.011388 -0.005863 -0.003178 -0.002976 0.006141
# 3 -0.028369 -0.005863 0.043250 0.010947 0.023595 -0.006209
# 4 -0.003718 -0.003178 0.010947 0.036370 0.008625 -0.004641
# 5 -0.001700 -0.002976 0.023595 0.008625 0.058126 0.002092
# 6 0.007174 0.006141 -0.006209 -0.004641 0.002092 0.028713
#
#
# Mechanical properties :
#
#
# Convention : Reuss Voigt Hill
#
# Bulk Modulus (GPa) = 28.53311 44.53656 36.53484
# Shear Modulus (GPa) = 15.92501 28.64493 22.28497
#
# Velocity S-wave (km/s) = 2.80419 3.76089 3.31721
# Velocity P-wave (km/s) = 4.95719 6.39143 5.71944
#
# Compressibility (1/GPa) = 0.03504700
#
# Stress axis : x y z
#
# Youngs Moduli (GPa) = 19.07462 87.81167 23.12152
#
# Poissons Ratio (x) = 0.15593 0.65595
# Poissons Ratio (y) = 0.03387 0.13556
# Poissons Ratio (z) = 0.54114 0.51484
#
# Static dielectric constant tensor:
#      x y z
#    x 1.751520 0.153370 -0.079760 
#    y 0.153370 0.682690 0.562990 
#    z -0.079760 0.562990 1.422280 
# 
# From -- ./inp_files/391456.got.cif
#   From: 2010.05.17/outbox.cif.g08.bks.cpg/sg2_196_cif.got.tgz:391456.got - 2010.06.03 11:33:40.
