data_PCOD9097198
_publ_section_title
;
Structure prediction by ZEFSAII (Michael W. Deem and Ramdas Pophale) SiO2 
 PCOD9097198
Probable space group: P -1
;
_chemical_formula_sum "Si O2"
_cell_formula_units_Z 16
_cell_length_a 12.412177
_cell_length_b 9.272497
_cell_length_c 12.270146
_cell_angle_alpha 41.005841
_cell_angle_beta 44.103654
_cell_angle_gamma 60.796769
_cell_volume 640.346675
_symmetry_space_group_name_H-M "P -1"
_symmetry_group_IT_number 2
_symmetry_cell_setting 'triclinic'
loop_
_space_group_symop_operation_xyz
x,y,z
-x,-y,-z
loop_
_atom_site_type_symbol
_atom_site_label
_atom_site_fract_x
_atom_site_fract_y
_atom_site_fract_z
Si Si1 0.286541 0.107625 0.880919
Si Si2 0.171571 0.201272 0.245594
Si Si3 0.126686 0.831382 0.638498
Si Si4 0.787513 0.212515 0.705858
Si Si5 0.071682 0.319345 0.747780
Si Si6 0.441842 0.836655 0.494382
Si Si7 0.835605 0.103658 0.192083
Si Si8 0.456997 0.361353 0.818550
O O1 0.181789 0.262736 0.802046
O O2 0.416991 0.029758 0.748699
O O3 0.375873 0.245828 0.836021
O O4 0.193182 0.897520 0.128452
O O5 0.185391 0.975678 0.294474
O O6 0.013972 0.281072 0.267811
O O7 0.152682 0.094758 0.439230
O O8 0.326358 0.351358 0.013914
O O9 0.301478 0.766379 0.548160
O O10 0.077465 0.800071 0.816809
O O11 0.886884 0.442572 0.471981
O O12 0.606165 0.248792 0.808283
O O13 0.115424 0.132768 0.738935
O O14 0.897194 0.258220 0.958021
O O15 0.341854 0.920425 0.619364
O O16 0.506831 0.615202 0.611195
#
# Coordination Sequence:
#
# PCOD9097198 Si02
#       8
#     2   2   2   2   2   2   2   2
#     4  11  22  40  63  93 129 159 203 253 302 372
#     4  10  20  36  59  92 130 155 199 251 305 376
#     4   9  20  38  58  87 125 159 195 254 310 354
#     4  11  23  38  64  93 122 166 203 248 307 372
#     4  11  23  44  64  86 120 169 216 246 307 360
#     4  10  21  38  63  89 124 165 198 256 308 356
#     4   9  23  42  62  86 123 161 210 264 291 361
#     4  11  21  36  61  96 126 160 199 248 313 371
#
# _framework density 24.986464000000002
#
# number of rings (size 3 to 8) (size 9 to 14) (size 15 to 20)
#    0.750    1.000    1.250    4.875    1.750    3.000 
#    0.000    7.500    0.000    0.000    0.000    0.000 
#    0.000    0.000    0.000    0.000    0.000    0.000 
#
# Total GULP energy -89402.389921 kJ/mol
# GULP energy per Si atom -5587.649370 kJ/mol
# Density = 2.492959 g / cm^3
# Si number density = 24.986464 Si / 1000 Ang^3
#
#
#
# Elastic Constant Matrix: (Units=GPa)
#
#
# Indices 1 2 3 4 5 6 
#
# 1 51.7722 19.5183 15.9755 5.6910 3.0262 -18.3646
# 2 19.5183 71.3063 46.1925 15.6774 1.7432 -9.1883
# 3 15.9755 46.1925 195.5759 10.8242 6.3691 -2.8084
# 4 5.6910 15.6774 10.8242 50.7832 -5.7780 -5.2355
# 5 3.0262 1.7432 6.3691 -5.7780 31.7230 6.9580
# 6 -18.3646 -9.1883 -2.8084 -5.2355 6.9580 38.8066
#
#
#
# Elastic Compliance Matrix: (Units=1/GPa)
#
#
# Indices 1 2 3 4 5 6 
#
# 1 0.025896 -0.004938 -0.000592 -0.000576 -0.004778 0.011822
# 2 -0.004938 0.019025 -0.003791 -0.004469 -0.000948 0.001460
# 3 -0.000592 -0.003791 0.006088 -0.000222 -0.000864 -0.000612
# 4 -0.000576 -0.004469 -0.000222 0.021739 0.004119 0.000847
# 5 -0.004778 -0.000948 -0.000864 0.004119 0.034758 -0.008224
# 6 0.011822 0.001460 -0.000612 0.000847 -0.008224 0.033254
#
#
# Mechanical properties :
#
#
# Convention : Reuss Voigt Hill
#
# Bulk Modulus (GPa) = 30.89484 53.55854 42.22669
# Shear Modulus (GPa) = 29.37860 40.06043 34.71951
#
# Velocity S-wave (km/s) = 3.43269 4.00845 3.73169
# Velocity P-wave (km/s) = 5.30119 6.55020 5.95851
#
# Compressibility (1/GPa) = 0.03236786
#
# Stress axis : x y z
#
# Youngs Moduli (GPa) = 38.61654 52.56109 164.24446
#
# Poissons Ratio (x) = 0.25955 0.09718
# Poissons Ratio (y) = 0.19069 0.62265
# Poissons Ratio (z) = 0.02285 0.19926
#
# Static dielectric constant tensor:
#      x y z
#    x 2.055800 0.002340 -0.001440 
#    y 0.002340 1.985610 0.031990 
#    z -0.001440 0.031990 2.007730 
# 
# From -- ./inp_files/532237.got.cif
#   From: 2010.05.17/outbox.cif.g08.bks.cpg/sg2_267_cif.got.tgz:532237.got - 2010.06.03 11:33:40.
