data_PCOD9097547
_publ_section_title
;
Structure prediction by ZEFSAII (Michael W. Deem and Ramdas Pophale) SiO2 
 PCOD9097547
Probable space group: P -1
;
_chemical_formula_sum "Si O2"
_cell_formula_units_Z 14
_cell_length_a 5.030380
_cell_length_b 10.398454
_cell_length_c 12.777609
_cell_angle_alpha 85.924911
_cell_angle_beta 75.816592
_cell_angle_gamma 61.821537
_cell_volume 570.418910
_symmetry_space_group_name_H-M "P -1"
_symmetry_group_IT_number 2
_symmetry_cell_setting 'triclinic'
loop_
_space_group_symop_operation_xyz
x,y,z
-x,-y,-z
loop_
_atom_site_type_symbol
_atom_site_label
_atom_site_fract_x
_atom_site_fract_y
_atom_site_fract_z
Si Si1 0.221354 0.742219 0.146182
Si Si2 0.693306 0.145291 0.064671
Si Si3 0.887734 0.358000 0.637912
Si Si4 0.894813 0.426970 0.395332
Si Si5 0.361678 0.743301 0.702924
Si Si6 0.708341 0.977784 0.383183
Si Si7 0.497599 0.061647 0.815788
O O1 0.297832 0.619728 0.235005
O O2 0.276741 0.872567 0.182754
O O3 0.857518 0.806130 0.148171
O O4 0.393307 0.727731 0.020168
O O5 0.713558 0.209199 0.171849
O O6 0.462452 0.075037 0.109498
O O7 0.000000 0.000000 0.000000
O O8 0.148420 0.410780 0.630516
O O9 0.792169 0.414773 0.524677
O O10 0.024715 0.185872 0.624084
O O11 0.269587 0.331100 0.352359
O O12 0.753716 0.364845 0.326614
O O13 0.205395 0.892691 0.643260
O O14 0.510660 0.987270 0.298339
O O15 0.500000 0.000000 0.500000
#
# Coordination Sequence:
#
# PCOD9097547 Si02
#       7
#     2   2   2   2   2   2   2
#     4  10  20  36  61  87 118 165 213 249 306 383
#     4   9  20  40  63  95 129 167 208 269 331 380
#     4  10  24  43  67  93 134 177 216 261 330 388
#     4  11  26  45  64  94 135 178 213 264 327 395
#     4  11  25  43  68  96 131 168 220 272 323 381
#     4  10  20  38  63  97 126 160 215 267 315 374
#     4   9  20  33  56  90 124 156 198 257 317 368
#
# _framework density 24.543369999999999
#
# number of rings (size 3 to 8) (size 9 to 14) (size 15 to 20)
#    0.000    2.000    1.429    1.286    2.000   16.571 
#    0.000    1.429    0.000    0.000    0.000    0.000 
#    0.000    0.000    0.000    0.000    0.000    0.000 
#
# Total GULP energy -78157.052269 kJ/mol
# GULP energy per Si atom -5582.646591 kJ/mol
# Density = 2.448751 g / cm^3
# Si number density = 24.543370 Si / 1000 Ang^3
#
#
#
# Elastic Constant Matrix: (Units=GPa)
#
#
# Indices 1 2 3 4 5 6 
#
# 1 76.8361 29.7773 24.3493 -9.4557 6.3809 5.5530
# 2 29.7773 94.7159 58.8506 -20.2461 1.8766 19.1770
# 3 24.3493 58.8506 213.4968 -32.2878 -5.1751 29.4329
# 4 -9.4557 -20.2461 -32.2878 56.6469 6.9323 -6.1378
# 5 6.3809 1.8766 -5.1751 6.9323 22.3550 4.3318
# 6 5.5530 19.1770 29.4329 -6.1378 4.3318 36.8777
#
#
#
# Elastic Compliance Matrix: (Units=1/GPa)
#
#
# Indices 1 2 3 4 5 6 
#
# 1 0.015365 -0.004284 -0.000649 0.001391 -0.004846 0.001232
# 2 -0.004284 0.015064 -0.002635 0.002750 -0.000622 -0.004555
# 3 -0.000649 -0.002635 0.006301 0.001928 0.001939 -0.003468
# 4 0.001391 0.002750 0.001928 0.020931 -0.006888 0.001114
# 5 -0.004846 -0.000622 0.001939 -0.006888 0.050214 -0.007539
# 6 0.001232 -0.004555 -0.003468 0.001114 -0.007539 0.033138
#
#
# Mechanical properties :
#
#
# Convention : Reuss Voigt Hill
#
# Bulk Modulus (GPa) = 46.30709 67.88925 57.09817
# Shear Modulus (GPa) = 30.60972 41.31403 35.96188
#
# Velocity S-wave (km/s) = 3.53536 4.10726 3.83200
# Velocity P-wave (km/s) = 5.96435 7.08617 6.54932
#
# Compressibility (1/GPa) = 0.02159497
#
# Stress axis : x y z
#
# Youngs Moduli (GPa) = 65.08331 66.38222 158.70547
#
# Poissons Ratio (x) = 0.28436 0.10294
# Poissons Ratio (y) = 0.27880 0.41823
# Poissons Ratio (z) = 0.04221 0.17493
#
# Static dielectric constant tensor:
#      x y z
#    x 1.985860 -0.058730 0.003950 
#    y -0.058730 1.964930 -0.021980 
#    z 0.003950 -0.021980 2.046450 
# 
# From -- ./inp_files/88881.got.cif
#   From: 2010.05.17/outbox.cif.g08.bks.cpg/sg2_45_cif.got.tgz:88881.got - 2010.06.03 11:33:40.
