data_PCOD9097126
_publ_section_title
;
Structure prediction by ZEFSAII (Michael W. Deem and Ramdas Pophale) SiO2 
 PCOD9097126
Probable space group: P -1
;
_chemical_formula_sum "Si O2"
_cell_formula_units_Z 16
_cell_length_a 23.984170
_cell_length_b 11.192237
_cell_length_c 11.687731
_cell_angle_alpha 39.645878
_cell_angle_beta 39.371108
_cell_angle_gamma 22.808802
_cell_volume 750.199449
_symmetry_space_group_name_H-M "P -1"
_symmetry_group_IT_number 2
_symmetry_cell_setting 'triclinic'
loop_
_space_group_symop_operation_xyz
x,y,z
-x,-y,-z
loop_
_atom_site_type_symbol
_atom_site_label
_atom_site_fract_x
_atom_site_fract_y
_atom_site_fract_z
Si Si1 0.581021 0.661743 0.932394
Si Si2 0.130627 0.830628 0.832909
Si Si3 0.897544 0.212584 0.345321
Si Si4 0.751160 0.773165 0.890272
Si Si5 0.338473 0.718956 0.717339
Si Si6 0.140905 0.307657 0.997288
Si Si7 0.374425 0.989529 0.320016
Si Si8 0.777918 0.237197 0.736790
O O1 0.643857 0.559914 0.780282
O O2 0.603126 0.828993 0.829542
O O3 0.675874 0.343848 0.087796
O O4 0.409146 0.900221 0.042323
O O5 0.089352 0.909147 0.708132
O O6 0.205182 0.884529 0.725625
O O7 0.241233 0.464272 0.938300
O O8 0.000000 0.000000 0.000000
O O9 0.818353 0.551619 0.207250
O O10 0.803935 0.252729 0.553650
O O11 0.065237 0.967262 0.303371
O O12 0.748529 0.825361 0.721819
O O13 0.875672 0.642102 0.874886
O O14 0.351447 0.917250 0.528282
O O15 0.481896 0.360982 0.703918
O O16 0.000000 0.500000 0.000000
O O17 0.241316 0.952990 0.083392
#
# Coordination Sequence:
#
# PCOD9097126 Si02
#       8
#     2   2   2   2   2   2   2   2
#     4  11  20  38  60  89 125 152 197 251 300 358
#     4  11  20  36  61  86 122 157 199 248 303 357
#     4   9  21  38  57  84 114 157 201 241 291 354
#     4  10  20  38  61  86 122 155 193 256 303 350
#     4  10  20  36  59  88 119 160 190 244 309 349
#     4   9  20  39  58  80 116 156 198 242 291 348
#     4  10  20  36  61  90 120 153 197 248 303 358
#     4  10  21  38  61  81 116 162 196 242 296 352
#
# _framework density 21.327663000000001
#
# number of rings (size 3 to 8) (size 9 to 14) (size 15 to 20)
#    0.000    2.000    2.500    1.500    1.750    1.500 
#    0.000    8.125    0.000    0.000    0.000    0.000 
#    0.000    0.000    0.000    0.000    0.000    0.000 
#
# Total GULP energy -89164.901287 kJ/mol
# GULP energy per Si atom -5572.806330 kJ/mol
# Density = 2.127912 g / cm^3
# Si number density = 21.327663 Si / 1000 Ang^3
#
#
#
# Elastic Constant Matrix: (Units=GPa)
#
#
# Indices 1 2 3 4 5 6 
#
# 1 81.1018 10.2177 27.4357 -0.1349 16.6857 -6.0194
# 2 10.2177 28.7968 18.4897 2.8163 10.0132 8.3773
# 3 27.4357 18.4897 97.8036 -3.9843 20.7519 -0.7730
# 4 -0.1349 2.8163 -3.9843 21.6733 8.3548 6.5502
# 5 16.6857 10.0132 20.7519 8.3548 28.9807 0.2537
# 6 -6.0194 8.3773 -0.7730 6.5502 0.2537 17.0116
#
#
#
# Elastic Compliance Matrix: (Units=1/GPa)
#
#
# Indices 1 2 3 4 5 6 
#
# 1 0.015372 -0.004124 -0.002183 0.000337 -0.006024 0.007331
# 2 -0.004124 0.052651 -0.006034 0.006027 -0.012973 -0.029788
# 3 -0.002183 -0.006034 0.014080 0.006553 -0.008633 0.000445
# 4 0.000337 0.006027 0.006553 0.064486 -0.025323 -0.027003
# 5 -0.006024 -0.012973 -0.008633 -0.025323 0.055827 0.012783
# 6 0.007331 -0.029788 0.000445 -0.027003 0.012783 0.086273
#
#
# Mechanical properties :
#
#
# Convention : Reuss Voigt Hill
#
# Bulk Modulus (GPa) = 17.41498 35.55425 26.48461
# Shear Modulus (GPa) = 15.03712 23.63707 19.33709
#
# Velocity S-wave (km/s) = 2.65816 3.33270 3.01436
# Velocity P-wave (km/s) = 4.19574 5.61390 4.95581
#
# Compressibility (1/GPa) = 0.05742184
#
# Stress axis : x y z
#
# Youngs Moduli (GPa) = 65.05277 18.99301 71.02344
#
# Poissons Ratio (x) = 0.07832 0.15502
# Poissons Ratio (y) = 0.26826 0.42856
# Poissons Ratio (z) = 0.14199 0.11460
#
# Static dielectric constant tensor:
#      x y z
#    x 1.807440 -0.021930 0.017530 
#    y -0.021930 1.836520 -0.031050 
#    z 0.017530 -0.031050 1.822510 
# 
# From -- ./inp_files/476625.got.cif
#   From: 2010.05.17/outbox.cif.g08.bks.cpg/sg2_239_cif.got.tgz:476625.got - 2010.06.03 11:33:40.
