data_PCOD9097528
_publ_section_title
;
Structure prediction by ZEFSAII (Michael W. Deem and Ramdas Pophale) SiO2 
 PCOD9097528
Probable space group: P -1
;
_chemical_formula_sum "Si O2"
_cell_formula_units_Z 14
_cell_length_a 17.905583
_cell_length_b 8.533723
_cell_length_c 8.232790
_cell_angle_alpha 119.059007
_cell_angle_beta 147.095902
_cell_angle_gamma 61.666778
_cell_volume 591.413645
_symmetry_space_group_name_H-M "P -1"
_symmetry_group_IT_number 2
_symmetry_cell_setting 'triclinic'
loop_
_space_group_symop_operation_xyz
x,y,z
-x,-y,-z
loop_
_atom_site_type_symbol
_atom_site_label
_atom_site_fract_x
_atom_site_fract_y
_atom_site_fract_z
Si Si1 0.886659 0.915125 0.402667
Si Si2 0.496388 0.446315 0.776970
Si Si3 0.624604 0.084945 0.853941
Si Si4 0.061252 0.693607 0.379098
Si Si5 0.415155 0.837422 0.794137
Si Si6 0.844602 0.946494 0.687853
Si Si7 0.209705 0.361740 0.316753
O O1 0.833481 0.851314 0.443651
O O2 0.020342 0.778679 0.522873
O O3 0.921498 0.120635 0.590868
O O4 0.769112 0.950967 0.064547
O O5 0.613130 0.284237 0.853391
O O6 0.489968 0.640809 0.780813
O O7 0.347638 0.371900 0.470398
O O8 0.500000 0.500000 0.000000
O O9 0.500000 0.000000 0.500000
O O10 0.604107 0.140890 0.034905
O O11 0.183589 0.535684 0.478479
O O12 0.922795 0.617524 0.031644
O O13 0.271083 0.878621 0.454395
O O14 0.500000 0.000000 0.000000
O O15 0.799794 0.816273 0.680693
O O16 0.000000 0.000000 0.000000
#
# Coordination Sequence:
#
# PCOD9097528 Si02
#       7
#     2   2   2   2   2   2   2
#     4  10  21  38  55  85 122 154 189 246 293 351
#     4  10  20  36  61  86 112 152 201 240 286 353
#     4  10  20  37  61  86 117 152 198 241 295 345
#     4  10  21  36  57  83 116 154 199 232 291 349
#     4  10  22  39  61  86 119 154 198 245 295 353
#     4  11  21  36  58  87 122 154 196 241 298 346
#     4  11  21  35  62  85 112 156 201 237 288 354
#
# _framework density 23.672094999999999
#
# number of rings (size 3 to 8) (size 9 to 14) (size 15 to 20)
#    0.000    1.714    1.429    5.143    2.000    0.571 
#    0.000    0.714    0.000    0.000    0.000    0.000 
#    0.000    0.000    0.000    0.000    0.000    0.000 
#
# Total GULP energy -78023.465534 kJ/mol
# GULP energy per Si atom -5573.104681 kJ/mol
# Density = 2.361822 g / cm^3
# Si number density = 23.672095 Si / 1000 Ang^3
#
#
#
# Elastic Constant Matrix: (Units=GPa)
#
#
# Indices 1 2 3 4 5 6 
#
# 1 44.1803 12.1318 -15.1708 -4.9608 4.3796 4.8126
# 2 12.1318 119.1567 13.5087 4.7254 -1.1394 -12.6492
# 3 -15.1708 13.5087 114.8408 7.0573 25.4558 6.7881
# 4 -4.9608 4.7254 7.0573 31.3106 5.0943 7.3277
# 5 4.3796 -1.1394 25.4558 5.0943 24.5153 0.4960
# 6 4.8126 -12.6492 6.7881 7.3277 0.4960 35.5894
#
#
#
# Elastic Compliance Matrix: (Units=1/GPa)
#
#
# Indices 1 2 3 4 5 6 
#
# 1 0.030478 -0.005495 0.008191 0.008528 -0.015792 -0.009172
# 2 -0.005495 0.010129 -0.003234 -0.003897 0.005505 0.005686
# 3 0.008191 -0.003234 0.013995 0.002549 -0.016570 -0.005220
# 4 0.008528 -0.003897 0.002549 0.037739 -0.011979 -0.010628
# 5 -0.015792 0.005505 -0.016570 -0.011979 0.063384 0.008836
# 6 -0.009172 0.005686 -0.005220 -0.010628 0.008836 0.034420
#
#
# Mechanical properties :
#
#
# Convention : Reuss Voigt Hill
#
# Bulk Modulus (GPa) = 18.68213 33.23525 25.95869
# Shear Modulus (GPa) = 23.91618 36.13025 30.02322
#
# Velocity S-wave (km/s) = 3.18199 3.91100 3.56518
# Velocity P-wave (km/s) = 4.62701 5.87068 5.28555
#
# Compressibility (1/GPa) = 0.05352708
#
# Stress axis : x y z
#
# Youngs Moduli (GPa) = 32.81020 98.72487 71.45378
#
# Poissons Ratio (x) = 0.54246 -0.58530
# Poissons Ratio (y) = 0.18028 0.23110
# Poissons Ratio (z) = -0.26876 0.31931
#
# Static dielectric constant tensor:
#      x y z
#    x 1.597190 -0.504410 -0.027060 
#    y -0.504410 1.354900 -0.072930 
#    z -0.027060 -0.072930 2.007690 
# 
# From -- ./inp_files/195376.got.cif
#   From: 2010.05.17/outbox.cif.g08.bks.cpg/sg2_98_cif.got.tgz:195376.got - 2010.06.03 11:33:40.
