data_PCOD9097915
_publ_section_title
;
Structure prediction by ZEFSAII (Michael W. Deem and Ramdas Pophale) SiO2 
 PCOD9097915
Probable space group: P -1
;
_chemical_formula_sum "Si O2"
_cell_formula_units_Z 14
_cell_length_a 18.515526
_cell_length_b 5.599390
_cell_length_c 24.562097
_cell_angle_alpha 50.618332
_cell_angle_beta 20.069429
_cell_angle_gamma 61.895117
_cell_volume 595.900533
_symmetry_space_group_name_H-M "P -1"
_symmetry_group_IT_number 2
_symmetry_cell_setting 'triclinic'
loop_
_space_group_symop_operation_xyz
x,y,z
-x,-y,-z
loop_
_atom_site_type_symbol
_atom_site_label
_atom_site_fract_x
_atom_site_fract_y
_atom_site_fract_z
Si Si1 0.447839 0.362177 0.389534
Si Si2 0.166743 0.670759 0.954028
Si Si3 0.355921 0.468769 0.662089
Si Si4 0.640149 0.848472 0.887061
Si Si5 0.519908 0.897494 0.760097
Si Si6 0.821908 0.160625 0.605290
Si Si7 0.910052 0.889942 0.408882
O O1 0.691289 0.452268 0.170774
O O2 0.482642 0.292290 0.437263
O O3 0.219877 0.079899 0.558099
O O4 0.420039 0.710576 0.356428
O O5 0.267472 0.665010 0.943758
O O6 0.259553 0.071517 0.810365
O O7 0.882741 0.492250 0.180550
O O8 0.500000 0.500000 0.500000
O O9 0.765542 0.152377 0.709301
O O10 0.500000 0.500000 0.000000
O O11 0.838155 0.821457 0.789035
O O12 0.500000 0.000000 0.000000
O O13 0.710829 0.815725 0.606460
O O14 0.579766 0.922485 0.777398
O O15 0.934319 0.535626 0.442460
O O16 0.000000 0.000000 0.500000
#
# Coordination Sequence:
#
# PCOD9097915 Si02
#       7
#     2   2   2   2   2   2   2
#     4   9  19  37  63  86 120 165 211 265 320 383
#     4   9  19  38  59  88 126 160 207 260 320 388
#     4  10  20  36  62  93 123 161 208 259 325 392
#     4  12  27  41  60  96 137 168 211 285 345 380
#     4   9  19  36  64  86 115 164 223 260 308 383
#     4  11  21  39  68  89 118 172 232 262 317 404
#     4  10  21  40  67  86 120 174 226 260 323 398
#
# _framework density 23.493853999999999
#
# number of rings (size 3 to 8) (size 9 to 14) (size 15 to 20)
#    0.000    2.000    1.429    1.714    4.000    0.571 
#    2.571    0.000    0.000    0.000    0.000    0.000 
#    0.000    0.000    0.000    0.000    0.000    0.000 
#
# Total GULP energy -78169.468323 kJ/mol
# GULP energy per Si atom -5583.533452 kJ/mol
# Density = 2.344038 g / cm^3
# Si number density = 23.493854 Si / 1000 Ang^3
#
#
#
# Elastic Constant Matrix: (Units=GPa)
#
#
# Indices 1 2 3 4 5 6 
#
# 1 208.4726 21.0975 90.0800 14.0710 -34.7621 27.7772
# 2 21.0975 71.7577 34.5863 7.0580 -15.1190 0.3701
# 3 90.0800 34.5863 122.4638 4.7915 -31.8454 9.8658
# 4 14.0710 7.0580 4.7915 35.0940 -2.2921 -3.4405
# 5 -34.7621 -15.1190 -31.8454 -2.2921 42.2957 -0.1200
# 6 27.7772 0.3701 9.8658 -3.4405 -0.1200 37.4362
#
#
#
# Elastic Compliance Matrix: (Units=1/GPa)
#
#
# Indices 1 2 3 4 5 6 
#
# 1 0.008289 0.000987 -0.005005 -0.003130 0.003212 -0.005118
# 2 0.000987 0.016795 -0.004508 -0.002942 0.003261 0.000030
# 3 -0.005005 -0.004508 0.014414 0.001294 0.005198 0.000096
# 4 -0.003130 -0.002942 0.001294 0.030573 -0.000979 0.004817
# 5 0.003212 0.003261 0.005198 -0.000979 0.031298 -0.003775
# 6 -0.005118 0.000030 0.000096 0.004817 -0.003775 0.030915
#
#
# Mechanical properties :
#
#
# Convention : Reuss Voigt Hill
#
# Bulk Modulus (GPa) = 44.55701 77.13576 60.84639
# Shear Modulus (GPa) = 31.88392 40.09387 35.98889
#
# Velocity S-wave (km/s) = 3.68790 4.13555 3.91812
# Velocity P-wave (km/s) = 6.09432 7.46373 6.81352
#
# Compressibility (1/GPa) = 0.02244316
#
# Stress axis : x y z
#
# Youngs Moduli (GPa) = 120.64821 59.54197 69.37720
#
# Poissons Ratio (x) = -0.05875 0.34726
# Poissons Ratio (y) = -0.11904 0.31278
# Poissons Ratio (z) = 0.60389 0.26844
#
# Static dielectric constant tensor:
#      x y z
#    x 1.922540 0.041180 -0.044980 
#    y 0.041180 1.920630 -0.077380 
#    z -0.044980 -0.077380 1.829060 
# 
# From -- ./inp_files/137871.got.cif
#   From: 2010.05.17/outbox.cif.g08.bks.cpg/sg2_69_cif.got.tgz:137871.got - 2010.06.03 11:33:40.
