data_PCOD9097261
_publ_section_title
;
Structure prediction by ZEFSAII (Michael W. Deem and Ramdas Pophale) SiO2 
 PCOD9097261
Probable space group: P -1
;
_chemical_formula_sum "Si O2"
_cell_formula_units_Z 14
_cell_length_a 11.211503
_cell_length_b 15.107174
_cell_length_c 9.310202
_cell_angle_alpha 126.855036
_cell_angle_beta 120.008970
_cell_angle_gamma 31.256472
_cell_volume 654.393502
_symmetry_space_group_name_H-M "P -1"
_symmetry_group_IT_number 2
_symmetry_cell_setting 'triclinic'
loop_
_space_group_symop_operation_xyz
x,y,z
-x,-y,-z
loop_
_atom_site_type_symbol
_atom_site_label
_atom_site_fract_x
_atom_site_fract_y
_atom_site_fract_z
Si Si1 0.473696 0.297640 0.532257
Si Si2 0.949169 0.159980 0.163785
Si Si3 0.412739 0.541306 0.268358
Si Si4 0.776493 0.638914 0.138780
Si Si5 0.373851 0.962967 0.401705
Si Si6 0.801271 0.511680 0.733435
Si Si7 0.826494 0.402712 0.099902
O O1 0.633663 0.298488 0.587135
O O2 0.589616 0.116934 0.498607
O O3 0.316677 0.378258 0.378070
O O4 0.316502 0.451256 0.713466
O O5 0.685868 0.340734 0.235102
O O6 0.977838 0.214736 0.089135
O O7 0.118786 0.105510 0.329241
O O8 0.000000 0.000000 0.000000
O O9 0.290523 0.546140 0.320143
O O10 0.322683 0.561945 0.077469
O O11 0.531942 0.793250 0.217546
O O12 0.924211 0.444835 0.113182
O O13 0.922583 0.655137 0.270998
O O14 0.745503 0.631219 0.946846
O O15 0.500000 0.000000 0.500000
#
# Coordination Sequence:
#
# PCOD9097261 Si02
#       7
#     2   2   2   2   2   2   2
#     4  10  20  36  60  84 114 152 203 239 284 343
#     4  11  20  35  62  87 120 154 192 245 300 343
#     4  10  20  38  61  91 114 152 199 246 291 347
#     4   9  21  40  60  85 116 153 202 239 294 346
#     4  11  25  39  60  89 124 153 197 250 294 347
#     4  10  20  36  65  84 115 154 198 245 283 352
#     4   9  19  35  63  87 112 150 207 249 280 340
#
# _framework density 21.393854999999999
#
# number of rings (size 3 to 8) (size 9 to 14) (size 15 to 20)
#    0.000    2.000    0.000    5.571    6.000    1.143 
#    0.000    1.429    9.429    0.000    0.000    0.000 
#    0.000    0.000    0.000    0.000    0.000    0.000 
#
# Total GULP energy -78081.350853 kJ/mol
# GULP energy per Si atom -5577.239347 kJ/mol
# Density = 2.134516 g / cm^3
# Si number density = 21.393855 Si / 1000 Ang^3
#
#
#
# Elastic Constant Matrix: (Units=GPa)
#
#
# Indices 1 2 3 4 5 6 
#
# 1 103.6393 41.8532 22.4278 -15.7394 24.3891 4.6633
# 2 41.8532 72.2356 33.9692 -26.6628 6.1153 23.0288
# 3 22.4278 33.9692 101.2520 -41.4191 12.6223 7.8756
# 4 -15.7394 -26.6628 -41.4191 36.8828 4.6535 -0.3885
# 5 24.3891 6.1153 12.6223 4.6535 37.0430 7.7883
# 6 4.6633 23.0288 7.8756 -0.3885 7.7883 28.7037
#
#
#
# Elastic Compliance Matrix: (Units=1/GPa)
#
#
# Indices 1 2 3 4 5 6 
#
# 1 0.016742 -0.011653 0.002080 0.002683 -0.012117 0.009383
# 2 -0.011653 0.037207 0.000710 0.021826 0.004669 -0.029124
# 3 0.002080 0.000710 0.022387 0.028007 -0.011910 -0.003439
# 4 0.002683 0.021826 0.028007 0.077902 -0.020714 -0.018957
# 5 -0.012117 0.004669 -0.011910 -0.020714 0.043066 -0.010475
# 6 0.009383 -0.029124 -0.003439 -0.018957 -0.010475 0.060210
#
#
# Mechanical properties :
#
#
# Convention : Reuss Voigt Hill
#
# Bulk Modulus (GPa) = 17.06232 52.62526 34.84379
# Shear Modulus (GPa) = 16.96207 32.45101 24.70654
#
# Velocity S-wave (km/s) = 2.81881 3.89889 3.40198
# Velocity P-wave (km/s) = 4.31125 6.70225 5.63503
#
# Compressibility (1/GPa) = 0.05860867
#
# Stress axis : x y z
#
# Youngs Moduli (GPa) = 59.73163 26.87663 44.66955
#
# Poissons Ratio (x) = 0.31319 -0.09289
# Poissons Ratio (y) = 0.69605 -0.03172
# Poissons Ratio (z) = -0.12421 -0.01909
#
# Static dielectric constant tensor:
#      x y z
#    x 1.844330 0.012400 0.018120 
#    y 0.012400 1.822110 0.044940 
#    z 0.018120 0.044940 1.795250 
# 
# From -- ./inp_files/187592.got.cif
#   From: 2010.05.17/outbox.cif.g08.bks.cpg/sg2_94_cif.got.tgz:187592.got - 2010.06.03 11:33:40.
