data_PCOD9097384
_publ_section_title
;
Structure prediction by ZEFSAII (Michael W. Deem and Ramdas Pophale) SiO2 
 PCOD9097384
Probable space group: P -1
;
_chemical_formula_sum "Si O2"
_cell_formula_units_Z 12
_cell_length_a 12.441703
_cell_length_b 15.277544
_cell_length_c 7.991883
_cell_angle_alpha 123.603178
_cell_angle_beta 128.806971
_cell_angle_gamma 24.270022
_cell_volume 485.814088
_symmetry_space_group_name_H-M "P -1"
_symmetry_group_IT_number 2
_symmetry_cell_setting 'triclinic'
loop_
_space_group_symop_operation_xyz
x,y,z
-x,-y,-z
loop_
_atom_site_type_symbol
_atom_site_label
_atom_site_fract_x
_atom_site_fract_y
_atom_site_fract_z
Si Si1 0.785709 0.506535 0.651217
Si Si2 0.605991 0.279423 0.955298
Si Si3 0.674843 0.780094 0.954371
Si Si4 0.778169 0.964231 0.963205
Si Si5 0.003789 0.371629 0.365541
Si Si6 0.618126 0.387899 0.726254
O O1 0.963510 0.360702 0.506358
O O2 0.545490 0.580652 0.526932
O O3 0.010544 0.387256 0.885654
O O4 0.653126 0.710502 0.710626
O O5 0.281856 0.464429 0.833615
O O6 0.644640 0.301768 0.832442
O O7 0.776901 0.062098 0.935046
O O8 0.603218 0.373867 0.189342
O O9 0.510357 0.833597 0.003072
O O10 0.500000 0.000000 0.000000
O O11 0.058418 0.790864 0.169461
O O12 0.781847 0.848954 0.751147
O O13 0.000000 0.500000 0.500000
#
# Coordination Sequence:
#
# PCOD9097384 Si02
#       6
#     2   2   2   2   2   2
#     4  10  23  41  58  82 120 159 190 238 301 348
#     4   9  19  36  59  92 125 148 186 245 302 349
#     4  11  25  42  58  83 120 159 200 243 288 344
#     4  11  22  37  64  93 115 152 202 243 285 351
#     4  10  20  36  60  90 119 151 195 245 296 347
#     4   9  20  38  61  89 121 152 188 244 300 349
#
# _framework density 24.700806
#
# number of rings (size 3 to 8) (size 9 to 14) (size 15 to 20)
#    0.000    2.000    0.000    3.500    0.000   11.333 
#    0.000    1.667    0.000    0.000    0.000    0.000 
#    0.000    0.000    0.000    0.000    0.000    0.000 
#
# Total GULP energy -66938.094533 kJ/mol
# GULP energy per Si atom -5578.174544 kJ/mol
# Density = 2.464459 g / cm^3
# Si number density = 24.700806 Si / 1000 Ang^3
#
#
#
# Elastic Constant Matrix: (Units=GPa)
#
#
# Indices 1 2 3 4 5 6 
#
# 1 77.4688 4.7118 15.8365 10.0531 10.7640 -7.9586
# 2 4.7118 72.6657 26.3173 17.3466 11.6345 -14.1356
# 3 15.8365 26.3173 122.0195 15.8833 33.0596 -14.9514
# 4 10.0531 17.3466 15.8833 32.5980 -1.6637 6.8133
# 5 10.7640 11.6345 33.0596 -1.6637 38.9480 8.3905
# 6 -7.9586 -14.1356 -14.9514 6.8133 8.3905 36.9265
#
#
#
# Elastic Compliance Matrix: (Units=1/GPa)
#
#
# Indices 1 2 3 4 5 6 
#
# 1 0.016286 0.004714 0.002815 -0.011812 -0.011212 0.011181
# 2 0.004714 0.023320 0.003841 -0.020557 -0.016510 0.019043
# 3 0.002815 0.003841 0.016340 -0.015239 -0.019899 0.016026
# 4 -0.011812 -0.020557 -0.015239 0.061744 0.032601 -0.035385
# 5 -0.011212 -0.016510 -0.019899 0.032601 0.059831 -0.036403
# 6 0.011181 0.019043 0.016026 -0.035385 -0.036403 0.058070
#
#
# Mechanical properties :
#
#
# Convention : Reuss Voigt Hill
#
# Bulk Modulus (GPa) = 12.70871 40.65391 26.68131
# Shear Modulus (GPa) = 20.91363 36.71372 28.81367
#
# Velocity S-wave (km/s) = 2.91293 3.85949 3.41912
# Velocity P-wave (km/s) = 4.05830 6.02952 5.13930
#
# Compressibility (1/GPa) = 0.07868622
#
# Stress axis : x y z
#
# Youngs Moduli (GPa) = 61.40397 42.88156 61.19816
#
# Poissons Ratio (x) = -0.20216 -0.17226
# Poissons Ratio (y) = -0.28949 -0.23505
# Poissons Ratio (z) = -0.17284 -0.16470
#
# Static dielectric constant tensor:
#      x y z
#    x 2.146180 0.016030 0.030950 
#    y 0.016030 2.125890 0.090680 
#    z 0.030950 0.090680 2.062490 
# 
# From -- ./inp_files/32894.got.cif
#   From: 2010.05.17/outbox.cif.g08.bks.cpg/sg2_17_cif.got.tgz:32894.got - 2010.06.03 11:33:40.
