data_PCOD9097013
_publ_section_title
;
Structure prediction by ZEFSAII (Michael W. Deem and Ramdas Pophale) SiO2 
 PCOD9097013
Probable space group: P -1
;
_chemical_formula_sum "Si O2"
_cell_formula_units_Z 16
_cell_length_a 10.279030
_cell_length_b 11.235907
_cell_length_c 13.640654
_cell_angle_alpha 148.584836
_cell_angle_beta 69.510379
_cell_angle_gamma 109.843931
_cell_volume 766.531424
_symmetry_space_group_name_H-M "P -1"
_symmetry_group_IT_number 2
_symmetry_cell_setting 'triclinic'
loop_
_space_group_symop_operation_xyz
x,y,z
-x,-y,-z
loop_
_atom_site_type_symbol
_atom_site_label
_atom_site_fract_x
_atom_site_fract_y
_atom_site_fract_z
Si Si1 0.810611 0.753790 0.374607
Si Si2 0.821418 0.691267 0.809095
Si Si3 0.672467 0.533039 0.082016
Si Si4 0.109168 0.535016 0.676223
Si Si5 0.411572 0.195999 0.896986
Si Si6 0.039690 0.071016 0.242410
Si Si7 0.248535 0.767873 0.621105
Si Si8 0.104869 0.804964 0.220895
O O1 0.691137 0.693621 0.284941
O O2 0.823585 0.542886 0.296875
O O3 0.956000 0.787562 0.300732
O O4 0.804688 0.985229 0.601515
O O5 0.873868 0.877579 0.843756
O O6 0.768673 0.456071 0.600569
O O7 0.961027 0.643443 0.799256
O O8 0.699847 0.762071 0.959623
O O9 0.629623 0.674973 0.099928
O O10 0.559285 0.317659 0.975235
O O11 0.817532 0.422531 0.948297
O O12 0.071914 0.300114 0.460363
O O13 0.210160 0.686413 0.683975
O O14 0.392165 0.924834 0.690194
O O15 0.875638 0.074510 0.266496
O O16 0.082165 0.869571 0.158887
#
# Coordination Sequence:
#
# PCOD9097013 Si02
#       8
#     2   2   2   2   2   2   2   2
#     4  10  20  36  59  83 107 137 171 215 273 318
#     4   9  18  35  57  81 110 138 171 220 263 305
#     4  11  25  39  51  76 110 138 180 227 252 307
#     4   8  16  32  57  87 109 131 173 221 265 312
#     4  11  24  38  53  75 102 146 190 209 255 322
#     4   8  16  32  57  87 109 131 173 221 265 312
#     4   9  18  35  57  81 110 138 171 220 263 305
#     4  10  20  36  59  83 107 137 171 215 273 318
#
# _framework density 20.873246999999999
#
# number of rings (size 3 to 8) (size 9 to 14) (size 15 to 20)
#    0.000    2.500    0.000    3.375    0.000    8.000 
#    0.000    5.000    0.000    4.500    0.000    0.000 
#    0.000    0.000    0.000    0.000    0.000    0.000 
#
# Total GULP energy -89390.225613 kJ/mol
# GULP energy per Si atom -5586.889101 kJ/mol
# Density = 2.082574 g / cm^3
# Si number density = 20.873247 Si / 1000 Ang^3
#
#
#
# Elastic Constant Matrix: (Units=GPa)
#
#
# Indices 1 2 3 4 5 6 
#
# 1 38.6967 18.5218 14.9341 -1.4286 25.5956 -1.3473
# 2 18.5218 48.5370 9.2161 -1.9527 16.1986 -1.9921
# 3 14.9341 9.2161 77.7447 2.1660 22.9272 0.6552
# 4 -1.4286 -1.9527 2.1660 29.9287 5.6582 8.7574
# 5 25.5956 16.1986 22.9272 5.6582 30.4003 5.6451
# 6 -1.3473 -1.9921 0.6552 8.7574 5.6451 30.6908
#
#
#
# Elastic Compliance Matrix: (Units=1/GPa)
#
#
# Indices 1 2 3 4 5 6 
#
# 1 0.069382 -0.005236 0.005816 0.011431 -0.064207 0.011130
# 2 -0.005236 0.026488 0.001200 0.002770 -0.011649 0.002816
# 3 0.005816 0.001200 0.017267 0.001909 -0.019471 0.003001
# 4 0.011431 0.002770 0.001909 0.039634 -0.018570 -0.007253
# 5 -0.064207 -0.011649 -0.019471 -0.018570 0.114826 -0.018981
# 6 0.011130 0.002816 0.003001 -0.007253 -0.018981 0.038751
#
#
# Mechanical properties :
#
#
# Convention : Reuss Voigt Hill
#
# Bulk Modulus (GPa) = 8.56919 27.81360 18.19139
# Shear Modulus (GPa) = 14.63328 26.35770 20.49549
#
# Velocity S-wave (km/s) = 2.65062 3.55738 3.13693
# Velocity P-wave (km/s) = 3.67178 5.49792 4.67488
#
# Compressibility (1/GPa) = 0.11669716
#
# Stress axis : x y z
#
# Youngs Moduli (GPa) = 14.41286 37.75342 57.91487
#
# Poissons Ratio (x) = 0.19766 -0.33680
# Poissons Ratio (y) = 0.07546 -0.06952
# Poissons Ratio (z) = -0.08382 -0.04532
#
# Static dielectric constant tensor:
#      x y z
#    x 1.736640 0.002360 0.035150 
#    y 0.002360 1.730530 0.017470 
#    z 0.035150 0.017470 1.803750 
# 
# From -- ./inp_files/310949.got.cif
#   From: 2010.05.17/outbox.cif.g08.bks.cpg/sg2_156_cif.got.tgz:310949.got - 2010.06.03 11:33:40.
