data_PCOD9097946
_publ_section_title
;
Structure prediction by ZEFSAII (Michael W. Deem and Ramdas Pophale) SiO2 
 PCOD9097946
Probable space group: P -1
;
_chemical_formula_sum "Si O2"
_cell_formula_units_Z 16
_cell_length_a 13.556884
_cell_length_b 14.022169
_cell_length_c 9.280022
_cell_angle_alpha 67.325347
_cell_angle_beta 32.245170
_cell_angle_gamma 83.780305
_cell_volume 778.946719
_symmetry_space_group_name_H-M "P -1"
_symmetry_group_IT_number 2
_symmetry_cell_setting 'triclinic'
loop_
_space_group_symop_operation_xyz
x,y,z
-x,-y,-z
loop_
_atom_site_type_symbol
_atom_site_label
_atom_site_fract_x
_atom_site_fract_y
_atom_site_fract_z
Si Si1 0.165904 0.633460 0.727028
Si Si2 0.850472 0.680295 0.624154
Si Si3 0.903361 0.682489 0.220125
Si Si4 0.976822 0.938676 0.910540
Si Si5 0.332528 0.140074 0.210843
Si Si6 0.218489 0.023120 0.144511
Si Si7 0.772481 0.220494 0.706430
Si Si8 0.540754 0.472249 0.626363
O O1 0.134733 0.711511 0.596355
O O2 0.375563 0.624162 0.440480
O O3 0.000000 0.500000 0.000000
O O4 0.113262 0.675573 0.917505
O O5 0.856622 0.662254 0.458014
O O6 0.804192 0.790595 0.646548
O O7 0.070029 0.707733 0.406358
O O8 0.665353 0.577648 0.995006
O O9 0.716576 0.583627 0.420825
O O10 0.927101 0.807420 0.074505
O O11 0.806447 0.945192 0.007686
O O12 0.196840 0.013641 0.518646
O O13 0.000000 0.000000 0.000000
O O14 0.375379 0.118954 0.003787
O O15 0.540391 0.204916 0.006619
O O16 0.245366 0.907577 0.191517
O O17 0.000000 0.000000 0.500000
O O18 0.500000 0.500000 0.500000
#
# Coordination Sequence:
#
# PCOD9097946 Si02
#       8
#     2   2   2   2   2   2   2   2
#     4  10  22  41  65  99 129 171 235 282 327 408
#     4  12  23  45  68  99 141 179 222 282 348 408
#     4  11  24  43  70 100 142 181 223 290 348 401
#     4  11  21  42  67 101 143 180 224 281 346 409
#     4  11  23  39  66  98 134 180 231 277 337 402
#     4  10  20  36  62  94 128 177 227 269 332 396
#     4  12  22  42  68  96 139 179 233 286 334 406
#     4  11  25  46  72 101 134 182 233 286 342 411
#
# _framework density 20.540557
#
# number of rings (size 3 to 8) (size 9 to 14) (size 15 to 20)
#    0.000    1.000    5.000    3.750    1.750    0.000 
#    2.250    6.875    0.000    0.000    0.000    0.000 
#    0.000    0.000    0.000    0.000    0.000    0.000 
#
# Total GULP energy -89332.641623 kJ/mol
# GULP energy per Si atom -5583.290101 kJ/mol
# Density = 2.049381 g / cm^3
# Si number density = 20.540557 Si / 1000 Ang^3
#
#
#
# Elastic Constant Matrix: (Units=GPa)
#
#
# Indices 1 2 3 4 5 6 
#
# 1 159.9284 53.8622 62.5477 4.0868 13.1147 15.9348
# 2 53.8622 95.0044 26.1819 -11.4286 14.6799 10.8087
# 3 62.5477 26.1819 94.1243 -16.4626 7.7906 8.6666
# 4 4.0868 -11.4286 -16.4626 26.1534 3.7698 0.9296
# 5 13.1147 14.6799 7.7906 3.7698 43.8003 2.4843
# 6 15.9348 10.8087 8.6666 0.9296 2.4843 34.1590
#
#
#
# Elastic Compliance Matrix: (Units=1/GPa)
#
#
# Indices 1 2 3 4 5 6 
#
# 1 0.011300 -0.005327 -0.007484 -0.008835 0.000578 -0.001489
# 2 -0.005327 0.015212 0.001520 0.009167 -0.004413 -0.002643
# 3 -0.007484 0.001520 0.017908 0.013531 -0.002521 -0.001718
# 4 -0.008835 0.009167 0.013531 0.053295 -0.007243 -0.003136
# 5 0.000578 -0.004413 -0.002521 -0.007243 0.025201 0.000131
# 6 -0.001489 -0.002643 -0.001718 -0.003136 0.000131 0.031317
#
#
# Mechanical properties :
#
#
# Convention : Reuss Voigt Hill
#
# Bulk Modulus (GPa) = 45.78750 70.47119 58.12935
# Shear Modulus (GPa) = 27.16002 34.58689 30.87345
#
# Velocity S-wave (km/s) = 3.64024 4.10791 3.88112
# Velocity P-wave (km/s) = 6.32520 7.54206 6.96027
#
# Compressibility (1/GPa) = 0.02184002
#
# Stress axis : x y z
#
# Youngs Moduli (GPa) = 88.49248 65.73661 55.84181
#
# Poissons Ratio (x) = 0.35018 0.41789
# Poissons Ratio (y) = 0.47140 -0.08490
# Poissons Ratio (z) = 0.66224 -0.09994
#
# Static dielectric constant tensor:
#      x y z
#    x 1.756630 0.000460 -0.014390 
#    y 0.000460 1.730340 -0.011820 
#    z -0.014390 -0.011820 1.781270 
# 
# From -- ./inp_files/269680.got.cif
#   From: 2010.05.17/outbox.cif.g08.bks.cpg/sg2_135_cif.got.tgz:269680.got - 2010.06.03 11:33:40.
