data_PCOD9097396
_publ_section_title
;
Structure prediction by ZEFSAII (Michael W. Deem and Ramdas Pophale) SiO2 
 PCOD9097396
Probable space group: P -1
;
_chemical_formula_sum "Si O2"
_cell_formula_units_Z 15
_cell_length_a 9.639759
_cell_length_b 15.936980
_cell_length_c 11.309579
_cell_angle_alpha 153.206830
_cell_angle_beta 70.728561
_cell_angle_gamma 123.204098
_cell_volume 594.423134
_symmetry_space_group_name_H-M "P -1"
_symmetry_group_IT_number 2
_symmetry_cell_setting 'triclinic'
loop_
_space_group_symop_operation_xyz
x,y,z
-x,-y,-z
loop_
_atom_site_type_symbol
_atom_site_label
_atom_site_fract_x
_atom_site_fract_y
_atom_site_fract_z
Si Si1 0.642943 0.388164 0.325912
Si Si2 0.774561 0.339624 0.006866
Si Si3 0.195344 0.166220 0.780673
Si Si4 0.479858 0.574176 0.367211
Si Si5 0.808046 0.971983 0.649295
Si Si6 0.000000 0.500000 0.500000
Si Si7 0.187369 0.755069 0.365364
Si Si8 0.675857 0.133518 0.276078
O O1 0.596537 0.517529 0.594163
O O2 0.822809 0.423296 0.371171
O O3 0.686660 0.432700 0.229758
O O4 0.470282 0.121546 0.051129
O O5 0.716650 0.288344 0.821450
O O6 0.734307 0.114097 0.801119
O O7 0.994175 0.521936 0.164831
O O8 0.202390 0.169482 0.641050
O O9 0.145104 0.920941 0.526355
O O10 0.382551 0.362632 0.037099
O O11 0.020669 0.158342 0.859242
O O12 0.688536 0.784793 0.547183
O O13 0.385006 0.700291 0.517112
O O14 0.132046 0.738089 0.682511
O O15 0.302900 0.873709 0.598578
#
# Coordination Sequence:
#
# PCOD9097396 Si02
#       8
#     2   2   2   2   2   1   2   2
#     4  11  23  37  63  97 121 159 212 265 309 361
#     4  10  20  41  66  92 123 161 217 261 306 368
#     4  10  23  41  61  90 128 169 204 249 319 373
#     4  11  22  38  64  95 119 161 210 261 310 370
#     4  10  21  41  65  89 123 163 215 261 294 373
#     4  10  20  36  60  90 124 154 196 262 300 366
#     4  10  22  41  64  94 127 167 205 260 322 367
#     4  11  22  38  65  97 122 159 212 262 311 364
#
# _framework density 25.234549999999999
#
# number of rings (size 3 to 8) (size 9 to 14) (size 15 to 20)
#    0.000    1.600    2.667    2.800    1.867    1.600 
#    2.400    1.333    0.000    0.000    0.000    0.000 
#    0.000    0.000    0.000    0.000    0.000    0.000 
#
# Total GULP energy -83688.571603 kJ/mol
# GULP energy per Si atom -5579.238107 kJ/mol
# Density = 2.517711 g / cm^3
# Si number density = 25.234550 Si / 1000 Ang^3
#
#
#
# Elastic Constant Matrix: (Units=GPa)
#
#
# Indices 1 2 3 4 5 6 
#
# 1 41.8411 26.1385 26.2246 -0.6682 14.2432 4.2835
# 2 26.1385 147.4424 35.8870 3.1762 5.9973 15.2176
# 3 26.2246 35.8870 89.7882 14.9661 20.9930 15.1563
# 4 -0.6682 3.1762 14.9661 40.7583 1.9754 -2.1955
# 5 14.2432 5.9973 20.9930 1.9754 39.1214 6.0310
# 6 4.2835 15.2176 15.1563 -2.1955 6.0310 37.5638
#
#
#
# Elastic Compliance Matrix: (Units=1/GPa)
#
#
# Indices 1 2 3 4 5 6 
#
# 1 0.033760 -0.004198 -0.007330 0.004102 -0.008288 0.002379
# 2 -0.004198 0.008193 -0.002036 -0.000168 0.001729 -0.002307
# 3 -0.007330 -0.002036 0.017155 -0.006269 -0.005169 -0.004798
# 4 0.004102 -0.000168 -0.006269 0.027120 -0.000047 0.003722
# 5 -0.008288 0.001729 -0.005169 -0.000047 0.031511 -0.002732
# 6 0.002379 -0.002307 -0.004798 0.003722 -0.002732 0.029877
#
#
# Mechanical properties :
#
#
# Convention : Reuss Voigt Hill
#
# Bulk Modulus (GPa) = 31.26781 50.61911 40.94346
# Shear Modulus (GPa) = 26.96839 36.21013 31.58926
#
# Velocity S-wave (km/s) = 3.27266 3.79217 3.54195
# Velocity P-wave (km/s) = 5.16703 6.26714 5.74349
#
# Compressibility (1/GPa) = 0.03198177
#
# Stress axis : x y z
#
# Youngs Moduli (GPa) = 29.62105 122.05145 58.29205
#
# Poissons Ratio (x) = 0.51232 0.42728
# Poissons Ratio (y) = 0.12434 0.11866
# Poissons Ratio (z) = 0.21712 0.24844
#
# Static dielectric constant tensor:
#      x y z
#    x 2.020200 0.108970 0.084850 
#    y 0.108970 1.847850 -0.410410 
#    z 0.084850 -0.410410 1.466430 
# 
# From -- ./inp_files/436190.got.cif
#   From: 2010.05.17/outbox.cif.g08.bks.cpg/sg2_219_cif.got.tgz:436190.got - 2010.06.03 11:33:40.
