data_PCOD9097523
_publ_section_title
;
Structure prediction by ZEFSAII (Michael W. Deem and Ramdas Pophale) SiO2 
 PCOD9097523
Probable space group: P -1
;
_chemical_formula_sum "Si O2"
_cell_formula_units_Z 14
_cell_length_a 15.792851
_cell_length_b 10.577699
_cell_length_c 5.383768
_cell_angle_alpha 98.344350
_cell_angle_beta 100.916170
_cell_angle_gamma 137.179338
_cell_volume 543.179019
_symmetry_space_group_name_H-M "P -1"
_symmetry_group_IT_number 2
_symmetry_cell_setting 'triclinic'
loop_
_space_group_symop_operation_xyz
x,y,z
-x,-y,-z
loop_
_atom_site_type_symbol
_atom_site_label
_atom_site_fract_x
_atom_site_fract_y
_atom_site_fract_z
Si Si1 0.820906 0.395140 0.174182
Si Si2 0.061907 0.719038 0.753665
Si Si3 0.554053 0.234971 0.005505
Si Si4 0.307918 0.373662 0.054230
Si Si5 0.037279 0.200081 0.907320
Si Si6 0.451848 0.214122 0.447792
Si Si7 0.777472 0.937292 0.420950
O O1 0.862802 0.306313 0.061231
O O2 0.661133 0.242579 0.089644
O O3 0.911264 0.502842 0.507638
O O4 0.883500 0.583305 0.100387
O O5 0.161157 0.866582 0.620138
O O6 0.035166 0.821405 0.902402
O O7 0.651039 0.473856 0.089789
O O8 0.466085 0.162244 0.179608
O O9 0.472971 0.140937 0.671895
O O10 0.311847 0.243834 0.880980
O O11 0.154668 0.231904 0.022122
O O12 0.420369 0.538005 0.372244
O O13 0.913056 0.016643 0.603488
O O14 0.313996 0.130601 0.414169
#
# Coordination Sequence:
#
# PCOD9097523 Si02
#       7
#     2   2   2   2   2   2   2
#     4   9  19  39  59  88 113 157 207 244 300 357
#     4  10  21  35  61  86 122 154 197 254 300 356
#     4   9  21  39  65  86 115 161 205 243 289 357
#     4   9  21  38  60  87 120 162 200 243 296 360
#     4  10  20  36  61  85 119 153 201 250 301 352
#     4  10  22  40  63  88 122 161 201 242 298 357
#     4  11  23  36  54  94 121 155 198 248 302 353
#
# _framework density 25.774190000000001
#
# number of rings (size 3 to 8) (size 9 to 14) (size 15 to 20)
#    0.857    1.429    0.000    2.143    2.000    2.286 
#    0.000    1.429    0.000    0.000    0.000    0.000 
#    0.000    0.000    0.000    0.000    0.000    0.000 
#
# Total GULP energy -78306.783485 kJ/mol
# GULP energy per Si atom -5593.341678 kJ/mol
# Density = 2.571553 g / cm^3
# Si number density = 25.774190 Si / 1000 Ang^3
#
#
#
# Elastic Constant Matrix: (Units=GPa)
#
#
# Indices 1 2 3 4 5 6 
#
# 1 132.3461 49.9089 28.9305 -8.3242 -1.0053 20.6012
# 2 49.9089 63.7535 28.9675 -3.5930 -6.2099 8.0630
# 3 28.9305 28.9675 77.8396 -12.1211 -9.3131 3.5994
# 4 -8.3242 -3.5930 -12.1211 41.5660 5.7434 -6.2726
# 5 -1.0053 -6.2099 -9.3131 5.7434 31.1479 6.8474
# 6 20.6012 8.0630 3.5994 -6.2726 6.8474 48.8677
#
#
#
# Elastic Compliance Matrix: (Units=1/GPa)
#
#
# Indices 1 2 3 4 5 6 
#
# 1 0.011368 -0.008075 -0.001054 0.000946 -0.001048 -0.003114
# 2 -0.008075 0.025187 -0.006202 -0.001884 0.003479 -0.001024
# 3 -0.001054 -0.006202 0.016454 0.003700 0.002896 0.000325
# 4 0.000946 -0.001884 0.003700 0.026405 -0.004925 0.003719
# 5 -0.001048 0.003479 0.002896 -0.004925 0.035858 -0.006002
# 6 -0.003114 -0.001024 0.000325 0.003719 -0.006002 0.023240
#
#
# Mechanical properties :
#
#
# Convention : Reuss Voigt Hill
#
# Bulk Modulus (GPa) = 44.74802 54.39477 49.57139
# Shear Modulus (GPa) = 28.30885 35.39181 31.85033
#
# Velocity S-wave (km/s) = 3.31772 3.70962 3.51913
# Velocity P-wave (km/s) = 5.66353 6.28479 5.98223
#
# Compressibility (1/GPa) = 0.02234736
#
# Stress axis : x y z
#
# Youngs Moduli (GPa) = 87.96702 39.70284 60.77502
#
# Poissons Ratio (x) = 0.32061 0.06406
# Poissons Ratio (y) = 0.71036 0.37690
# Poissons Ratio (z) = 0.09272 0.24622
#
# Static dielectric constant tensor:
#      x y z
#    x 2.017310 -0.018620 0.021650 
#    y -0.018620 2.021680 -0.006030 
#    z 0.021650 -0.006030 2.021300 
# 
# From -- ./inp_files/78509.got.cif
#   From: 2010.05.17/outbox.cif.g08.bks.cpg/sg2_40_cif.got.tgz:78509.got - 2010.06.03 11:33:40.
