data_PCOD9097877
_publ_section_title
;
Structure prediction by ZEFSAII (Michael W. Deem and Ramdas Pophale) SiO2 
 PCOD9097877
Probable space group: P -1
;
_chemical_formula_sum "Si O2"
_cell_formula_units_Z 16
_cell_length_a 6.382135
_cell_length_b 15.292025
_cell_length_c 11.590791
_cell_angle_alpha 121.968190
_cell_angle_beta 129.694265
_cell_angle_gamma 55.358829
_cell_volume 690.944730
_symmetry_space_group_name_H-M "P -1"
_symmetry_group_IT_number 2
_symmetry_cell_setting 'triclinic'
loop_
_space_group_symop_operation_xyz
x,y,z
-x,-y,-z
loop_
_atom_site_type_symbol
_atom_site_label
_atom_site_fract_x
_atom_site_fract_y
_atom_site_fract_z
Si Si1 0.391578 0.139471 0.231885
Si Si2 0.043831 0.655793 0.658359
Si Si3 0.469801 0.624901 0.088250
Si Si4 0.894230 0.733737 0.241809
Si Si5 0.052979 0.811382 0.573322
Si Si6 0.829339 0.003421 0.819704
Si Si7 0.055566 0.179269 0.925600
Si Si8 0.447913 0.419634 0.658925
O O1 0.656016 0.180186 0.372114
O O2 0.432339 0.029992 0.242816
O O3 0.094095 0.233760 0.237371
O O4 0.339656 0.129589 0.070459
O O5 0.110653 0.701828 0.592619
O O6 0.326008 0.552433 0.721083
O O7 0.779670 0.609178 0.522462
O O8 0.131302 0.696971 0.015567
O O9 0.572480 0.632768 0.260841
O O10 0.661266 0.672844 0.108959
O O11 0.500000 0.500000 0.000000
O O12 0.849206 0.807184 0.392470
O O13 0.885042 0.806777 0.176961
O O14 0.216051 0.638632 0.298509
O O15 0.946377 0.912007 0.696335
O O16 0.847993 0.110899 0.838260
O O17 0.000000 0.000000 0.000000
#
# Coordination Sequence:
#
# PCOD9097877 Si02
#       8
#     2   2   2   2   2   2   2   2
#     4  10  21  40  66  93 126 160 217 260 314 368
#     4  10  20  36  62  91 123 162 208 262 311 359
#     4  11  24  42  62  86 133 171 208 255 316 377
#     4  11  24  41  62  94 131 165 212 257 315 383
#     4  11  22  39  67  95 127 163 209 269 315 370
#     4   9  22  42  64  95 126 164 209 265 314 372
#     4  10  24  41  63  92 126 168 210 257 318 378
#     4  10  21  37  60  90 124 164 212 257 307 364
#
# _framework density 23.156700000000001
#
# number of rings (size 3 to 8) (size 9 to 14) (size 15 to 20)
#    0.000    1.750    2.500    0.750    0.000   12.000 
#    0.000    1.250    0.000    0.000    0.000    0.000 
#    0.000    0.000    0.000    0.000    0.000    0.000 
#
# Total GULP energy -89253.404269 kJ/mol
# GULP energy per Si atom -5578.337767 kJ/mol
# Density = 2.310399 g / cm^3
# Si number density = 23.156700 Si / 1000 Ang^3
#
#
#
# Elastic Constant Matrix: (Units=GPa)
#
#
# Indices 1 2 3 4 5 6 
#
# 1 83.9705 27.3751 30.7389 5.5735 -4.0483 25.3585
# 2 27.3751 86.8307 17.5706 18.0343 -15.0152 11.8362
# 3 30.7389 17.5706 74.7004 6.0202 -6.7520 8.6544
# 4 5.5735 18.0343 6.0202 29.9975 6.6771 -9.4722
# 5 -4.0483 -15.0152 -6.7520 6.6771 34.9666 -0.6360
# 6 25.3585 11.8362 8.6544 -9.4722 -0.6360 45.9762
#
#
#
# Elastic Compliance Matrix: (Units=1/GPa)
#
#
# Indices 1 2 3 4 5 6 
#
# 1 0.017564 -0.002421 -0.005299 -0.003639 0.000505 -0.008810
# 2 -0.002421 0.017880 -0.000464 -0.014308 0.009931 -0.005990
# 3 -0.005299 -0.000464 0.016223 -0.002798 0.002844 -0.000549
# 4 -0.003639 -0.014308 -0.002798 0.052193 -0.016768 0.016738
# 5 0.000505 0.009931 0.002844 -0.016768 0.036558 -0.006320
# 6 -0.008810 -0.005990 -0.000549 0.016738 -0.006320 0.031616
#
#
# Mechanical properties :
#
#
# Convention : Reuss Voigt Hill
#
# Bulk Modulus (GPa) = 28.33031 44.09676 36.21354
# Shear Modulus (GPa) = 24.97899 33.50920 29.24410
#
# Velocity S-wave (km/s) = 3.28791 3.80815 3.55756
# Velocity P-wave (km/s) = 5.16474 6.19840 5.70503
#
# Compressibility (1/GPa) = 0.03529788
#
# Stress axis : x y z
#
# Youngs Moduli (GPa) = 56.93383 55.92955 61.64251
#
# Poissons Ratio (x) = 0.13543 0.32662
# Poissons Ratio (y) = 0.13786 0.02863
# Poissons Ratio (z) = 0.30167 0.02597
#
# Static dielectric constant tensor:
#      x y z
#    x 1.870770 -0.044840 -0.060530 
#    y -0.044840 1.912140 0.002950 
#    z -0.060530 0.002950 1.908410 
# 
# From -- ./inp_files/84197.got.cif
#   From: 2010.05.17/outbox.cif.g08.bks.cpg/sg2_43_cif.got.tgz:84197.got - 2010.06.03 11:33:40.
