data_PCOD9097680
_publ_section_title
;
Structure prediction by ZEFSAII (Michael W. Deem and Ramdas Pophale) SiO2 
 PCOD9097680
Probable space group: P -1
;
_chemical_formula_sum "Si O2"
_cell_formula_units_Z 16
_cell_length_a 7.931488
_cell_length_b 17.802737
_cell_length_c 5.947584
_cell_angle_alpha 95.175080
_cell_angle_beta 60.744175
_cell_angle_gamma 84.457221
_cell_volume 720.077722
_symmetry_space_group_name_H-M "P -1"
_symmetry_group_IT_number 2
_symmetry_cell_setting 'triclinic'
loop_
_space_group_symop_operation_xyz
x,y,z
-x,-y,-z
loop_
_atom_site_type_symbol
_atom_site_label
_atom_site_fract_x
_atom_site_fract_y
_atom_site_fract_z
Si Si1 0.046420 0.145110 0.522922
Si Si2 0.178412 0.031945 0.776253
Si Si3 0.365750 0.470357 0.270565
Si Si4 0.260917 0.752289 0.934336
Si Si5 0.313607 0.870157 0.551017
Si Si6 0.655737 0.386703 0.437935
Si Si7 0.684675 0.828062 0.014091
Si Si8 0.394126 0.325591 0.976073
O O1 0.897075 0.133667 0.419276
O O2 0.112765 0.065980 0.586135
O O3 0.237431 0.168953 0.289352
O O4 0.921784 0.205781 0.789781
O O5 0.334940 0.955039 0.637504
O O6 0.230875 0.105073 0.891499
O O7 0.000000 0.000000 0.000000
O O8 0.510476 0.429994 0.357159
O O9 0.249524 0.547467 0.478402
O O10 0.278378 0.401656 0.190527
O O11 0.500000 0.500000 0.000000
O O12 0.332700 0.813357 0.734335
O O13 0.211756 0.683070 0.792099
O O14 0.440961 0.714556 0.964949
O O15 0.459911 0.847693 0.242861
O O16 0.518849 0.350440 0.694050
O O17 0.732943 0.738936 0.026168
#
# Coordination Sequence:
#
# PCOD9097680 Si02
#       8
#     2   2   2   2   2   2   2   2
#     4  12  25  43  65  90 125 168 210 271 322 372
#     4  12  26  45  64  89 126 165 217 268 323 378
#     4   8  16  29  55  93 128 163 204 253 301 372
#     4  11  20  38  65  88 129 163 209 262 312 377
#     4  12  25  46  63  90 124 167 213 269 318 383
#     4   9  16  32  57  91 129 164 204 251 310 371
#     4  12  26  41  65  94 123 168 214 263 321 374
#     4  10  20  36  61  93 127 163 211 256 313 375
#
# _framework density 22.219821
#
# number of rings (size 3 to 8) (size 9 to 14) (size 15 to 20)
#    0.000    1.250    5.000    0.750    1.750    0.500 
#    0.000    0.000    0.000    0.750    0.000   38.500 
#    0.000    0.000    0.000    0.000    0.000    0.000 
#
# Total GULP energy -89243.552180 kJ/mol
# GULP energy per Si atom -5577.722011 kJ/mol
# Density = 2.216925 g / cm^3
# Si number density = 22.219821 Si / 1000 Ang^3
#
#
#
# Elastic Constant Matrix: (Units=GPa)
#
#
# Indices 1 2 3 4 5 6 
#
# 1 24.3197 35.5881 30.9870 2.0938 0.3352 -6.3583
# 2 35.5881 183.7295 68.5274 16.8856 13.3918 26.5823
# 3 30.9870 68.5274 136.0664 0.7629 -7.1963 -1.3728
# 4 2.0938 16.8856 0.7629 64.7846 2.2662 31.6718
# 5 0.3352 13.3918 -7.1963 2.2662 25.6293 -0.1843
# 6 -6.3583 26.5823 -1.3728 31.6718 -0.1843 32.9277
#
#
#
# Elastic Compliance Matrix: (Units=1/GPa)
#
#
# Indices 1 2 3 4 5 6 
#
# 1 0.122909 -0.029044 -0.011574 -0.037055 0.014188 0.082419
# 2 -0.029044 0.015874 -0.002267 0.011799 -0.009810 -0.029922
# 3 -0.011574 -0.002267 0.011343 0.001193 0.004408 -0.001054
# 4 -0.037055 0.011799 0.001193 0.041585 -0.009430 -0.056682
# 5 0.014188 -0.009810 0.004408 -0.009430 0.046175 0.020172
# 6 0.082419 -0.029922 -0.001054 -0.056682 0.020172 0.125029
#
#
# Mechanical properties :
#
#
# Convention : Reuss Voigt Hill
#
# Bulk Modulus (GPa) = 15.53840 68.25785 41.89813
# Shear Modulus (GPa) = 10.63524 38.60253 24.61889
#
# Velocity S-wave (km/s) = 2.19015 4.17262 3.33223
# Velocity P-wave (km/s) = 3.66113 7.34849 5.80535
#
# Compressibility (1/GPa) = 0.06435668
#
# Stress axis : x y z
#
# Youngs Moduli (GPa) = 8.13609 62.99692 88.16245
#
# Poissons Ratio (x) = 1.82966 1.02037
# Poissons Ratio (y) = 0.23630 0.19988
# Poissons Ratio (z) = 0.09416 0.14282
#
# Static dielectric constant tensor:
#      x y z
#    x 1.849930 0.021380 0.000320 
#    y 0.021380 1.871850 0.088320 
#    z 0.000320 0.088320 1.867960 
# 
# From -- ./inp_files/44508.got.cif
#   From: 2010.05.17/outbox.cif.g08.bks.cpg/sg2_23_cif.got.tgz:44508.got - 2010.06.03 11:33:40.
