data_PCOD9097000
_publ_section_title
;
Structure prediction by ZEFSAII (Michael W. Deem and Ramdas Pophale) SiO2 
 PCOD9097000
Probable space group: P -1
;
_chemical_formula_sum "Si O2"
_cell_formula_units_Z 16
_cell_length_a 8.872646
_cell_length_b 13.665782
_cell_length_c 11.015356
_cell_angle_alpha 137.372957
_cell_angle_beta 68.492727
_cell_angle_gamma 88.717172
_cell_volume 745.614576
_symmetry_space_group_name_H-M "P -1"
_symmetry_group_IT_number 2
_symmetry_cell_setting 'triclinic'
loop_
_space_group_symop_operation_xyz
x,y,z
-x,-y,-z
loop_
_atom_site_type_symbol
_atom_site_label
_atom_site_fract_x
_atom_site_fract_y
_atom_site_fract_z
Si Si1 0.135438 0.782206 0.147846
Si Si2 0.216262 0.050490 0.473441
Si Si3 0.001516 0.689510 0.438091
Si Si4 0.332628 0.476335 0.975193
Si Si5 0.147049 0.862762 0.743261
Si Si6 0.495831 0.848392 0.524507
Si Si7 0.336513 0.353967 0.465671
Si Si8 0.670689 0.302886 0.220632
O O1 0.239484 0.599199 0.001289
O O2 0.919417 0.852032 0.288443
O O3 0.202455 0.885512 0.308297
O O4 0.186978 0.809132 0.022624
O O5 0.111298 0.170579 0.500915
O O6 0.418306 0.029309 0.409251
O O7 0.862543 0.629700 0.480741
O O8 0.171204 0.543158 0.184669
O O9 0.067979 0.774827 0.597034
O O10 0.500000 0.500000 0.000000
O O11 0.418514 0.293014 0.731517
O O12 0.281427 0.910708 0.668833
O O13 0.269954 0.734314 0.692083
O O14 0.000000 0.000000 0.000000
O O15 0.585418 0.760623 0.545483
O O16 0.484222 0.287299 0.252075
O O17 0.339867 0.523164 0.644039
#
# Coordination Sequence:
#
# PCOD9097000 Si02
#       8
#     2   2   2   2   2   2   2   2
#     4  10  20  37  60  86 116 148 193 230 288 335
#     4   9  21  37  62  86 112 150 191 240 274 343
#     4  10  21  37  60  86 114 147 198 232 286 331
#     4  11  21  36  63  87 117 147 184 249 285 333
#     4  11  23  38  57  81 119 156 186 233 287 342
#     4  10  20  39  60  87 112 148 198 229 290 337
#     4   9  20  35  58  87 108 147 193 238 273 335
#     4  10  20  36  59  81 117 150 186 235 279 337
#
# _framework density 21.458808999999999
#
# number of rings (size 3 to 8) (size 9 to 14) (size 15 to 20)
#    0.000    2.000    2.500    0.750    1.750    3.000 
#    0.000    5.625    0.000    0.000    0.000    0.000 
#    0.000    0.000    0.000    0.000    0.000    0.000 
#
# Total GULP energy -89237.864727 kJ/mol
# GULP energy per Si atom -5577.366545 kJ/mol
# Density = 2.140997 g / cm^3
# Si number density = 21.458809 Si / 1000 Ang^3
#
#
#
# Elastic Constant Matrix: (Units=GPa)
#
#
# Indices 1 2 3 4 5 6 
#
# 1 115.0222 38.2539 44.5203 -34.6062 -20.4652 38.9787
# 2 38.2539 65.2675 27.9834 -20.3536 -14.9290 21.4289
# 3 44.5203 27.9834 105.5156 -32.9663 -11.0439 19.2180
# 4 -34.6062 -20.3536 -32.9663 38.3190 2.8117 -9.2060
# 5 -20.4652 -14.9290 -11.0439 2.8117 20.8125 -9.1383
# 6 38.9787 21.4289 19.2180 -9.2060 -9.1383 42.5887
#
#
#
# Elastic Compliance Matrix: (Units=1/GPa)
#
#
# Indices 1 2 3 4 5 6 
#
# 1 0.018743 -0.000506 -0.000594 0.012565 0.010979 -0.011560
# 2 -0.000506 0.023646 -0.000816 0.008946 0.011937 -0.006571
# 3 -0.000594 -0.000816 0.013954 0.010197 0.003841 -0.002314
# 4 0.012565 0.008946 0.010197 0.048203 0.014572 -0.007055
# 5 0.010979 0.011937 0.003841 0.014572 0.067398 -0.000176
# 6 -0.011560 -0.006571 -0.002314 -0.007055 -0.000176 0.036848
#
#
# Mechanical properties :
#
#
# Convention : Reuss Voigt Hill
#
# Bulk Modulus (GPa) = 19.04401 56.36896 37.70648
# Shear Modulus (GPa) = 21.72698 32.01390 26.87044
#
# Velocity S-wave (km/s) = 3.18543 3.86667 3.54246
# Velocity P-wave (km/s) = 4.73532 6.80150 5.86019
#
# Compressibility (1/GPa) = 0.05250996
#
# Stress axis : x y z
#
# Youngs Moduli (GPa) = 53.35232 42.29100 71.66616
#
# Poissons Ratio (x) = 0.02140 0.04257
# Poissons Ratio (y) = 0.02699 0.05851
# Poissons Ratio (z) = 0.03169 0.03453
#
# Static dielectric constant tensor:
#      x y z
#    x 1.802760 -0.012190 -0.058090 
#    y -0.012190 1.791710 -0.016580 
#    z -0.058090 -0.016580 1.861690 
# 
# From -- ./inp_files/176749.got.cif
#   From: 2010.05.17/outbox.cif.g08.bks.cpg/sg2_89_cif.got.tgz:176749.got - 2010.06.03 11:33:40.
