data_PCOD9097124
_publ_section_title
;
Structure prediction by ZEFSAII (Michael W. Deem and Ramdas Pophale) SiO2 
 PCOD9097124
Probable space group: P -1
;
_chemical_formula_sum "Si O2"
_cell_formula_units_Z 16
_cell_length_a 11.215737
_cell_length_b 12.250617
_cell_length_c 7.875106
_cell_angle_alpha 130.138886
_cell_angle_beta 70.456238
_cell_angle_gamma 85.521018
_cell_volume 711.802404
_symmetry_space_group_name_H-M "P -1"
_symmetry_group_IT_number 2
_symmetry_cell_setting 'triclinic'
loop_
_space_group_symop_operation_xyz
x,y,z
-x,-y,-z
loop_
_atom_site_type_symbol
_atom_site_label
_atom_site_fract_x
_atom_site_fract_y
_atom_site_fract_z
Si Si1 0.960505 0.597084 0.444144
Si Si2 0.208583 0.333033 0.936663
Si Si3 0.776069 0.179229 0.216914
Si Si4 0.444859 0.871061 0.960635
Si Si5 0.924191 0.853144 0.976861
Si Si6 0.499665 0.837827 0.280524
Si Si7 0.304555 0.387168 0.597350
Si Si8 0.474077 0.594799 0.279679
O O1 0.921959 0.770799 0.710997
O O2 0.838064 0.561820 0.383343
O O3 0.000000 0.500000 0.500000
O O4 0.098105 0.513128 0.180098
O O5 0.342242 0.289201 0.948921
O O6 0.269805 0.297407 0.682875
O O7 0.137782 0.222758 0.927981
O O8 0.687754 0.126061 0.073412
O O9 0.670392 0.353585 0.501874
O O10 0.917652 0.184593 0.090555
O O11 0.836683 0.038093 0.183916
O O12 0.574675 0.715132 0.688202
O O13 0.423103 0.866914 0.167602
O O14 0.500000 0.000000 0.000000
O O15 0.451644 0.766361 0.390765
O O16 0.500000 0.000000 0.500000
O O17 0.385645 0.477943 0.748172
O O18 0.500000 0.500000 0.000000
#
# Coordination Sequence:
#
# PCOD9097124 Si02
#       8
#     2   2   2   2   2   2   2   2
#     4  10  20  36  59  88 117 158 201 254 302 361
#     4  10  20  36  60  87 121 155 204 250 304 365
#     4  10  22  39  60  89 125 167 201 252 316 369
#     4  11  20  37  63  90 120 155 215 261 303 367
#     4  10  21  38  60  88 126 162 202 251 314 371
#     4  11  22  39  67  92 118 160 211 264 311 369
#     4  10  21  37  60  91 116 160 210 253 305 363
#     4  10  23  42  63  89 129 167 205 266 317 366
#
# _framework density 22.478151
#
# number of rings (size 3 to 8) (size 9 to 14) (size 15 to 20)
#    0.000    1.750    0.000    6.375    3.500    0.000 
#    4.500    1.250    0.000    6.000    0.000    0.000 
#    0.000    0.000    0.000    0.000    0.000    0.000 
#
# Total GULP energy -89205.247801 kJ/mol
# GULP energy per Si atom -5575.327988 kJ/mol
# Density = 2.242699 g / cm^3
# Si number density = 22.478151 Si / 1000 Ang^3
#
#
#
# Elastic Constant Matrix: (Units=GPa)
#
#
# Indices 1 2 3 4 5 6 
#
# 1 174.9055 6.7880 38.0557 -11.2607 -9.9958 -22.9023
# 2 6.7880 41.1092 -10.1948 -9.9816 0.1884 -1.8977
# 3 38.0557 -10.1948 68.7977 0.0135 4.1182 -10.5981
# 4 -11.2607 -9.9816 0.0135 31.9528 -3.7946 2.9143
# 5 -9.9958 0.1884 4.1182 -3.7946 37.3032 -11.1516
# 6 -22.9023 -1.8977 -10.5981 2.9143 -11.1516 34.4700
#
#
#
# Elastic Compliance Matrix: (Units=1/GPa)
#
#
# Indices 1 2 3 4 5 6 
#
# 1 0.007675 -0.001481 -0.003951 0.002291 0.004220 0.004974
# 2 -0.001481 0.027880 0.005172 0.008067 0.000164 0.001513
# 3 -0.003951 0.005172 0.018007 -0.000290 -0.002369 0.002454
# 4 0.002291 0.008067 -0.000290 0.035104 0.004262 0.000289
# 5 0.004220 0.000164 -0.002369 0.004262 0.032269 0.012164
# 6 0.004974 0.001513 0.002454 0.000289 0.012164 0.037064
#
#
# Mechanical properties :
#
#
# Convention : Reuss Voigt Hill
#
# Bulk Modulus (GPa) = 18.85283 39.34558 29.09920
# Shear Modulus (GPa) = 28.37684 37.42277 32.89980
#
# Velocity S-wave (km/s) = 3.55691 4.08468 3.82990
# Velocity P-wave (km/s) = 5.02734 6.30778 5.70361
#
# Compressibility (1/GPa) = 0.05304244
#
# Stress axis : x y z
#
# Youngs Moduli (GPa) = 130.29923 35.86762 55.53263
#
# Poissons Ratio (x) = 0.05310 0.21943
# Poissons Ratio (y) = 0.19291 -0.28722
# Poissons Ratio (z) = 0.51487 -0.18551
#
# Static dielectric constant tensor:
#      x y z
#    x 1.888420 0.015940 0.003950 
#    y 0.015940 1.866170 0.062070 
#    z 0.003950 0.062070 1.982240 
# 
# From -- ./inp_files/209266.got.cif
#   From: 2010.05.17/outbox.cif.g08.bks.cpg/sg2_105_cif.got.tgz:209266.got - 2010.06.03 11:33:40.
