data_PCOD9097214
_publ_section_title
;
Structure prediction by ZEFSAII (Michael W. Deem and Ramdas Pophale) SiO2 
 PCOD9097214
Probable space group: P -1
;
_chemical_formula_sum "Si O2"
_cell_formula_units_Z 16
_cell_length_a 6.278381
_cell_length_b 11.438506
_cell_length_c 15.195002
_cell_angle_alpha 84.408014
_cell_angle_beta 133.468414
_cell_angle_gamma 115.902928
_cell_volume 677.054864
_symmetry_space_group_name_H-M "P -1"
_symmetry_group_IT_number 2
_symmetry_cell_setting 'triclinic'
loop_
_space_group_symop_operation_xyz
x,y,z
-x,-y,-z
loop_
_atom_site_type_symbol
_atom_site_label
_atom_site_fract_x
_atom_site_fract_y
_atom_site_fract_z
Si Si1 0.386937 0.424290 0.605505
Si Si2 0.575599 0.197942 0.183423
Si Si3 0.283538 0.239604 0.448732
Si Si4 0.567278 0.653766 0.013811
Si Si5 0.655661 0.741490 0.224894
Si Si6 0.328495 0.911406 0.174166
Si Si7 0.418689 0.693202 0.644965
Si Si8 0.563771 0.083424 0.600432
O O1 0.508468 0.383678 0.553898
O O2 0.446687 0.352039 0.710866
O O3 0.507955 0.576664 0.657074
O O4 0.985123 0.364289 0.474632
O O5 0.435783 0.240595 0.224848
O O6 0.930213 0.218906 0.318288
O O7 0.357782 0.035258 0.115014
O O8 0.632141 0.302628 0.114102
O O9 0.432872 0.214421 0.404819
O O10 0.292125 0.133713 0.526028
O O11 0.481775 0.672082 0.088338
O O12 0.958802 0.772599 0.090230
O O13 0.500000 0.500000 0.000000
O O14 0.584535 0.863707 0.215456
O O15 0.050490 0.791488 0.314274
O O16 0.426916 0.972827 0.296814
O O17 0.500000 0.000000 0.500000
#
# Coordination Sequence:
#
# PCOD9097214 Si02
#       8
#     2   2   2   2   2   2   2   2
#     4  10  20  36  59  94 132 175 222 261 332 395
#     4  11  25  43  66 100 132 176 225 269 337 396
#     4  11  21  36  63  97 135 176 216 274 326 399
#     4  11  27  49  70  95 128 176 234 284 327 392
#     4  11  23  41  67  97 131 177 220 275 330 394
#     4  11  25  43  69  98 134 177 221 279 333 397
#     4  10  21  37  60  92 136 175 213 274 324 390
#     4  11  22  37  63  98 139 175 215 265 331 401
#
# _framework density 23.631762999999999
#
# number of rings (size 3 to 8) (size 9 to 14) (size 15 to 20)
#    0.000    1.250    2.500    3.000    1.750    5.000 
#    0.000    0.000    0.000    0.000    0.000    0.000 
#    0.000    0.000    0.000    0.000    0.000    0.000 
#
# Total GULP energy -89292.696833 kJ/mol
# GULP energy per Si atom -5580.793552 kJ/mol
# Density = 2.357798 g / cm^3
# Si number density = 23.631763 Si / 1000 Ang^3
#
#
#
# Elastic Constant Matrix: (Units=GPa)
#
#
# Indices 1 2 3 4 5 6 
#
# 1 70.1708 20.4358 29.9514 3.4204 -19.6675 -15.6157
# 2 20.4358 156.5468 46.1130 -17.0561 -13.0921 -18.1479
# 3 29.9514 46.1130 76.0954 -14.6853 -14.7404 -15.0034
# 4 3.4204 -17.0561 -14.6853 30.5129 -3.1052 -1.9875
# 5 -19.6675 -13.0921 -14.7404 -3.1052 44.4530 4.4136
# 6 -15.6157 -18.1479 -15.0034 -1.9875 4.4136 36.8545
#
#
#
# Elastic Compliance Matrix: (Units=1/GPa)
#
#
# Indices 1 2 3 4 5 6 
#
# 1 0.020040 -0.000122 -0.006627 -0.004598 0.005837 0.004786
# 2 -0.000122 0.008195 -0.003585 0.003151 0.001137 0.002558
# 3 -0.006627 -0.003585 0.021236 0.009569 0.003306 0.004192
# 4 -0.004598 0.003151 0.009569 0.040437 0.004379 0.005155
# 5 0.005837 0.001137 0.003306 0.004379 0.026674 0.001420
# 6 0.004786 0.002558 0.004192 0.005155 0.001420 0.032236
#
#
# Mechanical properties :
#
#
# Convention : Reuss Voigt Hill
#
# Bulk Modulus (GPa) = 34.71940 55.09037 44.90488
# Shear Modulus (GPa) = 27.91939 36.11825 32.01882
#
# Velocity S-wave (km/s) = 3.44093 3.91369 3.68490
# Velocity P-wave (km/s) = 5.52362 6.61704 6.09490
#
# Compressibility (1/GPa) = 0.02880235
#
# Stress axis : x y z
#
# Youngs Moduli (GPa) = 49.89928 122.02842 47.08991
#
# Poissons Ratio (x) = 0.01489 0.31207
# Poissons Ratio (y) = 0.00609 0.16883
# Poissons Ratio (z) = 0.33069 0.43751
#
# Static dielectric constant tensor:
#      x y z
#    x 1.904410 0.001480 0.036360 
#    y 0.001480 1.984770 0.014410 
#    z 0.036360 0.014410 1.953170 
# 
# From -- ./inp_files/81142.got.cif
#   From: 2010.05.17/outbox.cif.g08.bks.cpg/sg2_41_cif.got.tgz:81142.got - 2010.06.03 11:33:40.
