data_PCOD9097130
_publ_section_title
;
Structure prediction by ZEFSAII (Michael W. Deem and Ramdas Pophale) SiO2 
 PCOD9097130
Probable space group: P -1
;
_chemical_formula_sum "Si O2"
_cell_formula_units_Z 12
_cell_length_a 8.961405
_cell_length_b 11.243345
_cell_length_c 10.770447
_cell_angle_alpha 40.417125
_cell_angle_beta 68.907192
_cell_angle_gamma 94.427005
_cell_volume 534.486744
_symmetry_space_group_name_H-M "P -1"
_symmetry_group_IT_number 2
_symmetry_cell_setting 'triclinic'
loop_
_space_group_symop_operation_xyz
x,y,z
-x,-y,-z
loop_
_atom_site_type_symbol
_atom_site_label
_atom_site_fract_x
_atom_site_fract_y
_atom_site_fract_z
Si Si1 0.453341 0.948519 0.755646
Si Si2 0.062405 0.726173 0.142867
Si Si3 0.915157 0.689400 0.490652
Si Si4 0.924575 0.840155 0.847167
Si Si5 0.491510 0.431296 0.915204
Si Si6 0.194681 0.751800 0.738894
O O1 0.325817 0.825183 0.766074
O O2 0.652789 0.179194 0.472040
O O3 0.511659 0.790418 0.914675
O O4 0.294498 0.933828 0.905259
O O5 0.060017 0.501294 0.313043
O O6 0.966997 0.765328 0.024073
O O7 0.961852 0.710613 0.314111
O O8 0.694707 0.616292 0.639732
O O9 0.056816 0.931330 0.318652
O O10 0.712803 0.638622 0.023373
O O11 0.098521 0.890676 0.662175
O O12 0.500000 0.500000 0.000000
O O13 0.000000 0.500000 0.000000
#
# Coordination Sequence:
#
# PCOD9097130 Si02
#       6
#     2   2   2   2   2   2
#     4   9  20  37  56  84 121 159 200 249 305 361
#     4   9  21  43  66  89 125 166 203 256 310 365
#     4  10  22  44  65  89 127 163 205 257 310 366
#     4  11  23  38  64  94 120 163 210 252 308 369
#     4  11  23  38  59  92 126 160 207 258 306 363
#     4  10  20  36  59  88 121 160 203 251 306 361
#
# _framework density 22.451443999999999
#
# number of rings (size 3 to 8) (size 9 to 14) (size 15 to 20)
#    0.000    2.000    0.000    2.500    0.000   10.000 
#    0.000   12.500    0.000    0.000    0.000    0.000 
#    0.000    0.000    0.000    0.000    0.000    0.000 
#
# Total GULP energy -67073.678646 kJ/mol
# GULP energy per Si atom -5589.473221 kJ/mol
# Density = 2.240034 g / cm^3
# Si number density = 22.451444 Si / 1000 Ang^3
#
#
#
# Elastic Constant Matrix: (Units=GPa)
#
#
# Indices 1 2 3 4 5 6 
#
# 1 101.9743 28.4919 45.4997 9.5082 -29.0732 2.4882
# 2 28.4919 73.9460 59.9414 10.6622 -16.0332 -9.0143
# 3 45.4997 59.9414 165.4529 22.4206 -33.0817 3.2580
# 4 9.5082 10.6622 22.4206 49.0902 -7.6487 -3.1437
# 5 -29.0732 -16.0332 -33.0817 -7.6487 29.6862 -2.8905
# 6 2.4882 -9.0143 3.2580 -3.1437 -2.8905 18.2385
#
#
#
# Elastic Compliance Matrix: (Units=1/GPa)
#
#
# Indices 1 2 3 4 5 6 
#
# 1 0.014158 -0.002596 -0.000573 -0.000184 0.011651 -0.001298
# 2 -0.002596 0.022563 -0.007142 0.000187 0.003027 0.013294
# 3 -0.000573 -0.007142 0.010439 -0.002458 0.006117 -0.004771
# 4 -0.000184 0.000187 -0.002458 0.022338 0.003419 0.004949
# 5 0.011651 0.003027 0.006117 0.003419 0.055223 0.008155
# 6 -0.001298 0.013294 -0.004771 0.004949 0.008155 0.064574
#
#
# Mechanical properties :
#
#
# Convention : Reuss Voigt Hill
#
# Bulk Modulus (GPa) = 37.68183 67.69323 52.68753
# Shear Modulus (GPa) = 22.85567 33.23232 28.04399
#
# Velocity S-wave (km/s) = 3.19408 3.85149 3.53809
# Velocity P-wave (km/s) = 5.51570 7.07072 6.34106
#
# Compressibility (1/GPa) = 0.02653799
#
# Stress axis : x y z
#
# Youngs Moduli (GPa) = 70.63123 44.31978 95.79301
#
# Poissons Ratio (x) = 0.11507 0.05486
# Poissons Ratio (y) = 0.18338 0.68418
# Poissons Ratio (z) = 0.04045 0.31655
#
# Static dielectric constant tensor:
#      x y z
#    x 1.826680 -0.037730 0.012680 
#    y -0.037730 1.838280 -0.000040 
#    z 0.012680 -0.000040 1.870700 
# 
# From -- ./inp_files/27410.got.cif
#   From: 2010.05.17/outbox.cif.g08.bks.cpg/sg2_14_cif.got.tgz:27410.got - 2010.06.03 11:33:40.
