data_PCOD9097290
_publ_section_title
;
Structure prediction by ZEFSAII (Michael W. Deem and Ramdas Pophale) SiO2 
 PCOD9097290
Probable space group: P -1
;
_chemical_formula_sum "Si O2"
_cell_formula_units_Z 15
_cell_length_a 6.957622
_cell_length_b 8.416749
_cell_length_c 14.914658
_cell_angle_alpha 62.261052
_cell_angle_beta 102.387833
_cell_angle_gamma 127.218137
_cell_volume 612.811022
_symmetry_space_group_name_H-M "P -1"
_symmetry_group_IT_number 2
_symmetry_cell_setting 'triclinic'
loop_
_space_group_symop_operation_xyz
x,y,z
-x,-y,-z
loop_
_atom_site_type_symbol
_atom_site_label
_atom_site_fract_x
_atom_site_fract_y
_atom_site_fract_z
Si Si1 0.624788 0.730230 0.040979
Si Si2 0.482927 0.715969 0.836045
Si Si3 0.900482 0.178827 0.035228
Si Si4 0.086990 0.326698 0.381600
Si Si5 0.961502 0.568761 0.836246
Si Si6 0.739917 0.081862 0.627618
Si Si7 0.627657 0.840732 0.494751
Si Si8 0.000000 0.500000 0.500000
O O1 0.489939 0.481570 0.128645
O O2 0.699616 0.920704 0.068221
O O3 0.493985 0.741174 0.937841
O O4 0.865770 0.774903 0.006232
O O5 0.217312 0.637042 0.802562
O O6 0.671003 0.946297 0.746002
O O7 0.966613 0.253678 0.124835
O O8 0.847847 0.337824 0.936977
O O9 0.302662 0.327652 0.447971
O O10 0.171690 0.434147 0.264163
O O11 0.994916 0.432310 0.409837
O O12 0.854217 0.068341 0.413349
O O13 0.624365 0.222746 0.557579
O O14 0.011436 0.287461 0.587485
O O15 0.634672 0.910862 0.580473
#
# Coordination Sequence:
#
# PCOD9097290 Si02
#       8
#     2   2   2   2   2   2   2   1
#     4   9  20  38  58  87 120 154 204 246 290 368
#     4  10  20  36  60  85 121 160 197 242 309 354
#     4   9  20  38  57  88 120 155 201 250 288 365
#     4  10  20  39  59  90 118 164 194 251 297 374
#     4  10  20  36  61  86 123 162 194 241 309 355
#     4  10  20  39  60  87 117 164 193 262 299 362
#     4   9  20  38  61  80 121 154 203 242 304 359
#     4  10  24  38  60  90 122 152 212 252 308 354
#
# _framework density 24.477367999999998
#
# number of rings (size 3 to 8) (size 9 to 14) (size 15 to 20)
#    0.000    2.400    1.333    0.000    3.733    1.067 
#    0.000    1.333    0.000    0.000    0.000    0.000 
#    0.000    0.000    0.000    0.000    0.000    0.000 
#
# Total GULP energy -83629.258982 kJ/mol
# GULP energy per Si atom -5575.283932 kJ/mol
# Density = 2.442166 g / cm^3
# Si number density = 24.477368 Si / 1000 Ang^3
#
#
#
# Elastic Constant Matrix: (Units=GPa)
#
#
# Indices 1 2 3 4 5 6 
#
# 1 61.6553 21.4348 43.4336 6.9856 2.4635 -6.0211
# 2 21.4348 123.8465 51.1417 4.7809 -1.7654 -27.1905
# 3 43.4336 51.1417 155.6643 -10.3880 -11.0521 -21.1325
# 4 6.9856 4.7809 -10.3880 21.5869 3.4818 -7.7963
# 5 2.4635 -1.7654 -11.0521 3.4818 35.7081 0.6930
# 6 -6.0211 -27.1905 -21.1325 -7.7963 0.6930 28.6471
#
#
#
# Elastic Compliance Matrix: (Units=1/GPa)
#
#
# Indices 1 2 3 4 5 6 
#
# 1 0.023211 -0.001631 -0.007746 -0.012499 -0.002750 -0.005719
# 2 -0.001631 0.011097 -0.001983 0.000326 -0.000156 0.008820
# 3 -0.007746 -0.001983 0.011161 0.010604 0.002711 0.007544
# 4 -0.012499 0.000326 0.010604 0.064122 -0.002539 0.023017
# 5 -0.002750 -0.000156 0.002711 -0.002539 0.029276 -0.000125
# 6 -0.005719 0.008820 0.007544 0.023017 -0.000125 0.053909
#
#
# Mechanical properties :
#
#
# Convention : Reuss Voigt Hill
#
# Bulk Modulus (GPa) = 43.95690 63.68736 53.82213
# Shear Modulus (GPa) = 22.41373 32.19882 27.30628
#
# Velocity S-wave (km/s) = 3.02932 3.63085 3.34364
# Velocity P-wave (km/s) = 5.49845 6.60703 6.07806
#
# Compressibility (1/GPa) = 0.02274955
#
# Stress axis : x y z
#
# Youngs Moduli (GPa) = 43.08378 90.11342 89.59772
#
# Poissons Ratio (x) = 0.14694 0.69404
# Poissons Ratio (y) = 0.07025 0.17765
# Poissons Ratio (z) = 0.33374 0.17867
#
# Static dielectric constant tensor:
#      x y z
#    x 1.845020 -0.181130 0.144880 
#    y -0.181130 1.733400 0.071250 
#    z 0.144880 0.071250 1.840830 
# 
# From -- ./inp_files/201604.got.cif
#   From: 2010.05.17/outbox.cif.g08.bks.cpg/sg2_101_cif.got.tgz:201604.got - 2010.06.03 11:33:40.
