data_PCOD9097141
_publ_section_title
;
Structure prediction by ZEFSAII (Michael W. Deem and Ramdas Pophale) SiO2 
 PCOD9097141
Probable space group: P -1
;
_chemical_formula_sum "Si O2"
_cell_formula_units_Z 14
_cell_length_a 14.296541
_cell_length_b 17.414503
_cell_length_c 8.456438
_cell_angle_alpha 128.098494
_cell_angle_beta 116.345526
_cell_angle_gamma 24.478744
_cell_volume 640.174466
_symmetry_space_group_name_H-M "P -1"
_symmetry_group_IT_number 2
_symmetry_cell_setting 'triclinic'
loop_
_space_group_symop_operation_xyz
x,y,z
-x,-y,-z
loop_
_atom_site_type_symbol
_atom_site_label
_atom_site_fract_x
_atom_site_fract_y
_atom_site_fract_z
Si Si1 0.696275 0.949341 0.730175
Si Si2 0.953454 0.650813 0.120078
Si Si3 0.910862 0.982549 0.506320
Si Si4 0.382492 0.411799 0.672085
Si Si5 0.579754 0.833898 0.501744
Si Si6 0.148687 0.642147 0.477997
Si Si7 0.915689 0.816895 0.031877
O O1 0.740864 0.794924 0.580591
O O2 0.913461 0.817743 0.632582
O O3 0.705223 0.984004 0.956787
O O4 0.468043 0.153092 0.701767
O O5 0.683699 0.907736 0.304650
O O6 0.141758 0.560362 0.241993
O O7 0.000000 0.500000 0.000000
O O8 0.954523 0.680903 0.976142
O O9 0.099416 0.781808 0.520529
O O10 0.646870 0.218280 0.685559
O O11 0.000000 0.000000 0.500000
O O12 0.869442 0.931746 0.282251
O O13 0.353188 0.318989 0.546493
O O14 0.358420 0.464971 0.539435
O O15 0.162716 0.637377 0.899110
#
# Coordination Sequence:
#
# PCOD9097141 Si02
#       7
#     2   2   2   2   2   2   2
#     4   9  19  35  57  87 129 157 213 232 291 377
#     4  10  21  34  52  89 132 163 208 250 286 369
#     4  11  24  48  66  87 124 158 208 275 316 359
#     4  11  22  41  66  87 129 163 201 259 313 367
#     4  10  20  36  59  88 131 181 189 239 322 348
#     4   9  21  40  59  92 126 158 210 254 306 371
#     4  10  23  39  60  95 121 160 217 248 304 378
#
# _framework density 21.869039000000001
#
# number of rings (size 3 to 8) (size 9 to 14) (size 15 to 20)
#    0.000    2.000    4.286    0.000    8.000    4.000 
#    2.571    2.857    0.000    0.000    0.000    0.000 
#    0.000    0.000    0.000    0.000    0.000    0.000 
#
# Total GULP energy -78173.164870 kJ/mol
# GULP energy per Si atom -5583.797491 kJ/mol
# Density = 2.181926 g / cm^3
# Si number density = 21.869039 Si / 1000 Ang^3
#
#
#
# Elastic Constant Matrix: (Units=GPa)
#
#
# Indices 1 2 3 4 5 6 
#
# 1 113.7743 18.9608 -6.5543 -2.8387 -12.9754 27.2067
# 2 18.9608 79.9804 21.7274 -8.8893 -8.7239 26.0416
# 3 -6.5543 21.7274 46.8854 -13.4460 -20.0229 5.4025
# 4 -2.8387 -8.8893 -13.4460 33.6486 2.6549 -15.3199
# 5 -12.9754 -8.7239 -20.0229 2.6549 18.7928 -3.8073
# 6 27.2067 26.0416 5.4025 -15.3199 -3.8073 27.9587
#
#
#
# Elastic Compliance Matrix: (Units=1/GPa)
#
#
# Indices 1 2 3 4 5 6 
#
# 1 0.015744 0.000469 0.011915 -0.003145 0.020793 -0.016951
# 2 0.000469 0.022370 -0.013507 -0.010432 -0.007356 -0.025400
# 3 0.011915 -0.013507 0.063881 0.022154 0.068949 0.010172
# 4 -0.003145 -0.010432 0.022154 0.052134 0.017209 0.039407
# 5 0.020793 -0.007356 0.068949 0.017209 0.135421 0.001165
# 6 -0.016951 -0.025400 0.010172 0.039407 0.001165 0.095706
#
#
# Mechanical properties :
#
#
# Convention : Reuss Voigt Hill
#
# Bulk Modulus (GPa) = 10.02540 34.32309 22.17424
# Shear Modulus (GPa) = 11.88347 29.84710 20.86528
#
# Velocity S-wave (km/s) = 2.33361 3.69834 3.09220
# Velocity P-wave (km/s) = 3.44314 5.82803 4.78650
#
# Compressibility (1/GPa) = 0.09974665
#
# Stress axis : x y z
#
# Youngs Moduli (GPa) = 63.51628 44.70334 15.65414
#
# Poissons Ratio (x) = -0.02095 -0.18652
# Poissons Ratio (y) = -0.02976 0.21145
# Poissons Ratio (z) = -0.75679 0.60382
#
# Static dielectric constant tensor:
#      x y z
#    x 1.783710 -0.003990 -0.021960 
#    y -0.003990 1.870890 0.021520 
#    z -0.021960 0.021520 1.837180 
# 
# From -- ./inp_files/188849.got.cif
#   From: 2010.05.17/outbox.cif.g08.bks.cpg/sg2_95_cif.got.tgz:188849.got - 2010.06.03 11:33:40.
