data_PCOD9097233
_publ_section_title
;
Structure prediction by ZEFSAII (Michael W. Deem and Ramdas Pophale) SiO2 
 PCOD9097233
Probable space group: P -1
;
_chemical_formula_sum "Si O2"
_cell_formula_units_Z 12
_cell_length_a 5.170464
_cell_length_b 9.942140
_cell_length_c 16.278409
_cell_angle_alpha 121.952944
_cell_angle_beta 122.073323
_cell_angle_gamma 85.618055
_cell_volume 576.762334
_symmetry_space_group_name_H-M "P -1"
_symmetry_group_IT_number 2
_symmetry_cell_setting 'triclinic'
loop_
_space_group_symop_operation_xyz
x,y,z
-x,-y,-z
loop_
_atom_site_type_symbol
_atom_site_label
_atom_site_fract_x
_atom_site_fract_y
_atom_site_fract_z
Si Si1 0.801549 0.109560 0.197723
Si Si2 0.978624 0.964921 0.613031
Si Si3 0.415724 0.729528 0.007495
Si Si4 0.835298 0.816410 0.879449
Si Si5 0.494154 0.830207 0.353680
Si Si6 0.361007 0.563728 0.111225
O O1 0.536991 0.208448 0.180617
O O2 0.928655 0.105427 0.309644
O O3 0.073499 0.179953 0.199855
O O4 0.622879 0.916217 0.082332
O O5 0.715739 0.835305 0.471832
O O6 0.804989 0.106440 0.650572
O O7 0.285007 0.038477 0.630777
O O8 0.504036 0.694067 0.103890
O O9 0.491669 0.587959 0.920301
O O10 0.000000 0.500000 0.000000
O O11 0.043582 0.715405 0.928407
O O12 0.000000 0.000000 0.000000
O O13 0.397870 0.658950 0.233517
#
# Coordination Sequence:
#
# PCOD9097233 Si02
#       6
#     2   2   2   2   2   2
#     4  11  20  36  59  81 112 144 187 236 276 324
#     4  10  20  36  60  81 112 144 190 238 272 326
#     4  10  22  35  50  86 112 147 185 221 289 335
#     4  10  22  34  56  81 112 147 184 235 274 325
#     4  10  21  37  55  85 113 147 185 232 281 325
#     4  11  23  34  58  80 120 153 174 232 281 351
#
# _framework density 20.805796000000001
#
# number of rings (size 3 to 8) (size 9 to 14) (size 15 to 20)
#    0.000    1.667    1.667    4.000   11.667    0.000 
#    0.000    0.000    0.000    2.000    0.000    0.000 
#    0.000    0.000    0.000    0.000    0.000    0.000 
#
# Total GULP energy -67069.509841 kJ/mol
# GULP energy per Si atom -5589.125820 kJ/mol
# Density = 2.075844 g / cm^3
# Si number density = 20.805796 Si / 1000 Ang^3
#
#
#
# Elastic Constant Matrix: (Units=GPa)
#
#
# Indices 1 2 3 4 5 6 
#
# 1 93.2341 26.4556 23.1326 -0.4189 -11.0602 -17.2895
# 2 26.4556 69.4016 29.0729 -20.9355 -1.9299 -12.4143
# 3 23.1326 29.0729 141.8331 -17.1733 -18.0252 -21.3803
# 4 -0.4189 -20.9355 -17.1733 36.7460 0.2028 -2.9565
# 5 -11.0602 -1.9299 -18.0252 0.2028 31.3484 -2.0057
# 6 -17.2895 -12.4143 -21.3803 -2.9565 -2.0057 42.3699
#
#
#
# Elastic Compliance Matrix: (Units=1/GPa)
#
#
# Indices 1 2 3 4 5 6 
#
# 1 0.013456 -0.004924 -0.000323 -0.002512 0.004526 0.003924
# 2 -0.004924 0.021175 -0.001673 0.011563 -0.001208 0.004100
# 3 -0.000323 -0.001673 0.009268 0.003713 0.005381 0.004569
# 4 -0.002512 0.011563 0.003713 0.036047 0.002166 0.006854
# 5 0.004526 -0.001208 0.005381 0.002166 0.036893 0.006106
# 6 0.003924 0.004100 0.004569 0.006854 0.006106 0.029477
#
#
# Mechanical properties :
#
#
# Convention : Reuss Voigt Hill
#
# Bulk Modulus (GPa) = 33.26717 51.31014 42.28865
# Shear Modulus (GPa) = 29.38143 37.14671 33.26407
#
# Velocity S-wave (km/s) = 3.76197 4.22999 4.00282
# Velocity P-wave (km/s) = 5.90711 6.96936 6.46011
#
# Compressibility (1/GPa) = 0.03005967
#
# Stress axis : x y z
#
# Youngs Moduli (GPa) = 74.31376 47.22659 107.89718
#
# Poissons Ratio (x) = 0.23256 0.03482
# Poissons Ratio (y) = 0.36595 0.18047
# Poissons Ratio (z) = 0.02398 0.07899
#
# Static dielectric constant tensor:
#      x y z
#    x 1.781870 0.049760 0.012830 
#    y 0.049760 1.807890 -0.001720 
#    z 0.012830 -0.001720 1.734350 
# 
# From -- ./inp_files/478631.got.cif
#   From: 2010.05.17/outbox.cif.g08.bks.cpg/sg2_240_cif.got.tgz:478631.got - 2010.06.03 11:33:40.
