data_PCOD9097289
_publ_section_title
;
Structure prediction by ZEFSAII (Michael W. Deem and Ramdas Pophale) SiO2 
 PCOD9097289
Probable space group: P -1
;
_chemical_formula_sum "Si O2"
_cell_formula_units_Z 16
_cell_length_a 13.823783
_cell_length_b 11.663761
_cell_length_c 14.482393
_cell_angle_alpha 121.992507
_cell_angle_beta 29.827989
_cell_angle_gamma 141.107274
_cell_volume 645.383557
_symmetry_space_group_name_H-M "P -1"
_symmetry_group_IT_number 2
_symmetry_cell_setting 'triclinic'
loop_
_space_group_symop_operation_xyz
x,y,z
-x,-y,-z
loop_
_atom_site_type_symbol
_atom_site_label
_atom_site_fract_x
_atom_site_fract_y
_atom_site_fract_z
Si Si1 0.174424 0.492102 0.087454
Si Si2 0.080307 0.257707 0.577402
Si Si3 0.238361 0.785313 0.855454
Si Si4 0.696502 0.349160 0.527680
Si Si5 0.179226 0.271502 0.695873
Si Si6 0.738704 0.981439 0.409092
Si Si7 0.223057 0.211765 0.967534
Si Si8 0.540984 0.815034 0.785066
O O1 0.935363 0.377704 0.153431
O O2 0.005920 0.434313 0.297550
O O3 0.268836 0.385968 0.963020
O O4 0.412077 0.726289 0.957173
O O5 0.232008 0.471910 0.506897
O O6 0.986289 0.213905 0.743157
O O7 0.306412 0.250339 0.384514
O O8 0.792728 0.060777 0.675884
O O9 0.553566 0.986619 0.629802
O O10 0.314411 0.729483 0.854725
O O11 0.008848 0.776031 0.080638
O O12 0.461906 0.144366 0.570624
O O13 0.536285 0.300582 0.734951
O O14 0.500000 0.500000 0.500000
O O15 0.243551 0.148092 0.603871
O O16 0.069789 0.162663 0.171191
O O17 0.000000 0.000000 0.000000
#
# Coordination Sequence:
#
# PCOD9097289 Si02
#       8
#     2   2   2   2   2   2   2   2
#     4  11  22  37  61  90 122 158 197 246 302 352
#     4  11  22  39  61  89 123 160 196 246 304 363
#     4  11  23  36  60  88 123 155 193 249 299 352
#     4  10  20  36  60  85 118 157 192 246 298 349
#     4  12  22  36  62  88 125 153 192 244 304 358
#     4  10  22  36  57  91 117 156 198 243 296 351
#     4  10  21  38  58  87 123 155 202 250 292 348
#     4  11  23  38  61  90 122 158 201 244 305 364
#
# _framework density 24.791460000000001
#
# number of rings (size 3 to 8) (size 9 to 14) (size 15 to 20)
#    0.000    1.250    3.750    3.375    1.750    7.500 
#    0.000    0.000    0.000    3.000    0.000   12.250 
#    0.000    0.000    0.000    0.000    0.000    0.000 
#
# Total GULP energy -89304.923082 kJ/mol
# GULP energy per Si atom -5581.557693 kJ/mol
# Density = 2.473503 g / cm^3
# Si number density = 24.791460 Si / 1000 Ang^3
#
#
#
# Elastic Constant Matrix: (Units=GPa)
#
#
# Indices 1 2 3 4 5 6 
#
# 1 35.8676 21.4999 7.4990 -4.4984 0.4171 -12.7149
# 2 21.4999 49.8942 17.8583 11.8867 -13.5233 -15.9506
# 3 7.4990 17.8583 191.4853 36.3407 20.8505 -6.3737
# 4 -4.4984 11.8867 36.3407 25.7775 -3.4717 -0.6399
# 5 0.4171 -13.5233 20.8505 -3.4717 27.0072 0.7918
# 6 -12.7149 -15.9506 -6.3737 -0.6399 0.7918 27.7432
#
#
#
# Elastic Compliance Matrix: (Units=1/GPa)
#
#
# Indices 1 2 3 4 5 6 
#
# 1 0.049973 -0.025953 -0.002793 0.023642 -0.008810 0.008137
# 2 -0.025953 0.047020 -0.001275 -0.021135 0.021810 0.013736
# 3 -0.002793 -0.001275 0.009156 -0.014083 -0.009476 0.000036
# 4 0.023642 -0.021135 -0.014083 0.073720 0.009493 -0.003122
# 5 -0.008810 0.021810 -0.009476 0.009493 0.056476 0.004932
# 6 0.008137 0.013736 0.000036 -0.003122 0.004932 0.047467
#
#
# Mechanical properties :
#
#
# Convention : Reuss Voigt Hill
#
# Bulk Modulus (GPa) = 21.68916 41.21793 31.45354
# Shear Modulus (GPa) = 13.91881 31.46491 22.69186
#
# Velocity S-wave (km/s) = 2.37203 3.56643 3.02869
# Velocity P-wave (km/s) = 4.03357 5.79837 4.99454
#
# Compressibility (1/GPa) = 0.04610599
#
# Stress axis : x y z
#
# Youngs Moduli (GPa) = 20.01063 21.26739 109.21255
#
# Poissons Ratio (x) = 0.55196 0.30506
# Poissons Ratio (y) = 0.51934 0.13930
# Poissons Ratio (z) = 0.05589 0.02713
#
# Static dielectric constant tensor:
#      x y z
#    x 1.940150 0.026730 0.023690 
#    y 0.026730 1.979380 0.003740 
#    z 0.023690 0.003740 2.104980 
# 
# From -- ./inp_files/532584.got.cif
#   From: 2010.05.17/outbox.cif.g08.bks.cpg/sg2_267_cif.got.tgz:532584.got - 2010.06.03 11:33:40.
