data_PCOD9097369
_publ_section_title
;
Structure prediction by ZEFSAII (Michael W. Deem and Ramdas Pophale) SiO2 
 PCOD9097369
Probable space group: P -1
;
_chemical_formula_sum "Si O2"
_cell_formula_units_Z 12
_cell_length_a 9.076657
_cell_length_b 12.569105
_cell_length_c 5.105255
_cell_angle_alpha 118.584722
_cell_angle_beta 104.113233
_cell_angle_gamma 66.613512
_cell_volume 468.374894
_symmetry_space_group_name_H-M "P -1"
_symmetry_group_IT_number 2
_symmetry_cell_setting 'triclinic'
loop_
_space_group_symop_operation_xyz
x,y,z
-x,-y,-z
loop_
_atom_site_type_symbol
_atom_site_label
_atom_site_fract_x
_atom_site_fract_y
_atom_site_fract_z
Si Si1 0.393272 0.427505 0.015892
Si Si2 0.543284 0.866972 0.717381
Si Si3 0.222688 0.397780 0.383461
Si Si4 0.182110 0.094805 0.411986
Si Si5 0.009619 0.249164 0.020848
Si Si6 0.692976 0.199327 0.803214
O O1 0.270566 0.414610 0.722036
O O2 0.536173 0.294284 0.986572
O O3 0.500000 0.500000 0.000000
O O4 0.290514 0.475675 0.292716
O O5 0.667573 0.751083 0.787589
O O6 0.386563 0.831928 0.533845
O O7 0.646904 0.883320 0.529464
O O8 0.500000 0.000000 0.000000
O O9 0.948202 0.618953 0.777810
O O10 0.217688 0.943068 0.216579
O O11 0.934621 0.825523 0.770960
O O12 0.102835 0.154456 0.719211
O O13 0.823354 0.270116 0.916507
#
# Coordination Sequence:
#
# PCOD9097369 Si02
#       6
#     2   2   2   2   2   2
#     4  11  24  43  64  85 111 153 205 251 289 337
#     4  10  20  36  60  89 120 160 198 234 284 352
#     4  10  21  40  60  84 119 152 188 244 299 345
#     4  11  22  38  57  88 129 161 187 230 290 356
#     4  11  23  38  59  91 125 156 186 233 298 360
#     4  11  22  37  60  89 119 158 201 240 284 348
#
# _framework density 25.620501000000001
#
# number of rings (size 3 to 8) (size 9 to 14) (size 15 to 20)
#    0.000    1.333    0.000    8.000    0.000    5.333 
#    0.000    1.667    0.000    0.000    0.000    0.000 
#    0.000    0.000    0.000    0.000    0.000    0.000 
#
# Total GULP energy -67112.873372 kJ/mol
# GULP energy per Si atom -5592.739448 kJ/mol
# Density = 2.556219 g / cm^3
# Si number density = 25.620501 Si / 1000 Ang^3
#
#
#
# Elastic Constant Matrix: (Units=GPa)
#
#
# Indices 1 2 3 4 5 6 
#
# 1 140.8207 10.4724 22.9346 -8.4232 47.6849 -9.3086
# 2 10.4724 53.9634 -7.0838 7.2789 1.0473 -6.6708
# 3 22.9346 -7.0838 67.1950 -15.5505 10.9163 -10.4849
# 4 -8.4232 7.2789 -15.5505 28.6907 5.1535 1.9182
# 5 47.6849 1.0473 10.9163 5.1535 37.4947 -3.0705
# 6 -9.3086 -6.6708 -10.4849 1.9182 -3.0705 38.4207
#
#
#
# Elastic Compliance Matrix: (Units=1/GPa)
#
#
# Indices 1 2 3 4 5 6 
#
# 1 0.014538 -0.003490 -0.000037 0.008571 -0.019483 0.000921
# 2 -0.003490 0.020698 0.001765 -0.006398 0.004547 0.003912
# 3 -0.000037 0.001765 0.019434 0.010995 -0.006802 0.004508
# 4 0.008571 -0.006398 0.010995 0.048665 -0.020621 -0.000111
# 5 -0.019483 0.004547 -0.006802 -0.020621 0.056114 -0.000273
# 6 0.000921 0.003912 0.004508 -0.000111 -0.000273 0.028144
#
#
# Mechanical properties :
#
#
# Convention : Reuss Voigt Hill
#
# Bulk Modulus (GPa) = 19.55276 34.95838 27.25557
# Shear Modulus (GPa) = 24.01914 36.63163 30.32538
#
# Velocity S-wave (km/s) = 3.06518 3.78534 3.44414
# Velocity P-wave (km/s) = 4.49170 5.72533 5.14562
#
# Compressibility (1/GPa) = 0.05114369
#
# Stress axis : x y z
#
# Youngs Moduli (GPa) = 68.78563 48.31276 51.45681
#
# Poissons Ratio (x) = 0.16863 0.00193
# Poissons Ratio (y) = 0.24009 -0.09080
# Poissons Ratio (z) = 0.00257 -0.08525
#
# Static dielectric constant tensor:
#      x y z
#    x 2.124860 0.032630 -0.011850 
#    y 0.032630 2.073580 0.026340 
#    z -0.011850 0.026340 1.985590 
# 
# From -- ./inp_files/22489.got.cif
#   From: 2010.05.17/outbox.cif.g08.bks.cpg/sg2_12_cif.got.tgz:22489.got - 2010.06.03 11:33:40.
