data_PCOD9097129
_publ_section_title
;
Structure prediction by ZEFSAII (Michael W. Deem and Ramdas Pophale) SiO2 
 PCOD9097129
Probable space group: P -1
;
_chemical_formula_sum "Si O2"
_cell_formula_units_Z 12
_cell_length_a 14.702480
_cell_length_b 14.694684
_cell_length_c 11.579181
_cell_angle_alpha 27.874235
_cell_angle_beta 27.888699
_cell_angle_gamma 29.197423
_cell_volume 496.746786
_symmetry_space_group_name_H-M "P -1"
_symmetry_group_IT_number 2
_symmetry_cell_setting 'triclinic'
loop_
_space_group_symop_operation_xyz
x,y,z
-x,-y,-z
loop_
_atom_site_type_symbol
_atom_site_label
_atom_site_fract_x
_atom_site_fract_y
_atom_site_fract_z
Si Si1 0.825372 0.998488 0.607739
Si Si2 0.395193 0.125768 0.639561
Si Si3 0.059160 0.573751 0.228476
Si Si4 0.912319 0.307785 0.522082
Si Si5 0.500825 0.317619 0.084723
Si Si6 0.617043 0.708238 0.276809
O O1 0.933961 0.915483 0.455420
O O2 0.618814 0.225161 0.583865
O O3 0.737638 0.822538 0.940128
O O4 0.000000 0.000000 0.500000
O O5 0.140110 0.200923 0.822401
O O6 0.465597 0.264950 0.314952
O O7 0.422682 0.178334 0.680218
O O8 0.513222 0.879664 0.748756
O O9 0.036386 0.426742 0.315780
O O10 0.694723 0.470695 0.981416
O O11 0.000000 0.500000 0.500000
O O12 0.770074 0.462235 0.405313
O O13 0.734197 0.303061 0.815435
#
# Coordination Sequence:
#
# PCOD9097129 Si02
#       6
#     2   2   2   2   2   2
#     4  11  24  42  62  85 114 155 200 242 290 340
#     4   9  19  38  59  84 119 156 191 237 287 344
#     4   9  20  37  57  85 119 152 188 233 284 345
#     4  11  23  38  62  90 117 153 193 238 292 346
#     4  10  20  36  59  88 121 152 190 235 289 348
#     4  10  23  41  60  84 118 152 196 245 285 340
#
# _framework density 24.157177999999998
#
# number of rings (size 3 to 8) (size 9 to 14) (size 15 to 20)
#    0.000    2.000    0.000    2.500    0.000   12.000 
#    0.000   13.333    0.000    0.000    0.000    0.000 
#    0.000    0.000    0.000    0.000    0.000    0.000 
#
# Total GULP energy -67135.096462 kJ/mol
# GULP energy per Si atom -5594.591372 kJ/mol
# Density = 2.410220 g / cm^3
# Si number density = 24.157178 Si / 1000 Ang^3
#
#
#
# Elastic Constant Matrix: (Units=GPa)
#
#
# Indices 1 2 3 4 5 6 
#
# 1 74.8215 30.3270 8.6846 14.5483 -13.2716 -13.9502
# 2 30.3270 93.7393 20.3756 24.2467 -12.8806 -21.7195
# 3 8.6846 20.3756 91.2885 19.4896 6.7611 -2.3682
# 4 14.5483 24.2467 19.4896 29.4752 -3.8746 5.9734
# 5 -13.2716 -12.8806 6.7611 -3.8746 26.2426 9.3290
# 6 -13.9502 -21.7195 -2.3682 5.9734 9.3290 44.9058
#
#
#
# Elastic Compliance Matrix: (Units=1/GPa)
#
#
# Indices 1 2 3 4 5 6 
#
# 1 0.017274 -0.002103 0.000048 -0.007003 0.005160 0.004211
# 2 -0.002103 0.017810 -0.000519 -0.014888 0.002256 0.009445
# 3 0.000048 -0.000519 0.013805 -0.010216 -0.006428 0.003186
# 4 -0.007003 -0.014888 -0.010216 0.061415 0.007860 -0.019717
# 5 0.005160 0.002256 -0.006428 0.007860 0.047697 -0.008599
# 6 0.004211 0.009445 0.003186 -0.019717 -0.008599 0.032723
#
#
# Mechanical properties :
#
#
# Convention : Reuss Voigt Hill
#
# Bulk Modulus (GPa) = 22.86077 42.06928 32.46502
# Shear Modulus (GPa) = 23.75846 33.48887 28.62366
#
# Velocity S-wave (km/s) = 3.13947 3.72733 3.44596
# Velocity P-wave (km/s) = 4.75664 5.99805 5.41305
#
# Compressibility (1/GPa) = 0.04374306
#
# Stress axis : x y z
#
# Youngs Moduli (GPa) = 57.89016 56.14718 72.43565
#
# Poissons Ratio (x) = 0.11806 -0.00349
# Poissons Ratio (y) = 0.12173 0.03758
# Poissons Ratio (z) = -0.00279 0.02913
#
# Static dielectric constant tensor:
#      x y z
#    x 1.883710 -0.034290 0.002870 
#    y -0.034290 1.914450 0.006830 
#    z 0.002870 0.006830 1.932560 
# 
# From -- ./inp_files/454269.got.cif
#   From: 2010.05.17/outbox.cif.g08.bks.cpg/sg2_228_cif.got.tgz:454269.got - 2010.06.03 11:33:40.
