data_PCOD9097184
_publ_section_title
;
Structure prediction by ZEFSAII (Michael W. Deem and Ramdas Pophale) SiO2 
 PCOD9097184
Probable space group: P -1
;
_chemical_formula_sum "Si O2"
_cell_formula_units_Z 14
_cell_length_a 10.982043
_cell_length_b 8.256492
_cell_length_c 8.623477
_cell_angle_alpha 50.008633
_cell_angle_beta 66.348188
_cell_angle_gamma 88.479249
_cell_volume 518.081552
_symmetry_space_group_name_H-M "P -1"
_symmetry_group_IT_number 2
_symmetry_cell_setting 'triclinic'
loop_
_space_group_symop_operation_xyz
x,y,z
-x,-y,-z
loop_
_atom_site_type_symbol
_atom_site_label
_atom_site_fract_x
_atom_site_fract_y
_atom_site_fract_z
Si Si1 0.403069 0.612795 0.572495
Si Si2 0.629497 0.041299 0.190645
Si Si3 0.007771 0.657331 0.746708
Si Si4 0.846667 0.792340 0.117482
Si Si5 0.326781 0.487483 0.032674
Si Si6 0.021746 0.203062 0.648192
Si Si7 0.734611 0.924785 0.521617
O O1 0.500000 0.500000 0.500000
O O2 0.472260 0.874997 0.338341
O O3 0.245523 0.465669 0.698788
O O4 0.406090 0.570685 0.779663
O O5 0.738177 0.929517 0.127588
O O6 0.660587 0.024831 0.367834
O O7 0.659395 0.302921 0.989197
O O8 0.024036 0.657921 0.544743
O O9 0.840222 0.621605 0.848338
O O10 0.143062 0.877591 0.579449
O O11 0.000000 0.500000 0.000000
O O12 0.970319 0.779678 0.179606
O O13 0.928022 0.941344 0.840935
O O14 0.365904 0.274290 0.202484
O O15 0.181570 0.213863 0.531328
#
# Coordination Sequence:
#
# PCOD9097184 Si02
#       7
#     2   2   2   2   2   2   2
#     4  10  21  38  63  87 121 167 206 253 315 364
#     4  10  21  37  61  92 120 162 211 257 299 366
#     4  11  20  35  61  95 126 157 206 256 312 371
#     4   9  18  37  63  88 131 167 199 251 313 376
#     4  11  21  38  64  88 124 161 208 264 304 361
#     4   9  18  34  62  89 121 167 201 245 317 370
#     4  10  20  36  59  91 124 158 204 252 318 361
#
# _framework density 27.022772
#
# number of rings (size 3 to 8) (size 9 to 14) (size 15 to 20)
#    0.000    2.000    1.429    3.857    0.000    0.571 
#    0.000    2.857    9.429   15.429    0.000    0.000 
#    0.000    0.000    0.000    0.000    0.000    0.000 
#
# Total GULP energy -78022.911272 kJ/mol
# GULP energy per Si atom -5573.065091 kJ/mol
# Density = 2.696127 g / cm^3
# Si number density = 27.022772 Si / 1000 Ang^3
#
#
#
# Elastic Constant Matrix: (Units=GPa)
#
#
# Indices 1 2 3 4 5 6 
#
# 1 94.1025 22.5477 40.3071 -19.3100 4.3024 19.8101
# 2 22.5477 77.4492 55.2570 -42.2715 -5.3616 0.6765
# 3 40.3071 55.2570 166.8936 -32.8135 13.9695 2.4542
# 4 -19.3100 -42.2715 -32.8135 57.7070 7.5709 -5.9096
# 5 4.3024 -5.3616 13.9695 7.5709 52.0052 -10.8697
# 6 19.8101 0.6765 2.4542 -5.9096 -10.8697 44.0759
#
#
#
# Elastic Compliance Matrix: (Units=1/GPa)
#
#
# Indices 1 2 3 4 5 6 
#
# 1 0.013751 -0.001532 -0.002150 0.001911 -0.002324 -0.006354
# 2 -0.001532 0.025677 -0.005419 0.015198 0.002707 0.003301
# 3 -0.002150 -0.005419 0.008658 0.000598 -0.002803 -0.000044
# 4 0.001911 0.015198 0.000598 0.030019 -0.002653 0.002245
# 5 -0.002324 0.002707 -0.002803 -0.002653 0.022149 0.006266
# 6 -0.006354 0.003301 -0.000044 0.002245 0.006266 0.027342
#
#
# Mechanical properties :
#
#
# Convention : Reuss Voigt Hill
#
# Bulk Modulus (GPa) = 33.46121 63.85211 48.65666
# Shear Modulus (GPa) = 32.10103 45.44653 38.77378
#
# Velocity S-wave (km/s) = 3.45037 4.10541 3.79206
# Velocity P-wave (km/s) = 5.31816 6.79358 6.10064
#
# Compressibility (1/GPa) = 0.02988535
#
# Stress axis : x y z
#
# Youngs Moduli (GPa) = 72.72360 38.94487 115.50153
#
# Poissons Ratio (x) = 0.05965 0.24835
# Poissons Ratio (y) = 0.11138 0.62585
# Poissons Ratio (z) = 0.15637 0.21102
#
# Static dielectric constant tensor:
#      x y z
#    x 2.144490 -0.060630 0.001210 
#    y -0.060630 2.451210 0.045140 
#    z 0.001210 0.045140 2.180220 
# 
# From -- ./inp_files/297365.got.cif
#   From: 2010.05.17/outbox.cif.g08.bks.cpg/sg2_149_cif.got.tgz:297365.got - 2010.06.03 11:33:40.
