data_PCOD9097962
_publ_section_title
;
Structure prediction by ZEFSAII (Michael W. Deem and Ramdas Pophale) SiO2 
 PCOD9097962
Probable space group: P -1
;
_chemical_formula_sum "Si O2"
_cell_formula_units_Z 16
_cell_length_a 5.435748
_cell_length_b 8.754285
_cell_length_c 28.601647
_cell_angle_alpha 28.828891
_cell_angle_beta 84.645705
_cell_angle_gamma 93.297955
_cell_volume 625.323158
_symmetry_space_group_name_H-M "P -1"
_symmetry_group_IT_number 2
_symmetry_cell_setting 'triclinic'
loop_
_space_group_symop_operation_xyz
x,y,z
-x,-y,-z
loop_
_atom_site_type_symbol
_atom_site_label
_atom_site_fract_x
_atom_site_fract_y
_atom_site_fract_z
Si Si1 0.888947 0.102321 0.101129
Si Si2 0.934604 0.324128 0.221398
Si Si3 0.516884 0.630425 0.106746
Si Si4 0.176032 0.838618 0.509351
Si Si5 0.436489 0.238836 0.029534
Si Si6 0.536206 0.988905 0.390047
Si Si7 0.704961 0.787249 0.288996
Si Si8 0.717882 0.391175 0.588835
O O1 0.648051 0.042060 0.086112
O O2 0.140105 0.019080 0.098354
O O3 0.793775 0.937111 0.196786
O O4 0.000000 0.500000 0.000000
O O5 0.772294 0.569175 0.140258
O O6 0.241619 0.455443 0.181353
O O7 0.804329 0.203427 0.306079
O O8 0.863493 0.026501 0.263638
O O9 0.522464 0.535922 0.077515
O O10 0.500000 0.000000 0.000000
O O11 0.008000 0.593887 0.538571
O O12 0.388411 0.104873 0.403685
O O13 0.266498 0.581241 0.608665
O O14 0.000000 0.000000 0.500000
O O15 0.500000 0.500000 0.000000
O O16 0.585886 0.664515 0.499288
O O17 0.355807 0.884748 0.375477
O O18 0.412874 0.747922 0.322210
#
# Coordination Sequence:
#
# PCOD9097962 Si02
#       8
#     2   2   2   2   2   2   2   2
#     4  10  20  36  62  96 129 168 227 280 324 391
#     4  11  24  42  75 101 135 183 241 285 338 429
#     4  12  26  46  67 102 144 180 228 292 362 402
#     4  11  24  42  67 100 148 179 220 297 361 419
#     4  10  20  38  63  88 127 176 218 274 329 398
#     4   9  21  40  67 103 124 183 234 286 342 414
#     4  10  23  39  67 105 129 187 238 282 345 409
#     4   9  20  40  67  93 138 174 234 288 339 423
#
# _framework density 25.586770999999999
#
# number of rings (size 3 to 8) (size 9 to 14) (size 15 to 20)
#    0.000    1.750    0.000    5.250    7.000    2.000 
#    2.250    2.500    0.000    0.000    0.000    0.000 
#    0.000    0.000    0.000    0.000    0.000    0.000 
#
# Total GULP energy -89487.377097 kJ/mol
# GULP energy per Si atom -5592.961069 kJ/mol
# Density = 2.552853 g / cm^3
# Si number density = 25.586771 Si / 1000 Ang^3
#
#
#
# Elastic Constant Matrix: (Units=GPa)
#
#
# Indices 1 2 3 4 5 6 
#
# 1 161.2820 39.5735 51.1783 22.7435 -10.2693 -13.9618
# 2 39.5735 78.4656 47.7335 22.5690 5.9504 -23.8967
# 3 51.1783 47.7335 151.5971 51.8962 -6.2221 -25.2447
# 4 22.7435 22.5690 51.8962 50.3951 -12.8168 -12.2105
# 5 -10.2693 5.9504 -6.2221 -12.8168 46.1794 0.5097
# 6 -13.9618 -23.8967 -25.2447 -12.2105 0.5097 39.6142
#
#
#
# Elastic Compliance Matrix: (Units=1/GPa)
#
#
# Indices 1 2 3 4 5 6 
#
# 1 0.007543 -0.003068 -0.001525 -0.000035 0.001860 -0.000199
# 2 -0.003068 0.019909 -0.002723 -0.004009 -0.004816 0.008020
# 3 -0.001525 -0.002723 0.011670 -0.009870 -0.001180 0.002230
# 4 -0.000035 -0.004009 -0.009870 0.034472 0.008727 0.001793
# 5 0.001860 -0.004816 -0.001180 0.008727 0.024959 -0.000633
# 6 -0.000199 0.008020 0.002230 0.001793 -0.000633 0.031993
#
#
# Mechanical properties :
#
#
# Convention : Reuss Voigt Hill
#
# Bulk Modulus (GPa) = 40.83277 74.25725 57.54501
# Shear Modulus (GPa) = 32.60682 44.09503 38.35092
#
# Velocity S-wave (km/s) = 3.57369 4.15583 3.87571
# Velocity P-wave (km/s) = 5.74644 7.21891 6.52435
#
# Compressibility (1/GPa) = 0.02449013
#
# Stress axis : x y z
#
# Youngs Moduli (GPa) = 132.56846 50.22906 85.68652
#
# Poissons Ratio (x) = 0.15411 0.13071
# Poissons Ratio (y) = 0.40673 0.23330
# Poissons Ratio (z) = 0.20223 0.13676
#
# Static dielectric constant tensor:
#      x y z
#    x 2.084060 -0.073390 0.008460 
#    y -0.073390 1.785480 0.321730 
#    z 0.008460 0.321730 1.791650 
# 
# From -- ./inp_files/621713.got.cif
#   From: 2010.05.17/outbox.cif.g08.bks.cpg/sg2_311_cif.got.tgz:621713.got - 2010.06.03 11:33:40.
