data_PCOD9097563
_publ_section_title
;
Structure prediction by ZEFSAII (Michael W. Deem and Ramdas Pophale) SiO2 
 PCOD9097563
Probable space group: P -1
;
_chemical_formula_sum "Si O2"
_cell_formula_units_Z 12
_cell_length_a 9.275556
_cell_length_b 6.714167
_cell_length_c 12.870104
_cell_angle_alpha 129.793239
_cell_angle_beta 114.702100
_cell_angle_gamma 84.113353
_cell_volume 543.663631
_symmetry_space_group_name_H-M "P -1"
_symmetry_group_IT_number 2
_symmetry_cell_setting 'triclinic'
loop_
_space_group_symop_operation_xyz
x,y,z
-x,-y,-z
loop_
_atom_site_type_symbol
_atom_site_label
_atom_site_fract_x
_atom_site_fract_y
_atom_site_fract_z
Si Si1 0.538522 0.870197 0.234410
Si Si2 0.698658 0.380177 0.108832
Si Si3 0.232572 0.776263 0.246139
Si Si4 0.990990 0.276946 0.042255
Si Si5 0.933532 0.884478 0.553385
Si Si6 0.773417 0.253246 0.303187
O O1 0.647288 0.654619 0.210890
O O2 0.415924 0.865405 0.290689
O O3 0.648302 0.153805 0.326149
O O4 0.422428 0.761535 0.064762
O O5 0.880347 0.421674 0.129820
O O6 0.691582 0.197594 0.147411
O O7 0.171704 0.464989 0.151983
O O8 0.191276 0.955153 0.385468
O O9 0.107153 0.783921 0.115545
O O10 0.000000 0.000000 0.000000
O O11 0.851094 0.568711 0.425045
O O12 0.085422 0.901382 0.683759
O O13 0.000000 0.000000 0.500000
#
# Coordination Sequence:
#
# PCOD9097563 Si02
#       6
#     2   2   2   2   2   2
#     4  10  22  38  61  92 123 154 188 244 305 351
#     4  10  21  39  62  90 124 154 192 241 297 354
#     4  10  22  38  57  88 121 150 196 247 292 345
#     4  10  20  36  61  88 117 154 196 243 291 347
#     4  11  24  42  62  84 116 161 205 245 287 345
#     4  11  22  39  63  86 115 160 202 236 292 357
#
# _framework density 22.072474
#
# number of rings (size 3 to 8) (size 9 to 14) (size 15 to 20)
#    0.000    1.667    0.000    4.500    0.000   10.000 
#    0.000    3.333    0.000    0.000    0.000    0.000 
#    0.000    0.000    0.000    0.000    0.000    0.000 
#
# Total GULP energy -67075.535165 kJ/mol
# GULP energy per Si atom -5589.627930 kJ/mol
# Density = 2.202224 g / cm^3
# Si number density = 22.072474 Si / 1000 Ang^3
#
#
#
# Elastic Constant Matrix: (Units=GPa)
#
#
# Indices 1 2 3 4 5 6 
#
# 1 154.8690 63.6944 41.4682 6.1817 -21.9416 32.3299
# 2 63.6944 147.3449 31.3922 2.2527 -5.8955 17.6585
# 3 41.4682 31.3922 29.2020 -3.3941 -16.1293 -5.2835
# 4 6.1817 2.2527 -3.3941 30.6759 0.0186 9.8429
# 5 -21.9416 -5.8955 -16.1293 0.0186 38.7306 -1.7687
# 6 32.3299 17.6585 -5.2835 9.8429 -1.7687 34.7507
#
#
#
# Elastic Compliance Matrix: (Units=1/GPa)
#
#
# Indices 1 2 3 4 5 6 
#
# 1 0.021701 0.002807 -0.042430 -0.000179 -0.006242 -0.028334
# 2 0.002807 0.011463 -0.022028 0.000050 -0.006392 -0.012125
# 3 -0.042430 -0.022028 0.154465 0.003060 0.040376 0.075341
# 4 -0.000179 0.000050 0.003060 0.036038 0.000726 -0.009564
# 5 -0.006242 -0.006392 0.040376 0.000726 0.038899 0.016968
# 6 -0.028334 -0.012125 0.075341 -0.009564 0.016968 0.076326
#
#
# Mechanical properties :
#
#
# Convention : Reuss Voigt Hill
#
# Bulk Modulus (GPa) = 15.54528 67.16949 41.35738
# Shear Modulus (GPa) = 10.33833 33.82218 22.08025
#
# Velocity S-wave (km/s) = 2.16656 3.91874 3.16627
# Velocity P-wave (km/s) = 3.64921 7.13952 5.66963
#
# Compressibility (1/GPa) = 0.06432822
#
# Stress axis : x y z
#
# Youngs Moduli (GPa) = 46.08000 87.23757 6.47394
#
# Poissons Ratio (x) = -0.24492 0.27469
# Poissons Ratio (y) = -0.12937 0.14261
# Poissons Ratio (z) = 1.95518 1.92167
#
# Static dielectric constant tensor:
#      x y z
#    x 1.820100 0.027900 0.028770 
#    y 0.027900 1.778190 -0.014290 
#    z 0.028770 -0.014290 1.859730 
# 
# From -- ./inp_files/22707.got.cif
#   From: 2010.05.17/outbox.cif.g08.bks.cpg/sg2_12_cif.got.tgz:22707.got - 2010.06.03 11:33:40.
