data_PCOD9097919
_publ_section_title
;
Structure prediction by ZEFSAII (Michael W. Deem and Ramdas Pophale) SiO2 
 PCOD9097919
Probable space group: P -1
;
_chemical_formula_sum "Si O2"
_cell_formula_units_Z 16
_cell_length_a 27.628222
_cell_length_b 5.910338
_cell_length_c 6.732041
_cell_angle_alpha 106.710723
_cell_angle_beta 139.835174
_cell_angle_gamma 78.080533
_cell_volume 678.930905
_symmetry_space_group_name_H-M "P -1"
_symmetry_group_IT_number 2
_symmetry_cell_setting 'triclinic'
loop_
_space_group_symop_operation_xyz
x,y,z
-x,-y,-z
loop_
_atom_site_type_symbol
_atom_site_label
_atom_site_fract_x
_atom_site_fract_y
_atom_site_fract_z
Si Si1 0.397736 0.255369 0.646270
Si Si2 0.484884 0.642616 0.285882
Si Si3 0.231363 0.256701 0.573661
Si Si4 0.740493 0.484792 0.662421
Si Si5 0.882583 0.429157 0.510429
Si Si6 0.634032 0.050095 0.161738
Si Si7 0.130760 0.845630 0.941580
Si Si8 0.017968 0.755623 0.885498
O O1 0.442053 0.268200 0.583017
O O2 0.309031 0.305426 0.351308
O O3 0.403009 0.049131 0.775418
O O4 0.438281 0.464252 0.952031
O O5 0.500000 0.500000 0.500000
O O6 0.427271 0.857189 0.159800
O O7 0.255067 0.453702 0.538725
O O8 0.187941 0.400203 0.640821
O O9 0.308870 0.123004 0.813705
O O10 0.174684 0.064864 0.238927
O O11 0.688485 0.255296 0.468332
O O12 0.822528 0.396917 0.948585
O O13 0.872672 0.170897 0.311104
O O14 0.947201 0.579080 0.636723
O O15 0.915676 0.372560 0.817576
O O16 0.050815 0.816452 0.788473
O O17 0.000000 0.000000 0.000000
#
# Coordination Sequence:
#
# PCOD9097919 Si02
#       8
#     2   2   2   2   2   2   2   2
#     4   9  19  38  61  87 127 169 211 263 325 378
#     4  10  20  36  62  93 127 167 214 265 319 385
#     4  10  20  41  64  90 131 166 219 270 321 384
#     4   9  19  39  62  86 127 164 208 272 317 377
#     4  11  24  40  65  92 124 169 210 269 326 384
#     4   9  19  37  65  87 126 179 207 268 328 374
#     4  11  22  40  65  91 124 168 215 259 331 390
#     4  11  23  42  62  92 128 164 211 269 322 389
#
# _framework density 23.566462000000001
#
# number of rings (size 3 to 8) (size 9 to 14) (size 15 to 20)
#    0.000    2.000    2.500    0.750    0.000    2.000 
#    6.750    0.000   11.000    0.000    0.000    0.000 
#    0.000    0.000    0.000    0.000    0.000    0.000 
#
# Total GULP energy -89227.472538 kJ/mol
# GULP energy per Si atom -5576.717034 kJ/mol
# Density = 2.351282 g / cm^3
# Si number density = 23.566462 Si / 1000 Ang^3
#
#
#
# Elastic Constant Matrix: (Units=GPa)
#
#
# Indices 1 2 3 4 5 6 
#
# 1 153.1299 39.2502 30.1031 -8.4728 -7.8451 -8.1232
# 2 39.2502 75.0893 18.1681 -7.0086 -12.1028 1.0058
# 3 30.1031 18.1681 48.5579 -7.6365 -9.1240 -13.2121
# 4 -8.4728 -7.0086 -7.6365 40.6128 -13.6731 2.6898
# 5 -7.8451 -12.1028 -9.1240 -13.6731 22.0571 3.6526
# 6 -8.1232 1.0058 -13.2121 2.6898 3.6526 28.2815
#
#
#
# Elastic Compliance Matrix: (Units=1/GPa)
#
#
# Indices 1 2 3 4 5 6 
#
# 1 0.008155 -0.003466 -0.003594 0.000204 -0.000499 0.000831
# 2 -0.003466 0.018540 -0.002780 0.006589 0.012740 -0.005226
# 3 -0.003594 -0.002780 0.030586 0.008228 0.013148 0.010874
# 4 0.000204 0.006589 0.008228 0.038201 0.031439 -0.004026
# 5 -0.000499 0.012740 0.013148 0.031439 0.078329 -0.007561
# 6 0.000831 -0.005226 0.010874 -0.004026 -0.007561 0.042223
#
#
# Mechanical properties :
#
#
# Convention : Reuss Voigt Hill
#
# Bulk Modulus (GPa) = 26.59520 50.20220 38.39870
# Shear Modulus (GPa) = 20.14119 30.80733 25.47426
#
# Velocity S-wave (km/s) = 2.92662 3.61952 3.29135
# Velocity P-wave (km/s) = 4.76758 6.23029 5.54736
#
# Compressibility (1/GPa) = 0.03760077
#
# Stress axis : x y z
#
# Youngs Moduli (GPa) = 122.62147 53.93717 32.69510
#
# Poissons Ratio (x) = 0.18692 0.11752
# Poissons Ratio (y) = 0.42496 0.09089
# Poissons Ratio (z) = 0.44075 0.14995
#
# Static dielectric constant tensor:
#      x y z
#    x 1.884940 -0.035870 -0.010390 
#    y -0.035870 1.963800 -0.013360 
#    z -0.010390 -0.013360 2.036610 
# 
# From -- ./inp_files/125904.got.cif
#   From: 2010.05.17/outbox.cif.g08.bks.cpg/sg2_63_cif.got.tgz:125904.got - 2010.06.03 11:33:40.
