data_PCOD9097852
_publ_section_title
;
Structure prediction by ZEFSAII (Michael W. Deem and Ramdas Pophale) SiO2 
 PCOD9097852
Probable space group: P -1
;
_chemical_formula_sum "Si O2"
_cell_formula_units_Z 14
_cell_length_a 9.043670
_cell_length_b 16.309097
_cell_length_c 5.133260
_cell_angle_alpha 109.732953
_cell_angle_beta 51.612526
_cell_angle_gamma 113.245853
_cell_volume 540.758914
_symmetry_space_group_name_H-M "P -1"
_symmetry_group_IT_number 2
_symmetry_cell_setting 'triclinic'
loop_
_space_group_symop_operation_xyz
x,y,z
-x,-y,-z
loop_
_atom_site_type_symbol
_atom_site_label
_atom_site_fract_x
_atom_site_fract_y
_atom_site_fract_z
Si Si1 0.441821 0.225146 0.000956
Si Si2 0.336891 0.903251 0.258606
Si Si3 0.876892 0.509931 0.397601
Si Si4 0.155734 0.316989 0.631313
Si Si5 0.536286 0.337292 0.505453
Si Si6 0.901464 0.179417 0.068990
Si Si7 0.876152 0.957403 0.338509
O O1 0.464417 0.125543 0.928779
O O2 0.510126 0.264975 0.688092
O O3 0.229731 0.239417 0.312507
O O4 0.575145 0.289540 0.142256
O O5 0.194434 0.841857 0.566306
O O6 0.250880 0.874798 0.036283
O O7 0.317383 0.005318 0.423486
O O8 0.849381 0.609251 0.497696
O O9 0.683886 0.429636 0.516254
O O10 0.000000 0.500000 0.500000
O O11 0.000000 0.500000 0.000000
O O12 0.330459 0.358047 0.683011
O O13 0.969465 0.277939 0.973603
O O14 0.100851 0.143866 0.808058
O O15 0.000000 0.000000 0.500000
O O16 0.000000 0.000000 0.000000
#
# Coordination Sequence:
#
# PCOD9097852 Si02
#       7
#     2   2   2   2   2   2   2
#     4  10  23  39  64  86 123 167 202 239 317 361
#     4  10  20  36  62  90 124 161 207 249 295 357
#     4  12  28  43  67  93 119 155 213 257 302 362
#     4  10  27  41  65  88 129 159 203 250 318 360
#     4  10  24  44  61  86 128 162 197 244 322 363
#     4  10  21  35  64  91 122 157 211 252 295 354
#     4   8  16  33  54  88 122 159 195 250 301 345
#
# _framework density 25.889541999999999
#
# number of rings (size 3 to 8) (size 9 to 14) (size 15 to 20)
#    0.857    1.143    0.000    2.143   10.000    0.571 
#    0.000    0.714    0.000    0.857    0.000    0.000 
#    0.000    0.000    0.000    0.000    0.000    0.000 
#
# Total GULP energy -78323.895247 kJ/mol
# GULP energy per Si atom -5594.563946 kJ/mol
# Density = 2.583062 g / cm^3
# Si number density = 25.889542 Si / 1000 Ang^3
#
#
#
# Elastic Constant Matrix: (Units=GPa)
#
#
# Indices 1 2 3 4 5 6 
#
# 1 125.9663 54.6169 47.1291 -9.5741 22.0140 -22.8692
# 2 54.6169 103.1154 24.8180 -19.9627 3.6688 -26.7992
# 3 47.1291 24.8180 97.0010 -6.8517 25.6935 -12.4876
# 4 -9.5741 -19.9627 -6.8517 35.9627 -19.0924 -5.9097
# 5 22.0140 3.6688 25.6935 -19.0924 51.0751 6.2672
# 6 -22.8692 -26.7992 -12.4876 -5.9097 6.2672 61.0452
#
#
#
# Elastic Compliance Matrix: (Units=1/GPa)
#
#
# Indices 1 2 3 4 5 6 
#
# 1 0.012612 -0.005750 -0.003435 -0.002581 -0.004469 0.001706
# 2 -0.005750 0.016402 -0.001399 0.011096 0.005505 0.005269
# 3 -0.003435 -0.001399 0.014089 -0.002230 -0.006516 0.001434
# 4 -0.002581 0.011096 -0.002230 0.042666 0.016666 0.005867
# 5 -0.004469 0.005505 -0.006516 0.016666 0.030881 -0.002147
# 6 0.001706 0.005269 0.001434 0.005867 -0.002147 0.020416
#
#
# Mechanical properties :
#
#
# Convention : Reuss Voigt Hill
#
# Bulk Modulus (GPa) = 45.59077 64.35674 54.97376
# Shear Modulus (GPa) = 30.20308 42.91784 36.56046
#
# Velocity S-wave (km/s) = 3.41928 4.07594 3.76196
# Velocity P-wave (km/s) = 5.76512 6.86026 6.33639
#
# Compressibility (1/GPa) = 0.02193427
#
# Stress axis : x y z
#
# Youngs Moduli (GPa) = 79.29066 60.96820 70.97648
#
# Poissons Ratio (x) = 0.35059 0.24382
# Poissons Ratio (y) = 0.45596 0.09927
# Poissons Ratio (z) = 0.27238 0.08527
#
# Static dielectric constant tensor:
#      x y z
#    x 2.021440 -0.049370 -0.078040 
#    y -0.049370 2.103730 0.091610 
#    z -0.078040 0.091610 2.070750 
# 
# From -- ./inp_files/39622.got.cif
#   From: 2010.05.17/outbox.cif.g08.bks.cpg/sg2_20_cif.got.tgz:39622.got - 2010.06.03 11:33:40.
