data_PCOD9097122
_publ_section_title
;
Structure prediction by ZEFSAII (Michael W. Deem and Ramdas Pophale) SiO2 
 PCOD9097122
Probable space group: P -1
;
_chemical_formula_sum "Si O2"
_cell_formula_units_Z 14
_cell_length_a 12.097163
_cell_length_b 17.719229
_cell_length_c 9.084064
_cell_angle_alpha 39.760438
_cell_angle_beta 131.342808
_cell_angle_gamma 152.894509
_cell_volume 565.549009
_symmetry_space_group_name_H-M "P -1"
_symmetry_group_IT_number 2
_symmetry_cell_setting 'triclinic'
loop_
_space_group_symop_operation_xyz
x,y,z
-x,-y,-z
loop_
_atom_site_type_symbol
_atom_site_label
_atom_site_fract_x
_atom_site_fract_y
_atom_site_fract_z
Si Si1 0.259229 0.825101 0.896171
Si Si2 0.949011 0.204770 0.543213
Si Si3 0.112288 0.089104 0.702644
Si Si4 0.300743 0.574862 0.697934
Si Si5 0.612331 0.351469 0.662602
Si Si6 0.869233 0.740062 0.823932
Si Si7 0.244615 0.794864 0.358637
O O1 0.155853 0.791828 0.693997
O O2 0.105173 0.811960 0.884237
O O3 0.543827 0.035899 0.820709
O O4 0.239531 0.675410 0.144058
O O5 0.779108 0.128509 0.645136
O O6 0.987709 0.092249 0.708931
O O7 0.212923 0.428536 0.475529
O O8 0.378601 0.203329 0.785284
O O9 0.170334 0.215788 0.428156
O O10 0.936644 0.875539 0.807273
O O11 0.452509 0.682564 0.518441
O O12 0.315883 0.706969 0.600187
O O13 0.024604 0.386334 0.675042
O O14 0.333156 0.481744 0.967736
#
# Coordination Sequence:
#
# PCOD9097122 Si02
#       7
#     2   2   2   2   2   2   2
#     4  11  21  37  63  85 110 149 193 236 277 327
#     4  10  22  39  56  84 118 148 186 233 281 336
#     4  10  22  39  59  83 116 152 186 226 284 343
#     4  10  21  36  58  87 115 143 188 240 280 325
#     4  11  22  38  60  85 113 150 191 233 279 332
#     4  10  21  39  60  85 114 147 188 235 280 333
#     4  10  20  36  59  88 115 144 187 237 283 329
#
# _framework density 24.754705000000001
#
# number of rings (size 3 to 8) (size 9 to 14) (size 15 to 20)
#    0.000    1.714    0.000    5.571    0.000    3.429 
#    0.000    7.857    0.000    0.000    0.000    0.000 
#    0.000    0.000    0.000    0.000    0.000    0.000 
#
# Total GULP energy -78363.846700 kJ/mol
# GULP energy per Si atom -5597.417621 kJ/mol
# Density = 2.469836 g / cm^3
# Si number density = 24.754705 Si / 1000 Ang^3
#
#
#
# Elastic Constant Matrix: (Units=GPa)
#
#
# Indices 1 2 3 4 5 6 
#
# 1 207.0396 28.8492 40.4580 -14.7236 14.6533 -6.8786
# 2 28.8492 27.0509 -9.9035 4.6110 -2.7633 3.2912
# 3 40.4580 -9.9035 96.7413 -14.0230 6.6999 -5.6219
# 4 -14.7236 4.6110 -14.0230 23.8142 2.3676 3.0939
# 5 14.6533 -2.7633 6.6999 2.3676 31.0380 -8.1435
# 6 -6.8786 3.2912 -5.6219 3.0939 -8.1435 35.6883
#
#
#
# Elastic Compliance Matrix: (Units=1/GPa)
#
#
# Indices 1 2 3 4 5 6 
#
# 1 0.007629 -0.010691 -0.003209 0.005233 -0.004113 0.000558
# 2 -0.010691 0.054557 0.007366 -0.013324 0.008592 -0.002816
# 3 -0.003209 0.007366 0.013148 0.004405 -0.000958 0.000173
# 4 0.005233 -0.013324 0.004405 0.051836 -0.009543 -0.003740
# 5 -0.004113 0.008592 -0.000958 -0.009543 0.037890 0.007737
# 6 0.000558 -0.002816 0.000173 -0.003740 0.007737 0.030505
#
#
# Mechanical properties :
#
#
# Convention : Reuss Voigt Hill
#
# Bulk Modulus (GPa) = 16.06013 49.95990 33.01002
# Shear Modulus (GPa) = 21.79733 36.20332 29.00032
#
# Velocity S-wave (km/s) = 2.97060 3.82839 3.42644
# Velocity P-wave (km/s) = 4.27408 6.30618 5.38682
#
# Compressibility (1/GPa) = 0.06226599
#
# Stress axis : x y z
#
# Youngs Moduli (GPa) = 131.08707 18.32953 76.05872
#
# Poissons Ratio (x) = 0.19595 0.24406
# Poissons Ratio (y) = 1.40140 -0.56024
# Poissons Ratio (z) = 0.42063 -0.13501
#
# Static dielectric constant tensor:
#      x y z
#    x 1.950950 0.014140 0.014200 
#    y 0.014140 1.960890 0.046740 
#    z 0.014200 0.046740 2.006710 
# 
# From -- ./inp_files/262225.got.cif
#   From: 2010.05.17/outbox.cif.g08.bks.cpg/sg2_132_cif.got.tgz:262225.got - 2010.06.03 11:33:40.
