data_PCOD9097630
_publ_section_title
;
Structure prediction by ZEFSAII (Michael W. Deem and Ramdas Pophale) SiO2 
 PCOD9097630
Probable space group: P -1
;
_chemical_formula_sum "Si O2"
_cell_formula_units_Z 16
_cell_length_a 15.599581
_cell_length_b 23.228468
_cell_length_c 25.997069
_cell_angle_alpha 10.093192
_cell_angle_beta 157.360935
_cell_angle_gamma 156.748203
_cell_volume 628.280665
_symmetry_space_group_name_H-M "P -1"
_symmetry_group_IT_number 2
_symmetry_cell_setting 'triclinic'
loop_
_space_group_symop_operation_xyz
x,y,z
-x,-y,-z
loop_
_atom_site_type_symbol
_atom_site_label
_atom_site_fract_x
_atom_site_fract_y
_atom_site_fract_z
Si Si1 0.654368 0.290741 0.073776
Si Si2 0.192485 0.341302 0.715612
Si Si3 0.412264 0.217902 0.655727
Si Si4 0.900758 0.910884 0.618596
Si Si5 0.647894 0.596207 0.358762
Si Si6 0.476533 0.660809 0.746114
Si Si7 0.058451 0.012697 0.193648
Si Si8 0.303995 0.729008 0.717559
O O1 0.415388 0.272908 0.928152
O O2 0.587422 0.467163 0.933648
O O3 0.843164 0.518938 0.943532
O O4 0.772932 0.991287 0.424956
O O5 0.285197 0.543086 0.537390
O O6 0.000000 0.500000 0.500000
O O7 0.064381 0.008571 0.910881
O O8 0.500000 0.500000 0.500000
O O9 0.151168 0.114007 0.585680
O O10 0.542372 0.353723 0.557042
O O11 0.483600 0.868864 0.018914
O O12 0.775990 0.055072 0.471181
O O13 0.880600 0.831712 0.295411
O O14 0.245499 0.771007 0.503577
O O15 0.641876 0.019329 0.521528
O O16 0.477157 0.414678 0.011360
O O17 0.132191 0.392737 0.913534
#
# Coordination Sequence:
#
# PCOD9097630 Si02
#       8
#     2   2   2   2   2   2   2   2
#     4  10  20  43  62 100 127 184 223 272 327 412
#     4  10  22  47  72  99 143 187 228 283 327 406
#     4  12  24  47  69 102 136 177 225 291 348 407
#     4  10  23  39  70  90 136 173 224 277 352 385
#     4  10  26  40  69 101 133 172 238 267 344 402
#     4  10  20  36  61  90 134 168 217 263 346 394
#     4  10  21  39  62  95 132 172 221 272 342 391
#     4  10  21  36  58  97 126 169 215 277 327 422
#
# _framework density 25.466325000000001
#
# number of rings (size 3 to 8) (size 9 to 14) (size 15 to 20)
#    0.750    1.000    1.250    2.625    0.000    6.000 
#    0.000    6.250    0.000    0.000    0.000    0.000 
#    0.000    0.000    0.000    0.000    0.000    0.000 
#
# Total GULP energy -89341.968536 kJ/mol
# GULP energy per Si atom -5583.873034 kJ/mol
# Density = 2.540836 g / cm^3
# Si number density = 25.466325 Si / 1000 Ang^3
#
#
#
# Elastic Constant Matrix: (Units=GPa)
#
#
# Indices 1 2 3 4 5 6 
#
# 1 118.6102 24.0966 50.6639 8.0997 -31.1012 7.7075
# 2 24.0966 121.7808 27.0747 21.4780 -26.0109 8.1149
# 3 50.6639 27.0747 99.1869 6.5148 -27.1616 5.1422
# 4 8.0997 21.4780 6.5148 31.8410 6.2500 2.3013
# 5 -31.1012 -26.0109 -27.1616 6.2500 39.4614 -0.1639
# 6 7.7075 8.1149 5.1422 2.3013 -0.1639 27.8427
#
#
#
# Elastic Compliance Matrix: (Units=1/GPa)
#
#
# Indices 1 2 3 4 5 6 
#
# 1 0.012693 0.001304 -0.003940 -0.004855 0.008909 -0.002712
# 2 0.001304 0.012321 -0.000288 -0.010448 0.010594 -0.002973
# 3 -0.003940 -0.000288 0.014372 -0.003047 0.007075 -0.001186
# 4 -0.004855 -0.010448 -0.003047 0.044111 -0.019792 0.001189
# 5 0.008909 0.010594 0.007075 -0.019792 0.047330 -0.004946
# 6 -0.002712 -0.002973 -0.001186 0.001189 -0.004946 0.037625
#
#
# Mechanical properties :
#
#
# Convention : Reuss Voigt Hill
#
# Bulk Modulus (GPa) = 29.81669 60.36090 45.08879
# Shear Modulus (GPa) = 26.95715 35.67855 31.31785
#
# Velocity S-wave (km/s) = 3.25705 3.74707 3.51062
# Velocity P-wave (km/s) = 5.08706 6.51724 5.84605
#
# Compressibility (1/GPa) = 0.03353826
#
# Stress axis : x y z
#
# Youngs Moduli (GPa) = 78.78352 81.16287 69.57828
#
# Poissons Ratio (x) = -0.10587 0.27416
# Poissons Ratio (y) = -0.10277 0.02005
# Poissons Ratio (z) = 0.31043 0.02339
#
# Static dielectric constant tensor:
#      x y z
#    x 2.058770 -0.037030 0.038510 
#    y -0.037030 2.181810 0.013270 
#    z 0.038510 0.013270 2.024170 
# 
# From -- ./inp_files/623956.got.cif
#   From: 2010.05.17/outbox.cif.g08.bks.cpg/sg2_312_cif.got.tgz:623956.got - 2010.06.03 11:33:40.
