data_PCOD9097901
_publ_section_title
;
Structure prediction by ZEFSAII (Michael W. Deem and Ramdas Pophale) SiO2 
 PCOD9097901
Probable space group: P -1
;
_chemical_formula_sum "Si O2"
_cell_formula_units_Z 10
_cell_length_a 4.911370
_cell_length_b 7.215003
_cell_length_c 12.218206
_cell_angle_alpha 104.943586
_cell_angle_beta 71.860476
_cell_angle_gamma 118.541068
_cell_volume 358.340019
_symmetry_space_group_name_H-M "P -1"
_symmetry_group_IT_number 2
_symmetry_cell_setting 'triclinic'
loop_
_space_group_symop_operation_xyz
x,y,z
-x,-y,-z
loop_
_atom_site_type_symbol
_atom_site_label
_atom_site_fract_x
_atom_site_fract_y
_atom_site_fract_z
Si Si1 0.693876 0.286989 0.029641
Si Si2 0.564148 0.421407 0.641231
Si Si3 0.650549 0.851261 0.567273
Si Si4 0.886505 0.108797 0.771059
Si Si5 0.937192 0.721939 0.815144
O O1 0.367410 0.307608 0.077162
O O2 0.779549 0.240968 0.133508
O O3 0.000000 0.500000 0.000000
O O4 0.719806 0.148304 0.904889
O O5 0.609212 0.634907 0.602054
O O6 0.576392 0.251526 0.525097
O O7 0.216145 0.305272 0.723219
O O8 0.824369 0.516489 0.719070
O O9 0.000000 0.000000 0.500000
O O10 0.645005 0.012827 0.685290
O O11 0.985323 0.923200 0.766469
#
# Coordination Sequence:
#
# PCOD9097901 Si02
#       5
#     2   2   2   2   2
#     4  12  24  42  65  93 132 171 211 261 317 375
#     4   9  17  35  62  94 127 165 213 262 316 375
#     4   8  16  32  61  95 126 167 209 264 317 376
#     4  10  20  36  62  92 129 169 213 261 314 378
#     4  11  24  42  64  95 129 171 211 261 315 376
#
# _framework density 27.906451000000001
#
# number of rings (size 3 to 8) (size 9 to 14) (size 15 to 20)
#    0.000    2.000    2.000    1.800    0.000    0.000 
#    0.000    0.000    0.000   22.800    0.000    0.000 
#    0.000    0.000    0.000    0.000    0.000    0.000 
#
# Total GULP energy -56021.147156 kJ/mol
# GULP energy per Si atom -5602.114716 kJ/mol
# Density = 2.784293 g / cm^3
# Si number density = 27.906451 Si / 1000 Ang^3
#
#
#
# Elastic Constant Matrix: (Units=GPa)
#
#
# Indices 1 2 3 4 5 6 
#
# 1 89.0825 32.4782 51.6317 4.5361 2.2843 8.4495
# 2 32.4782 192.6876 65.9431 6.1550 12.3415 23.4266
# 3 51.6317 65.9431 221.8789 40.9111 28.4580 23.4397
# 4 4.5361 6.1550 40.9111 90.3061 20.1060 5.7649
# 5 2.2843 12.3415 28.4580 20.1060 34.7148 -8.6128
# 6 8.4495 23.4266 23.4397 5.7649 -8.6128 24.0842
#
#
#
# Elastic Compliance Matrix: (Units=1/GPa)
#
#
# Indices 1 2 3 4 5 6 
#
# 1 0.013407 -0.001380 -0.003049 0.000351 0.001960 0.000224
# 2 -0.001380 0.006770 -0.000577 0.001341 -0.004470 -0.007459
# 3 -0.003049 -0.000577 0.007267 -0.001099 -0.006804 -0.007612
# 4 0.000351 0.001341 -0.001099 0.014028 -0.009487 -0.007108
# 5 0.001960 -0.004470 -0.006804 -0.009487 0.048782 0.029998
# 6 0.000224 -0.007459 -0.007612 -0.007108 0.029998 0.068536
#
#
# Mechanical properties :
#
#
# Convention : Reuss Voigt Hill
#
# Bulk Modulus (GPa) = 57.36658 89.30610 73.33634
# Shear Modulus (GPa) = 28.63465 53.39410 41.01437
#
# Velocity S-wave (km/s) = 3.20675 4.37890 3.83784
# Velocity P-wave (km/s) = 5.85767 7.59196 6.78049
#
# Compressibility (1/GPa) = 0.01743175
#
# Stress axis : x y z
#
# Youngs Moduli (GPa) = 74.58905 147.70712 137.59892
#
# Poissons Ratio (x) = 0.20386 0.41960
# Poissons Ratio (y) = 0.10294 0.07936
# Poissons Ratio (z) = 0.22746 0.08519
#
# Static dielectric constant tensor:
#      x y z
#    x 2.064690 -0.071300 -0.006640 
#    y -0.071300 2.269870 -0.015820 
#    z -0.006640 -0.015820 2.268350 
# 
# From -- ./inp_files/18701.got.cif
#   From: 2010.05.17/outbox.cif.g08.bks.cpg/sg2_10_cif.got.tgz:18701.got - 2010.06.03 11:33:40.
