data_PCOD9097660
_publ_section_title
;
Structure prediction by ZEFSAII (Michael W. Deem and Ramdas Pophale) SiO2 
 PCOD9097660
Probable space group: P -1
;
_chemical_formula_sum "Si O2"
_cell_formula_units_Z 16
_cell_length_a 8.777306
_cell_length_b 24.518023
_cell_length_c 9.094918
_cell_angle_alpha 43.138948
_cell_angle_beta 101.864047
_cell_angle_gamma 69.098494
_cell_volume 855.279608
_symmetry_space_group_name_H-M "P -1"
_symmetry_group_IT_number 2
_symmetry_cell_setting 'triclinic'
loop_
_space_group_symop_operation_xyz
x,y,z
-x,-y,-z
loop_
_atom_site_type_symbol
_atom_site_label
_atom_site_fract_x
_atom_site_fract_y
_atom_site_fract_z
Si Si1 0.490196 0.838394 0.003312
Si Si2 0.877660 0.557240 0.204534
Si Si3 0.927744 0.158634 0.669962
Si Si4 0.576869 0.974281 0.896093
Si Si5 0.453193 0.426844 0.084923
Si Si6 0.053014 0.984589 0.814796
Si Si7 0.227903 0.418847 0.307931
Si Si8 0.492929 0.165286 0.329579
O O1 0.656191 0.709833 0.370996
O O2 0.516153 0.915826 0.921335
O O3 0.561945 0.814570 0.894215
O O4 0.219701 0.917746 0.836893
O O5 0.000000 0.500000 0.500000
O O6 0.101268 0.502990 0.260890
O O7 0.757730 0.525057 0.162592
O O8 0.664922 0.704301 0.884262
O O9 0.698545 0.299690 0.314389
O O10 0.047715 0.072192 0.721223
O O11 0.137174 0.125601 0.855046
O O12 0.853324 0.114725 0.849443
O O13 0.464661 0.093611 0.553714
O O14 0.500000 0.000000 0.000000
O O15 0.408544 0.400111 0.284715
O O16 0.500000 0.500000 0.000000
O O17 0.775317 0.073506 0.566263
O O18 0.000000 0.500000 0.000000
#
# Coordination Sequence:
#
# PCOD9097660 Si02
#       8
#     2   2   2   2   2   2   2   2
#     4  12  22  42  64  94 129 165 213 258 325 380
#     4  11  23  44  67  93 127 173 216 262 324 384
#     4  10  20  36  61  92 121 156 208 261 312 365
#     4  11  25  37  63  98 126 162 206 266 317 374
#     4  11  24  41  65  93 128 166 221 269 317 375
#     4  10  20  38  62  89 120 162 208 256 307 382
#     4  10  24  39  65  93 122 169 220 265 316 383
#     4  11  24  41  64  91 130 166 209 259 322 387
#
# _framework density 18.707333999999999
#
# number of rings (size 3 to 8) (size 9 to 14) (size 15 to 20)
#    0.000    1.250    5.000    0.750    7.000    0.000 
#    0.000    0.625    0.000    0.000    0.000    0.000 
#    0.000    0.000    0.000    0.000    0.000    0.000 
#
# Total GULP energy -89124.750540 kJ/mol
# GULP energy per Si atom -5570.296909 kJ/mol
# Density = 1.866476 g / cm^3
# Si number density = 18.707334 Si / 1000 Ang^3
#
#
#
# Elastic Constant Matrix: (Units=GPa)
#
#
# Indices 1 2 3 4 5 6 
#
# 1 76.4078 35.7167 44.4408 -7.8481 -14.8263 3.0944
# 2 35.7167 89.8137 29.2884 -0.8877 -16.4290 -4.4679
# 3 44.4408 29.2884 109.1283 -4.8288 -10.8793 7.0859
# 4 -7.8481 -0.8877 -4.8288 36.4040 -7.9705 -0.0738
# 5 -14.8263 -16.4290 -10.8793 -7.9705 28.2486 -0.9231
# 6 3.0944 -4.4679 7.0859 -0.0738 -0.9231 36.7314
#
#
#
# Elastic Compliance Matrix: (Units=1/GPa)
#
#
# Indices 1 2 3 4 5 6 
#
# 1 0.020991 -0.005021 -0.006198 0.005139 0.007127 -0.000994
# 2 -0.005021 0.014778 -0.001528 0.000294 0.005540 0.002655
# 3 -0.006198 -0.001528 0.012311 0.000397 0.000645 -0.002022
# 4 0.005139 0.000294 0.000397 0.031227 0.011828 -0.000114
# 5 0.007127 0.005540 0.000645 0.011828 0.045985 0.001128
# 6 -0.000994 0.002655 -0.002022 -0.000114 0.001128 0.028050
#
#
# Mechanical properties :
#
#
# Convention : Reuss Voigt Hill
#
# Bulk Modulus (GPa) = 44.27891 54.91573 49.59732
# Shear Modulus (GPa) = 26.82909 31.33708 29.08308
#
# Velocity S-wave (km/s) = 3.79112 4.09727 3.94716
# Velocity P-wave (km/s) = 6.54860 7.19739 6.88064
#
# Compressibility (1/GPa) = 0.02258411
#
# Stress axis : x y z
#
# Youngs Moduli (GPa) = 47.63958 67.66906 81.22851
#
# Poissons Ratio (x) = 0.33978 0.50346
# Poissons Ratio (y) = 0.23921 0.12415
# Poissons Ratio (z) = 0.29528 0.10343
#
# Static dielectric constant tensor:
#      x y z
#    x 1.663530 0.005280 0.023240 
#    y 0.005280 1.668220 0.008360 
#    z 0.023240 0.008360 1.644410 
# 
# From -- ./inp_files/175197.got.cif
#   From: 2010.05.17/outbox.cif.g08.bks.cpg/sg2_88_cif.got.tgz:175197.got - 2010.06.03 11:33:40.
