data_PCOD9097296
_publ_section_title
;
Structure prediction by ZEFSAII (Michael W. Deem and Ramdas Pophale) SiO2 
 PCOD9097296
Probable space group: P -1
;
_chemical_formula_sum "Si O2"
_cell_formula_units_Z 15
_cell_length_a 13.189797
_cell_length_b 10.439580
_cell_length_c 15.362040
_cell_angle_alpha 136.776832
_cell_angle_beta 30.193353
_cell_angle_gamma 148.221154
_cell_volume 560.105924
_symmetry_space_group_name_H-M "P -1"
_symmetry_group_IT_number 2
_symmetry_cell_setting 'triclinic'
loop_
_space_group_symop_operation_xyz
x,y,z
-x,-y,-z
loop_
_atom_site_type_symbol
_atom_site_label
_atom_site_fract_x
_atom_site_fract_y
_atom_site_fract_z
Si Si1 0.333109 0.493393 0.845489
Si Si2 0.238768 0.911318 0.865953
Si Si3 0.792150 0.051136 0.495546
Si Si4 0.000000 0.500000 0.500000
Si Si5 0.145855 0.353103 0.735886
Si Si6 0.593149 0.928973 0.997125
Si Si7 0.439227 0.156887 0.672851
Si Si8 0.045885 0.803709 0.372786
O O1 0.388147 0.304545 0.722841
O O2 0.330832 0.540149 0.767131
O O3 0.527828 0.725524 0.877123
O O4 0.036311 0.342273 0.026922
O O5 0.490365 0.924725 0.672818
O O6 0.328767 0.084631 0.969516
O O7 0.214115 0.987839 0.827533
O O8 0.957018 0.253680 0.552090
O O9 0.931870 0.233329 0.402310
O O10 0.821561 0.850917 0.381918
O O11 0.311248 0.644196 0.353689
O O12 0.154919 0.397980 0.648587
O O13 0.843327 0.195500 0.911190
O O14 0.333706 0.902268 0.181627
O O15 0.500000 0.000000 0.500000
O O16 0.000000 0.000000 0.500000
#
# Coordination Sequence:
#
# PCOD9097296 Si02
#       8
#     2   2   2   1   2   2   2   2
#     4  11  22  36  59  88 118 153 197 244 291 350
#     4   9  21  38  56  83 122 157 193 240 293 350
#     4   9  18  37  61  86 115 158 196 240 299 345
#     4  10  20  36  60  86 116 146 192 240 282 346
#     4  10  20  38  60  85 121 154 195 244 291 350
#     4  10  21  37  60  87 114 152 197 244 298 345
#     4  11  23  38  59  86 118 159 198 239 293 349
#     4   9  19  37  61  84 117 159 195 239 296 351
#
# _framework density 26.780649
#
# number of rings (size 3 to 8) (size 9 to 14) (size 15 to 20)
#    0.000    2.133    0.000    3.200    0.000    5.333 
#    0.000    8.000    0.000   16.000    0.000    0.000 
#    0.000    0.000    0.000    0.000    0.000    0.000 
#
# Total GULP energy -83600.848810 kJ/mol
# GULP energy per Si atom -5573.389921 kJ/mol
# Density = 2.671969 g / cm^3
# Si number density = 26.780649 Si / 1000 Ang^3
#
#
#
# Elastic Constant Matrix: (Units=GPa)
#
#
# Indices 1 2 3 4 5 6 
#
# 1 113.9670 29.4909 14.7278 9.6516 29.1108 35.0279
# 2 29.4909 120.0059 33.1218 15.4534 5.7463 28.5072
# 3 14.7278 33.1218 119.5575 10.3575 -14.3465 5.5361
# 4 9.6516 15.4534 10.3575 47.0438 -2.2236 7.0104
# 5 29.1108 5.7463 -14.3465 -2.2236 44.1591 12.9082
# 6 35.0279 28.5072 5.5361 7.0104 12.9082 23.5966
#
#
#
# Elastic Compliance Matrix: (Units=1/GPa)
#
#
# Indices 1 2 3 4 5 6 
#
# 1 0.017796 0.002827 -0.002345 -0.000384 -0.005183 -0.026332
# 2 0.002827 0.013233 -0.002840 -0.001294 0.001213 -0.019796
# 3 -0.002345 -0.002840 0.009931 -0.000933 0.004374 0.002466
# 4 -0.000384 -0.001294 -0.000933 0.023032 0.003084 -0.006177
# 5 -0.005183 0.001213 0.004374 0.003084 0.031220 -0.012793
# 6 -0.026332 -0.019796 0.002466 -0.006177 -0.012793 0.113638
#
#
# Mechanical properties :
#
#
# Convention : Reuss Voigt Hill
#
# Bulk Modulus (GPa) = 27.59032 56.46794 42.02913
# Shear Modulus (GPa) = 22.15837 41.37256 31.76547
#
# Velocity S-wave (km/s) = 2.87958 3.93474 3.44777
# Velocity P-wave (km/s) = 4.62392 6.46329 5.61938
#
# Compressibility (1/GPa) = 0.03624460
#
# Stress axis : x y z
#
# Youngs Moduli (GPa) = 56.19337 75.56751 100.69201
#
# Poissons Ratio (x) = -0.21361 0.23609
# Poissons Ratio (y) = -0.15884 0.28595
# Poissons Ratio (z) = 0.13175 0.21460
#
# Static dielectric constant tensor:
#      x y z
#    x 2.393610 -0.052610 0.051020 
#    y -0.052610 2.143900 0.019520 
#    z 0.051020 0.019520 2.145840 
# 
# From -- ./inp_files/573255.got.cif
#   From: 2010.05.17/outbox.cif.g08.bks.cpg/sg2_287_cif.got.tgz:573255.got - 2010.06.03 11:33:40.
