data_PCOD9097380
_publ_section_title
;
Structure prediction by ZEFSAII (Michael W. Deem and Ramdas Pophale) SiO2 
 PCOD9097380
Probable space group: P -1
;
_chemical_formula_sum "Si O2"
_cell_formula_units_Z 14
_cell_length_a 16.302370
_cell_length_b 15.343700
_cell_length_c 18.009529
_cell_angle_alpha 25.290495
_cell_angle_beta 156.021453
_cell_angle_gamma 160.759757
_cell_volume 573.605851
_symmetry_space_group_name_H-M "P -1"
_symmetry_group_IT_number 2
_symmetry_cell_setting 'triclinic'
loop_
_space_group_symop_operation_xyz
x,y,z
-x,-y,-z
loop_
_atom_site_type_symbol
_atom_site_label
_atom_site_fract_x
_atom_site_fract_y
_atom_site_fract_z
Si Si1 0.748063 0.814176 0.493288
Si Si2 0.375986 0.312674 0.113867
Si Si3 0.913836 0.993348 0.161642
Si Si4 0.492776 0.003975 0.106343
Si Si5 0.155972 0.860749 0.163645
Si Si6 0.744678 0.441147 0.867236
Si Si7 0.434748 0.635287 0.613155
O O1 0.500000 0.500000 0.500000
O O2 0.657511 0.975199 0.320885
O O3 0.803694 0.715234 0.687681
O O4 0.000000 0.000000 0.500000
O O5 0.559166 0.349090 0.303578
O O6 0.223758 0.014750 0.179780
O O7 0.500000 0.500000 0.000000
O O8 0.175219 0.351947 0.949255
O O9 0.759919 0.697123 0.301990
O O10 0.239872 0.172021 0.285527
O O11 0.795868 0.114887 0.011761
O O12 0.787182 0.956713 0.002240
O O13 0.486128 0.831371 0.166434
O O14 0.662672 0.310663 0.980704
O O15 0.301003 0.739969 0.381199
O O16 0.000000 0.500000 0.000000
#
# Coordination Sequence:
#
# PCOD9097380 Si02
#       7
#     2   2   2   2   2   2   2
#     4  10  20  36  60  90 115 151 197 252 312 361
#     4  10  20  40  68  97 128 165 218 266 312 370
#     4  11  26  43  61  94 133 172 212 261 317 388
#     4  10  23  40  59  90 126 160 207 263 312 378
#     4  10  23  42  64  96 131 170 212 267 316 375
#     4  10  20  38  66  88 118 157 210 264 312 368
#     4  11  25  42  67  95 132 172 216 256 319 380
#
# _framework density 24.407003
#
# number of rings (size 3 to 8) (size 9 to 14) (size 15 to 20)
#    0.000    1.714    2.857    0.429    4.000    1.714 
#    0.000    0.000    0.000    0.000    0.000    0.000 
#    0.000    0.000    0.000    0.000    0.000    0.000 
#
# Total GULP energy -77941.714331 kJ/mol
# GULP energy per Si atom -5567.265309 kJ/mol
# Density = 2.435145 g / cm^3
# Si number density = 24.407003 Si / 1000 Ang^3
#
#
#
# Elastic Constant Matrix: (Units=GPa)
#
#
# Indices 1 2 3 4 5 6 
#
# 1 52.6182 14.6125 42.5600 -1.0909 5.2307 11.9095
# 2 14.6125 113.6485 53.9378 -2.5943 6.5759 35.5527
# 3 42.5600 53.9378 217.8848 -5.6217 6.2338 37.9915
# 4 -1.0909 -2.5943 -5.6217 36.2663 6.1584 -3.3565
# 5 5.2307 6.5759 6.2338 6.1584 28.9632 -2.2929
# 6 11.9095 35.5527 37.9915 -3.3565 -2.2929 41.1792
#
#
#
# Elastic Compliance Matrix: (Units=1/GPa)
#
#
# Indices 1 2 3 4 5 6 
#
# 1 0.023250 0.000156 -0.003855 0.000432 -0.003772 -0.003477
# 2 0.000156 0.012747 -0.001335 0.000381 -0.003506 -0.009983
# 3 -0.003855 -0.001335 0.006332 0.000570 -0.000767 -0.003571
# 4 0.000432 0.000381 0.000570 0.028874 -0.006346 0.001021
# 5 -0.003772 -0.003506 -0.000767 -0.006346 0.038027 0.006426
# 6 -0.003477 -0.009983 -0.003571 0.001021 0.006426 0.037644
#
#
# Mechanical properties :
#
#
# Convention : Reuss Voigt Hill
#
# Bulk Modulus (GPa) = 30.99631 67.37467 49.18549
# Shear Modulus (GPa) = 29.81554 39.48450 34.65002
#
# Velocity S-wave (km/s) = 3.49893 4.02649 3.77195
# Velocity P-wave (km/s) = 5.38987 7.02007 6.25828
#
# Compressibility (1/GPa) = 0.03226190
#
# Stress axis : x y z
#
# Youngs Moduli (GPa) = 43.00997 78.44826 157.91860
#
# Poissons Ratio (x) = -0.01223 0.60874
# Poissons Ratio (y) = -0.00671 0.21086
# Poissons Ratio (z) = 0.16579 0.10475
#
# Static dielectric constant tensor:
#      x y z
#    x 2.489840 -0.342410 -0.749210 
#    y -0.342410 2.162070 0.320390 
#    z -0.749210 0.320390 3.175330 
# 
# From -- ./inp_files/600465.got.cif
#   From: 2010.05.17/outbox.cif.g08.bks.cpg/sg2_301_cif.got.tgz:600465.got - 2010.06.03 11:33:40.
