data_PCOD9097667
_publ_section_title
;
Structure prediction by ZEFSAII (Michael W. Deem and Ramdas Pophale) SiO2 
 PCOD9097667
Probable space group: P -1
;
_chemical_formula_sum "Si O2"
_cell_formula_units_Z 15
_cell_length_a 8.924878
_cell_length_b 4.963994
_cell_length_c 17.651783
_cell_angle_alpha 109.557206
_cell_angle_beta 125.643578
_cell_angle_gamma 60.663417
_cell_volume 552.679683
_symmetry_space_group_name_H-M "P -1"
_symmetry_group_IT_number 2
_symmetry_cell_setting 'triclinic'
loop_
_space_group_symop_operation_xyz
x,y,z
-x,-y,-z
loop_
_atom_site_type_symbol
_atom_site_label
_atom_site_fract_x
_atom_site_fract_y
_atom_site_fract_z
Si Si1 0.223038 0.407273 0.090715
Si Si2 0.222075 0.327997 0.452502
Si Si3 0.906212 0.579119 0.774320
Si Si4 0.527433 0.661097 0.249851
Si Si5 0.500000 0.000000 0.000000
Si Si6 0.586839 0.371129 0.613501
Si Si7 0.847877 0.836493 0.413213
Si Si8 0.179349 0.876838 0.812207
O O1 0.186990 0.342976 0.161856
O O2 0.330207 0.659814 0.147378
O O3 0.375941 0.138259 0.058015
O O4 0.000000 0.500000 0.000000
O O5 0.379260 0.494344 0.518915
O O6 0.200391 0.269825 0.530097
O O7 0.005976 0.556741 0.385836
O O8 0.301974 0.985324 0.410876
O O9 0.731079 0.554816 0.668097
O O10 0.001135 0.807435 0.791384
O O11 0.085875 0.239755 0.798271
O O12 0.465480 0.632657 0.314438
O O13 0.638360 0.909148 0.311971
O O14 0.705439 0.349490 0.242811
O O15 0.347066 0.831867 0.920074
O O16 0.000000 0.000000 0.500000
#
# Coordination Sequence:
#
# PCOD9097667 Si02
#       8
#     2   2   2   2   1   2   2   2
#     4  10  20  44  70 100 139 181 230 287 347 413
#     4   9  19  38  61  86 129 174 223 280 340 404
#     4  11  24  43  71 100 137 182 227 287 340 412
#     4   9  21  40  61  97 132 175 227 284 343 411
#     4  10  22  44  68 102 136 178 228 282 344 414
#     4   9  19  41  61  92 130 175 227 280 346 406
#     4  10  20  36  61  92 126 170 227 278 338 405
#     4  11  24  44  69 100 136 182 231 284 345 411
#
# _framework density 27.140492999999999
#
# number of rings (size 3 to 8) (size 9 to 14) (size 15 to 20)
#    0.000    2.133    1.333    0.800    1.867    1.067 
#    7.200   10.000    0.000    0.000    0.000    0.000 
#    0.000    0.000    0.000    0.000    0.000    0.000 
#
# Total GULP energy -83579.229350 kJ/mol
# GULP energy per Si atom -5571.948623 kJ/mol
# Density = 2.707872 g / cm^3
# Si number density = 27.140493 Si / 1000 Ang^3
#
#
#
# Elastic Constant Matrix: (Units=GPa)
#
#
# Indices 1 2 3 4 5 6 
#
# 1 171.2528 21.9038 69.9628 18.0820 12.4146 -22.2050
# 2 21.9038 80.3058 7.4669 14.8308 -7.8789 -25.3873
# 3 69.9628 7.4669 192.2779 20.6909 41.2209 -14.7364
# 4 18.0820 14.8308 20.6909 24.2617 -8.4437 -5.5006
# 5 12.4146 -7.8789 41.2209 -8.4437 71.7714 18.5413
# 6 -22.2050 -25.3873 -14.7364 -5.5006 18.5413 50.9030
#
#
#
# Elastic Compliance Matrix: (Units=1/GPa)
#
#
# Indices 1 2 3 4 5 6 
#
# 1 0.007463 -0.000519 -0.001808 -0.003603 -0.001404 0.002595
# 2 -0.000519 0.016776 0.001855 -0.010414 -0.002550 0.008480
# 3 -0.001808 0.001855 0.008296 -0.008137 -0.006220 0.003924
# 4 -0.003603 -0.010414 -0.008137 0.060100 0.013139 -0.007413
# 5 -0.001404 -0.002550 -0.006220 0.013139 0.021635 -0.010145
# 6 0.002595 0.008480 0.003924 -0.007413 -0.010145 0.029037
#
#
# Mechanical properties :
#
#
# Convention : Reuss Voigt Hill
#
# Bulk Modulus (GPa) = 31.65529 71.38928 51.52229
# Shear Modulus (GPa) = 32.30360 52.35410 42.32885
#
# Velocity S-wave (km/s) = 3.45372 4.39681 3.95349
# Velocity P-wave (km/s) = 5.25291 7.22057 6.31386
#
# Compressibility (1/GPa) = 0.03159029
#
# Stress axis : x y z
#
# Youngs Moduli (GPa) = 133.99452 59.61016 120.53630
#
# Poissons Ratio (x) = 0.03096 0.21789
# Poissons Ratio (y) = 0.06959 -0.22357
# Poissons Ratio (z) = 0.24222 -0.11056
#
# Static dielectric constant tensor:
#      x y z
#    x 2.120890 -0.000360 0.005070 
#    y -0.000360 2.156540 -0.033700 
#    z 0.005070 -0.033700 2.193290 
# 
# From -- ./inp_files/585441.got.cif
#   From: 2010.05.17/outbox.cif.g08.bks.cpg/sg2_293_cif.got.tgz:585441.got - 2010.06.03 11:33:40.
