data_PCOD9097941
_publ_section_title
;
Structure prediction by ZEFSAII (Michael W. Deem and Ramdas Pophale) SiO2 
 PCOD9097941
Probable space group: P -1
;
_chemical_formula_sum "Si O2"
_cell_formula_units_Z 15
_cell_length_a 6.153206
_cell_length_b 4.984616
_cell_length_c 25.684251
_cell_angle_alpha 109.196944
_cell_angle_beta 118.967749
_cell_angle_gamma 84.439083
_cell_volume 649.034735
_symmetry_space_group_name_H-M "P -1"
_symmetry_group_IT_number 2
_symmetry_cell_setting 'triclinic'
loop_
_space_group_symop_operation_xyz
x,y,z
-x,-y,-z
loop_
_atom_site_type_symbol
_atom_site_label
_atom_site_fract_x
_atom_site_fract_y
_atom_site_fract_z
Si Si1 0.534016 0.273573 0.370092
Si Si2 0.689027 0.883366 0.554726
Si Si3 0.402530 0.574433 0.081968
Si Si4 0.738387 0.141227 0.132307
Si Si5 0.000206 0.725239 0.724446
Si Si6 0.000000 0.500000 0.500000
Si Si7 0.846440 0.850810 0.322550
Si Si8 0.075543 0.120192 0.959253
O O1 0.443315 0.157439 0.408336
O O2 0.777612 0.477386 0.426023
O O3 0.288247 0.390185 0.324007
O O4 0.618576 0.014061 0.328376
O O5 0.798484 0.606543 0.525138
O O6 0.500000 0.000000 0.500000
O O7 0.935383 0.092126 0.605655
O O8 0.590309 0.835474 0.103451
O O9 0.152884 0.716446 0.079601
O O10 0.543533 0.383345 0.126353
O O11 0.303850 0.353105 0.011600
O O12 0.856283 0.123996 0.087646
O O13 0.937359 0.192572 0.204168
O O14 0.177809 0.482392 0.711836
O O15 0.058798 0.989982 0.709271
O O16 0.000000 0.000000 0.000000
#
# Coordination Sequence:
#
# PCOD9097941 Si02
#       8
#     2   2   2   2   2   1   2   2
#     4  10  23  41  65  96 137 177 223 286 341 403
#     4  10  21  36  62  97 130 167 217 274 343 406
#     4  11  25  44  68 103 138 177 224 283 344 410
#     4  12  26  42  71  99 139 185 231 284 346 412
#     4  11  25  46  65  95 133 182 234 275 338 405
#     4  10  20  36  62  94 126 166 218 274 338 394
#     4  10  24  44  66  92 131 178 223 280 335 401
#     4  11  25  44  72 106 141 178 226 288 348 409
#
# _framework density 23.111243000000002
#
# number of rings (size 3 to 8) (size 9 to 14) (size 15 to 20)
#    0.000    1.333    1.333    2.800    3.733   11.733 
#    0.000    0.000    0.000    0.000    0.000    0.000 
#    0.000    0.000    0.000    0.000    0.000    0.000 
#
# Total GULP energy -83638.438721 kJ/mol
# GULP energy per Si atom -5575.895915 kJ/mol
# Density = 2.305864 g / cm^3
# Si number density = 23.111243 Si / 1000 Ang^3
#
#
#
# Elastic Constant Matrix: (Units=GPa)
#
#
# Indices 1 2 3 4 5 6 
#
# 1 79.3356 21.9767 47.7769 -7.7816 -2.5873 -18.5885
# 2 21.9767 86.4972 31.9135 -14.0533 5.4505 -1.3856
# 3 47.7769 31.9135 117.8741 -17.1457 10.2169 -8.2520
# 4 -7.7816 -14.0533 -17.1457 23.8825 -7.3979 5.2800
# 5 -2.5873 5.4505 10.2169 -7.3979 22.5043 -1.3039
# 6 -18.5885 -1.3856 -8.2520 5.2800 -1.3039 37.4133
#
#
#
# Elastic Compliance Matrix: (Units=1/GPa)
#
#
# Indices 1 2 3 4 5 6 
#
# 1 0.019979 -0.002662 -0.007390 -0.000144 0.006739 0.008453
# 2 -0.002662 0.013956 -0.001868 0.006186 -0.000928 -0.002123
# 3 -0.007390 -0.001868 0.012966 0.004678 -0.004845 -0.001710
# 4 -0.000144 0.006186 0.004678 0.054464 0.013917 -0.006012
# 5 0.006739 -0.000928 -0.004845 0.013917 0.052332 0.002105
# 6 0.008453 -0.002123 -0.001710 -0.006012 0.002105 0.031394
#
#
# Mechanical properties :
#
#
# Convention : Reuss Voigt Hill
#
# Bulk Modulus (GPa) = 43.36564 54.11567 48.74065
# Shear Modulus (GPa) = 23.08215 28.89601 25.98908
#
# Velocity S-wave (km/s) = 3.16371 3.53980 3.35703
# Velocity P-wave (km/s) = 5.67010 6.33822 6.01345
#
# Compressibility (1/GPa) = 0.02305973
#
# Stress axis : x y z
#
# Youngs Moduli (GPa) = 50.05274 71.65331 77.12720
#
# Poissons Ratio (x) = 0.19074 0.57001
# Poissons Ratio (y) = 0.13324 0.14407
# Poissons Ratio (z) = 0.36991 0.13385
#
# Static dielectric constant tensor:
#      x y z
#    x 1.869240 0.026120 0.020460 
#    y 0.026120 1.856720 -0.001750 
#    z 0.020460 -0.001750 1.847130 
# 
# From -- ./inp_files/580874.got.cif
#   From: 2010.05.17/outbox.cif.g08.bks.cpg/sg2_291_cif.got.tgz:580874.got - 2010.06.03 11:33:40.
