data_PCOD9097743
_publ_section_title
;
Structure prediction by ZEFSAII (Michael W. Deem and Ramdas Pophale) SiO2 
 PCOD9097743
Probable space group: P -1
;
_chemical_formula_sum "Si O2"
_cell_formula_units_Z 14
_cell_length_a 14.555190
_cell_length_b 7.276536
_cell_length_c 10.152931
_cell_angle_alpha 133.971285
_cell_angle_beta 50.278254
_cell_angle_gamma 115.307682
_cell_volume 594.985950
_symmetry_space_group_name_H-M "P -1"
_symmetry_group_IT_number 2
_symmetry_cell_setting 'triclinic'
loop_
_space_group_symop_operation_xyz
x,y,z
-x,-y,-z
loop_
_atom_site_type_symbol
_atom_site_label
_atom_site_fract_x
_atom_site_fract_y
_atom_site_fract_z
Si Si1 0.171632 0.234517 0.474518
Si Si2 0.542921 0.498438 0.308100
Si Si3 0.706146 0.066821 0.994445
Si Si4 0.804659 0.559199 0.062006
Si Si5 0.697729 0.275610 0.384136
Si Si6 0.084785 0.956939 0.775900
Si Si7 0.915675 0.290839 0.608578
O O1 0.236904 0.467386 0.598243
O O2 0.036046 0.296813 0.587653
O O3 0.162986 0.962546 0.419497
O O4 0.249132 0.183473 0.244730
O O5 0.500000 0.500000 0.500000
O O6 0.591331 0.206242 0.098032
O O7 0.431882 0.626998 0.399004
O O8 0.665915 0.643211 0.247463
O O9 0.685654 0.082262 0.176224
O O10 0.809850 0.273683 0.974917
O O11 0.837240 0.521570 0.858652
O O12 0.891018 0.754930 0.147929
O O13 0.788607 0.156297 0.345681
O O14 0.044561 0.763021 0.604502
O O15 0.000000 0.000000 0.000000
#
# Coordination Sequence:
#
# PCOD9097743 Si02
#       7
#     2   2   2   2   2   2   2
#     4  10  20  36  62  83 112 147 193 243 275 335
#     4   8  18  38  62  87 110 144 195 237 284 330
#     4   8  18  38  59  84 110 146 192 237 282 323
#     4   9  20  41  60  80 119 150 187 242 274 336
#     4  11  21  35  59  89 112 149 193 227 288 342
#     4  12  25  37  57  85 121 157 185 228 292 344
#     4  10  22  39  57  86 115 151 194 233 287 330
#
# _framework density 23.529968
#
# number of rings (size 3 to 8) (size 9 to 14) (size 15 to 20)
#    0.857    1.429    0.000    2.571    0.000    4.571 
#    0.000    6.429    0.000    0.000    0.000    0.000 
#    0.000    0.000    0.000    0.000    0.000    0.000 
#
# Total GULP energy -78025.925847 kJ/mol
# GULP energy per Si atom -5573.280418 kJ/mol
# Density = 2.347641 g / cm^3
# Si number density = 23.529968 Si / 1000 Ang^3
#
#
#
# Elastic Constant Matrix: (Units=GPa)
#
#
# Indices 1 2 3 4 5 6 
#
# 1 56.7677 -11.7060 34.0112 -2.4999 -4.8407 8.8495
# 2 -11.7060 47.8992 17.3463 -0.1698 4.7545 16.9136
# 3 34.0112 17.3463 141.2055 -15.9063 7.7170 20.1187
# 4 -2.4999 -0.1698 -15.9063 30.8030 6.1600 -3.5465
# 5 -4.8407 4.7545 7.7170 6.1600 41.4402 3.4666
# 6 8.8495 16.9136 20.1187 -3.5465 3.4666 20.5032
#
#
#
# Elastic Compliance Matrix: (Units=1/GPa)
#
#
# Indices 1 2 3 4 5 6 
#
# 1 0.028380 0.016113 -0.006652 -0.004438 0.005092 -0.020642
# 2 0.016113 0.038883 -0.004204 -0.005211 0.002002 -0.036144
# 3 -0.006652 -0.004204 0.010256 0.005007 -0.002749 -0.002393
# 4 -0.004438 -0.005211 0.005007 0.037111 -0.007116 0.008923
# 5 0.005092 0.002002 -0.002749 -0.007116 0.026642 -0.006887
# 6 -0.020642 -0.036144 -0.002393 0.008923 -0.006887 0.092555
#
#
# Mechanical properties :
#
#
# Convention : Reuss Voigt Hill
#
# Bulk Modulus (GPa) = 11.35954 36.13061 23.74508
# Shear Modulus (GPa) = 19.78948 32.29736 26.04342
#
# Velocity S-wave (km/s) = 2.90320 3.70889 3.33050
# Velocity P-wave (km/s) = 4.00952 5.80772 4.99029
#
# Compressibility (1/GPa) = 0.08803174
#
# Stress axis : x y z
#
# Youngs Moduli (GPa) = 35.23556 25.71813 97.50506
#
# Poissons Ratio (x) = -0.41439 0.64863
# Poissons Ratio (y) = -0.56774 0.40992
# Poissons Ratio (z) = 0.23440 0.10812
#
# Static dielectric constant tensor:
#      x y z
#    x 1.930050 -0.072300 0.022550 
#    y -0.072300 2.007980 -0.031390 
#    z 0.022550 -0.031390 1.925020 
# 
# From -- ./inp_files/445296.got.cif
#   From: 2010.05.17/outbox.cif.g08.bks.cpg/sg2_223_cif.got.tgz:445296.got - 2010.06.03 11:33:40.
