data_PCOD9097609
_publ_section_title
;
Structure prediction by ZEFSAII (Michael W. Deem and Ramdas Pophale) SiO2 
 PCOD9097609
Probable space group: P -1
;
_chemical_formula_sum "Si O2"
_cell_formula_units_Z 16
_cell_length_a 12.764500
_cell_length_b 11.058735
_cell_length_c 10.616162
_cell_angle_alpha 92.900876
_cell_angle_beta 38.494977
_cell_angle_gamma 118.929759
_cell_volume 651.829679
_symmetry_space_group_name_H-M "P -1"
_symmetry_group_IT_number 2
_symmetry_cell_setting 'triclinic'
loop_
_space_group_symop_operation_xyz
x,y,z
-x,-y,-z
loop_
_atom_site_type_symbol
_atom_site_label
_atom_site_fract_x
_atom_site_fract_y
_atom_site_fract_z
Si Si1 0.726157 0.450158 0.467185
Si Si2 0.099732 0.307210 0.317321
Si Si3 0.948936 0.965700 0.255689
Si Si4 0.489681 0.303021 0.938807
Si Si5 0.496006 0.169333 0.182482
Si Si6 0.240883 0.284986 0.804489
Si Si7 0.916109 0.559903 0.915445
Si Si8 0.857859 0.160173 0.794898
O O1 0.594435 0.322219 0.705620
O O2 0.517341 0.414298 0.590772
O O3 0.862841 0.415009 0.261698
O O4 0.927773 0.645674 0.339403
O O5 0.302874 0.500085 0.193943
O O6 0.022352 0.331493 0.262972
O O7 0.901286 0.190373 0.605866
O O8 0.248863 0.260304 0.153268
O O9 0.754554 0.939957 0.517522
O O10 0.807006 0.800604 0.288233
O O11 0.103384 0.954490 0.196714
O O12 0.096674 0.127362 0.032182
O O13 0.473004 0.197685 0.060062
O O14 0.686943 0.359554 0.080620
O O15 0.615719 0.099230 0.066174
O O16 0.144392 0.370892 0.920256
#
# Coordination Sequence:
#
# PCOD9097609 Si02
#       8
#     2   2   2   2   2   2   2   2
#     4  10  20  36  61  90 116 144 183 231 280 333
#     4   9  15  29  57  89 119 146 173 218 281 340
#     4  11  25  42  57  76 110 155 196 235 280 331
#     4   9  15  29  57  89 119 146 173 218 281 340
#     4  10  20  36  61  90 116 144 183 231 280 333
#     4  11  25  42  57  76 110 155 196 235 280 331
#     4  10  20  36  61  90 116 144 183 231 280 333
#     4  10  20  36  61  90 116 144 183 231 280 333
#
# _framework density 24.546291
#
# number of rings (size 3 to 8) (size 9 to 14) (size 15 to 20)
#    0.000    2.000    2.500    1.500    0.000    7.000 
#    0.000    7.500    0.000    3.000    0.000    0.000 
#    0.000    0.000    0.000    0.000    0.000    0.000 
#
# Total GULP energy -89700.806256 kJ/mol
# GULP energy per Si atom -5606.300391 kJ/mol
# Density = 2.449042 g / cm^3
# Si number density = 24.546291 Si / 1000 Ang^3
#
#
#
# Elastic Constant Matrix: (Units=GPa)
#
#
# Indices 1 2 3 4 5 6 
#
# 1 72.5404 24.9905 53.4523 15.8823 -7.6851 -12.0234
# 2 24.9905 111.3715 61.5507 16.6636 -10.9150 -10.4594
# 3 53.4523 61.5507 175.9565 28.7444 -7.5703 -24.8980
# 4 15.8823 16.6636 28.7444 49.0821 -5.5890 -0.2466
# 5 -7.6851 -10.9150 -7.5703 -5.5890 44.1261 3.1300
# 6 -12.0234 -10.4594 -24.8980 -0.2466 3.1300 44.9177
#
#
#
# Elastic Compliance Matrix: (Units=1/GPa)
#
#
# Indices 1 2 3 4 5 6 
#
# 1 0.018560 -0.000888 -0.004481 -0.002873 0.001728 0.002141
# 2 -0.000888 0.011480 -0.003373 -0.001417 0.001897 0.000426
# 3 -0.004481 -0.003373 0.009088 -0.002783 -0.000627 0.003081
# 4 -0.002873 -0.001417 -0.002783 0.023612 0.001850 -0.002641
# 5 0.001728 0.001897 -0.000627 0.001850 0.023636 -0.001080
# 6 0.002141 0.000426 0.003081 -0.002641 -0.001080 0.024704
#
#
# Mechanical properties :
#
#
# Convention : Reuss Voigt Hill
#
# Bulk Modulus (GPa) = 46.20033 71.09503 58.64768
# Shear Modulus (GPa) = 36.82481 42.28350 39.55416
#
# Velocity S-wave (km/s) = 3.87747 4.15493 4.01859
# Velocity P-wave (km/s) = 6.23770 7.21418 6.74364
#
# Compressibility (1/GPa) = 0.02164487
#
# Stress axis : x y z
#
# Youngs Moduli (GPa) = 53.87887 87.10749 110.03620
#
# Poissons Ratio (x) = 0.07734 0.49307
# Poissons Ratio (y) = 0.04784 0.37112
# Poissons Ratio (z) = 0.24143 0.29379
#
# Static dielectric constant tensor:
#      x y z
#    x 1.915790 0.036270 0.007220 
#    y 0.036270 1.993860 -0.051220 
#    z 0.007220 -0.051220 1.894300 
# 
# From -- ./inp_files/255820.got.cif
#   From: 2010.05.17/outbox.cif.g08.bks.cpg/sg2_128_cif.got.tgz:255820.got - 2010.06.03 11:33:40.
