data_PCOD9097584
_publ_section_title
;
Structure prediction by ZEFSAII (Michael W. Deem and Ramdas Pophale) SiO2 
 PCOD9097584
Probable space group: P -1
;
_chemical_formula_sum "Si O2"
_cell_formula_units_Z 16
_cell_length_a 16.751090
_cell_length_b 8.952960
_cell_length_c 13.437526
_cell_angle_alpha 131.734023
_cell_angle_beta 149.774726
_cell_angle_gamma 66.007701
_cell_volume 676.555758
_symmetry_space_group_name_H-M "P -1"
_symmetry_group_IT_number 2
_symmetry_cell_setting 'triclinic'
loop_
_space_group_symop_operation_xyz
x,y,z
-x,-y,-z
loop_
_atom_site_type_symbol
_atom_site_label
_atom_site_fract_x
_atom_site_fract_y
_atom_site_fract_z
Si Si1 0.154157 0.302596 0.364472
Si Si2 0.354560 0.142066 0.996797
Si Si3 0.920550 0.848666 0.159753
Si Si4 0.673020 0.580043 0.608908
Si Si5 0.523504 0.941706 0.611630
Si Si6 0.894192 0.273584 0.222709
Si Si7 0.248075 0.992661 0.456615
Si Si8 0.537055 0.248683 0.030483
O O1 0.198506 0.352973 0.319255
O O2 0.161927 0.081168 0.316625
O O3 0.311910 0.503626 0.682186
O O4 0.976457 0.303193 0.213839
O O5 0.518110 0.332320 0.318004
O O6 0.408049 0.191940 0.962132
O O7 0.175434 0.157956 0.841912
O O8 0.363984 0.911522 0.929331
O O9 0.930456 0.079529 0.227231
O O10 0.785478 0.641195 0.857072
O O11 0.111032 0.866475 0.342409
O O12 0.584553 0.748404 0.588066
O O13 0.655345 0.130515 0.551112
O O14 0.500000 0.000000 0.500000
O O15 0.409749 0.195736 0.776209
O O16 0.683289 0.162086 0.931164
O O17 0.000000 0.500000 0.500000
#
# Coordination Sequence:
#
# PCOD9097584 Si02
#       8
#     2   2   2   2   2   2   2   2
#     4  10  20  36  61  89 118 148 193 238 302 351
#     4  10  21  41  61  81 113 162 205 231 285 348
#     4  10  22  36  60  84 120 157 193 239 290 349
#     4  10  21  39  61  84 114 160 194 238 288 359
#     4  11  22  37  59  88 123 151 191 244 299 351
#     4  10  21  36  59  86 118 157 194 238 294 360
#     4  11  22  36  58  89 121 148 189 250 300 340
#     4  10  21  38  63  86 116 153 199 244 285 349
#
# _framework density 23.649197000000001
#
# number of rings (size 3 to 8) (size 9 to 14) (size 15 to 20)
#    0.000    1.750    1.250    3.750    1.750    3.000 
#    0.000    2.500    2.750    0.000    0.000    0.000 
#    0.000    0.000    0.000    0.000    0.000    0.000 
#
# Total GULP energy -89439.773409 kJ/mol
# GULP energy per Si atom -5589.985838 kJ/mol
# Density = 2.359537 g / cm^3
# Si number density = 23.649197 Si / 1000 Ang^3
#
#
#
# Elastic Constant Matrix: (Units=GPa)
#
#
# Indices 1 2 3 4 5 6 
#
# 1 133.5753 31.1273 6.9522 -10.5785 26.5573 -53.5852
# 2 31.1273 41.8234 30.1428 2.3676 8.9655 -23.0371
# 3 6.9522 30.1428 77.8965 17.6475 -4.4519 -14.1418
# 4 -10.5785 2.3676 17.6475 30.2009 -9.5695 7.1553
# 5 26.5573 8.9655 -4.4519 -9.5695 37.6119 -10.4936
# 6 -53.5852 -23.0371 -14.1418 7.1553 -10.4936 41.3059
#
#
#
# Elastic Compliance Matrix: (Units=1/GPa)
#
#
# Indices 1 2 3 4 5 6 
#
# 1 0.017443 -0.002148 0.003471 -0.002786 -0.006089 0.021555
# 2 -0.002148 0.047371 -0.015012 -0.002041 -0.007333 0.016984
# 3 0.003471 -0.015012 0.022186 -0.011231 0.002668 0.006349
# 4 -0.002786 -0.002041 -0.011231 0.044947 0.008599 -0.014199
# 5 -0.006089 -0.007333 0.002668 0.008599 0.034046 -0.003915
# 6 0.021555 0.016984 0.006349 -0.014199 -0.003915 0.065283
#
#
# Mechanical properties :
#
#
# Convention : Reuss Voigt Hill
#
# Bulk Modulus (GPa) = 16.77240 43.30444 30.03842
# Shear Modulus (GPa) = 17.95147 34.16192 26.05669
#
# Velocity S-wave (km/s) = 2.75812 3.80482 3.32294
# Velocity P-wave (km/s) = 4.15337 6.13621 5.23945
#
# Compressibility (1/GPa) = 0.05962176
#
# Stress axis : x y z
#
# Youngs Moduli (GPa) = 57.32908 21.11002 45.07282
#
# Poissons Ratio (x) = 0.04534 -0.15644
# Poissons Ratio (y) = 0.12314 0.67664
# Poissons Ratio (z) = -0.19897 0.31691
#
# Static dielectric constant tensor:
#      x y z
#    x 1.931620 -0.036830 0.027230 
#    y -0.036830 1.893030 -0.019670 
#    z 0.027230 -0.019670 1.902540 
# 
# From -- ./inp_files/467288.got.cif
#   From: 2010.05.17/outbox.cif.g08.bks.cpg/sg2_234_cif.got.tgz:467288.got - 2010.06.03 11:33:40.
