data_PCOD9097786
_publ_section_title
;
Structure prediction by ZEFSAII (Michael W. Deem and Ramdas Pophale) SiO2 
 PCOD9097786
Probable space group: P -1
;
_chemical_formula_sum "Si O2"
_cell_formula_units_Z 16
_cell_length_a 7.120533
_cell_length_b 9.222843
_cell_length_c 17.906917
_cell_angle_alpha 141.068332
_cell_angle_beta 81.184217
_cell_angle_gamma 92.067583
_cell_volume 723.669765
_symmetry_space_group_name_H-M "P -1"
_symmetry_group_IT_number 2
_symmetry_cell_setting 'triclinic'
loop_
_space_group_symop_operation_xyz
x,y,z
-x,-y,-z
loop_
_atom_site_type_symbol
_atom_site_label
_atom_site_fract_x
_atom_site_fract_y
_atom_site_fract_z
Si Si1 0.327320 0.637625 0.768907
Si Si2 0.862463 0.789151 0.856743
Si Si3 0.698239 0.870251 0.066770
Si Si4 0.669879 0.356616 0.853179
Si Si5 0.098101 0.779157 0.069589
Si Si6 0.810035 0.303853 0.658313
Si Si7 0.696095 0.626625 0.194134
Si Si8 0.751099 0.833320 0.425526
O O1 0.383843 0.563843 0.821171
O O2 0.351786 0.383951 0.626079
O O3 0.093185 0.708998 0.814125
O O4 0.403179 0.864382 0.821858
O O5 0.768230 0.571355 0.742505
O O6 0.823943 0.019801 0.902857
O O7 0.791036 0.843547 0.966928
O O8 0.869959 0.849242 0.108074
O O9 0.606276 0.632637 0.984272
O O10 0.796045 0.243749 0.867533
O O11 0.794759 0.324503 0.757081
O O12 0.473072 0.263783 0.805226
O O13 0.141593 0.531295 0.925172
O O14 0.027277 0.226574 0.587704
O O15 0.689038 0.098569 0.559720
O O16 0.753677 0.803682 0.323345
#
# Coordination Sequence:
#
# PCOD9097786 Si02
#       8
#     2   2   2   2   2   2   2   2
#     4   8  14  28  50  71  83 122 155 196 226 266
#     4   9  14  29  54  68  88 120 169 195 220 275
#     4  10  16  31  49  70  91 120 168 201 216 269
#     4  11  23  27  45  76 106 120 148 196 240 285
#     4  11  18  33  48  68 100 133 150 184 242 288
#     4   9  17  33  51  78  83 119 170 202 226 256
#     4  10  18  32  47  70  98 132 151 183 241 291
#     4   8  16  32  56  66  91 121 164 203 219 280
#
# _framework density 22.109532000000002
#
# number of rings (size 3 to 8) (size 9 to 14) (size 15 to 20)
#    0.750    1.750    2.500    2.250    0.000    1.000 
#    0.000    0.000    0.000   14.250    0.000    0.000 
#    0.000    0.000    0.000    0.000    0.000    0.000 
#
# Total GULP energy -89200.891961 kJ/mol
# GULP energy per Si atom -5575.055748 kJ/mol
# Density = 2.205921 g / cm^3
# Si number density = 22.109532 Si / 1000 Ang^3
#
#
#
# Elastic Constant Matrix: (Units=GPa)
#
#
# Indices 1 2 3 4 5 6 
#
# 1 48.0587 16.5360 11.9240 11.3714 2.4726 -10.0397
# 2 16.5360 117.7955 46.9881 10.9180 14.2752 -17.8853
# 3 11.9240 46.9881 128.0980 29.3784 33.1384 -5.1841
# 4 11.3714 10.9180 29.3784 30.1633 3.9670 4.6210
# 5 2.4726 14.2752 33.1384 3.9670 34.1640 0.6505
# 6 -10.0397 -17.8853 -5.1841 4.6210 0.6505 30.4282
#
#
#
# Elastic Compliance Matrix: (Units=1/GPa)
#
#
# Indices 1 2 3 4 5 6 
#
# 1 0.025939 -0.001512 0.001813 -0.012279 -0.001767 0.009881
# 2 -0.001512 0.011068 -0.003017 -0.001166 -0.001562 0.005703
# 3 0.001813 -0.003017 0.015017 -0.013201 -0.011973 0.003644
# 4 -0.012279 -0.001166 -0.013201 0.052271 0.008399 -0.015104
# 5 -0.001767 -0.001562 -0.011973 0.008399 0.040798 -0.005689
# 6 0.009881 0.005703 0.003644 -0.015104 -0.005689 0.042513
#
#
# Mechanical properties :
#
#
# Convention : Reuss Voigt Hill
#
# Bulk Modulus (GPa) = 21.46268 49.42760 35.44514
# Shear Modulus (GPa) = 23.97290 33.51804 28.74547
#
# Velocity S-wave (km/s) = 3.29641 3.89781 3.60966
# Velocity P-wave (km/s) = 4.92107 6.53158 5.78267
#
# Compressibility (1/GPa) = 0.04659250
#
# Stress axis : x y z
#
# Youngs Moduli (GPa) = 38.55229 90.34768 66.59172
#
# Poissons Ratio (x) = 0.13661 -0.12074
# Poissons Ratio (y) = 0.05829 0.20089
# Poissons Ratio (z) = -0.06990 0.27256
#
# Static dielectric constant tensor:
#      x y z
#    x 1.963240 0.040230 0.013450 
#    y 0.040230 1.826360 0.036080 
#    z 0.013450 0.036080 1.828970 
# 
# From -- ./inp_files/220659.got.cif
#   From: 2010.05.17/outbox.cif.g08.bks.cpg/sg2_111_cif.got.tgz:220659.got - 2010.06.03 11:33:40.
