data_PCOD9097878
_publ_section_title
;
Structure prediction by ZEFSAII (Michael W. Deem and Ramdas Pophale) SiO2 
 PCOD9097878
Probable space group: P -1
;
_chemical_formula_sum "Si O2"
_cell_formula_units_Z 16
_cell_length_a 19.708113
_cell_length_b 5.069997
_cell_length_c 6.903225
_cell_angle_alpha 101.849859
_cell_angle_beta 86.135557
_cell_angle_gamma 95.773577
_cell_volume 670.872416
_symmetry_space_group_name_H-M "P -1"
_symmetry_group_IT_number 2
_symmetry_cell_setting 'triclinic'
loop_
_space_group_symop_operation_xyz
x,y,z
-x,-y,-z
loop_
_atom_site_type_symbol
_atom_site_label
_atom_site_fract_x
_atom_site_fract_y
_atom_site_fract_z
Si Si1 0.136771 0.282001 0.674355
Si Si2 0.436074 0.081698 0.902300
Si Si3 0.708455 0.060427 0.041761
Si Si4 0.432680 0.518201 0.641090
Si Si5 0.956062 0.732110 0.629398
Si Si6 0.845814 0.866889 0.901872
Si Si7 0.714272 0.645581 0.318714
Si Si8 0.945699 0.283407 0.076662
O O1 0.213463 0.316790 0.581585
O O2 0.108297 0.570111 0.760797
O O3 0.079084 0.130438 0.525748
O O4 0.145593 0.178133 0.875709
O O5 0.366725 0.041604 0.035661
O O6 0.442167 0.360185 0.820984
O O7 0.426291 0.835337 0.715652
O O8 0.500000 0.000000 0.000000
O O9 0.710436 0.907838 0.225011
O O10 0.716941 0.381509 0.134797
O O11 0.770183 0.948042 0.894505
O O12 0.500000 0.500000 0.500000
O O13 0.357863 0.399510 0.563995
O O14 0.007062 0.863360 0.803785
O O15 0.000000 0.500000 0.500000
O O16 0.884305 0.645858 0.744702
O O17 0.898700 0.129008 0.902952
O O18 0.000000 0.500000 0.000000
#
# Coordination Sequence:
#
# PCOD9097878 Si02
#       8
#     2   2   2   2   2   2   2   2
#     4  10  21  39  59  81 117 154 197 253 303 355
#     4  10  20  37  61  92 127 157 210 255 303 363
#     4   9  19  35  64  85 112 167 202 241 301 372
#     4  10  20  36  62  91 123 167 202 249 309 376
#     4  10  23  38  56  89 113 144 201 251 301 361
#     4  11  21  40  62  79 118 161 197 246 314 365
#     4   9  18  37  60  86 117 159 206 240 301 370
#     4  11  21  38  60  82 112 152 198 243 309 361
#
# _framework density 23.849540999999999
#
# number of rings (size 3 to 8) (size 9 to 14) (size 15 to 20)
#    0.000    2.000    2.500    1.125    0.000    0.500 
#    6.750    0.000    2.750    0.000    0.000    0.000 
#    0.000    0.000    0.000    0.000    0.000    0.000 
#
# Total GULP energy -89116.376993 kJ/mol
# GULP energy per Si atom -5569.773562 kJ/mol
# Density = 2.379526 g / cm^3
# Si number density = 23.849541 Si / 1000 Ang^3
#
#
#
# Elastic Constant Matrix: (Units=GPa)
#
#
# Indices 1 2 3 4 5 6 
#
# 1 220.1493 17.4848 44.9059 -12.2713 -37.9705 -7.5929
# 2 17.4848 74.2503 10.5336 -6.4249 -4.2591 -8.1938
# 3 44.9059 10.5336 80.8558 0.8967 -24.0580 0.3980
# 4 -12.2713 -6.4249 0.8967 23.0063 -5.4517 -6.3278
# 5 -37.9705 -4.2591 -24.0580 -5.4517 50.2334 -2.7767
# 6 -7.5929 -8.1938 0.3980 -6.3278 -2.7767 30.1776
#
#
#
# Elastic Compliance Matrix: (Units=1/GPa)
#
#
# Indices 1 2 3 4 5 6 
#
# 1 0.006132 -0.000105 -0.002182 0.005181 0.004311 0.003026
# 2 -0.000105 0.014911 -0.001565 0.005990 0.001385 0.005426
# 3 -0.002182 -0.001565 0.015414 -0.001171 0.005422 -0.000924
# 4 0.005181 0.005990 -0.001171 0.054707 0.010651 0.015397
# 5 0.004311 0.001385 0.005422 0.010651 0.027375 0.006142
# 6 0.003026 0.005426 -0.000924 0.015397 0.006142 0.039178
#
#
# Mechanical properties :
#
#
# Convention : Reuss Voigt Hill
#
# Bulk Modulus (GPa) = 34.77793 57.90045 46.33919
# Shear Modulus (GPa) = 28.57033 40.83887 34.70460
#
# Velocity S-wave (km/s) = 3.46488 4.14255 3.81878
# Velocity P-wave (km/s) = 5.53363 6.87103 6.23827
#
# Compressibility (1/GPa) = 0.02875387
#
# Stress axis : x y z
#
# Youngs Moduli (GPa) = 163.06666 67.06301 64.87521
#
# Poissons Ratio (x) = 0.00705 0.14154
# Poissons Ratio (y) = 0.01713 0.10154
# Poissons Ratio (z) = 0.35578 0.10497
#
# Static dielectric constant tensor:
#      x y z
#    x 2.026500 0.100420 0.010450 
#    y 0.100420 2.067420 0.080040 
#    z 0.010450 0.080040 2.103100 
# 
# From -- ./inp_files/323989.got.cif
#   From: 2010.05.17/outbox.cif.g08.bks.cpg/sg2_162_cif.got.tgz:323989.got - 2010.06.03 11:33:40.
