data_PCOD9097291
_publ_section_title
;
Structure prediction by ZEFSAII (Michael W. Deem and Ramdas Pophale) SiO2 
 PCOD9097291
Probable space group: P -1
;
_chemical_formula_sum "Si O2"
_cell_formula_units_Z 14
_cell_length_a 6.253289
_cell_length_b 9.204188
_cell_length_c 13.353753
_cell_angle_alpha 111.756168
_cell_angle_beta 84.074987
_cell_angle_gamma 127.553908
_cell_volume 558.012091
_symmetry_space_group_name_H-M "P -1"
_symmetry_group_IT_number 2
_symmetry_cell_setting 'triclinic'
loop_
_space_group_symop_operation_xyz
x,y,z
-x,-y,-z
loop_
_atom_site_type_symbol
_atom_site_label
_atom_site_fract_x
_atom_site_fract_y
_atom_site_fract_z
Si Si1 0.887450 0.654433 0.057569
Si Si2 0.806194 0.691577 0.415133
Si Si3 0.705239 0.992828 0.418083
Si Si4 0.148871 0.012868 0.894298
Si Si5 0.637082 0.756018 0.731430
Si Si6 0.357899 0.752040 0.946507
Si Si7 0.261428 0.871362 0.273071
O O1 0.129165 0.741174 0.148489
O O2 0.802181 0.795128 0.109727
O O3 0.665968 0.430724 0.045544
O O4 0.051420 0.684797 0.955988
O O5 0.553367 0.460405 0.364909
O O6 0.993083 0.797007 0.532228
O O7 0.032489 0.740390 0.335066
O O8 0.716625 0.823308 0.416937
O O9 0.500000 0.000000 0.500000
O O10 0.553534 0.931974 0.303993
O O11 0.418659 0.060530 0.944265
O O12 0.921688 0.828406 0.788233
O O13 0.000000 0.000000 0.000000
O O14 0.467613 0.757627 0.832756
O O15 0.698418 0.925836 0.696129
#
# Coordination Sequence:
#
# PCOD9097291 Si02
#       7
#     2   2   2   2   2   2   2
#     4  10  20  36  60  85 121 167 204 245 295 348
#     4  10  20  43  64  87 125 153 198 253 303 368
#     4   9  21  42  67  89 118 157 193 251 314 368
#     4   9  20  35  51  81 118 158 199 243 290 340
#     4  10  21  38  63  90 124 164 204 250 296 359
#     4  10  20  38  57  85 125 165 205 246 291 345
#     4  10  21  38  60  93 121 159 204 245 305 353
#
# _framework density 25.089062999999999
#
# number of rings (size 3 to 8) (size 9 to 14) (size 15 to 20)
#    0.000    2.286    1.429    0.429    0.000    8.000 
#   10.286   16.429    0.000    0.000    0.000    0.000 
#    0.000    0.000    0.000    0.000    0.000    0.000 
#
# Total GULP energy -78221.669938 kJ/mol
# GULP energy per Si atom -5587.262138 kJ/mol
# Density = 2.503196 g / cm^3
# Si number density = 25.089063 Si / 1000 Ang^3
#
#
#
# Elastic Constant Matrix: (Units=GPa)
#
#
# Indices 1 2 3 4 5 6 
#
# 1 101.0334 -4.8372 38.8260 13.4560 24.3318 7.4274
# 2 -4.8372 83.2729 14.6741 32.6131 10.5917 14.2996
# 3 38.8260 14.6741 84.1856 26.9054 35.4424 7.3148
# 4 13.4560 32.6131 26.9054 50.7352 13.8813 -1.4808
# 5 24.3318 10.5917 35.4424 13.8813 64.0448 -2.0637
# 6 7.4274 14.2996 7.3148 -1.4808 -2.0637 34.6368
#
#
#
# Elastic Compliance Matrix: (Units=1/GPa)
#
#
# Indices 1 2 3 4 5 6 
#
# 1 0.013004 0.003602 -0.004263 -0.002880 -0.002671 -0.003658
# 2 0.003602 0.019345 0.001284 -0.013635 -0.002638 -0.009770
# 3 -0.004263 0.001284 0.020060 -0.008266 -0.008053 -0.004686
# 4 -0.002880 -0.013635 -0.008266 0.033643 0.000937 0.009486
# 5 -0.002671 -0.002638 -0.008053 0.000937 0.021470 0.004682
# 6 -0.003658 -0.009770 -0.004686 0.009486 0.004682 0.035363
#
#
# Mechanical properties :
#
#
# Convention : Reuss Voigt Hill
#
# Bulk Modulus (GPa) = 18.63730 40.64642 29.64186
# Shear Modulus (GPa) = 31.34359 44.53860 37.94110
#
# Velocity S-wave (km/s) = 3.53837 4.21791 3.89299
# Velocity P-wave (km/s) = 4.91304 6.32116 5.66105
#
# Compressibility (1/GPa) = 0.05365585
#
# Stress axis : x y z
#
# Youngs Moduli (GPa) = 76.89973 51.69333 49.85024
#
# Poissons Ratio (x) = -0.18621 0.21249
# Poissons Ratio (y) = -0.27701 -0.06399
# Poissons Ratio (z) = 0.32779 -0.06636
#
# Static dielectric constant tensor:
#      x y z
#    x 2.038280 0.012290 0.021460 
#    y 0.012290 2.073980 -0.054750 
#    z 0.021460 -0.054750 2.057730 
# 
# From -- ./inp_files/136568.got.cif
#   From: 2010.05.17/outbox.cif.g08.bks.cpg/sg2_69_cif.got.tgz:136568.got - 2010.06.03 11:33:40.
