data_PCOD9097321
_publ_section_title
;
Structure prediction by ZEFSAII (Michael W. Deem and Ramdas Pophale) SiO2 
 PCOD9097321
Probable space group: P -1
;
_chemical_formula_sum "Si O2"
_cell_formula_units_Z 15
_cell_length_a 11.719616
_cell_length_b 11.312265
_cell_length_c 6.851332
_cell_angle_alpha 81.432824
_cell_angle_beta 79.383876
_cell_angle_gamma 39.686935
_cell_volume 570.079196
_symmetry_space_group_name_H-M "P -1"
_symmetry_group_IT_number 2
_symmetry_cell_setting 'triclinic'
loop_
_space_group_symop_operation_xyz
x,y,z
-x,-y,-z
loop_
_atom_site_type_symbol
_atom_site_label
_atom_site_fract_x
_atom_site_fract_y
_atom_site_fract_z
Si Si1 0.780687 0.866080 0.635981
Si Si2 0.237786 0.387124 0.388083
Si Si3 0.286027 0.715964 0.376746
Si Si4 0.500000 0.000000 0.000000
Si Si5 0.343026 0.954528 0.783478
Si Si6 0.645528 0.555288 0.320206
Si Si7 0.081386 0.055709 0.136313
Si Si8 0.234474 0.597201 0.087212
O O1 0.835475 0.686278 0.613314
O O2 0.908317 0.839532 0.745203
O O3 0.746908 0.956996 0.418746
O O4 0.597157 0.994275 0.785973
O O5 0.442982 0.231109 0.273500
O O6 0.267158 0.407546 0.593662
O O7 0.140252 0.569547 0.255654
O O8 0.433713 0.698932 0.385878
O O9 0.272150 0.634106 0.576354
O O10 0.351302 0.581618 0.206993
O O11 0.112474 0.917824 0.298219
O O12 0.658553 0.924146 0.115931
O O13 0.246813 0.934768 0.958486
O O14 0.670796 0.544096 0.085800
O O15 0.907964 0.205574 0.021376
#
# Coordination Sequence:
#
# PCOD9097321 Si02
#       8
#     2   2   2   1   2   2   2   2
#     4  10  21  36  60  90 120 155 195 240 290 345
#     4  10  21  38  61  89 117 151 196 243 289 346
#     4  10  22  41  62  87 113 150 202 248 291 343
#     4   8  16  32  54  86 114 144 192 240 282 330
#     4  10  20  36  60  87 117 153 197 241 286 340
#     4  10  22  40  64  89 114 150 197 246 298 345
#     4  11  24  39  59  88 121 158 195 236 292 354
#     4  11  24  40  59  86 121 157 193 241 296 348
#
# _framework density 26.312132999999999
#
# number of rings (size 3 to 8) (size 9 to 14) (size 15 to 20)
#    0.000    1.867    0.000    4.000    0.000   12.800 
#    0.000    1.333    0.000    0.000    0.000    0.000 
#    0.000    0.000    0.000    0.000    0.000    0.000 
#
# Total GULP energy -83703.826625 kJ/mol
# GULP energy per Si atom -5580.255108 kJ/mol
# Density = 2.625224 g / cm^3
# Si number density = 26.312133 Si / 1000 Ang^3
#
#
#
# Elastic Constant Matrix: (Units=GPa)
#
#
# Indices 1 2 3 4 5 6 
#
# 1 95.0462 9.2099 56.1209 9.1915 28.5503 19.8510
# 2 9.2099 66.6199 32.5136 -12.2298 1.0598 9.4634
# 3 56.1209 32.5136 174.8395 1.6349 13.0504 11.3079
# 4 9.1915 -12.2298 1.6349 41.2013 1.5183 3.8038
# 5 28.5503 1.0598 13.0504 1.5183 39.3841 11.8275
# 6 19.8510 9.4634 11.3079 3.8038 11.8275 43.7960
#
#
#
# Elastic Compliance Matrix: (Units=1/GPa)
#
#
# Indices 1 2 3 4 5 6 
#
# 1 0.017173 -0.000030 -0.004512 -0.002959 -0.009719 -0.003731
# 2 -0.000030 0.018247 -0.003298 0.005866 0.001605 -0.004020
# 3 -0.004512 -0.003298 0.007696 -0.000359 0.000634 0.000631
# 4 -0.002959 0.005866 -0.000359 0.026864 0.001873 -0.002673
# 5 -0.009719 0.001605 0.000634 0.001873 0.033725 -0.005376
# 6 -0.003731 -0.004020 0.000631 -0.002673 -0.005376 0.026914
#
#
# Mechanical properties :
#
#
# Convention : Reuss Voigt Hill
#
# Bulk Modulus (GPa) = 36.45022 59.13270 47.79146
# Shear Modulus (GPa) = 32.16548 40.78703 36.47626
#
# Velocity S-wave (km/s) = 3.50016 3.94143 3.72733
# Velocity P-wave (km/s) = 5.49708 6.57537 6.06026
#
# Compressibility (1/GPa) = 0.02743468
#
# Stress axis : x y z
#
# Youngs Moduli (GPa) = 58.23073 54.80431 129.92969
#
# Poissons Ratio (x) = 0.00167 0.58628
# Poissons Ratio (y) = 0.00177 0.42852
# Poissons Ratio (z) = 0.26275 0.18075
#
# Static dielectric constant tensor:
#      x y z
#    x 2.031690 -0.001850 -0.016040 
#    y -0.001850 2.245760 0.069860 
#    z -0.016040 0.069860 1.976830 
# 
# From -- ./inp_files/27317.got.cif
#   From: 2010.05.17/outbox.cif.g08.bks.cpg/sg2_14_cif.got.tgz:27317.got - 2010.06.03 11:33:40.
