data_PCOD9097186
_publ_section_title
;
Structure prediction by ZEFSAII (Michael W. Deem and Ramdas Pophale) SiO2 
 PCOD9097186
Probable space group: P -1
;
_chemical_formula_sum "Si O2"
_cell_formula_units_Z 16
_cell_length_a 16.188667
_cell_length_b 9.005604
_cell_length_c 16.338843
_cell_angle_alpha 143.882128
_cell_angle_beta 26.597172
_cell_angle_gamma 143.382194
_cell_volume 598.810874
_symmetry_space_group_name_H-M "P -1"
_symmetry_group_IT_number 2
_symmetry_cell_setting 'triclinic'
loop_
_space_group_symop_operation_xyz
x,y,z
-x,-y,-z
loop_
_atom_site_type_symbol
_atom_site_label
_atom_site_fract_x
_atom_site_fract_y
_atom_site_fract_z
Si Si1 0.145120 0.336974 0.959650
Si Si2 0.854072 0.085509 0.435453
Si Si3 0.102547 0.152912 0.397211
Si Si4 0.438674 0.007122 0.963260
Si Si5 0.558937 0.901834 0.166591
Si Si6 0.812526 0.478931 0.235693
Si Si7 0.592891 0.539854 0.618500
Si Si8 0.095833 0.247087 0.136518
O O1 0.371793 0.382868 0.765097
O O2 0.116890 0.430580 0.119344
O O3 0.044690 0.029617 0.896011
O O4 0.026404 0.464051 0.059210
O O5 0.645206 0.119856 0.623164
O O6 0.821507 0.766046 0.320394
O O7 0.943942 0.184714 0.488780
O O8 0.001669 0.247894 0.308707
O O9 0.268839 0.402224 0.398583
O O10 0.000000 0.000000 0.500000
O O11 0.216170 0.988635 0.170982
O O12 0.478975 0.209444 0.941921
O O13 0.556527 0.810441 0.740524
O O14 0.500000 0.000000 0.000000
O O15 0.692055 0.211973 0.176936
O O16 0.693613 0.780924 0.046747
O O17 0.698484 0.444266 0.408525
#
# Coordination Sequence:
#
# PCOD9097186 Si02
#       8
#     2   2   2   2   2   2   2   2
#     4  10  24  43  61  89 127 175 209 256 315 377
#     4  12  21  37  63  95 126 160 208 266 315 368
#     4  11  21  38  60  94 129 166 207 256 316 377
#     4  10  20  36  59  91 127 163 197 256 315 370
#     4  11  22  37  64  96 127 161 206 260 324 368
#     4  11  23  37  65 100 127 157 209 270 318 372
#     4  11  22  38  63  93 127 165 208 255 316 371
#     4  10  24  42  62  88 130 170 213 254 313 381
#
# _framework density 26.719622000000001
#
# number of rings (size 3 to 8) (size 9 to 14) (size 15 to 20)
#    0.000    1.250    3.750    2.625    1.750    2.000 
#    0.000    4.375    0.000    1.500    0.000    0.000 
#    0.000    0.000    0.000    0.000    0.000    0.000 
#
# Total GULP energy -89416.767950 kJ/mol
# GULP energy per Si atom -5588.547997 kJ/mol
# Density = 2.665881 g / cm^3
# Si number density = 26.719622 Si / 1000 Ang^3
#
#
#
# Elastic Constant Matrix: (Units=GPa)
#
#
# Indices 1 2 3 4 5 6 
#
# 1 150.3454 32.9898 53.3332 -44.5975 -14.0556 12.9434
# 2 32.9898 79.4792 35.8470 -6.0861 -13.2567 12.8808
# 3 53.3332 35.8470 119.0995 33.2451 0.4752 -14.3169
# 4 -44.5975 -6.0861 33.2451 -122.0765 -15.8968 36.3682
# 5 -14.0556 -13.2567 0.4752 -15.8968 49.1750 -4.5003
# 6 12.9434 12.8808 -14.3169 36.3682 -4.5003 24.1914
#
#
#
# Elastic Compliance Matrix: (Units=1/GPa)
#
#
# Indices 1 2 3 4 5 6 
#
# 1 0.006921 -0.002419 -0.001535 -0.002664 0.000551 0.000784
# 2 -0.002419 0.016231 -0.003653 -0.002715 0.002386 -0.004984
# 3 -0.001535 -0.003653 0.009350 0.003980 -0.000015 0.002313
# 4 -0.002664 -0.002715 0.003980 -0.002983 -0.001635 0.009408
# 5 0.000551 0.002386 -0.000015 -0.001635 0.021047 0.004800
# 6 0.000784 -0.004984 0.002313 0.009408 0.004800 0.031690
#
#
# Mechanical properties :
#
#
# Convention : Reuss Voigt Hill
#
# Bulk Modulus (GPa) = 57.84427 65.91824 61.88125
# Shear Modulus (GPa) = 48.43459 5.37491 26.90475
#
# Velocity S-wave (km/s) = 4.26220 1.41985 3.17666
# Velocity P-wave (km/s) = 6.77624 5.23563 6.05513
#
# Compressibility (1/GPa) = 0.01728780
#
# Stress axis : x y z
#
# Youngs Moduli (GPa) = 144.49535 61.61014 106.94917
#
# Poissons Ratio (x) = 0.14905 0.16420
# Poissons Ratio (y) = 0.34957 0.39064
# Poissons Ratio (z) = 0.22184 0.22504
#
# Static dielectric constant tensor:
#      x y z
#    x 2.111050 0.020350 0.103630 
#    y 0.020350 2.255940 0.043040 
#    z 0.103630 0.043040 2.184620 
# 
# From -- ./inp_files/529347.got.cif
#   From: 2010.05.17/outbox.cif.g08.bks.cpg/sg2_265_cif.got.tgz:529347.got - 2010.06.03 11:33:40.
