data_PCOD9097284
_publ_section_title
;
Structure prediction by ZEFSAII (Michael W. Deem and Ramdas Pophale) SiO2 
 PCOD9097284
Probable space group: P -1
;
_chemical_formula_sum "Si O2"
_cell_formula_units_Z 16
_cell_length_a 7.915950
_cell_length_b 20.279834
_cell_length_c 9.978609
_cell_angle_alpha 131.104721
_cell_angle_beta 135.524728
_cell_angle_gamma 79.845134
_cell_volume 703.659934
_symmetry_space_group_name_H-M "P -1"
_symmetry_group_IT_number 2
_symmetry_cell_setting 'triclinic'
loop_
_space_group_symop_operation_xyz
x,y,z
-x,-y,-z
loop_
_atom_site_type_symbol
_atom_site_label
_atom_site_fract_x
_atom_site_fract_y
_atom_site_fract_z
Si Si1 0.220690 0.542879 0.881461
Si Si2 0.695921 0.888851 0.686656
Si Si3 0.919115 0.348321 0.643615
Si Si4 0.063494 0.371279 0.348618
Si Si5 0.178625 0.212758 0.595578
Si Si6 0.453746 0.971340 0.093164
Si Si7 0.538013 0.694259 0.479132
Si Si8 0.483636 0.798897 0.003745
O O1 0.235939 0.474940 0.680297
O O2 0.057949 0.457382 0.791280
O O3 0.059965 0.592787 0.790531
O O4 0.503564 0.638978 0.241362
O O5 0.625371 0.818240 0.420519
O O6 0.697872 0.817459 0.709737
O O7 0.487706 0.926585 0.659630
O O8 0.000000 0.000000 0.000000
O O9 0.781841 0.348061 0.706371
O O10 0.630858 0.264465 0.284462
O O11 0.136936 0.309536 0.715745
O O12 0.276380 0.337839 0.376325
O O13 0.804630 0.275889 0.164791
O O14 0.257100 0.197700 0.769331
O O15 0.880074 0.127826 0.239486
O O16 0.581835 0.916535 0.176960
O O17 0.500000 0.000000 0.000000
#
# Coordination Sequence:
#
# PCOD9097284 Si02
#       8
#     2   2   2   2   2   2   2   2
#     4  10  22  39  59  88 120 156 199 240 298 362
#     4  10  20  36  60  85 114 154 199 245 291 346
#     4  10  23  39  59  89 124 157 194 246 297 356
#     4  10  22  38  61  90 117 152 200 247 290 352
#     4  10  21  39  62  85 118 161 199 240 296 354
#     4  10  21  39  59  88 123 153 196 250 302 352
#     4  12  22  38  61  85 120 158 195 247 304 352
#     4  10  21  40  61  85 119 156 197 244 295 354
#
# _framework density 22.738258999999999
#
# number of rings (size 3 to 8) (size 9 to 14) (size 15 to 20)
#    0.000    1.750    0.000    6.000    0.000    5.500 
#    0.000    3.750    0.000    0.000    0.000    0.000 
#    0.000    0.000    0.000    0.000    0.000    0.000 
#
# Total GULP energy -89077.014351 kJ/mol
# GULP energy per Si atom -5567.313397 kJ/mol
# Density = 2.268651 g / cm^3
# Si number density = 22.738259 Si / 1000 Ang^3
#
#
#
# Elastic Constant Matrix: (Units=GPa)
#
#
# Indices 1 2 3 4 5 6 
#
# 1 84.0160 57.7926 7.1200 9.4720 -15.8229 -12.2520
# 2 57.7926 213.0516 39.7497 16.5947 -11.4348 -31.1356
# 3 7.1200 39.7497 43.7382 1.0417 -10.2534 -13.1530
# 4 9.4720 16.5947 1.0417 39.6644 2.9721 -0.9731
# 5 -15.8229 -11.4348 -10.2534 2.9721 16.4326 7.2565
# 6 -12.2520 -31.1356 -13.1530 -0.9731 7.2565 26.2727
#
#
#
# Elastic Compliance Matrix: (Units=1/GPa)
#
#
# Indices 1 2 3 4 5 6 
#
# 1 0.018827 -0.004796 0.006062 -0.004053 0.018981 0.000739
# 2 -0.004796 0.007686 -0.005729 -0.001420 -0.004934 0.005314
# 3 0.006062 -0.005729 0.034066 -0.001261 0.020015 0.007517
# 4 -0.004053 -0.001420 -0.001261 0.027590 -0.010549 -0.000268
# 5 0.018981 -0.004934 0.020015 -0.010549 0.096256 -0.013952
# 6 0.000739 0.005314 0.007517 -0.000268 -0.013952 0.052311
#
#
# Mechanical properties :
#
#
# Convention : Reuss Voigt Hill
#
# Bulk Modulus (GPa) = 19.36017 61.12563 40.24290
# Shear Modulus (GPa) = 19.02014 32.21682 25.61848
#
# Velocity S-wave (km/s) = 2.89534 3.76820 3.36023
# Velocity P-wave (km/s) = 4.43961 6.77297 5.72640
#
# Compressibility (1/GPa) = 0.05165245
#
# Stress axis : x y z
#
# Youngs Moduli (GPa) = 53.11556 130.10950 29.35502
#
# Poissons Ratio (x) = 0.62395 -0.17794
# Poissons Ratio (y) = 0.25472 0.16818
# Poissons Ratio (z) = -0.32197 0.74541
#
# Static dielectric constant tensor:
#      x y z
#    x 1.942190 0.031200 0.007350 
#    y 0.031200 1.872080 0.045750 
#    z 0.007350 0.045750 1.832810 
# 
# From -- ./inp_files/215635.got.cif
#   From: 2010.05.17/outbox.cif.g08.bks.cpg/sg2_108_cif.got.tgz:215635.got - 2010.06.03 11:33:40.
