data_PCOD9097821
_publ_section_title
;
Structure prediction by ZEFSAII (Michael W. Deem and Ramdas Pophale) SiO2 
 PCOD9097821
Probable space group: P -1
;
_chemical_formula_sum "Si O2"
_cell_formula_units_Z 16
_cell_length_a 21.312788
_cell_length_b 9.526369
_cell_length_c 9.744302
_cell_angle_alpha 79.286846
_cell_angle_beta 133.326710
_cell_angle_gamma 136.296862
_cell_volume 782.480131
_symmetry_space_group_name_H-M "P -1"
_symmetry_group_IT_number 2
_symmetry_cell_setting 'triclinic'
loop_
_space_group_symop_operation_xyz
x,y,z
-x,-y,-z
loop_
_atom_site_type_symbol
_atom_site_label
_atom_site_fract_x
_atom_site_fract_y
_atom_site_fract_z
Si Si1 0.683745 0.292350 0.200052
Si Si2 0.628802 0.107718 0.859309
Si Si3 0.899008 0.338209 0.516574
Si Si4 0.650666 0.845725 0.058307
Si Si5 0.159841 0.144707 0.260141
Si Si6 0.695949 0.375962 0.638775
Si Si7 0.990992 0.340804 0.933192
Si Si8 0.295741 0.364822 0.717878
O O1 0.814897 0.365163 0.441577
O O2 0.718764 0.499394 0.264298
O O3 0.700179 0.287866 0.062292
O O4 0.500000 0.000000 0.000000
O O5 0.663224 0.241235 0.750401
O O6 0.675741 0.004610 0.954484
O O7 0.440351 0.843879 0.632640
O O8 0.000000 0.500000 0.500000
O O9 0.995744 0.393997 0.770263
O O10 0.749613 0.039275 0.300967
O O11 0.468944 0.593210 0.869966
O O12 0.709779 0.765487 0.149792
O O13 0.291308 0.436600 0.351609
O O14 0.180305 0.177142 0.450617
O O15 0.151243 0.970647 0.222881
O O16 0.000000 0.000000 0.000000
O O17 0.862043 0.545997 0.813067
O O18 0.000000 0.500000 0.000000
#
# Coordination Sequence:
#
# PCOD9097821 Si02
#       8
#     2   2   2   2   2   2   2   2
#     4  11  21  36  65  95 119 156 220 258 295 373
#     4  10  20  38  63  88 121 164 200 256 315 376
#     4  11  23  41  61  91 134 167 199 258 330 376
#     4  10  20  36  62  89 121 160 203 256 318 366
#     4  10  21  38  61  84 123 160 206 252 318 372
#     4  10  21  40  60  85 125 165 202 244 323 380
#     4  11  24  37  62  91 119 164 213 259 303 380
#     4  11  20  37  62  95 117 155 211 267 304 360
#
# _framework density 20.447804000000001
#
# number of rings (size 3 to 8) (size 9 to 14) (size 15 to 20)
#    0.000    1.500    5.000    1.500    5.250    0.000 
#    0.000    3.125    0.000    3.000    0.000    0.000 
#    0.000    0.000    0.000    0.000    0.000    0.000 
#
# Total GULP energy -89095.013509 kJ/mol
# GULP energy per Si atom -5568.438344 kJ/mol
# Density = 2.040126 g / cm^3
# Si number density = 20.447804 Si / 1000 Ang^3
#
#
#
# Elastic Constant Matrix: (Units=GPa)
#
#
# Indices 1 2 3 4 5 6 
#
# 1 42.7184 40.4826 14.8344 3.9692 -2.6948 -27.7783
# 2 40.4826 143.1914 18.9139 -14.2582 -12.3787 -35.5552
# 3 14.8344 18.9139 106.6692 -0.5264 -9.8048 -11.1924
# 4 3.9692 -14.2582 -0.5264 34.5672 -4.9061 -8.5653
# 5 -2.6948 -12.3787 -9.8048 -4.9061 29.0080 -2.9159
# 6 -27.7783 -35.5552 -11.1924 -8.5653 -2.9159 41.6271
#
#
#
# Elastic Compliance Matrix: (Units=1/GPa)
#
#
# Indices 1 2 3 4 5 6 
#
# 1 0.047221 -0.006740 -0.002496 -0.001647 0.002896 0.024948
# 2 -0.006740 0.012540 0.000338 0.009135 0.007258 0.008692
# 3 -0.002496 0.000338 0.010230 0.001617 0.003842 0.001975
# 4 -0.001647 0.009135 0.001617 0.038629 0.012429 0.015957
# 5 0.002896 0.007258 0.003842 0.012429 0.042720 0.014715
# 6 0.024948 0.008692 0.001975 0.015957 0.014715 0.052941
#
#
# Mechanical properties :
#
#
# Convention : Reuss Voigt Hill
#
# Bulk Modulus (GPa) = 19.15859 49.00453 34.08156
# Shear Modulus (GPa) = 20.87903 35.59699 28.23801
#
# Velocity S-wave (km/s) = 3.19892 4.17690 3.72019
# Velocity P-wave (km/s) = 4.79937 6.87602 5.92932
#
# Compressibility (1/GPa) = 0.05219591
#
# Stress axis : x y z
#
# Youngs Moduli (GPa) = 21.17702 79.74559 97.74779
#
# Poissons Ratio (x) = 0.53745 0.24400
# Poissons Ratio (y) = 0.14272 -0.03305
# Poissons Ratio (z) = 0.05286 -0.02696
#
# Static dielectric constant tensor:
#      x y z
#    x 1.717860 -0.003300 0.028300 
#    y -0.003300 1.829010 0.005990 
#    z 0.028300 0.005990 1.773870 
# 
# From -- ./inp_files/269636.got.cif
#   From: 2010.05.17/outbox.cif.g08.bks.cpg/sg2_135_cif.got.tgz:269636.got - 2010.06.03 11:33:40.
