data_PCOD9097666
_publ_section_title
;
Structure prediction by ZEFSAII (Michael W. Deem and Ramdas Pophale) SiO2 
 PCOD9097666
Probable space group: P -1
;
_chemical_formula_sum "Si O2"
_cell_formula_units_Z 16
_cell_length_a 9.217446
_cell_length_b 14.638160
_cell_length_c 18.908449
_cell_angle_alpha 139.019355
_cell_angle_beta 29.503370
_cell_angle_gamma 136.746624
_cell_volume 803.643027
_symmetry_space_group_name_H-M "P -1"
_symmetry_group_IT_number 2
_symmetry_cell_setting 'triclinic'
loop_
_space_group_symop_operation_xyz
x,y,z
-x,-y,-z
loop_
_atom_site_type_symbol
_atom_site_label
_atom_site_fract_x
_atom_site_fract_y
_atom_site_fract_z
Si Si1 0.781948 0.776525 0.594443
Si Si2 0.108011 0.822383 0.921369
Si Si3 0.929686 0.067555 0.642462
Si Si4 0.781034 0.643146 0.362841
Si Si5 0.255633 0.446481 0.012689
Si Si6 0.341755 0.137276 0.983473
Si Si7 0.349546 0.573692 0.905640
Si Si8 0.246225 0.447274 0.410976
O O1 0.422197 0.772810 0.748762
O O2 0.838713 0.701631 0.452587
O O3 0.870125 0.693278 0.575318
O O4 0.939159 0.944709 0.623406
O O5 0.189708 0.991357 0.003146
O O6 0.908926 0.717309 0.000607
O O7 0.911352 0.812424 0.926686
O O8 0.588771 0.091321 0.800484
O O9 0.147647 0.222507 0.642558
O O10 0.000000 0.000000 0.500000
O O11 0.435834 0.561596 0.451995
O O12 0.005746 0.541614 0.186992
O O13 0.420686 0.480901 0.887692
O O14 0.500000 0.500000 0.000000
O O15 0.539421 0.263573 0.019617
O O16 0.512505 0.571408 0.761306
O O17 0.000000 0.500000 0.000000
O O18 0.000000 0.500000 0.500000
#
# Coordination Sequence:
#
# PCOD9097666 Si02
#       8
#     2   2   2   2   2   2   2   2
#     4  10  22  39  65  88 122 161 209 258 314 372
#     4  10  20  37  60  96 120 152 217 259 312 367
#     4   9  18  37  62  92 121 152 202 260 314 360
#     4  11  21  40  65  91 120 162 210 263 311 368
#     4  12  22  36  65  92 119 159 217 259 312 374
#     4  10  20  36  61  92 126 159 199 267 315 368
#     4  12  23  42  62  88 132 165 208 256 318 381
#     4  12  27  41  59  92 130 170 209 253 317 374
#
# _framework density 19.909336
#
# number of rings (size 3 to 8) (size 9 to 14) (size 15 to 20)
#    0.000    1.250    5.000    0.375    3.500    0.000 
#    0.000    7.500    0.000    0.000    0.000    0.000 
#    0.000    0.000    0.000    0.000    0.000    0.000 
#
# Total GULP energy -89230.222629 kJ/mol
# GULP energy per Si atom -5576.888914 kJ/mol
# Density = 1.986402 g / cm^3
# Si number density = 19.909336 Si / 1000 Ang^3
#
#
#
# Elastic Constant Matrix: (Units=GPa)
#
#
# Indices 1 2 3 4 5 6 
#
# 1 92.4962 37.5954 20.6480 7.1286 -5.4475 -16.8321
# 2 37.5954 165.6746 13.7087 -1.5946 0.5920 -23.5465
# 3 20.6480 13.7087 45.9499 3.1560 1.8195 -6.8985
# 4 7.1286 -1.5946 3.1560 18.9895 -7.2058 4.2890
# 5 -5.4475 0.5920 1.8195 -7.2058 30.4974 -5.6897
# 6 -16.8321 -23.5465 -6.8985 4.2890 -5.6897 42.3970
#
#
#
# Elastic Compliance Matrix: (Units=1/GPa)
#
#
# Indices 1 2 3 4 5 6 
#
# 1 0.014102 -0.002233 -0.004788 -0.004709 0.002556 0.004399
# 2 -0.002233 0.007014 -0.000747 0.001019 0.000277 0.002822
# 3 -0.004788 -0.000747 0.024776 -0.003877 -0.002915 0.001717
# 4 -0.004709 0.001019 -0.003877 0.061426 0.012681 -0.006447
# 5 0.002556 0.000277 -0.002915 0.012681 0.037233 0.004408
# 6 0.004399 0.002822 0.001717 -0.006447 0.004408 0.028423
#
#
# Mechanical properties :
#
#
# Convention : Reuss Voigt Hill
#
# Bulk Modulus (GPa) = 32.94087 49.78054 41.36071
# Shear Modulus (GPa) = 25.17254 33.85470 29.51362
#
# Velocity S-wave (km/s) = 3.55964 4.12812 3.85437
# Velocity P-wave (km/s) = 5.78585 6.91229 6.37400
#
# Compressibility (1/GPa) = 0.03035743
#
# Stress axis : x y z
#
# Youngs Moduli (GPa) = 70.91396 142.56626 40.36088
#
# Poissons Ratio (x) = 0.31837 0.19324
# Poissons Ratio (y) = 0.15836 0.03013
# Poissons Ratio (z) = 0.33952 0.10643
#
# Static dielectric constant tensor:
#      x y z
#    x 1.691050 -0.016570 0.007740 
#    y -0.016570 1.762310 0.002210 
#    z 0.007740 0.002210 1.716010 
# 
# From -- ./inp_files/561380.got.cif
#   From: 2010.05.17/outbox.cif.g08.bks.cpg/sg2_281_cif.got.tgz:561380.got - 2010.06.03 11:33:40.
