data_PCOD9097746
_publ_section_title
;
Structure prediction by ZEFSAII (Michael W. Deem and Ramdas Pophale) SiO2 
 PCOD9097746
Probable space group: P -1
;
_chemical_formula_sum "Si O2"
_cell_formula_units_Z 16
_cell_length_a 13.348668
_cell_length_b 7.557791
_cell_length_c 7.884914
_cell_angle_alpha 96.514920
_cell_angle_beta 86.407399
_cell_angle_gamma 55.210837
_cell_volume 641.115279
_symmetry_space_group_name_H-M "P -1"
_symmetry_group_IT_number 2
_symmetry_cell_setting 'triclinic'
loop_
_space_group_symop_operation_xyz
x,y,z
-x,-y,-z
loop_
_atom_site_type_symbol
_atom_site_label
_atom_site_fract_x
_atom_site_fract_y
_atom_site_fract_z
Si Si1 0.399640 0.359208 0.748544
Si Si2 0.632987 0.145695 0.527162
Si Si3 0.092163 0.068318 0.052138
Si Si4 0.477034 0.902388 0.806946
Si Si5 0.868921 0.001067 0.340412
Si Si6 0.024188 0.717542 0.589867
Si Si7 0.358806 0.714384 0.998532
Si Si8 0.285148 0.311218 0.415425
O O1 0.317645 0.591368 0.869783
O O2 0.337046 0.341754 0.588169
O O3 0.523288 0.334529 0.670500
O O4 0.439937 0.149488 0.838194
O O5 0.731328 0.176348 0.444155
O O6 0.689692 0.924808 0.602493
O O7 0.569828 0.116586 0.372010
O O8 0.129682 0.086643 0.856940
O O9 0.222442 0.884417 0.115004
O O10 0.025736 0.273280 0.213366
O O11 0.000000 0.000000 0.000000
O O12 0.396567 0.866691 0.936553
O O13 0.625602 0.719615 0.752847
O O14 0.927385 0.815205 0.457432
O O15 0.939787 0.113311 0.359527
O O16 0.142470 0.503215 0.469034
O O17 0.500000 0.500000 0.000000
#
# Coordination Sequence:
#
# PCOD9097746 Si02
#       8
#     2   2   2   2   2   2   2   2
#     4   9  20  37  60  90 124 158 200 272 321 373
#     4   9  18  35  61  86 120 157 207 255 321 383
#     4  10  22  42  59  87 134 165 206 268 311 384
#     4   9  20  38  60  91 123 153 213 264 317 381
#     4  10  20  36  62  83 118 169 205 254 318 369
#     4  10  22  35  61  89 124 162 212 262 308 376
#     4  12  25  37  65  93 121 175 219 258 319 383
#     4   9  19  37  60  91 119 156 208 264 316 381
#
# _framework density 24.956506999999998
#
# number of rings (size 3 to 8) (size 9 to 14) (size 15 to 20)
#    0.000    2.250    1.250    3.000    3.500    4.000 
#    0.000    0.625    5.500    0.000    0.000    0.000 
#    0.000    0.000    0.000    0.000    0.000    0.000 
#
# Total GULP energy -89118.980676 kJ/mol
# GULP energy per Si atom -5569.936292 kJ/mol
# Density = 2.489971 g / cm^3
# Si number density = 24.956507 Si / 1000 Ang^3
#
#
#
# Elastic Constant Matrix: (Units=GPa)
#
#
# Indices 1 2 3 4 5 6 
#
# 1 72.6176 23.2483 26.3938 1.5270 -9.5591 -6.4790
# 2 23.2483 52.0475 18.1221 2.8550 -5.6205 -22.0241
# 3 26.3938 18.1221 107.2957 19.5491 5.6000 2.0951
# 4 1.5270 2.8550 19.5491 21.0202 -3.3500 -9.4960
# 5 -9.5591 -5.6205 5.6000 -3.3500 40.7774 5.5663
# 6 -6.4790 -22.0241 2.0951 -9.4960 5.5663 29.0571
#
#
#
# Elastic Compliance Matrix: (Units=1/GPa)
#
#
# Indices 1 2 3 4 5 6 
#
# 1 0.017808 -0.006074 -0.004392 0.004439 0.004262 0.000318
# 2 -0.006074 0.039462 -0.009719 0.020527 0.002184 0.035547
# 3 -0.004392 -0.009719 0.016485 -0.021480 -0.004249 -0.015740
# 4 0.004439 0.020527 -0.021480 0.085856 0.007776 0.044665
# 5 0.004262 0.002184 -0.004249 0.007776 0.027008 0.000280
# 6 0.000318 0.035547 -0.015740 0.044665 0.000280 0.077107
#
#
# Mechanical properties :
#
#
# Convention : Reuss Voigt Hill
#
# Bulk Modulus (GPa) = 29.95393 40.83214 35.39304
# Shear Modulus (GPa) = 15.86181 29.11739 22.48960
#
# Velocity S-wave (km/s) = 2.52380 3.41944 3.00518
# Velocity P-wave (km/s) = 4.53004 5.65570 5.12388
#
# Compressibility (1/GPa) = 0.03338460
#
# Stress axis : x y z
#
# Youngs Moduli (GPa) = 56.15576 25.34098 60.66256
#
# Poissons Ratio (x) = 0.15391 0.26643
# Poissons Ratio (y) = 0.34107 0.58958
# Poissons Ratio (z) = 0.24664 0.24629
#
# Static dielectric constant tensor:
#      x y z
#    x 2.049420 -0.077960 -0.007610 
#    y -0.077960 2.041360 -0.034780 
#    z -0.007610 -0.034780 2.073760 
# 
# From -- ./inp_files/298808.got.cif
#   From: 2010.05.17/outbox.cif.g08.bks.cpg/sg2_150_cif.got.tgz:298808.got - 2010.06.03 11:33:40.
