data_PCOD9097774
_publ_section_title
;
Structure prediction by ZEFSAII (Michael W. Deem and Ramdas Pophale) SiO2 
 PCOD9097774
Probable space group: P -1
;
_chemical_formula_sum "Si O2"
_cell_formula_units_Z 14
_cell_length_a 28.123898
_cell_length_b 7.474800
_cell_length_c 11.600144
_cell_angle_alpha 134.094228
_cell_angle_beta 150.221217
_cell_angle_gamma 30.532489
_cell_volume 602.201255
_symmetry_space_group_name_H-M "P -1"
_symmetry_group_IT_number 2
_symmetry_cell_setting 'triclinic'
loop_
_space_group_symop_operation_xyz
x,y,z
-x,-y,-z
loop_
_atom_site_type_symbol
_atom_site_label
_atom_site_fract_x
_atom_site_fract_y
_atom_site_fract_z
Si Si1 0.305310 0.172278 0.214813
Si Si2 0.374659 0.426732 0.894685
Si Si3 0.929828 0.378792 0.257861
Si Si4 0.634576 0.176536 0.273207
Si Si5 0.797301 0.339327 0.581457
Si Si6 0.742314 0.464174 0.070096
Si Si7 0.391447 0.520872 0.427329
O O1 0.225122 0.386164 0.259125
O O2 0.358585 0.337781 0.351662
O O3 0.443408 0.766660 0.357016
O O4 0.201018 0.296448 0.949339
O O5 0.277564 0.494927 0.623929
O O6 0.277549 0.643420 0.899543
O O7 0.466019 0.483614 0.059744
O O8 0.500000 0.000000 0.000000
O O9 0.882589 0.289523 0.223996
O O10 0.000000 0.500000 0.500000
O O11 0.042279 0.022014 0.259004
O O12 0.716068 0.252922 0.423734
O O13 0.666715 0.147467 0.465993
O O14 0.678637 0.851826 0.147670
O O15 0.665834 0.445878 0.802904
#
# Coordination Sequence:
#
# PCOD9097774 Si02
#       7
#     2   2   2   2   2   2   2
#     4   9  19  35  55  91 117 141 198 252 288 336
#     4  10  22  36  60  88 118 155 189 244 300 341
#     4  11  22  36  60  86 116 158 199 235 286 351
#     4  10  20  36  62  87 114 150 199 241 295 335
#     4  11  21  37  62  85 116 159 195 238 289 350
#     4  10  21  41  57  88 126 150 195 242 291 350
#     4   9  19  34  60  88 116 150 192 249 294 338
#
# _framework density 23.248042000000002
#
# number of rings (size 3 to 8) (size 9 to 14) (size 15 to 20)
#    0.000    2.000    1.429    2.571    2.000    4.571 
#    0.000    0.000    0.000    0.857    0.000    0.000 
#    0.000    0.000    0.000    0.000    0.000    0.000 
#
# Total GULP energy -78059.646396 kJ/mol
# GULP energy per Si atom -5575.689028 kJ/mol
# Density = 2.319513 g / cm^3
# Si number density = 23.248042 Si / 1000 Ang^3
#
#
#
# Elastic Constant Matrix: (Units=GPa)
#
#
# Indices 1 2 3 4 5 6 
#
# 1 132.9553 35.3507 27.0288 -3.3414 17.7894 -26.9416
# 2 35.3507 64.4234 23.5487 4.5384 -5.4649 -22.1986
# 3 27.0288 23.5487 87.7048 9.3212 21.2054 -15.8307
# 4 -3.3414 4.5384 9.3212 33.5897 -11.5964 -1.4826
# 5 17.7894 -5.4649 21.2054 -11.5964 35.4209 10.3411
# 6 -26.9416 -22.1986 -15.8307 -1.4826 10.3411 41.1526
#
#
#
# Elastic Compliance Matrix: (Units=1/GPa)
#
#
# Indices 1 2 3 4 5 6 
#
# 1 0.011538 -0.005035 0.002239 -0.002256 -0.011105 0.008408
# 2 -0.005035 0.022661 -0.005967 0.001299 0.008712 0.004490
# 3 0.002239 -0.005967 0.020829 -0.011727 -0.021646 0.011277
# 4 -0.002256 0.001299 -0.011727 0.040673 0.024590 -0.010001
# 5 -0.011105 0.008712 -0.021646 0.024590 0.063763 -0.026035
# 6 0.008408 0.004490 0.011277 -0.010001 -0.026035 0.042746
#
#
# Mechanical properties :
#
#
# Convention : Reuss Voigt Hill
#
# Bulk Modulus (GPa) = 26.66569 50.77110 38.71840
# Shear Modulus (GPa) = 21.52966 35.30968 28.41967
#
# Velocity S-wave (km/s) = 3.04647 3.90144 3.50015
# Velocity P-wave (km/s) = 4.88565 6.49471 5.74677
#
# Compressibility (1/GPa) = 0.03750137
#
# Stress axis : x y z
#
# Youngs Moduli (GPa) = 86.67049 44.12901 48.00894
#
# Poissons Ratio (x) = 0.22221 -0.10747
# Poissons Ratio (y) = 0.43642 0.28645
# Poissons Ratio (z) = -0.19402 0.26330
#
# Static dielectric constant tensor:
#      x y z
#    x 1.971280 0.035740 0.023460 
#    y 0.035740 1.983490 0.073670 
#    z 0.023460 0.073670 1.878490 
# 
# From -- ./inp_files/195078.got.cif
#   From: 2010.05.17/outbox.cif.g08.bks.cpg/sg2_98_cif.got.tgz:195078.got - 2010.06.03 11:33:40.
