data_PCOD9097934
_publ_section_title
;
Structure prediction by ZEFSAII (Michael W. Deem and Ramdas Pophale) SiO2 
 PCOD9097934
Probable space group: P -1
;
_chemical_formula_sum "Si O2"
_cell_formula_units_Z 16
_cell_length_a 15.536679
_cell_length_b 11.268031
_cell_length_c 7.329453
_cell_angle_alpha 138.357270
_cell_angle_beta 94.026465
_cell_angle_gamma 61.942027
_cell_volume 660.204103
_symmetry_space_group_name_H-M "P -1"
_symmetry_group_IT_number 2
_symmetry_cell_setting 'triclinic'
loop_
_space_group_symop_operation_xyz
x,y,z
-x,-y,-z
loop_
_atom_site_type_symbol
_atom_site_label
_atom_site_fract_x
_atom_site_fract_y
_atom_site_fract_z
Si Si1 0.030741 0.427760 0.636725
Si Si2 0.721277 0.508110 0.902733
Si Si3 0.617425 0.458793 0.276315
Si Si4 0.961216 0.253956 0.744824
Si Si5 0.368036 0.714607 0.524129
Si Si6 0.424248 0.138691 0.417353
Si Si7 0.682655 0.865609 0.110734
Si Si8 0.725652 0.969232 0.638466
O O1 0.162346 0.232376 0.473688
O O2 0.000000 0.500000 0.500000
O O3 0.984719 0.315621 0.619232
O O4 0.994199 0.655803 0.002329
O O5 0.828339 0.411517 0.925610
O O6 0.701681 0.328803 0.657618
O O7 0.611488 0.727676 0.240050
O O8 0.738644 0.600611 0.827046
O O9 0.493274 0.586125 0.322601
O O10 0.615459 0.407384 0.425595
O O11 0.638832 0.640017 0.468016
O O12 0.703663 0.208462 0.914890
O O13 0.000000 0.000000 0.500000
O O14 0.304700 0.984557 0.848462
O O15 0.552395 0.987917 0.218543
O O16 0.378342 0.999769 0.250405
O O17 0.719083 0.907918 0.358675
#
# Coordination Sequence:
#
# PCOD9097934 Si02
#       8
#     2   2   2   2   2   2   2   2
#     4  11  27  49  71 100 137 177 234 295 350 405
#     4  11  21  39  63  88 121 164 215 260 329 382
#     4  10  22  36  55  94 135 166 207 258 321 402
#     4  11  27  47  72 100 135 176 235 296 342 410
#     4  10  22  36  57  93 134 168 205 258 325 397
#     4  10  20  36  62  94 124 161 212 255 312 393
#     4  10  20  36  63  92 123 165 209 256 313 390
#     4  11  21  39  65  87 123 167 215 262 328 388
#
# _framework density 24.234929999999999
#
# number of rings (size 3 to 8) (size 9 to 14) (size 15 to 20)
#    0.000    1.500    2.500    3.750    3.500    6.500 
#    0.000    3.750    0.000    0.000    0.000    0.000 
#    0.000    0.000    0.000    0.000    0.000    0.000 
#
# Total GULP energy -89279.629706 kJ/mol
# GULP energy per Si atom -5579.976857 kJ/mol
# Density = 2.417977 g / cm^3
# Si number density = 24.234930 Si / 1000 Ang^3
#
#
#
# Elastic Constant Matrix: (Units=GPa)
#
#
# Indices 1 2 3 4 5 6 
#
# 1 77.0080 30.2349 19.1598 7.3692 7.0377 -1.5910
# 2 30.2349 133.5045 31.5811 6.4166 20.3297 19.2890
# 3 19.1598 31.5811 55.2617 8.6555 7.1114 6.3745
# 4 7.3692 6.4166 8.6555 42.9704 0.9446 10.9897
# 5 7.0377 20.3297 7.1114 0.9446 18.1847 12.8897
# 6 -1.5910 19.2890 6.3745 10.9897 12.8897 42.9724
#
#
#
# Elastic Compliance Matrix: (Units=1/GPa)
#
#
# Indices 1 2 3 4 5 6 
#
# 1 0.015600 -0.002476 -0.003461 -0.002608 -0.004845 0.004322
# 2 -0.002476 0.010434 -0.003926 0.000323 -0.007820 -0.001930
# 3 -0.003461 -0.003926 0.022421 -0.003276 -0.002876 0.000008
# 4 -0.002608 0.000323 -0.003276 0.026350 0.006558 -0.008462
# 5 -0.004845 -0.007820 -0.002876 0.006558 0.082448 -0.022650
# 6 0.004322 -0.001930 0.000008 -0.008462 -0.022650 0.033254
#
#
# Mechanical properties :
#
#
# Convention : Reuss Voigt Hill
#
# Bulk Modulus (GPa) = 34.80613 47.52508 41.16560
# Shear Modulus (GPa) = 22.74698 33.14539 27.94618
#
# Velocity S-wave (km/s) = 3.06699 3.70221 3.39947
# Velocity P-wave (km/s) = 5.18990 6.15856 5.69486
#
# Compressibility (1/GPa) = 0.02873057
#
# Stress axis : x y z
#
# Youngs Moduli (GPa) = 64.10129 95.84107 44.60044
#
# Poissons Ratio (x) = 0.23729 0.15435
# Poissons Ratio (y) = 0.15870 0.17510
# Poissons Ratio (z) = 0.22183 0.37628
#
# Static dielectric constant tensor:
#      x y z
#    x 1.953580 0.065060 -0.022910 
#    y 0.065060 2.023600 -0.019670 
#    z -0.022910 -0.019670 1.958620 
# 
# From -- ./inp_files/306016.got.cif
#   From: 2010.05.17/outbox.cif.g08.bks.cpg/sg2_154_cif.got.tgz:306016.got - 2010.06.03 11:33:40.
