data_PCOD9097439
_publ_section_title
;
Structure prediction by ZEFSAII (Michael W. Deem and Ramdas Pophale) SiO2 
 PCOD9097439
Probable space group: P -1
;
_chemical_formula_sum "Si O2"
_cell_formula_units_Z 14
_cell_length_a 10.647253
_cell_length_b 16.170235
_cell_length_c 11.567922
_cell_angle_alpha 39.921666
_cell_angle_beta 150.901621
_cell_angle_gamma 148.206823
_cell_volume 507.996703
_symmetry_space_group_name_H-M "P -1"
_symmetry_group_IT_number 2
_symmetry_cell_setting 'triclinic'
loop_
_space_group_symop_operation_xyz
x,y,z
-x,-y,-z
loop_
_atom_site_type_symbol
_atom_site_label
_atom_site_fract_x
_atom_site_fract_y
_atom_site_fract_z
Si Si1 0.284067 0.420446 0.798701
Si Si2 0.939381 0.992260 0.594923
Si Si3 0.493085 0.133420 0.291645
Si Si4 0.833352 0.424450 0.133022
Si Si5 0.605500 0.320372 0.551494
Si Si6 0.809670 0.665522 0.613568
Si Si7 0.910377 0.109294 0.957620
O O1 0.275800 0.557020 0.587498
O O2 0.500000 0.500000 0.000000
O O3 0.492347 0.392433 0.906903
O O4 0.981211 0.261424 0.779233
O O5 0.559136 0.860250 0.426616
O O6 0.094046 0.926535 0.870793
O O7 0.000000 0.000000 0.500000
O O8 0.073572 0.173656 0.535167
O O9 0.808115 0.303975 0.339592
O O10 0.250938 0.143786 0.161755
O O11 0.500000 0.000000 0.500000
O O12 0.340332 0.055555 0.128637
O O13 0.112115 0.599951 0.212218
O O14 0.922836 0.367622 0.152425
O O15 0.315958 0.316476 0.384464
O O16 0.500000 0.500000 0.500000
#
# Coordination Sequence:
#
# PCOD9097439 Si02
#       7
#     2   2   2   2   2   2   2
#     4  11  22  39  60  92 130 164 210 261 319 379
#     4  10  20  39  66  93 126 172 211 261 329 379
#     4  10  20  36  60  92 124 163 212 264 316 373
#     4  10  22  39  62  94 120 172 214 254 323 379
#     4  10  21  41  65  91 132 164 207 266 321 381
#     4   9  20  39  65  90 123 166 211 261 312 377
#     4  10  21  38  61  91 128 164 210 264 314 376
#
# _framework density 27.559235999999999
#
# number of rings (size 3 to 8) (size 9 to 14) (size 15 to 20)
#    0.000    2.000    1.429    1.714    0.000    6.857 
#    5.143    2.857    0.000   12.857    0.000    0.000 
#    0.000    0.000    0.000    0.000    0.000    0.000 
#
# Total GULP energy -78178.055451 kJ/mol
# GULP energy per Si atom -5584.146818 kJ/mol
# Density = 2.749651 g / cm^3
# Si number density = 27.559236 Si / 1000 Ang^3
#
#
#
# Elastic Constant Matrix: (Units=GPa)
#
#
# Indices 1 2 3 4 5 6 
#
# 1 113.8204 30.6572 24.8501 -3.1904 9.1683 16.4863
# 2 30.6572 232.0912 42.2135 -16.8522 -5.7189 17.5969
# 3 24.8501 42.2135 61.4130 -26.6619 -14.0393 12.0928
# 4 -3.1904 -16.8522 -26.6619 58.5797 -0.1844 -3.2562
# 5 9.1683 -5.7189 -14.0393 -0.1844 47.1110 4.4765
# 6 16.4863 17.5969 12.0928 -3.2562 4.4765 49.9347
#
#
#
# Elastic Compliance Matrix: (Units=1/GPa)
#
#
# Indices 1 2 3 4 5 6 
#
# 1 0.010570 -0.000539 -0.005252 -0.002084 -0.003520 -0.001848
# 2 -0.000539 0.005001 -0.003112 -0.000053 -0.000138 -0.000822
# 3 -0.005252 -0.003112 0.028632 0.011647 0.009622 -0.004206
# 4 -0.002084 -0.000053 0.011647 0.022198 0.004054 -0.001030
# 5 -0.003520 -0.000138 0.009622 0.004054 0.025073 -0.003103
# 6 -0.001848 -0.000822 -0.004206 -0.001030 -0.003103 0.022156
#
#
# Mechanical properties :
#
#
# Convention : Reuss Voigt Hill
#
# Bulk Modulus (GPa) = 37.88364 66.97402 52.42883
# Shear Modulus (GPa) = 35.65433 51.76534 43.70983
#
# Velocity S-wave (km/s) = 3.60075 4.33867 3.98682
# Velocity P-wave (km/s) = 5.57345 7.03231 6.34495
#
# Compressibility (1/GPa) = 0.02639662
#
# Stress axis : x y z
#
# Youngs Moduli (GPa) = 94.60298 199.96225 34.92627
#
# Poissons Ratio (x) = 0.10775 0.18344
# Poissons Ratio (y) = 0.05098 0.10870
# Poissons Ratio (z) = 0.49687 0.62233
#
# Static dielectric constant tensor:
#      x y z
#    x 2.289220 -0.101810 0.089120 
#    y -0.101810 2.279890 -0.090840 
#    z 0.089120 -0.090840 2.322840 
# 
# From -- ./inp_files/437249.got.cif
#   From: 2010.05.17/outbox.cif.g08.bks.cpg/sg2_219_cif.got.tgz:437249.got - 2010.06.03 11:33:40.
