data_PCOD9097559
_publ_section_title
;
Structure prediction by ZEFSAII (Michael W. Deem and Ramdas Pophale) SiO2 
 PCOD9097559
Probable space group: P -1
;
_chemical_formula_sum "Si O2"
_cell_formula_units_Z 16
_cell_length_a 8.849519
_cell_length_b 14.894033
_cell_length_c 11.138081
_cell_angle_alpha 135.159431
_cell_angle_beta 39.439997
_cell_angle_gamma 117.115669
_cell_volume 643.654402
_symmetry_space_group_name_H-M "P -1"
_symmetry_group_IT_number 2
_symmetry_cell_setting 'triclinic'
loop_
_space_group_symop_operation_xyz
x,y,z
-x,-y,-z
loop_
_atom_site_type_symbol
_atom_site_label
_atom_site_fract_x
_atom_site_fract_y
_atom_site_fract_z
Si Si1 0.148112 0.423530 0.624124
Si Si2 0.083209 0.720728 0.903078
Si Si3 0.814737 0.966845 0.684638
Si Si4 0.931223 0.210929 0.451812
Si Si5 0.714393 0.839592 0.034513
Si Si6 0.591264 0.238149 0.043685
Si Si7 0.391032 0.267006 0.514120
Si Si8 0.474053 0.891277 0.509345
O O1 0.071265 0.569863 0.769588
O O2 0.949352 0.337221 0.637175
O O3 0.385977 0.350778 0.333377
O O4 0.239716 0.403052 0.686147
O O5 0.164676 0.747628 0.017587
O O6 0.326247 0.737849 0.694736
O O7 0.853347 0.795951 0.035141
O O8 0.968981 0.924992 0.669116
O O9 0.713521 0.839783 0.597354
O O10 0.000000 0.000000 0.500000
O O11 0.597791 0.090374 0.941284
O O12 0.091215 0.213062 0.237183
O O13 0.673695 0.199696 0.553384
O O14 0.481575 0.780524 0.070531
O O15 0.656533 0.997780 0.210176
O O16 0.350324 0.215917 0.622277
O O17 0.500000 0.000000 0.500000
#
# Coordination Sequence:
#
# PCOD9097559 Si02
#       8
#     2   2   2   2   2   2   2   2
#     4   9  22  39  62  93 121 162 219 268 308 367
#     4  11  22  41  63  94 130 160 218 275 307 368
#     4  11  22  37  58  91 134 167 203 262 324 394
#     4  10  22  36  62  92 120 169 208 256 327 370
#     4  11  23  38  64  97 128 161 214 267 320 381
#     4  10  21  36  61  92 123 168 208 253 330 370
#     4  10  20  36  61  87 125 159 207 259 319 378
#     4  12  23  37  59  95 133 161 202 263 332 391
#
# _framework density 24.858059000000001
#
# number of rings (size 3 to 8) (size 9 to 14) (size 15 to 20)
#    0.000    1.500    2.500    4.125    3.500    5.000 
#    2.250    0.000    0.000   14.250    0.000    0.000 
#    0.000    0.000    0.000    0.000    0.000    0.000 
#
# Total GULP energy -89127.588528 kJ/mol
# GULP energy per Si atom -5570.474283 kJ/mol
# Density = 2.480148 g / cm^3
# Si number density = 24.858059 Si / 1000 Ang^3
#
#
#
# Elastic Constant Matrix: (Units=GPa)
#
#
# Indices 1 2 3 4 5 6 
#
# 1 187.4244 42.8907 29.4562 3.9668 -5.2521 -6.0466
# 2 42.8907 115.0264 30.2312 16.1021 -4.2412 -7.6762
# 3 29.4562 30.2312 53.2762 20.9775 -10.1429 -7.4283
# 4 3.9668 16.1021 20.9775 45.2724 -7.1547 -0.7189
# 5 -5.2521 -4.2412 -10.1429 -7.1547 31.0344 -0.9909
# 6 -6.0466 -7.6762 -7.4283 -0.7189 -0.9909 45.9784
#
#
#
# Elastic Compliance Matrix: (Units=1/GPa)
#
#
# Indices 1 2 3 4 5 6 
#
# 1 0.006172 -0.001714 -0.002977 0.001478 0.000180 0.000071
# 2 -0.001714 0.010787 -0.004524 -0.001681 -0.000656 0.000804
# 3 -0.002977 -0.004524 0.028710 -0.010436 0.005966 0.003457
# 4 0.001478 -0.001681 -0.010436 0.027844 0.002988 -0.001272
# 5 0.000180 -0.000656 0.005966 0.002988 0.034855 0.001676
# 6 0.000071 0.000804 0.003457 -0.001272 0.001676 0.022468
#
#
# Mechanical properties :
#
#
# Convention : Reuss Voigt Hill
#
# Bulk Modulus (GPa) = 36.71421 62.32036 49.51729
# Shear Modulus (GPa) = 31.57637 41.33364 36.45500
#
# Velocity S-wave (km/s) = 3.56795 4.08215 3.83368
# Velocity P-wave (km/s) = 5.63696 6.88066 6.28963
#
# Compressibility (1/GPa) = 0.02723741
#
# Stress axis : x y z
#
# Youngs Moduli (GPa) = 162.02743 92.70722 34.83089
#
# Poissons Ratio (x) = 0.15893 0.10370
# Poissons Ratio (y) = 0.27777 0.15757
# Poissons Ratio (z) = 0.48241 0.41940
#
# Static dielectric constant tensor:
#      x y z
#    x 2.081370 -0.041300 -0.024090 
#    y -0.041300 1.953460 -0.238390 
#    z -0.024090 -0.238390 1.935400 
# 
# From -- ./inp_files/348206.got.cif
#   From: 2010.05.17/outbox.cif.g08.bks.cpg/sg2_175_cif.got.tgz:348206.got - 2010.06.03 11:33:40.
