data_PCOD9097454
_publ_section_title
;
Structure prediction by ZEFSAII (Michael W. Deem and Ramdas Pophale) SiO2 
 PCOD9097454
Probable space group: P -1
;
_chemical_formula_sum "Si O2"
_cell_formula_units_Z 16
_cell_length_a 6.060698
_cell_length_b 12.157005
_cell_length_c 23.686436
_cell_angle_alpha 22.299024
_cell_angle_beta 97.545039
_cell_angle_gamma 95.526375
_cell_volume 654.998983
_symmetry_space_group_name_H-M "P -1"
_symmetry_group_IT_number 2
_symmetry_cell_setting 'triclinic'
loop_
_space_group_symop_operation_xyz
x,y,z
-x,-y,-z
loop_
_atom_site_type_symbol
_atom_site_label
_atom_site_fract_x
_atom_site_fract_y
_atom_site_fract_z
Si Si1 0.920387 0.965287 0.262190
Si Si2 0.338274 0.017801 0.644097
Si Si3 0.186278 0.247002 0.831314
Si Si4 0.302479 0.361447 0.230559
Si Si5 0.944775 0.799747 0.959122
Si Si6 0.592844 0.885236 0.988381
Si Si7 0.297424 0.586435 0.519061
Si Si8 0.086950 0.843252 0.505928
O O1 0.795360 0.085631 0.256944
O O2 0.749636 0.745252 0.334726
O O3 0.141696 0.774294 0.380358
O O4 0.996327 0.172830 0.117109
O O5 0.450265 0.319546 0.519307
O O6 0.164607 0.063209 0.565262
O O7 0.545738 0.807462 0.731259
O O8 0.216921 0.115788 0.957362
O O9 0.111834 0.585292 0.673784
O O10 0.031140 0.080411 0.862376
O O11 0.433033 0.175285 0.846833
O O12 0.444816 0.626153 0.127364
O O13 0.229013 0.123284 0.385665
O O14 0.080265 0.518631 0.122347
O O15 0.690992 0.807570 0.967426
O O16 0.194315 0.685988 0.528457
#
# Coordination Sequence:
#
# PCOD9097454 Si02
#       8
#     2   2   2   2   2   2   2   2
#     4  10  20  36  60  93 127 161 208 256 300 367
#     4  10  21  38  62  88 129 169 201 255 304 360
#     4  10  22  42  67  96 117 156 214 260 312 372
#     4  10  23  41  59  89 130 166 210 249 302 378
#     4  11  22  40  63  91 130 163 202 254 315 367
#     4  10  23  43  66  91 125 161 201 263 318 366
#     4   9  19  36  57  95 126 155 208 257 305 364
#     4  10  20  40  63  91 125 159 208 259 304 365
#
# _framework density 24.427517000000002
#
# number of rings (size 3 to 8) (size 9 to 14) (size 15 to 20)
#    0.000    2.000    1.250    1.500    0.000    5.000 
#    0.000   11.250    0.000    0.000    0.000    0.000 
#    0.000    0.000    0.000    0.000    0.000    0.000 
#
# Total GULP energy -89461.315820 kJ/mol
# GULP energy per Si atom -5591.332239 kJ/mol
# Density = 2.437192 g / cm^3
# Si number density = 24.427517 Si / 1000 Ang^3
#
#
#
# Elastic Constant Matrix: (Units=GPa)
#
#
# Indices 1 2 3 4 5 6 
#
# 1 99.9670 28.5503 29.1277 -7.4292 -6.7999 -13.1657
# 2 28.5503 61.1062 16.8687 -6.0200 -6.7522 -7.3129
# 3 29.1277 16.8687 87.6036 -10.3645 9.0462 -4.8872
# 4 -7.4292 -6.0200 -10.3645 28.7844 6.1767 -6.6122
# 5 -6.7999 -6.7522 9.0462 6.1767 19.7414 -14.5013
# 6 -13.1657 -7.3129 -4.8872 -6.6122 -14.5013 50.2142
#
#
#
# Elastic Compliance Matrix: (Units=1/GPa)
#
#
# Indices 1 2 3 4 5 6 
#
# 1 0.013688 -0.003404 -0.004525 0.000405 0.009500 0.005449
# 2 -0.003404 0.020897 -0.003637 0.000978 0.011106 0.005133
# 3 -0.004525 -0.003637 0.015620 0.005976 -0.014464 -0.003586
# 4 0.000405 0.000978 0.005976 0.040582 -0.013234 0.002352
# 5 0.009500 0.011106 -0.014464 -0.013234 0.087829 0.026322
# 6 0.005449 0.005133 -0.003586 0.002352 0.026322 0.029653
#
#
# Mechanical properties :
#
#
# Convention : Reuss Voigt Hill
#
# Bulk Modulus (GPa) = 36.93587 44.19670 40.56629
# Shear Modulus (GPa) = 20.79640 31.35668 26.07654
#
# Velocity S-wave (km/s) = 2.92096 3.58671 3.27082
# Velocity P-wave (km/s) = 5.15067 5.94011 5.55942
#
# Compressibility (1/GPa) = 0.02707395
#
# Stress axis : x y z
#
# Youngs Moduli (GPa) = 73.05682 47.85301 64.01908
#
# Poissons Ratio (x) = 0.16291 0.28967
# Poissons Ratio (y) = 0.24872 0.23282
# Poissons Ratio (z) = 0.33056 0.17403
#
# Static dielectric constant tensor:
#      x y z
#    x 1.949280 0.028080 -0.041090 
#    y 0.028080 1.985310 -0.032610 
#    z -0.041090 -0.032610 1.967910 
# 
# From -- ./inp_files/569657.got.cif
#   From: 2010.05.17/outbox.cif.g08.bks.cpg/sg2_285_cif.got.tgz:569657.got - 2010.06.03 11:33:40.
