data_PCOD9097712
_publ_section_title
;
Structure prediction by ZEFSAII (Michael W. Deem and Ramdas Pophale) SiO2 
 PCOD9097712
Probable space group: P -1
;
_chemical_formula_sum "Si O2"
_cell_formula_units_Z 16
_cell_length_a 10.837497
_cell_length_b 8.872259
_cell_length_c 20.643543
_cell_angle_alpha 150.508617
_cell_angle_beta 129.336613
_cell_angle_gamma 58.258427
_cell_volume 754.061404
_symmetry_space_group_name_H-M "P -1"
_symmetry_group_IT_number 2
_symmetry_cell_setting 'triclinic'
loop_
_space_group_symop_operation_xyz
x,y,z
-x,-y,-z
loop_
_atom_site_type_symbol
_atom_site_label
_atom_site_fract_x
_atom_site_fract_y
_atom_site_fract_z
Si Si1 0.195233 0.659086 0.417048
Si Si2 0.529500 0.830912 0.103545
Si Si3 0.815867 0.014604 0.169986
Si Si4 0.372644 0.546579 0.562022
Si Si5 0.876215 0.685636 0.397734
Si Si6 0.349462 0.636210 0.337205
Si Si7 0.127579 0.132683 0.397646
Si Si8 0.627579 0.881404 0.946634
O O1 0.312912 0.538162 0.465326
O O2 0.215999 0.507778 0.297001
O O3 0.015861 0.614569 0.368325
O O4 0.219393 0.032375 0.555532
O O5 0.687057 0.877736 0.127877
O O6 0.556207 0.111623 0.268071
O O7 0.378284 0.878652 0.024100
O O8 0.500000 0.500000 0.000000
O O9 0.786669 0.367065 0.271098
O O10 0.991695 0.014702 0.258354
O O11 0.784334 0.844536 0.027532
O O12 0.505182 0.322090 0.547460
O O13 0.218613 0.437749 0.513158
O O14 0.949371 0.814439 0.538140
O O15 0.411160 0.428140 0.222453
O O16 0.265411 0.908121 0.376587
O O17 0.500000 0.000000 0.000000
#
# Coordination Sequence:
#
# PCOD9097712 Si02
#       8
#     2   2   2   2   2   2   2   2
#     4  10  21  36  61  95 132 163 209 257 333 368
#     4  10  22  39  64  95 127 168 215 262 314 377
#     4  11  20  39  65  91 130 164 218 262 309 382
#     4  11  20  39  64  94 130 165 211 271 319 377
#     4  10  20  36  61  97 127 165 203 264 314 384
#     4  10  23  41  59  92 135 167 212 263 320 385
#     4  11  21  38  67  99 124 165 213 266 327 370
#     4   9  22  43  63  86 121 172 217 256 315 383
#
# _framework density 21.218432
#
# number of rings (size 3 to 8) (size 9 to 14) (size 15 to 20)
#    0.000    1.750    2.500    1.875    1.750    0.500 
#    0.000    5.625    2.750    0.000    0.000    0.000 
#    0.000    0.000    0.000    0.000    0.000    0.000 
#
# Total GULP energy -89080.269187 kJ/mol
# GULP energy per Si atom -5567.516824 kJ/mol
# Density = 2.117014 g / cm^3
# Si number density = 21.218432 Si / 1000 Ang^3
#
#
#
# Elastic Constant Matrix: (Units=GPa)
#
#
# Indices 1 2 3 4 5 6 
#
# 1 92.0321 30.8561 27.8176 8.8562 -3.6181 7.5839
# 2 30.8561 135.2759 41.1816 0.4956 13.7605 -4.4049
# 3 27.8176 41.1816 51.3561 -7.7549 4.4030 13.2846
# 4 8.8562 0.4956 -7.7549 34.6529 5.8706 0.7113
# 5 -3.6181 13.7605 4.4030 5.8706 32.0866 0.2431
# 6 7.5839 -4.4049 13.2846 0.7113 0.2431 37.6324
#
#
#
# Elastic Compliance Matrix: (Units=1/GPa)
#
#
# Indices 1 2 3 4 5 6 
#
# 1 0.014547 -0.001265 -0.008167 -0.006280 0.004453 -0.000107
# 2 -0.001265 0.011040 -0.009368 -0.001462 -0.003361 0.004904
# 3 -0.008167 -0.009368 0.036721 0.011363 -0.003925 -0.012603
# 4 -0.006280 -0.001462 0.011363 0.034439 -0.007914 -0.003517
# 5 0.004453 -0.003361 -0.003925 -0.007914 0.035096 0.000018
# 6 -0.000107 0.004904 -0.012603 -0.003517 0.000018 0.031684
#
#
# Mechanical properties :
#
#
# Convention : Reuss Voigt Hill
#
# Bulk Modulus (GPa) = 40.47736 53.15275 46.81505
# Shear Modulus (GPa) = 23.88200 32.79497 28.33849
#
# Velocity S-wave (km/s) = 3.35853 3.93566 3.65850
# Velocity P-wave (km/s) = 5.84445 6.76441 6.32119
#
# Compressibility (1/GPa) = 0.02470517
#
# Stress axis : x y z
#
# Youngs Moduli (GPa) = 68.74392 90.58110 27.23272
#
# Poissons Ratio (x) = 0.11460 0.22242
# Poissons Ratio (y) = 0.08697 0.25513
# Poissons Ratio (z) = 0.56145 0.84861
#
# Static dielectric constant tensor:
#      x y z
#    x 1.844080 -0.038970 -0.010110 
#    y -0.038970 1.815560 -0.013010 
#    z -0.010110 -0.013010 1.811960 
# 
# From -- ./inp_files/357761.got.cif
#   From: 2010.05.17/outbox.cif.g08.bks.cpg/sg2_179_cif.got.tgz:357761.got - 2010.06.03 11:33:40.
