data_PCOD9097759
_publ_section_title
;
Structure prediction by ZEFSAII (Michael W. Deem and Ramdas Pophale) SiO2 
 PCOD9097759
Probable space group: P -1
;
_chemical_formula_sum "Si O2"
_cell_formula_units_Z 16
_cell_length_a 16.404549
_cell_length_b 24.101747
_cell_length_c 21.967962
_cell_angle_alpha 19.123510
_cell_angle_beta 15.748412
_cell_angle_gamma 25.513731
_cell_volume 769.993152
_symmetry_space_group_name_H-M "P -1"
_symmetry_group_IT_number 2
_symmetry_cell_setting 'triclinic'
loop_
_space_group_symop_operation_xyz
x,y,z
-x,-y,-z
loop_
_atom_site_type_symbol
_atom_site_label
_atom_site_fract_x
_atom_site_fract_y
_atom_site_fract_z
Si Si1 0.535720 0.087361 0.788543
Si Si2 0.333785 0.741851 0.873565
Si Si3 0.992368 0.457158 0.200278
Si Si4 0.094267 0.320106 0.142444
Si Si5 0.720952 0.164154 0.857031
Si Si6 0.768753 0.545801 0.841007
Si Si7 0.369258 0.250862 0.858226
Si Si8 0.914580 0.965454 0.168839
O O1 0.399541 0.216538 0.799836
O O2 0.834991 0.183685 0.447473
O O3 0.308240 0.005137 0.987701
O O4 0.640197 0.930621 0.915676
O O5 0.467580 0.611298 0.960960
O O6 0.159051 0.870174 0.907794
O O7 0.610734 0.840783 0.532900
O O8 0.154072 0.620630 0.079465
O O9 0.667604 0.363553 0.549250
O O10 0.910602 0.638793 0.045377
O O11 0.091045 0.338675 0.198664
O O12 0.219762 0.482611 0.065958
O O13 0.418928 0.255410 0.965503
O O14 0.000000 0.500000 0.000000
O O15 0.992030 0.295526 0.506498
O O16 0.801875 0.113165 0.920360
O O17 0.000000 0.000000 0.000000
#
# Coordination Sequence:
#
# PCOD9097759 Si02
#       8
#     2   2   2   2   2   2   2   2
#     4  10  20  38  58  86 126 160 203 256 300 366
#     4   9  22  45  66  94 124 160 204 272 319 365
#     4  10  20  36  62  85 120 165 204 254 299 381
#     4  11  25  39  56  89 133 163 203 259 306 365
#     4  11  23  39  64  89 121 169 203 250 322 373
#     4  10  21  41  67  88 121 161 212 255 314 381
#     4   9  19  35  59  88 115 161 212 246 298 361
#     4  10  23  45  68  93 128 158 209 268 319 377
#
# _framework density 20.779405000000001
#
# number of rings (size 3 to 8) (size 9 to 14) (size 15 to 20)
#    0.000    2.000    1.250    1.125    7.000    0.000 
#    6.750    1.875    0.000    0.000    0.000    0.000 
#    0.000    0.000    0.000    0.000    0.000    0.000 
#
# Total GULP energy -89195.164897 kJ/mol
# GULP energy per Si atom -5574.697806 kJ/mol
# Density = 2.073211 g / cm^3
# Si number density = 20.779405 Si / 1000 Ang^3
#
#
#
# Elastic Constant Matrix: (Units=GPa)
#
#
# Indices 1 2 3 4 5 6 
#
# 1 128.8936 18.1503 28.0316 -0.7363 -7.4405 14.2955
# 2 18.1503 65.4947 3.9259 -4.2486 1.7958 7.2065
# 3 28.0316 3.9259 41.3485 -9.5572 -7.0179 -5.9123
# 4 -0.7363 -4.2486 -9.5572 24.6881 5.5597 4.7321
# 5 -7.4405 1.7958 -7.0179 5.5597 34.6566 -4.3511
# 6 14.2955 7.2065 -5.9123 4.7321 -4.3511 23.5385
#
#
#
# Elastic Compliance Matrix: (Units=1/GPa)
#
#
# Indices 1 2 3 4 5 6 
#
# 1 0.010737 -0.001713 -0.008663 -0.001819 -0.000050 -0.007816
# 2 -0.001713 0.016760 -0.000723 0.004259 -0.002774 -0.005641
# 3 -0.008663 -0.000723 0.035152 0.009419 0.005471 0.013430
# 4 -0.001819 0.004259 0.009419 0.048246 -0.007565 -0.008931
# 5 -0.000050 -0.002774 0.005471 -0.007565 0.032538 0.009789
# 6 -0.007816 -0.005641 0.013430 -0.008931 0.009789 0.055936
#
#
# Mechanical properties :
#
#
# Convention : Reuss Voigt Hill
#
# Bulk Modulus (GPa) = 24.72125 37.32807 31.02466
# Shear Modulus (GPa) = 21.27213 28.95191 25.11202
#
# Velocity S-wave (km/s) = 3.20302 3.73674 3.48013
# Velocity P-wave (km/s) = 5.05984 6.05150 5.57775
#
# Compressibility (1/GPa) = 0.04045102
#
# Stress axis : x y z
#
# Youngs Moduli (GPa) = 93.13491 59.66756 28.44789
#
# Poissons Ratio (x) = 0.10220 0.24644
# Poissons Ratio (y) = 0.15953 0.02057
# Poissons Ratio (z) = 0.80681 0.04315
#
# Static dielectric constant tensor:
#      x y z
#    x 1.821390 0.000770 0.024750 
#    y 0.000770 1.785340 0.011960 
#    z 0.024750 0.011960 1.768180 
# 
# From -- ./inp_files/598515.got.cif
#   From: 2010.05.17/outbox.cif.g08.bks.cpg/sg2_300_cif.got.tgz:598515.got - 2010.06.03 11:33:40.
