data_PCOD9097586
_publ_section_title
;
Structure prediction by ZEFSAII (Michael W. Deem and Ramdas Pophale) SiO2 
 PCOD9097586
Probable space group: P -1
;
_chemical_formula_sum "Si O2"
_cell_formula_units_Z 14
_cell_length_a 12.754027
_cell_length_b 23.092912
_cell_length_c 5.176862
_cell_angle_alpha 81.989024
_cell_angle_beta 90.756764
_cell_angle_gamma 27.411361
_cell_volume 663.005472
_symmetry_space_group_name_H-M "P -1"
_symmetry_group_IT_number 2
_symmetry_cell_setting 'triclinic'
loop_
_space_group_symop_operation_xyz
x,y,z
-x,-y,-z
loop_
_atom_site_type_symbol
_atom_site_label
_atom_site_fract_x
_atom_site_fract_y
_atom_site_fract_z
Si Si1 0.164200 0.370808 0.437296
Si Si2 0.875167 0.989024 0.285462
Si Si3 0.822758 0.152123 0.105584
Si Si4 0.034423 0.637118 0.326544
Si Si5 0.725588 0.389632 0.385068
Si Si6 0.479443 0.412934 0.136337
Si Si7 0.632696 0.770591 0.978858
O O1 0.260172 0.326518 0.177483
O O2 0.000000 0.500000 0.500000
O O3 0.020060 0.381901 0.437918
O O4 0.377830 0.254270 0.723007
O O5 0.991761 0.928367 0.606847
O O6 0.798107 0.094611 0.150701
O O7 0.628069 0.078096 0.204848
O O8 0.069793 0.878729 0.140274
O O9 0.576956 0.307752 0.061709
O O10 0.056861 0.691855 0.397106
O O11 0.290711 0.492669 0.302709
O O12 0.824209 0.726467 0.063900
O O13 0.500000 0.500000 0.500000
O O14 0.712558 0.332615 0.292331
O O15 0.659675 0.471205 0.119553
#
# Coordination Sequence:
#
# PCOD9097586 Si02
#       7
#     2   2   2   2   2   2   2
#     4  10  21  33  53  88 117 155 190 234 296 355
#     4  10  22  41  56  85 114 166 202 232 286 336
#     4  10  23  38  61  82 117 155 205 242 280 346
#     4   9  21  33  57  87 119 153 184 240 305 354
#     4   9  19  36  57  90 117 152 190 242 314 356
#     4  10  20  36  61  89 119 151 195 250 300 350
#     4  10  21  36  56  78 120 156 187 242 283 353
#
# _framework density 21.115963000000001
#
# number of rings (size 3 to 8) (size 9 to 14) (size 15 to 20)
#    0.857    1.429    0.000    2.143    6.000    1.143 
#    0.000    0.000    0.000    1.714    0.000    0.000 
#    0.000    0.000    0.000    0.000    0.000    0.000 
#
# Total GULP energy -77976.255075 kJ/mol
# GULP energy per Si atom -5569.732505 kJ/mol
# Density = 2.106790 g / cm^3
# Si number density = 21.115963 Si / 1000 Ang^3
#
#
#
# Elastic Constant Matrix: (Units=GPa)
#
#
# Indices 1 2 3 4 5 6 
#
# 1 62.5142 15.7946 19.4321 -3.7753 20.0652 -20.5169
# 2 15.7946 41.3377 -5.7393 7.3451 4.4811 -6.8251
# 3 19.4321 -5.7393 64.9799 9.7687 20.0995 -3.1639
# 4 -3.7753 7.3451 9.7687 24.7951 -3.4209 8.7223
# 5 20.0652 4.4811 20.0995 -3.4209 27.7588 -11.2136
# 6 -20.5169 -6.8251 -3.1639 8.7223 -11.2136 22.5282
#
#
#
# Elastic Compliance Matrix: (Units=1/GPa)
#
#
# Indices 1 2 3 4 5 6 
#
# 1 0.028470 -0.008389 -0.006551 0.002028 -0.006851 0.018272
# 2 -0.008389 0.034589 0.010916 -0.019831 -0.006258 0.008935
# 3 -0.006551 0.010916 0.026660 -0.016674 -0.019200 -0.002016
# 4 0.002028 -0.019831 -0.016674 0.063613 0.011355 -0.025480
# 5 -0.006851 -0.006258 -0.019200 0.011355 0.064007 0.016632
# 6 0.018272 0.008935 -0.002016 -0.025480 0.016632 0.081597
#
#
# Mechanical properties :
#
#
# Convention : Reuss Voigt Hill
#
# Bulk Modulus (GPa) = 12.24415 25.31184 18.77800
# Shear Modulus (GPa) = 14.96073 24.30604 19.63338
#
# Velocity S-wave (km/s) = 2.66466 3.39643 3.05255
# Velocity P-wave (km/s) = 3.90875 5.23393 4.61911
#
# Compressibility (1/GPa) = 0.08167164
#
# Stress axis : x y z
#
# Youngs Moduli (GPa) = 35.12452 28.91085 37.50933
#
# Poissons Ratio (x) = 0.24252 0.24572
# Poissons Ratio (y) = 0.29464 -0.40944
# Poissons Ratio (z) = 0.23010 -0.31558
#
# Static dielectric constant tensor:
#      x y z
#    x 1.888730 -0.023970 -0.069940 
#    y -0.023970 1.762260 0.008380 
#    z -0.069940 0.008380 1.959230 
# 
# From -- ./inp_files/101496.got.cif
#   From: 2010.05.17/outbox.cif.g08.bks.cpg/sg2_51_cif.got.tgz:101496.got - 2010.06.03 11:33:40.
