data_PCOD9097043
_publ_section_title
;
Structure prediction by ZEFSAII (Michael W. Deem and Ramdas Pophale) SiO2 
 PCOD9097043
Probable space group: P -1
;
_chemical_formula_sum "Si O2"
_cell_formula_units_Z 16
_cell_length_a 19.465666
_cell_length_b 26.235458
_cell_length_c 6.944218
_cell_angle_alpha 129.689523
_cell_angle_beta 119.070669
_cell_angle_gamma 20.243744
_cell_volume 854.527820
_symmetry_space_group_name_H-M "P -1"
_symmetry_group_IT_number 2
_symmetry_cell_setting 'triclinic'
loop_
_space_group_symop_operation_xyz
x,y,z
-x,-y,-z
loop_
_atom_site_type_symbol
_atom_site_label
_atom_site_fract_x
_atom_site_fract_y
_atom_site_fract_z
Si Si1 0.228111 0.191815 0.304908
Si Si2 0.900573 0.505138 0.341762
Si Si3 0.691700 0.248855 0.082074
Si Si4 0.520980 0.088194 0.331450
Si Si5 0.889663 0.756912 0.313546
Si Si6 0.741126 0.315243 0.975063
Si Si7 0.025983 0.881787 0.578655
Si Si8 0.800486 0.367364 0.521299
O O1 0.369244 0.145908 0.333788
O O2 0.213793 0.190426 0.506801
O O3 0.985876 0.394973 0.374147
O O4 0.352975 0.034065 0.985072
O O5 0.643861 0.721050 0.471585
O O6 0.000000 0.500000 0.500000
O O7 0.020483 0.373495 0.011388
O O8 0.804428 0.197127 0.292138
O O9 0.436037 0.446976 0.252076
O O10 0.753937 0.244692 0.973006
O O11 0.791879 0.098474 0.818828
O O12 0.710075 0.940937 0.394704
O O13 0.089059 0.648472 0.375310
O O14 0.912799 0.177322 0.701942
O O15 0.500000 0.500000 0.000000
O O16 0.774173 0.354055 0.244992
O O17 0.057004 0.792616 0.533921
#
# Coordination Sequence:
#
# PCOD9097043 Si02
#       8
#     2   2   2   2   2   2   2   2
#     4   9  19  37  59  88 111 148 195 238 285 349
#     4   9  20  38  60  85 111 146 194 240 284 344
#     4  10  20  36  59  85 108 148 195 237 280 338
#     4   9  19  37  60  82 114 147 193 241 287 343
#     4  11  23  36  57  86 120 155 189 238 298 348
#     4  11  18  36  62  84 110 152 194 236 279 334
#     4  10  20  37  60  82 111 147 196 237 279 336
#     4  11  23  37  53  82 121 151 185 237 293 336
#
# _framework density 18.723790000000001
#
# number of rings (size 3 to 8) (size 9 to 14) (size 15 to 20)
#    0.000    2.000    2.500    2.250    0.000    6.000 
#    0.000    0.000    0.000    0.000    0.000    0.000 
#    0.000    0.000    0.000    0.000    0.000    0.000 
#
# Total GULP energy -89235.453520 kJ/mol
# GULP energy per Si atom -5577.215845 kJ/mol
# Density = 1.868117 g / cm^3
# Si number density = 18.723790 Si / 1000 Ang^3
#
#
#
# Elastic Constant Matrix: (Units=GPa)
#
#
# Indices 1 2 3 4 5 6 
#
# 1 27.1189 10.6842 38.7633 -3.9454 10.7921 -7.3900
# 2 10.6842 78.0357 48.9401 -1.2135 11.0977 18.4193
# 3 38.7633 48.9401 117.9443 -7.6881 0.1953 11.9578
# 4 -3.9454 -1.2135 -7.6881 25.8272 11.2194 8.5541
# 5 10.7921 11.0977 0.1953 11.2194 6.6544 -0.8924
# 6 -7.3900 18.4193 11.9578 8.5541 -0.8924 6.7797
#
#
#
# Elastic Compliance Matrix: (Units=1/GPa)
#
#
# Indices 1 2 3 4 5 6 
#
# 1 -0.048015 0.001196 0.023213 -0.004095 0.071101 -0.082004
# 2 0.001196 0.007151 -0.007427 -0.021651 0.026309 0.025755
# 3 0.023213 -0.007427 0.000903 0.005080 -0.029345 0.033616
# 4 -0.004095 -0.021651 0.005080 0.000434 0.048743 0.051266
# 5 0.071101 0.026309 -0.029345 0.048743 -0.092362 -0.015876
# 6 -0.082004 0.025755 0.033616 0.051266 -0.015876 -0.137921
#
#
# Mechanical properties :
#
#
# Convention : Reuss Voigt Hill
#
# Bulk Modulus (GPa) = -166.81341 46.65268 -60.08036
# Shear Modulus (GPa) = -16.35192 16.16633 -0.09279
#
# Velocity S-wave (km/s) = -2.95841 2.94157 -0.22286
# Velocity P-wave (km/s) = 10.04762 6.04214 5.67658
#
# Compressibility (1/GPa) = -0.00599472
#
# Stress axis : x y z
#
# Youngs Moduli (GPa) = -20.82695 139.83852 1107.95408
#
# Poissons Ratio (x) = -0.16731 -25.71919
# Poissons Ratio (y) = 0.02492 8.22827
# Poissons Ratio (z) = 0.48346 1.03852
#
# Static dielectric constant tensor:
#      x y z
#    x 1.628550 0.004330 0.017090 
#    y 0.004330 1.690250 -0.001190 
#    z 0.017090 -0.001190 1.628590 
# 
# From -- ./inp_files/55184.got.cif
#   From: 2010.05.17/outbox.cif.g08.bks.cpg/sg2_28_cif.got.tgz:55184.got - 2010.06.03 11:33:40.
