data_PCOD9097177
_publ_section_title
;
Structure prediction by ZEFSAII (Michael W. Deem and Ramdas Pophale) SiO2 
 PCOD9097177
Probable space group: P -1
;
_chemical_formula_sum "Si O2"
_cell_formula_units_Z 16
_cell_length_a 11.829327
_cell_length_b 8.625968
_cell_length_c 13.798127
_cell_angle_alpha 100.676842
_cell_angle_beta 139.567805
_cell_angle_gamma 55.256323
_cell_volume 663.734787
_symmetry_space_group_name_H-M "P -1"
_symmetry_group_IT_number 2
_symmetry_cell_setting 'triclinic'
loop_
_space_group_symop_operation_xyz
x,y,z
-x,-y,-z
loop_
_atom_site_type_symbol
_atom_site_label
_atom_site_fract_x
_atom_site_fract_y
_atom_site_fract_z
Si Si1 0.258212 0.319280 0.285413
Si Si2 0.282526 0.799977 0.351031
Si Si3 0.893032 0.154354 0.553510
Si Si4 0.844720 0.319638 0.282333
Si Si5 0.704415 0.294498 0.980356
Si Si6 0.875822 0.539099 0.570465
Si Si7 0.630465 0.519165 0.767884
Si Si8 0.674826 0.062982 0.790403
O O1 0.529114 0.194834 0.479527
O O2 0.115945 0.426043 0.304386
O O3 0.196327 0.477586 0.178632
O O4 0.278753 0.144009 0.224080
O O5 0.128690 0.825635 0.340050
O O6 0.422229 0.578994 0.360238
O O7 0.182171 0.944283 0.206283
O O8 0.940899 0.311141 0.573068
O O9 0.632867 0.260856 0.358484
O O10 0.051357 0.897015 0.616791
O O11 0.575081 0.514817 0.157095
O O12 0.980613 0.405805 0.382023
O O13 0.839654 0.266980 0.160533
O O14 0.738340 0.384859 0.919423
O O15 0.732510 0.099689 0.936262
O O16 0.602910 0.728170 0.382890
#
# Coordination Sequence:
#
# PCOD9097177 Si02
#       8
#     2   2   2   2   2   2   2   2
#     4  10  16  30  59  96 120 146 187 241 303 354
#     4   9  15  30  57  89 128 148 173 236 306 353
#     4  11  18  36  64  94 114 154 196 243 292 349
#     4  11  26  43  61  78 121 167 200 243 300 343
#     4  10  24  48  54  76 123 167 195 242 302 349
#     4  11  19  37  62  98 116 144 200 251 282 353
#     4  10  17  36  63  87 123 152 188 241 296 350
#     4  10  19  34  62  89 119 156 195 239 294 351
#
# _framework density 24.106016
#
# number of rings (size 3 to 8) (size 9 to 14) (size 15 to 20)
#    0.000    1.750    5.000    4.500    0.000    1.000 
#    4.500    7.500    0.000    0.000    0.000    0.000 
#    0.000    0.000    0.000    0.000    0.000    0.000 
#
# Total GULP energy -89253.125981 kJ/mol
# GULP energy per Si atom -5578.320374 kJ/mol
# Density = 2.405115 g / cm^3
# Si number density = 24.106016 Si / 1000 Ang^3
#
#
#
# Elastic Constant Matrix: (Units=GPa)
#
#
# Indices 1 2 3 4 5 6 
#
# 1 76.8261 29.3759 15.5739 1.2661 -1.4954 20.4327
# 2 29.3759 151.3932 42.1709 20.8489 -0.1182 9.3868
# 3 15.5739 42.1709 102.6918 2.5655 0.3403 10.6005
# 4 1.2661 20.8489 2.5655 34.6197 -2.1263 -8.2154
# 5 -1.4954 -0.1182 0.3403 -2.1263 33.3847 5.7370
# 6 20.4327 9.3868 10.6005 -8.2154 5.7370 37.2484
#
#
#
# Elastic Compliance Matrix: (Units=1/GPa)
#
#
# Indices 1 2 3 4 5 6 
#
# 1 0.016439 -0.002315 -0.000608 -0.001127 0.002183 -0.008846
# 2 -0.002315 0.008669 -0.002955 -0.005212 -0.000169 -0.001198
# 3 -0.000608 -0.002955 0.011242 0.000497 0.000231 -0.002047
# 4 -0.001127 -0.005212 0.000497 0.034259 0.000516 0.009267
# 5 0.002183 -0.000169 0.000231 0.000516 0.031095 -0.005896
# 6 -0.008846 -0.001198 -0.002047 0.009267 -0.005896 0.035535
#
#
# Mechanical properties :
#
#
# Convention : Reuss Voigt Hill
#
# Bulk Modulus (GPa) = 40.66084 56.12806 48.39445
# Shear Modulus (GPa) = 31.80817 37.30326 34.55571
#
# Velocity S-wave (km/s) = 3.63645 3.93805 3.79025
# Velocity P-wave (km/s) = 5.87672 6.63416 6.26689
#
# Compressibility (1/GPa) = 0.02459369
#
# Stress axis : x y z
#
# Youngs Moduli (GPa) = 60.83271 115.34861 88.95530
#
# Poissons Ratio (x) = 0.26701 0.05412
# Poissons Ratio (y) = 0.14082 0.26283
# Poissons Ratio (z) = 0.03701 0.34082
#
# Static dielectric constant tensor:
#      x y z
#    x 2.014990 0.036420 0.003740 
#    y 0.036420 2.117210 -0.037610 
#    z 0.003740 -0.037610 1.994250 
# 
# From -- ./inp_files/515789.got.cif
#   From: 2010.05.17/outbox.cif.g08.bks.cpg/sg2_258_cif.got.tgz:515789.got - 2010.06.03 11:33:40.
