data_PCOD9097165
_publ_section_title
;
Structure prediction by ZEFSAII (Michael W. Deem and Ramdas Pophale) SiO2 
 PCOD9097165
Probable space group: P -1
;
_chemical_formula_sum "Si O2"
_cell_formula_units_Z 16
_cell_length_a 10.564588
_cell_length_b 13.475871
_cell_length_c 8.399715
_cell_angle_alpha 44.453219
_cell_angle_beta 104.994125
_cell_angle_gamma 110.788534
_cell_volume 782.931302
_symmetry_space_group_name_H-M "P -1"
_symmetry_group_IT_number 2
_symmetry_cell_setting 'triclinic'
loop_
_space_group_symop_operation_xyz
x,y,z
-x,-y,-z
loop_
_atom_site_type_symbol
_atom_site_label
_atom_site_fract_x
_atom_site_fract_y
_atom_site_fract_z
Si Si1 0.069437 0.493530 0.700481
Si Si2 0.349345 0.861449 0.065529
Si Si3 0.721466 0.232136 0.399584
Si Si4 0.181974 0.653060 0.033168
Si Si5 0.642695 0.557996 0.578641
Si Si6 0.381647 0.066208 0.116599
Si Si7 0.718892 0.650570 0.168730
Si Si8 0.535067 0.333294 0.411666
O O1 0.177753 0.648334 0.591564
O O2 0.149312 0.365224 0.864213
O O3 0.000000 0.500000 0.500000
O O4 0.960621 0.456607 0.848533
O O5 0.211728 0.767245 0.056955
O O6 0.407601 0.759259 0.326796
O O7 0.331504 0.000315 0.000136
O O8 0.457463 0.901707 0.908860
O O9 0.576395 0.272774 0.329298
O O10 0.684227 0.066153 0.635885
O O11 0.792656 0.261757 0.220308
O O12 0.300162 0.567322 0.182217
O O13 0.500000 0.500000 0.500000
O O14 0.744199 0.624448 0.394188
O O15 0.614173 0.668317 0.575783
O O16 0.338749 0.207528 0.003448
O O17 0.608285 0.506102 0.238396
#
# Coordination Sequence:
#
# PCOD9097165 Si02
#       8
#     2   2   2   2   2   2   2   2
#     4  11  21  40  64  84 106 154 209 237 269 332
#     4  10  18  34  60  85 110 154 193 235 282 337
#     4  10  24  37  55  88 123 153 182 229 302 350
#     4  12  21  37  60  84 119 153 192 240 284 337
#     4  10  16  30  59  87 105 138 193 240 281 318
#     4  10  20  35  58  85 120 147 189 239 287 349
#     4  10  17  32  60  87 105 144 197 247 269 317
#     4   9  16  34  57  85 110 143 195 234 275 338
#
# _framework density 20.436019000000002
#
# number of rings (size 3 to 8) (size 9 to 14) (size 15 to 20)
#    0.000    1.750    5.000    2.625    0.000    1.000 
#    0.000    3.125    5.500    0.000    0.000    0.000 
#    0.000    0.000    0.000    0.000    0.000    0.000 
#
# Total GULP energy -89076.965908 kJ/mol
# GULP energy per Si atom -5567.310369 kJ/mol
# Density = 2.038951 g / cm^3
# Si number density = 20.436019 Si / 1000 Ang^3
#
#
#
# Elastic Constant Matrix: (Units=GPa)
#
#
# Indices 1 2 3 4 5 6 
#
# 1 73.4811 10.7031 38.0573 -1.7953 -11.9774 -14.2050
# 2 10.7031 45.8734 26.2557 -22.0462 11.3054 -11.5738
# 3 38.0573 26.2557 110.7981 -19.1303 -22.1978 -9.4950
# 4 -1.7953 -22.0462 -19.1303 28.8043 -8.5707 0.0753
# 5 -11.9774 11.3054 -22.1978 -8.5707 29.0574 -5.3361
# 6 -14.2050 -11.5738 -9.4950 0.0753 -5.3361 25.7453
#
#
#
# Elastic Compliance Matrix: (Units=1/GPa)
#
#
# Indices 1 2 3 4 5 6 
#
# 1 0.018911 -0.001822 -0.003980 -0.000805 0.006988 0.009598
# 2 -0.001822 0.045855 -0.007413 0.025832 -0.014087 0.013880
# 3 -0.003980 -0.007413 0.018951 0.012757 0.020526 0.005677
# 4 -0.000805 0.025832 0.012757 0.069930 0.023771 0.020596
# 5 0.006988 -0.014087 0.020526 0.023771 0.069017 0.019328
# 6 0.009598 0.013880 0.005677 0.020596 0.019328 0.056417
#
#
# Mechanical properties :
#
#
# Convention : Reuss Voigt Hill
#
# Bulk Modulus (GPa) = 17.45616 42.24278 29.84947
# Shear Modulus (GPa) = 15.40331 27.06382 21.23356
#
# Velocity S-wave (km/s) = 2.74840 3.64307 3.22689
# Velocity P-wave (km/s) = 4.31648 6.19771 5.34058
#
# Compressibility (1/GPa) = 0.05728636
#
# Stress axis : x y z
#
# Youngs Moduli (GPa) = 52.88065 21.80777 52.76898
#
# Poissons Ratio (x) = 0.03972 0.21003
# Poissons Ratio (y) = 0.09632 0.39119
# Poissons Ratio (z) = 0.21048 0.16167
#
# Static dielectric constant tensor:
#      x y z
#    x 1.810700 -0.008670 -0.024440 
#    y -0.008670 1.815040 0.013730 
#    z -0.024440 0.013730 1.757040 
# 
# From -- ./inp_files/266460.got.cif
#   From: 2010.05.17/outbox.cif.g08.bks.cpg/sg2_134_cif.got.tgz:266460.got - 2010.06.03 11:33:40.
