data_PCOD9097857
_publ_section_title
;
Structure prediction by ZEFSAII (Michael W. Deem and Ramdas Pophale) SiO2 
 PCOD9097857
Probable space group: P -1
;
_chemical_formula_sum "Si O2"
_cell_formula_units_Z 16
_cell_length_a 16.047854
_cell_length_b 15.398143
_cell_length_c 9.882958
_cell_angle_alpha 80.635374
_cell_angle_beta 95.017207
_cell_angle_gamma 22.183846
_cell_volume 699.697389
_symmetry_space_group_name_H-M "P -1"
_symmetry_group_IT_number 2
_symmetry_cell_setting 'triclinic'
loop_
_space_group_symop_operation_xyz
x,y,z
-x,-y,-z
loop_
_atom_site_type_symbol
_atom_site_label
_atom_site_fract_x
_atom_site_fract_y
_atom_site_fract_z
Si Si1 0.236208 0.727539 0.501989
Si Si2 0.237492 0.651951 0.014242
Si Si3 0.499200 0.179545 0.480697
Si Si4 0.316354 0.826648 0.359850
Si Si5 0.058511 0.513523 0.806843
Si Si6 0.154198 0.940750 0.883575
Si Si7 0.793363 0.613206 0.844072
Si Si8 0.714752 0.734685 0.361932
O O1 0.372295 0.685686 0.497076
O O2 0.461312 0.427443 0.662477
O O3 0.000000 0.000000 0.500000
O O4 0.056559 0.863929 0.321665
O O5 0.246794 0.749676 0.996031
O O6 0.556628 0.307045 0.084017
O O7 0.005499 0.853410 0.819120
O O8 0.059849 0.806233 0.090827
O O9 0.596937 0.174811 0.548069
O O10 0.333961 0.336586 0.276170
O O11 0.302198 0.331163 0.525959
O O12 0.780382 0.834441 0.613298
O O13 0.023991 0.443233 0.844275
O O14 0.301600 0.281221 0.790195
O O15 0.100605 0.514956 0.958367
O O16 0.540519 0.939583 0.738431
O O17 0.000000 0.500000 0.500000
#
# Coordination Sequence:
#
# PCOD9097857 Si02
#       8
#     2   2   2   2   2   2   2   2
#     4  10  23  41  64  88 117 166 217 269 334 404
#     4   9  19  36  60  89 117 157 203 264 322 388
#     4  11  22  40  60  90 129 168 208 267 324 387
#     4  10  24  40  62  88 126 164 211 273 335 398
#     4  10  20  37  61  91 122 166 212 257 308 382
#     4   9  19  35  63  88 115 153 212 261 320 391
#     4  10  20  36  62  90 126 165 208 256 313 376
#     4  11  18  36  64  91 125 168 214 252 312 384
#
# _framework density 22.867027
#
# number of rings (size 3 to 8) (size 9 to 14) (size 15 to 20)
#    0.000    2.000    2.500    1.125   10.500    1.000 
#    2.250    0.000    0.000    0.000    0.000    0.000 
#    0.000    0.000    0.000    0.000    0.000    0.000 
#
# Total GULP energy -89110.380963 kJ/mol
# GULP energy per Si atom -5569.398810 kJ/mol
# Density = 2.281498 g / cm^3
# Si number density = 22.867027 Si / 1000 Ang^3
#
#
#
# Elastic Constant Matrix: (Units=GPa)
#
#
# Indices 1 2 3 4 5 6 
#
# 1 77.7834 33.0443 34.3512 6.8283 32.6360 4.0088
# 2 33.0443 114.9751 49.1088 1.5684 13.4425 -19.3701
# 3 34.3512 49.1088 116.6720 3.9149 34.3984 -5.8459
# 4 6.8283 1.5684 3.9149 39.9054 -0.6914 5.2177
# 5 32.6360 13.4425 34.3984 -0.6914 30.4878 -3.2686
# 6 4.0088 -19.3701 -5.8459 5.2177 -3.2686 16.2157
#
#
#
# Elastic Compliance Matrix: (Units=1/GPa)
#
#
# Indices 1 2 3 4 5 6 
#
# 1 0.034635 -0.012421 0.005900 -0.002988 -0.041396 -0.028656
# 2 -0.012421 0.017754 -0.007383 -0.000859 0.016483 0.025215
# 3 0.005900 -0.007383 0.016111 -0.001582 -0.022177 -0.008431
# 4 -0.002988 -0.000859 -0.001582 0.026960 0.005060 -0.008513
# 5 -0.041396 0.016483 -0.022177 0.005060 0.099304 0.040316
# 6 -0.028656 0.025215 -0.008431 -0.008513 0.040316 0.106700
#
#
# Mechanical properties :
#
#
# Convention : Reuss Voigt Hill
#
# Bulk Modulus (GPa) = 24.57552 60.27100 42.42326
# Shear Modulus (GPa) = 14.58423 30.18351 22.38387
#
# Velocity S-wave (km/s) = 2.52818 3.63706 3.13209
# Velocity P-wave (km/s) = 4.39235 6.63717 5.62782
#
# Compressibility (1/GPa) = 0.04069090
#
# Stress axis : x y z
#
# Youngs Moduli (GPa) = 28.87226 56.32659 62.07066
#
# Poissons Ratio (x) = 0.69966 -0.36621
# Poissons Ratio (y) = 0.35864 0.45826
# Poissons Ratio (z) = -0.17034 0.41585
#
# Static dielectric constant tensor:
#      x y z
#    x 1.644950 0.756420 0.141640 
#    y 0.756420 -1.705470 -0.609840 
#    z 0.141640 -0.609840 1.736110 
# 
# From -- ./inp_files/336745.got.cif
#   From: 2010.05.17/outbox.cif.g08.bks.cpg/sg2_169_cif.got.tgz:336745.got - 2010.06.03 11:33:40.
