data_PCOD9097682
_publ_section_title
;
Structure prediction by ZEFSAII (Michael W. Deem and Ramdas Pophale) SiO2 
 PCOD9097682
Probable space group: P -1
;
_chemical_formula_sum "Si O2"
_cell_formula_units_Z 16
_cell_length_a 8.838570
_cell_length_b 13.817445
_cell_length_c 12.208614
_cell_angle_alpha 126.546706
_cell_angle_beta 142.723674
_cell_angle_gamma 78.849628
_cell_volume 592.841097
_symmetry_space_group_name_H-M "P -1"
_symmetry_group_IT_number 2
_symmetry_cell_setting 'triclinic'
loop_
_space_group_symop_operation_xyz
x,y,z
-x,-y,-z
loop_
_atom_site_type_symbol
_atom_site_label
_atom_site_fract_x
_atom_site_fract_y
_atom_site_fract_z
Si Si1 0.188879 0.725060 0.495069
Si Si2 0.655281 0.263891 0.163425
Si Si3 0.455882 0.713717 0.228209
Si Si4 0.240773 0.964490 0.996047
Si Si5 0.973450 0.020158 0.668711
Si Si6 0.744653 0.503889 0.719348
Si Si7 0.579581 0.552843 0.902928
Si Si8 0.483991 0.916725 0.545168
O O1 0.309571 0.653894 0.435259
O O2 0.410995 0.900956 0.743008
O O3 0.220054 0.683846 0.607026
O O4 0.859868 0.661202 0.216636
O O5 0.826275 0.195144 0.166820
O O6 0.637654 0.391808 0.189020
O O7 0.301861 0.119052 0.868029
O O8 0.679723 0.849550 0.366747
O O9 0.553085 0.603931 0.223663
O O10 0.486233 0.784152 0.412188
O O11 0.086180 0.618317 0.941011
O O12 0.259536 0.990236 0.154242
O O13 0.064202 0.001524 0.832713
O O14 0.839140 0.115148 0.628513
O O15 0.500000 0.500000 0.500000
O O16 0.698631 0.542223 0.842550
O O17 0.500000 0.000000 0.500000
#
# Coordination Sequence:
#
# PCOD9097682 Si02
#       8
#     2   2   2   2   2   2   2   2
#     4  10  20  36  61  93 129 161 221 270 322 375
#     4  11  23  40  67  97 127 178 226 265 315 385
#     4  10  22  40  62  99 132 167 211 271 339 389
#     4  11  23  40  66  97 127 174 230 266 310 397
#     4  10  22  41  63  93 137 168 210 269 331 378
#     4  11  20  36  63  92 129 170 217 271 322 388
#     4  11  22  40  63  94 133 171 223 273 322 387
#     4  10  22  41  63  97 134 166 209 268 343 390
#
# _framework density 26.988683999999999
#
# number of rings (size 3 to 8) (size 9 to 14) (size 15 to 20)
#    0.000    1.500    1.250    6.000    1.750    5.000 
#    4.500    0.625    0.000   21.000    0.000    0.000 
#    0.000    0.000    0.000    0.000    0.000    0.000 
#
# Total GULP energy -89393.464749 kJ/mol
# GULP energy per Si atom -5587.091547 kJ/mol
# Density = 2.692726 g / cm^3
# Si number density = 26.988684 Si / 1000 Ang^3
#
#
#
# Elastic Constant Matrix: (Units=GPa)
#
#
# Indices 1 2 3 4 5 6 
#
# 1 75.0696 50.0935 40.8745 -2.8438 -6.2835 -7.0059
# 2 50.0935 145.3050 47.6932 0.2844 -9.8723 -8.5701
# 3 40.8745 47.6932 119.5456 -11.4306 6.9929 -16.5620
# 4 -2.8438 0.2844 -11.4306 56.5999 -1.7004 -1.8256
# 5 -6.2835 -9.8723 6.9929 -1.7004 39.5670 9.4145
# 6 -7.0059 -8.5701 -16.5620 -1.8256 9.4145 37.5140
#
#
#
# Elastic Compliance Matrix: (Units=1/GPa)
#
#
# Indices 1 2 3 4 5 6 
#
# 1 0.019492 -0.004942 -0.004898 0.000088 0.002816 -0.000354
# 2 -0.004942 0.009468 -0.002321 -0.000714 0.002035 -0.000330
# 3 -0.004898 -0.002321 0.012174 0.002252 -0.004651 0.005207
# 4 0.000088 -0.000714 0.002252 0.018182 -0.000205 0.001784
# 5 0.002816 0.002035 -0.004651 -0.000205 0.029030 -0.008358
# 6 -0.000354 -0.000330 0.005207 0.001784 -0.008358 0.030998
#
#
# Mechanical properties :
#
#
# Convention : Reuss Voigt Hill
#
# Bulk Modulus (GPa) = 59.47947 68.58253 64.03100
# Shear Modulus (GPa) = 33.49648 40.15345 36.82497
#
# Velocity S-wave (km/s) = 3.52679 3.86137 3.69787
# Velocity P-wave (km/s) = 6.21859 6.73402 6.48143
#
# Compressibility (1/GPa) = 0.01681252
#
# Stress axis : x y z
#
# Youngs Moduli (GPa) = 51.30417 105.62353 82.13975
#
# Poissons Ratio (x) = 0.52195 0.40235
# Poissons Ratio (y) = 0.25353 0.19061
# Poissons Ratio (z) = 0.25130 0.24511
#
# Static dielectric constant tensor:
#      x y z
#    x 2.388480 -0.020200 0.068840 
#    y -0.020200 2.093310 0.031250 
#    z 0.068840 0.031250 2.124820 
# 
# From -- ./inp_files/521700.got.cif
#   From: 2010.05.17/outbox.cif.g08.bks.cpg/sg2_261_cif.got.tgz:521700.got - 2010.06.03 11:33:40.
