data_PCOD9097135
_publ_section_title
;
Structure prediction by ZEFSAII (Michael W. Deem and Ramdas Pophale) SiO2 
 PCOD9097135
Probable space group: P -1
;
_chemical_formula_sum "Si O2"
_cell_formula_units_Z 15
_cell_length_a 17.108614
_cell_length_b 11.077351
_cell_length_c 9.637972
_cell_angle_alpha 127.737283
_cell_angle_beta 138.434838
_cell_angle_gamma 29.569663
_cell_volume 593.844028
_symmetry_space_group_name_H-M "P -1"
_symmetry_group_IT_number 2
_symmetry_cell_setting 'triclinic'
loop_
_space_group_symop_operation_xyz
x,y,z
-x,-y,-z
loop_
_atom_site_type_symbol
_atom_site_label
_atom_site_fract_x
_atom_site_fract_y
_atom_site_fract_z
Si Si1 0.576143 0.306487 0.078177
Si Si2 0.314146 0.646263 0.221400
Si Si3 0.876844 0.876725 0.345090
Si Si4 0.000000 0.500000 0.000000
Si Si5 0.453782 0.008270 0.287081
Si Si6 0.504157 0.184293 0.249313
Si Si7 0.902806 0.514401 0.128435
Si Si8 0.980366 0.810699 0.728751
O O1 0.516565 0.195556 0.871434
O O2 0.500000 0.500000 0.000000
O O3 0.473021 0.476120 0.196796
O O4 0.797111 0.066025 0.252737
O O5 0.401313 0.453756 0.325006
O O6 0.220659 0.901139 0.313684
O O7 0.138851 0.736342 0.976750
O O8 0.954148 0.635249 0.221230
O O9 0.011401 0.786852 0.587734
O O10 0.683168 0.022728 0.272033
O O11 0.232645 0.268531 0.159546
O O12 0.987828 0.350983 0.990445
O O13 0.556069 0.025880 0.335186
O O14 0.500000 0.000000 0.500000
O O15 0.321326 0.284084 0.007375
O O16 0.007264 0.365355 0.303363
#
# Coordination Sequence:
#
# PCOD9097135 Si02
#       8
#     2   2   2   1   2   2   2   2
#     4  11  25  43  63  88 130 169 211 266 323 387
#     4   9  22  41  60  87 130 159 206 258 319 381
#     4  11  21  37  65  92 120 158 216 260 317 378
#     4  10  22  40  60  92 132 166 216 266 316 378
#     4  11  25  42  68  96 127 175 217 263 328 384
#     4   9  20  38  62  85 120 159 203 260 308 372
#     4  10  20  36  59  88 126 159 201 262 317 369
#     4  10  22  36  61  96 119 163 204 264 320 377
#
# _framework density 25.259157999999999
#
# number of rings (size 3 to 8) (size 9 to 14) (size 15 to 20)
#    0.000    1.867    2.667    0.800    7.467    4.267 
#    0.000    0.667    0.000    0.000    0.000    0.000 
#    0.000    0.000    0.000    0.000    0.000    0.000 
#
# Total GULP energy -83504.748545 kJ/mol
# GULP energy per Si atom -5566.983236 kJ/mol
# Density = 2.520167 g / cm^3
# Si number density = 25.259158 Si / 1000 Ang^3
#
#
#
# Elastic Constant Matrix: (Units=GPa)
#
#
# Indices 1 2 3 4 5 6 
#
# 1 70.2173 18.3783 15.8869 -3.4845 -21.9871 17.2279
# 2 18.3783 91.9373 33.7598 0.9235 -13.5560 15.6731
# 3 15.8869 33.7598 117.7470 -1.5351 -30.4167 21.6589
# 4 -3.4845 0.9235 -1.5351 42.6922 -0.2220 -7.2353
# 5 -21.9871 -13.5560 -30.4167 -0.2220 41.7195 -18.6596
# 6 17.2279 15.6731 21.6589 -7.2353 -18.6596 56.9163
#
#
#
# Elastic Compliance Matrix: (Units=1/GPa)
#
#
# Indices 1 2 3 4 5 6 
#
# 1 0.017848 -0.002278 0.000804 0.001202 0.008267 -0.002218
# 2 -0.002278 0.012756 -0.003054 -0.000878 -0.000094 -0.001803
# 3 0.000804 -0.003054 0.011347 0.000348 0.007104 -0.001347
# 4 0.001202 -0.000878 0.000348 0.024172 0.002333 0.003583
# 5 0.008267 -0.000094 0.007104 0.002333 0.036682 0.007143
# 6 -0.002218 -0.001803 -0.001347 0.003583 0.007143 0.022048
#
#
# Mechanical properties :
#
#
# Convention : Reuss Voigt Hill
#
# Bulk Modulus (GPa) = 30.39874 46.21684 38.30779
# Shear Modulus (GPa) = 34.51236 42.39071 38.45154
#
# Velocity S-wave (km/s) = 3.70040 4.10107 3.90587
# Velocity P-wave (km/s) = 5.50619 6.38450 5.96154
#
# Compressibility (1/GPa) = 0.03289610
#
# Stress axis : x y z
#
# Youngs Moduli (GPa) = 56.02771 78.39293 88.12629
#
# Poissons Ratio (x) = 0.17860 -0.07087
# Poissons Ratio (y) = 0.12764 0.26913
# Poissons Ratio (z) = -0.04506 0.23941
#
# Static dielectric constant tensor:
#      x y z
#    x 2.311470 0.015380 -0.168140 
#    y 0.015380 2.216480 0.219140 
#    z -0.168140 0.219140 2.380340 
# 
# From -- ./inp_files/333633.got.cif
#   From: 2010.05.17/outbox.cif.g08.bks.cpg/sg2_167_cif.got.tgz:333633.got - 2010.06.03 11:33:40.
