data_PCOD9097079
_publ_section_title
;
Structure prediction by ZEFSAII (Michael W. Deem and Ramdas Pophale) SiO2 
 PCOD9097079
Probable space group: P -1
;
_chemical_formula_sum "Si O2"
_cell_formula_units_Z 16
_cell_length_a 8.821844
_cell_length_b 19.595994
_cell_length_c 13.117371
_cell_angle_alpha 156.628873
_cell_angle_beta 132.262773
_cell_angle_gamma 47.524072
_cell_volume 652.631682
_symmetry_space_group_name_H-M "P -1"
_symmetry_group_IT_number 2
_symmetry_cell_setting 'triclinic'
loop_
_space_group_symop_operation_xyz
x,y,z
-x,-y,-z
loop_
_atom_site_type_symbol
_atom_site_label
_atom_site_fract_x
_atom_site_fract_y
_atom_site_fract_z
Si Si1 0.319791 0.707439 0.301993
Si Si2 0.869370 0.798525 0.141954
Si Si3 0.544855 0.385929 0.545584
Si Si4 0.926146 0.121173 0.035642
Si Si5 0.718383 0.878826 0.964357
Si Si6 0.888522 0.385929 0.545582
Si Si7 0.338122 0.292560 0.698005
Si Si8 0.481035 0.201475 0.858044
O O1 0.331302 0.710354 0.432997
O O2 0.519941 0.758383 0.407516
O O3 0.334608 0.500000 0.999999
O O4 0.104316 0.806887 0.291662
O O5 0.780222 0.896841 0.134075
O O6 0.879465 0.592002 0.837215
O O7 0.710569 0.842132 0.223766
O O8 0.333594 0.314382 0.341063
O O9 0.682712 0.343993 0.448703
O O10 0.518960 0.592002 0.837217
O O11 0.905380 0.314382 0.341060
O O12 0.702594 0.103158 0.865923
O O13 0.097276 0.092976 0.986740
O O14 0.000000 0.000000 0.000000
O O15 0.500000 0.000000 0.000000
O O16 0.096369 0.289646 0.567002
O O17 0.441651 0.193112 0.708335
#
# Coordination Sequence:
#
# PCOD9097079 Si02
#       8
#     2   2   2   2   2   2   2   2
#     4   9  17  31  54  85 116 145 182 227 273 323
#     4  10  20  36  59  86 115 147 184 227 276 329
#     4  10  20  36  59  86 115 147 184 227 276 329
#     4  12  25  40  57  79 111 149 189 232 279 330
#     4  12  25  40  57  79 111 149 189 232 279 330
#     4  10  20  36  59  86 115 147 184 227 276 329
#     4   9  17  31  54  85 116 145 182 227 273 323
#     4  10  20  36  59  86 115 147 184 227 276 329
#
# _framework density 24.516126
#
# number of rings (size 3 to 8) (size 9 to 14) (size 15 to 20)
#    0.000    1.750    0.000    5.250    0.000    9.000 
#    0.000    1.250    0.000    0.000    0.000    0.000 
#    0.000    0.000    0.000    0.000    0.000    0.000 
#
# Total GULP energy -89685.516101 kJ/mol
# GULP energy per Si atom -5605.344756 kJ/mol
# Density = 2.446033 g / cm^3
# Si number density = 24.516126 Si / 1000 Ang^3
#
#
#
# Elastic Constant Matrix: (Units=GPa)
#
#
# Indices 1 2 3 4 5 6 
#
# 1 154.5435 52.8247 2.3809 -10.9202 -0.4210 1.3795
# 2 52.8247 185.3266 5.1939 -11.4863 -1.1960 -4.2768
# 3 2.3809 5.1939 68.9841 -1.6138 0.0669 0.0729
# 4 -10.9202 -11.4863 -1.6138 43.1215 -0.2289 -0.2252
# 5 -0.4210 -1.1960 0.0669 -0.2289 34.1873 -6.2802
# 6 1.3795 -4.2768 0.0729 -0.2252 -6.2802 36.7921
#
#
#
# Elastic Compliance Matrix: (Units=1/GPa)
#
#
# Indices 1 2 3 4 5 6 
#
# 1 0.007250 -0.001996 -0.000069 0.001299 -0.000065 -0.000507
# 2 -0.001996 0.006065 -0.000363 0.001103 0.000351 0.000847
# 3 -0.000069 -0.000363 0.014536 0.000429 -0.000053 -0.000075
# 4 0.001299 0.001103 0.000429 0.023832 0.000263 0.000269
# 5 -0.000065 0.000351 -0.000053 0.000263 0.030220 0.005203
# 6 -0.000507 0.000847 -0.000075 0.000269 0.005203 0.028187
#
#
# Mechanical properties :
#
#
# Convention : Reuss Voigt Hill
#
# Bulk Modulus (GPa) = 43.48847 58.85037 51.16942
# Shear Modulus (GPa) = 40.77907 46.05050 43.41478
#
# Velocity S-wave (km/s) = 4.08285 4.33873 4.21273
# Velocity P-wave (km/s) = 6.32483 7.01115 6.67682
#
# Compressibility (1/GPa) = 0.02299460
#
# Stress axis : x y z
#
# Youngs Moduli (GPa) = 137.92741 164.87416 68.79475
#
# Poissons Ratio (x) = 0.32913 0.00474
# Poissons Ratio (y) = 0.27534 0.02499
# Poissons Ratio (z) = 0.00951 0.05988
#
# Static dielectric constant tensor:
#      x y z
#    x 1.820220 -0.005310 -0.000480 
#    y -0.005310 1.933480 0.096480 
#    z -0.000480 0.096480 2.071500 
# 
# From -- ./inp_files/217678.got.cif
#   From: 2010.05.17/outbox.cif.g08.bks.cpg/sg2_109_cif.got.tgz:217678.got - 2010.06.03 11:33:40.
