data_PCOD9097159
_publ_section_title
;
Structure prediction by ZEFSAII (Michael W. Deem and Ramdas Pophale) SiO2 
 PCOD9097159
Probable space group: P -1
;
_chemical_formula_sum "Si O2"
_cell_formula_units_Z 16
_cell_length_a 9.446112
_cell_length_b 11.494725
_cell_length_c 19.753621
_cell_angle_alpha 30.694870
_cell_angle_beta 45.254083
_cell_angle_gamma 46.239371
_cell_volume 755.263572
_symmetry_space_group_name_H-M "P -1"
_symmetry_group_IT_number 2
_symmetry_cell_setting 'triclinic'
loop_
_space_group_symop_operation_xyz
x,y,z
-x,-y,-z
loop_
_atom_site_type_symbol
_atom_site_label
_atom_site_fract_x
_atom_site_fract_y
_atom_site_fract_z
Si Si1 0.788748 0.351460 0.581923
Si Si2 0.242241 0.255850 0.493626
Si Si3 0.424541 0.171424 0.762682
Si Si4 0.202755 0.917237 0.152784
Si Si5 0.665256 0.664592 0.135458
Si Si6 0.625008 0.271235 0.265743
Si Si7 0.450714 0.608840 0.036499
Si Si8 0.986087 0.226464 0.842803
O O1 0.720485 0.581379 0.537707
O O2 0.620288 0.279897 0.626130
O O3 0.821255 0.150822 0.729043
O O4 0.021205 0.346100 0.487100
O O5 0.408277 0.261076 0.377713
O O6 0.265065 0.997914 0.645341
O O7 0.362236 0.271342 0.808990
O O8 0.213644 0.270311 0.743535
O O9 0.468537 0.884213 0.892879
O O10 0.438157 0.780272 0.123192
O O11 0.064693 0.836481 0.184295
O O12 0.181939 0.191044 0.016900
O O13 0.727754 0.398097 0.225865
O O14 0.595866 0.437660 0.126875
O O15 0.218211 0.605811 0.140307
O O16 0.500000 0.500000 0.000000
O O17 0.000000 0.000000 0.000000
#
# Coordination Sequence:
#
# PCOD9097159 Si02
#       8
#     2   2   2   2   2   2   2   2
#     4  10  20  39  59  89 110 152 201 255 277 344
#     4  10  22  35  62  87 117 152 199 245 295 340
#     4  10  20  37  60  88 117 154 200 239 296 351
#     4  10  16  30  59  85 115 150 190 239 294 350
#     4  10  16  32  61  86 113 146 192 245 293 347
#     4  11  20  39  59  92 115 156 191 246 301 349
#     4  11  22  38  59  88 127 152 188 246 300 352
#     4  10  18  32  54  85 116 160 185 217 298 371
#
# _framework density 21.184657999999999
#
# number of rings (size 3 to 8) (size 9 to 14) (size 15 to 20)
#    0.000    1.750    6.250    1.500    0.000    2.000 
#    2.250    1.250    0.000   13.500    0.000    0.000 
#    0.000    0.000    0.000    0.000    0.000    0.000 
#
# Total GULP energy -89192.012390 kJ/mol
# GULP energy per Si atom -5574.500774 kJ/mol
# Density = 2.113644 g / cm^3
# Si number density = 21.184658 Si / 1000 Ang^3
#
#
#
# Elastic Constant Matrix: (Units=GPa)
#
#
# Indices 1 2 3 4 5 6 
#
# 1 133.5397 20.8051 14.5087 -5.2993 -30.2996 -6.2849
# 2 20.8051 48.9764 15.2037 -3.0467 -19.3501 -4.4092
# 3 14.5087 15.2037 62.9287 -16.7777 -26.1192 -4.0215
# 4 -5.2993 -3.0467 -16.7777 22.1534 5.1640 0.0811
# 5 -30.2996 -19.3501 -26.1192 5.1640 36.2108 2.4579
# 6 -6.2849 -4.4092 -4.0215 0.0811 2.4579 24.5645
#
#
#
# Elastic Compliance Matrix: (Units=1/GPa)
#
#
# Indices 1 2 3 4 5 6 
#
# 1 0.009525 -0.001057 0.002242 0.001809 0.008646 0.001743
# 2 -0.001057 0.026280 -0.000806 -0.000148 0.012390 0.003076
# 3 0.002242 -0.000806 0.028398 0.017438 0.019232 0.003096
# 4 0.001809 -0.000148 0.017438 0.057432 0.005650 0.002536
# 5 0.008646 0.012390 0.019232 0.005650 0.054394 0.002123
# 6 0.001743 0.003076 0.003096 0.002536 0.002123 0.041993
#
#
# Mechanical properties :
#
#
# Convention : Reuss Voigt Hill
#
# Bulk Modulus (GPa) = 15.39380 38.49775 26.94578
# Shear Modulus (GPa) = 20.92758 29.58089 25.25424
#
# Velocity S-wave (km/s) = 3.14644 3.74081 3.45643
# Velocity P-wave (km/s) = 4.52575 6.07208 5.35502
#
# Compressibility (1/GPa) = 0.06496122
#
# Stress axis : x y z
#
# Youngs Moduli (GPa) = 104.98608 38.05178 35.21316
#
# Poissons Ratio (x) = 0.04021 -0.07893
# Poissons Ratio (y) = 0.11093 0.02838
# Poissons Ratio (z) = -0.23533 0.03067
#
# Static dielectric constant tensor:
#      x y z
#    x 1.814120 -0.062470 -0.048970 
#    y -0.062470 1.804100 0.026930 
#    z -0.048970 0.026930 1.863230 
# 
# From -- ./inp_files/588825.got.cif
#   From: 2010.05.17/outbox.cif.g08.bks.cpg/sg2_295_cif.got.tgz:588825.got - 2010.06.03 11:33:40.
