data_PCOD9097460
_publ_section_title
;
Structure prediction by ZEFSAII (Michael W. Deem and Ramdas Pophale) SiO2 
 PCOD9097460
Probable space group: P -1
;
_chemical_formula_sum "Si O2"
_cell_formula_units_Z 13
_cell_length_a 11.079757
_cell_length_b 9.405917
_cell_length_c 11.163147
_cell_angle_alpha 63.127068
_cell_angle_beta 122.732930
_cell_angle_gamma 152.927709
_cell_volume 444.066276
_symmetry_space_group_name_H-M "P -1"
_symmetry_group_IT_number 2
_symmetry_cell_setting 'triclinic'
loop_
_space_group_symop_operation_xyz
x,y,z
-x,-y,-z
loop_
_atom_site_type_symbol
_atom_site_label
_atom_site_fract_x
_atom_site_fract_y
_atom_site_fract_z
Si Si1 0.052410 0.785467 0.948642
Si Si2 0.500000 0.500000 0.000000
Si Si3 0.934760 0.140020 0.825548
Si Si4 0.429731 0.455217 0.260610
Si Si5 0.268878 0.536274 0.493694
Si Si6 0.175628 0.731272 0.819474
Si Si7 0.555718 0.096367 0.339898
O O1 0.253946 0.921951 0.898609
O O2 0.767849 0.580980 0.810645
O O3 0.169504 0.014500 0.033143
O O4 0.953416 0.540069 0.069810
O O5 0.452487 0.428621 0.854018
O O6 0.259976 0.419652 0.901034
O O7 0.812050 0.909766 0.746614
O O8 0.754119 0.126009 0.716663
O O9 0.657514 0.580641 0.416115
O O10 0.243140 0.595571 0.590327
O O11 0.020518 0.347621 0.342764
O O12 0.530612 0.891602 0.448266
O O13 0.388656 0.865388 0.785302
#
# Coordination Sequence:
#
# PCOD9097460 Si02
#       7
#     2   1   2   2   2   2   2
#     4  10  22  41  60  93 128 161 208 253 309 369
#     4  10  20  36  60  94 122 154 192 258 324 344
#     4  10  21  39  61  93 120 157 209 256 300 365
#     4  10  23  39  64  91 124 158 211 262 302 359
#     4  10  22  40  60  92 122 163 213 255 298 371
#     4  11  23  41  62  90 130 169 201 250 311 373
#     4  10  22  39  65  89 124 163 211 254 305 362
#
# _framework density 29.274912
#
# number of rings (size 3 to 8) (size 9 to 14) (size 15 to 20)
#    0.000    1.846    1.538    2.308    8.615    4.923 
#    0.000    0.769    0.000    0.000    0.000    0.000 
#    0.000    0.000    0.000    0.000    0.000    0.000 
#
# Total GULP energy -72478.122858 kJ/mol
# GULP energy per Si atom -5575.240220 kJ/mol
# Density = 2.920828 g / cm^3
# Si number density = 29.274912 Si / 1000 Ang^3
#
#
#
# Elastic Constant Matrix: (Units=GPa)
#
#
# Indices 1 2 3 4 5 6 
#
# 1 150.2780 45.6926 52.3807 0.6225 -31.0780 23.9734
# 2 45.6926 65.2277 33.4735 1.9347 2.6657 21.7655
# 3 52.3807 33.4735 196.9916 5.1857 29.4895 3.4856
# 4 0.6225 1.9347 5.1857 37.9166 2.7178 0.4446
# 5 -31.0780 2.6657 29.4895 2.7178 49.5909 -7.6708
# 6 23.9734 21.7655 3.4856 0.4446 -7.6708 51.4807
#
#
#
# Elastic Compliance Matrix: (Units=1/GPa)
#
#
# Indices 1 2 3 4 5 6 
#
# 1 0.012177 -0.006741 -0.003560 -0.000069 0.009944 -0.001097
# 2 -0.006741 0.023426 -0.001153 -0.000412 -0.005947 -0.007569
# 3 -0.003560 -0.001153 0.007159 -0.000419 -0.006290 0.000727
# 4 -0.000069 -0.000412 -0.000419 0.026545 -0.001255 -0.000181
# 5 0.009944 -0.005947 -0.006290 -0.001255 0.030980 0.002936
# 6 -0.001097 -0.007569 0.000727 -0.000181 0.002936 0.023526
#
#
# Mechanical properties :
#
#
# Convention : Reuss Voigt Hill
#
# Bulk Modulus (GPa) = 50.37029 75.06565 62.71797
# Shear Modulus (GPa) = 32.60759 46.52765 39.56762
#
# Velocity S-wave (km/s) = 3.34105 3.99097 3.68038
# Velocity P-wave (km/s) = 5.66805 6.85087 6.28734
#
# Compressibility (1/GPa) = 0.01985297
#
# Stress axis : x y z
#
# Youngs Moduli (GPa) = 82.12464 42.68744 139.69062
#
# Poissons Ratio (x) = 0.28777 0.49726
# Poissons Ratio (y) = 0.55364 0.16108
# Poissons Ratio (z) = 0.29234 0.04922
#
# Static dielectric constant tensor:
#      x y z
#    x 2.485840 -0.184500 -0.015110 
#    y -0.184500 2.159770 0.062160 
#    z -0.015110 0.062160 2.298220 
# 
# From -- ./inp_files/361096.got.cif
#   From: 2010.05.17/outbox.cif.g08.bks.cpg/sg2_181_cif.got.tgz:361096.got - 2010.06.03 11:33:40.
