data_PCOD9097300
_publ_section_title
;
Structure prediction by ZEFSAII (Michael W. Deem and Ramdas Pophale) SiO2 
 PCOD9097300
Probable space group: P -1
;
_chemical_formula_sum "Si O2"
_cell_formula_units_Z 12
_cell_length_a 16.600475
_cell_length_b 11.800064
_cell_length_c 9.079930
_cell_angle_alpha 99.066960
_cell_angle_beta 145.187969
_cell_angle_gamma 55.518552
_cell_volume 634.010246
_symmetry_space_group_name_H-M "P -1"
_symmetry_group_IT_number 2
_symmetry_cell_setting 'triclinic'
loop_
_space_group_symop_operation_xyz
x,y,z
-x,-y,-z
loop_
_atom_site_type_symbol
_atom_site_label
_atom_site_fract_x
_atom_site_fract_y
_atom_site_fract_z
Si Si1 0.345392 0.301717 0.199151
Si Si2 0.790611 0.805407 0.212963
Si Si3 0.868145 0.982874 0.220200
Si Si4 0.857820 0.987866 0.855991
Si Si5 0.951352 0.694941 0.762725
Si Si6 0.407750 0.188139 0.589624
O O1 0.372061 0.204717 0.364665
O O2 0.590218 0.173950 0.478482
O O3 0.192953 0.330193 0.859404
O O4 0.208029 0.499004 0.084607
O O5 0.838876 0.781582 0.452069
O O6 0.928717 0.819613 0.343685
O O7 0.539017 0.999819 0.825215
O O8 0.000000 0.000000 0.500000
O O9 0.900219 0.960013 0.089172
O O10 0.600431 0.163055 0.888582
O O11 0.922015 0.826738 0.844018
O O12 0.000000 0.000000 0.000000
O O13 0.826098 0.667382 0.649565
#
# Coordination Sequence:
#
# PCOD9097300 Si02
#       6
#     2   2   2   2   2   2
#     4  11  22  39  59  88 118 150 194 241 284 341
#     4  10  20  36  60  86 119 150 191 237 287 338
#     4   9  19  36  60  84 111 155 194 228 284 346
#     4  11  23  39  61  82 118 158 191 235 291 345
#     4  12  22  36  62  91 115 149 194 241 288 339
#     4   9  20  36  61  82 117 153 189 232 291 338
#
# _framework density 18.927136999999998
#
# number of rings (size 3 to 8) (size 9 to 14) (size 15 to 20)
#    1.000    0.667    1.667    4.000    0.000    0.667 
#    0.000    0.000    0.000    6.000    0.000    0.000 
#    0.000    0.000    0.000    0.000    0.000    0.000 
#
# Total GULP energy -66808.442914 kJ/mol
# GULP energy per Si atom -5567.370243 kJ/mol
# Density = 1.888406 g / cm^3
# Si number density = 18.927137 Si / 1000 Ang^3
#
#
#
# Elastic Constant Matrix: (Units=GPa)
#
#
# Indices 1 2 3 4 5 6 
#
# 1 146.7174 43.0994 62.0592 19.7801 11.0329 -2.6501
# 2 43.0994 108.7302 67.3646 10.6956 17.3359 -18.5619
# 3 62.0592 67.3646 102.3949 22.2684 -0.1434 -7.2007
# 4 19.7801 10.6956 22.2684 42.7953 -0.6488 1.6904
# 5 11.0329 17.3359 -0.1434 -0.6488 39.1707 1.2091
# 6 -2.6501 -18.5619 -7.2007 1.6904 1.2091 15.1913
#
#
#
# Elastic Compliance Matrix: (Units=1/GPa)
#
#
# Indices 1 2 3 4 5 6 
#
# 1 0.009545 0.000281 -0.005650 -0.001575 -0.002851 -0.000268
# 2 0.000281 0.023496 -0.014084 0.000250 -0.011234 0.022948
# 3 -0.005650 -0.014084 0.023156 -0.005510 0.008042 -0.007246
# 4 -0.001575 0.000250 -0.005510 0.027138 0.000937 -0.005675
# 5 -0.002851 -0.011234 0.008042 0.000937 0.031752 -0.013043
# 6 -0.000268 0.022948 -0.007246 -0.005675 -0.013043 0.092056
#
#
# Mechanical properties :
#
#
# Convention : Reuss Voigt Hill
#
# Bulk Modulus (GPa) = 57.83624 78.09877 67.96751
# Shear Modulus (GPa) = 19.85599 31.78610 25.82105
#
# Velocity S-wave (km/s) = 3.24246 4.10249 3.69756
# Velocity P-wave (km/s) = 6.68144 7.98705 7.36324
#
# Compressibility (1/GPa) = 0.01729020
#
# Stress axis : x y z
#
# Youngs Moduli (GPa) = 104.76521 42.56073 43.18452
#
# Poissons Ratio (x) = -0.01195 0.24400
# Poissons Ratio (y) = -0.02943 0.60822
# Poissons Ratio (z) = 0.59195 0.59943
#
# Static dielectric constant tensor:
#      x y z
#    x 1.662960 -0.009120 0.002780 
#    y -0.009120 1.693180 -0.048090 
#    z 0.002780 -0.048090 1.673570 
# 
# From -- ./inp_files/179644.got.cif
#   From: 2010.05.17/outbox.cif.g08.bks.cpg/sg2_90_cif.got.tgz:179644.got - 2010.06.03 11:33:40.
