data_PCOD9097306
_publ_section_title
;
Structure prediction by ZEFSAII (Michael W. Deem and Ramdas Pophale) SiO2 
 PCOD9097306
Probable space group: P -1
;
_chemical_formula_sum "Si O2"
_cell_formula_units_Z 16
_cell_length_a 13.742519
_cell_length_b 9.290699
_cell_length_c 13.621854
_cell_angle_alpha 125.711033
_cell_angle_beta 38.419059
_cell_angle_gamma 142.638788
_cell_volume 652.320584
_symmetry_space_group_name_H-M "P -1"
_symmetry_group_IT_number 2
_symmetry_cell_setting 'triclinic'
loop_
_space_group_symop_operation_xyz
x,y,z
-x,-y,-z
loop_
_atom_site_type_symbol
_atom_site_label
_atom_site_fract_x
_atom_site_fract_y
_atom_site_fract_z
Si Si1 0.294934 0.114633 0.432031
Si Si2 0.910226 0.582030 0.533632
Si Si3 0.545368 0.761746 0.297342
Si Si4 0.721896 0.736034 0.880914
Si Si5 0.694661 0.194228 0.215078
Si Si6 0.481358 0.310586 0.150891
Si Si7 0.151954 0.572222 0.013087
Si Si8 0.153437 0.172015 0.763952
O O1 0.490152 0.162913 0.350474
O O2 0.377625 0.247689 0.315525
O O3 0.208826 0.188789 0.610937
O O4 0.110371 0.838899 0.436614
O O5 0.705810 0.387920 0.549988
O O6 0.816481 0.642847 0.712050
O O7 0.000000 0.500000 0.500000
O O8 0.563493 0.572337 0.171612
O O9 0.695935 0.855975 0.310502
O O10 0.623656 0.966404 0.239164
O O11 0.679262 0.845169 0.871533
O O12 0.500000 0.500000 0.000000
O O13 0.910566 0.938352 0.881654
O O14 0.778083 0.245750 0.057139
O O15 0.916777 0.427371 0.179154
O O16 0.667479 0.308942 0.001647
O O17 0.171067 0.386914 0.874738
#
# Coordination Sequence:
#
# PCOD9097306 Si02
#       8
#     2   2   2   2   2   2   2   2
#     4  10  21  41  62  84 123 154 200 242 289 355
#     4  10  20  39  60  88 117 163 191 233 299 353
#     4  10  21  35  61  90 115 157 195 240 295 347
#     4  10  23  38  60  89 119 148 199 248 290 344
#     4  10  20  36  60  86 122 157 193 242 287 362
#     4   9  21  39  62  88 113 163 198 235 293 358
#     4   9  21  38  61  88 115 162 198 234 299 343
#     4  10  23  38  60  89 119 153 196 250 290 340
#
# _framework density 24.527818
#
# number of rings (size 3 to 8) (size 9 to 14) (size 15 to 20)
#    0.000    2.250    1.250    0.000    5.250   10.500 
#    0.000    0.000    0.000    7.500    0.000    0.000 
#    0.000    0.000    0.000    0.000    0.000    0.000 
#
# Total GULP energy -89221.781018 kJ/mol
# GULP energy per Si atom -5576.361314 kJ/mol
# Density = 2.447199 g / cm^3
# Si number density = 24.527818 Si / 1000 Ang^3
#
#
#
# Elastic Constant Matrix: (Units=GPa)
#
#
# Indices 1 2 3 4 5 6 
#
# 1 169.4466 42.5769 41.5468 -13.8778 -27.9158 3.1197
# 2 42.5769 77.7211 47.1658 -25.2750 9.1228 -2.4099
# 3 41.5468 47.1658 93.6500 -33.0118 -11.5647 7.1730
# 4 -13.8778 -25.2750 -33.0118 28.6622 3.1245 -6.6534
# 5 -27.9158 9.1228 -11.5647 3.1245 40.2267 -15.1760
# 6 3.1197 -2.4099 7.1730 -6.6534 -15.1760 36.7495
#
#
#
# Elastic Compliance Matrix: (Units=1/GPa)
#
#
# Indices 1 2 3 4 5 6 
#
# 1 0.008689 -0.005889 -0.000917 -0.002470 0.008018 0.001919
# 2 -0.005889 0.026755 -0.007855 0.013306 -0.013158 0.000763
# 3 -0.000917 -0.007855 0.021890 0.017393 0.006513 0.001129
# 4 -0.002470 0.013306 0.017393 0.067791 -0.001468 0.009355
# 5 0.008018 -0.013158 0.006513 -0.001468 0.040549 0.013664
# 6 0.001919 0.000763 0.001129 0.009355 0.013664 0.034214
#
#
# Mechanical properties :
#
#
# Convention : Reuss Voigt Hill
#
# Bulk Modulus (GPa) = 35.69813 67.04409 51.37111
# Shear Modulus (GPa) = 20.96035 35.09623 28.02829
#
# Velocity S-wave (km/s) = 2.92645 3.78679 3.38407
# Velocity P-wave (km/s) = 5.09946 6.82004 6.02152
#
# Compressibility (1/GPa) = 0.02801267
#
# Stress axis : x y z
#
# Youngs Moduli (GPa) = 115.08495 37.37682 45.68342
#
# Poissons Ratio (x) = 0.22010 0.04188
# Poissons Ratio (y) = 0.67769 0.35885
# Poissons Ratio (z) = 0.10549 0.29360
#
# Static dielectric constant tensor:
#      x y z
#    x 2.125080 0.084860 -0.008500 
#    y 0.084860 1.988510 0.015010 
#    z -0.008500 0.015010 2.097470 
# 
# From -- ./inp_files/513984.got.cif
#   From: 2010.05.17/outbox.cif.g08.bks.cpg/sg2_257_cif.got.tgz:513984.got - 2010.06.03 11:33:40.
