data_PCOD9097139
_publ_section_title
;
Structure prediction by ZEFSAII (Michael W. Deem and Ramdas Pophale) SiO2 
 PCOD9097139
Probable space group: P -1
;
_chemical_formula_sum "Si O2"
_cell_formula_units_Z 16
_cell_length_a 30.509049
_cell_length_b 18.724385
_cell_length_c 11.382380
_cell_angle_alpha 32.780476
_cell_angle_beta 22.159865
_cell_angle_gamma 20.436439
_cell_volume 838.064034
_symmetry_space_group_name_H-M "P -1"
_symmetry_group_IT_number 2
_symmetry_cell_setting 'triclinic'
loop_
_space_group_symop_operation_xyz
x,y,z
-x,-y,-z
loop_
_atom_site_type_symbol
_atom_site_label
_atom_site_fract_x
_atom_site_fract_y
_atom_site_fract_z
Si Si1 0.946297 0.892706 0.771522
Si Si2 0.020260 0.263790 0.839366
Si Si3 0.084720 0.905271 0.791730
Si Si4 0.586787 0.057102 0.816796
Si Si5 0.204291 0.694888 0.211038
Si Si6 0.467044 0.651457 0.282882
Si Si7 0.425975 0.684809 0.849251
Si Si8 0.344633 0.289049 0.871059
O O1 0.093023 0.712140 0.562380
O O2 0.964721 0.805915 0.970007
O O3 0.000000 0.000000 0.500000
O O4 0.730249 0.093433 0.001313
O O5 0.223204 0.107954 0.500762
O O6 0.929079 0.232656 0.025778
O O7 0.875067 0.509747 0.863113
O O8 0.294890 0.766583 0.468314
O O9 0.954547 0.099842 0.757228
O O10 0.000000 0.000000 0.000000
O O11 0.582915 0.176686 0.754865
O O12 0.424126 0.222768 0.897798
O O13 0.579829 0.916187 0.081667
O O14 0.348604 0.492483 0.051335
O O15 0.324172 0.704667 0.963508
O O16 0.500000 0.500000 0.500000
O O17 0.578018 0.652174 0.471137
O O18 0.500000 0.500000 0.000000
#
# Coordination Sequence:
#
# PCOD9097139 Si02
#       8
#     2   2   2   2   2   2   2   2
#     4  10  20  36  59  88 127 150 203 267 295 361
#     4  12  20  40  60  90 126 159 208 254 314 363
#     4  12  21  34  59  88 130 161 195 259 311 366
#     4  11  24  41  57  93 128 161 208 254 309 383
#     4  11  23  37  56  97 124 157 203 252 318 363
#     4  12  23  37  58  87 126 166 204 251 312 374
#     4  11  21  39  66  95 122 162 210 263 312 358
#     4  11  23  38  64  88 123 168 203 257 318 361
#
# _framework density 19.091619999999999
#
# number of rings (size 3 to 8) (size 9 to 14) (size 15 to 20)
#    0.000    0.750    6.250    4.125    1.750    0.000 
#    0.000    0.000    0.000    3.750    0.000    0.000 
#    0.000    0.000    0.000    0.000    0.000    0.000 
#
# Total GULP energy -89367.748086 kJ/mol
# GULP energy per Si atom -5585.484255 kJ/mol
# Density = 1.904817 g / cm^3
# Si number density = 19.091620 Si / 1000 Ang^3
#
#
#
# Elastic Constant Matrix: (Units=GPa)
#
#
# Indices 1 2 3 4 5 6 
#
# 1 71.8008 36.4896 28.9464 -1.5900 8.5953 -9.1086
# 2 36.4896 106.8422 40.5566 8.6105 10.8577 -17.5122
# 3 28.9464 40.5566 78.8334 8.4079 19.7727 -4.2402
# 4 -1.5900 8.6105 8.4079 40.4464 5.4940 0.2614
# 5 8.5953 10.8577 19.7727 5.4940 33.5281 12.0077
# 6 -9.1086 -17.5122 -4.2402 0.2614 12.0077 30.1200
#
#
#
# Elastic Compliance Matrix: (Units=1/GPa)
#
#
# Indices 1 2 3 4 5 6 
#
# 1 0.018535 -0.004107 -0.004086 0.002810 -0.002811 0.003738
# 2 -0.004107 0.014176 -0.004288 -0.001863 -0.003500 0.007808
# 3 -0.004086 -0.004288 0.019138 -0.001950 -0.009526 0.002780
# 4 0.002810 -0.001863 -0.001950 0.026105 -0.003478 0.000652
# 5 -0.002811 -0.003500 -0.009526 -0.003478 0.045928 -0.022505
# 6 0.003738 0.007808 0.002780 0.000652 -0.022505 0.048228
#
#
# Mechanical properties :
#
#
# Convention : Reuss Voigt Hill
#
# Bulk Modulus (GPa) = 37.19495 52.16240 44.67868
# Shear Modulus (GPa) = 24.26767 30.91780 27.59274
#
# Velocity S-wave (km/s) = 3.56914 4.02860 3.80581
# Velocity P-wave (km/s) = 6.04232 7.00149 6.53952
#
# Compressibility (1/GPa) = 0.02688537
#
# Stress axis : x y z
#
# Youngs Moduli (GPa) = 53.95163 70.54370 52.25072
#
# Poissons Ratio (x) = 0.28974 0.21352
# Poissons Ratio (y) = 0.22159 0.22407
# Poissons Ratio (z) = 0.22047 0.30251
#
# Static dielectric constant tensor:
#      x y z
#    x 1.675360 0.010130 0.015510 
#    y 0.010130 1.701600 0.030930 
#    z 0.015510 0.030930 1.711580 
# 
# From -- ./inp_files/427910.got.cif
#   From: 2010.05.17/outbox.cif.g08.bks.cpg/sg2_214_cif.got.tgz:427910.got - 2010.06.03 11:33:40.
