data_PCOD9097869
_publ_section_title
;
Structure prediction by ZEFSAII (Michael W. Deem and Ramdas Pophale) SiO2 
 PCOD9097869
Probable space group: P -1
;
_chemical_formula_sum "Si O2"
_cell_formula_units_Z 16
_cell_length_a 15.729775
_cell_length_b 13.317566
_cell_length_c 9.759124
_cell_angle_alpha 148.135151
_cell_angle_beta 142.580285
_cell_angle_gamma 45.189619
_cell_volume 652.886731
_symmetry_space_group_name_H-M "P -1"
_symmetry_group_IT_number 2
_symmetry_cell_setting 'triclinic'
loop_
_space_group_symop_operation_xyz
x,y,z
-x,-y,-z
loop_
_atom_site_type_symbol
_atom_site_label
_atom_site_fract_x
_atom_site_fract_y
_atom_site_fract_z
Si Si1 0.375037 0.462371 0.192025
Si Si2 0.927066 0.798259 0.342442
Si Si3 0.351733 0.036688 0.777650
Si Si4 0.600156 0.707679 0.268081
Si Si5 0.108206 0.650180 0.195826
Si Si6 0.102278 0.321164 0.269073
Si Si7 0.658006 0.125688 0.711093
Si Si8 0.029855 0.765194 0.727147
O O1 0.500000 0.500000 0.500000
O O2 0.249273 0.624088 0.256210
O O3 0.343683 0.248952 0.947963
O O4 0.397445 0.435182 0.025210
O O5 0.792307 0.940395 0.290821
O O6 0.080198 0.781631 0.446373
O O7 0.946429 0.845821 0.581736
O O8 0.895214 0.575245 0.029414
O O9 0.355725 0.889220 0.486918
O O10 0.500000 0.000000 0.000000
O O11 0.731780 0.670820 0.496972
O O12 0.455075 0.727127 0.187230
O O13 0.625025 0.917821 0.483739
O O14 0.973962 0.732956 0.029122
O O15 0.037481 0.538796 0.452998
O O16 0.051588 0.206418 0.201433
O O17 0.813874 0.176562 0.000432
#
# Coordination Sequence:
#
# PCOD9097869 Si02
#       8
#     2   2   2   2   2   2   2   2
#     4  10  21  38  61  84 120 159 194 249 308 357
#     4   9  19  36  59  86 118 157 200 244 303 364
#     4  10  22  38  58  86 122 159 198 243 301 364
#     4  10  22  40  60  89 123 161 204 248 305 365
#     4   9  19  36  59  87 120 154 195 253 308 352
#     4  10  20  36  62  91 119 150 207 262 297 348
#     4  10  23  40  60  85 127 168 198 241 307 380
#     4  10  20  37  63  87 118 157 207 251 303 358
#
# _framework density 24.506546
#
# number of rings (size 3 to 8) (size 9 to 14) (size 15 to 20)
#    0.000    2.250    0.000    3.750    3.500    4.500 
#    0.000    0.000    0.000    2.250    0.000    0.000 
#    0.000    0.000    0.000    0.000    0.000    0.000 
#
# Total GULP energy -89355.253055 kJ/mol
# GULP energy per Si atom -5584.703316 kJ/mol
# Density = 2.445077 g / cm^3
# Si number density = 24.506546 Si / 1000 Ang^3
#
#
#
# Elastic Constant Matrix: (Units=GPa)
#
#
# Indices 1 2 3 4 5 6 
#
# 1 125.5611 49.4073 32.5188 -5.6206 3.2637 -29.8565
# 2 49.4073 106.1035 27.6476 -9.7882 -13.4926 -33.3085
# 3 32.5188 27.6476 95.7136 -17.8872 5.2693 -18.0011
# 4 -5.6206 -9.7882 -17.8872 51.3245 -4.9777 9.3145
# 5 3.2637 -13.4926 5.2693 -4.9777 28.2664 -1.8302
# 6 -29.8565 -33.3085 -18.0011 9.3145 -1.8302 38.8369
#
#
#
# Elastic Compliance Matrix: (Units=1/GPa)
#
#
# Indices 1 2 3 4 5 6 
#
# 1 0.010993 -0.003597 -0.001912 -0.001241 -0.002547 0.004657
# 2 -0.003597 0.016115 -0.001787 0.001070 0.009303 0.010409
# 3 -0.001912 -0.001787 0.012733 0.003302 -0.002295 0.001999
# 4 -0.001241 0.001070 0.003302 0.021697 0.003630 -0.003538
# 5 -0.002547 0.009303 -0.002295 0.003630 0.041571 0.006046
# 6 0.004657 0.010409 0.001999 -0.003538 0.006046 0.040317
#
#
# Mechanical properties :
#
#
# Convention : Reuss Voigt Hill
#
# Bulk Modulus (GPa) = 39.60567 60.72504 50.16536
# Shear Modulus (GPa) = 30.04205 38.20587 34.12396
#
# Velocity S-wave (km/s) = 3.50505 3.95271 3.73559
# Velocity P-wave (km/s) = 5.70762 6.75757 6.25466
#
# Compressibility (1/GPa) = 0.02524891
#
# Stress axis : x y z
#
# Youngs Moduli (GPa) = 90.96853 62.05485 78.53602
#
# Poissons Ratio (x) = 0.22321 0.15012
# Poissons Ratio (y) = 0.32721 0.14038
# Poissons Ratio (z) = 0.17389 0.11092
#
# Static dielectric constant tensor:
#      x y z
#    x 2.056110 0.058520 0.092970 
#    y 0.058520 1.971170 0.020190 
#    z 0.092970 0.020190 2.074590 
# 
# From -- ./inp_files/314315.got.cif
#   From: 2010.05.17/outbox.cif.g08.bks.cpg/sg2_158_cif.got.tgz:314315.got - 2010.06.03 11:33:40.
