data_PCOD9097838
_publ_section_title
;
Structure prediction by ZEFSAII (Michael W. Deem and Ramdas Pophale) SiO2 
 PCOD9097838
Probable space group: P -1
;
_chemical_formula_sum "Si O2"
_cell_formula_units_Z 13
_cell_length_a 11.676000
_cell_length_b 7.649718
_cell_length_c 16.914414
_cell_angle_alpha 41.990198
_cell_angle_beta 149.646722
_cell_angle_gamma 140.599307
_cell_volume 470.615393
_symmetry_space_group_name_H-M "P -1"
_symmetry_group_IT_number 2
_symmetry_cell_setting 'triclinic'
loop_
_space_group_symop_operation_xyz
x,y,z
-x,-y,-z
loop_
_atom_site_type_symbol
_atom_site_label
_atom_site_fract_x
_atom_site_fract_y
_atom_site_fract_z
Si Si1 0.304900 0.340470 0.869462
Si Si2 0.388932 0.537773 0.688484
Si Si3 0.038812 0.103077 0.079229
Si Si4 0.701301 0.108766 0.172724
Si Si5 0.181008 0.537125 0.235312
Si Si6 0.000000 0.000000 0.500000
Si Si7 0.622843 0.399211 0.509016
O O1 0.289341 0.521883 0.723187
O O2 0.500000 0.500000 0.000000
O O3 0.447924 0.138640 0.993321
O O4 0.057748 0.148669 0.830884
O O5 0.325134 0.669692 0.526497
O O6 0.288926 0.202477 0.721005
O O7 0.681796 0.685297 0.817011
O O8 0.852179 0.265308 0.918768
O O9 0.000000 0.000000 0.000000
O O10 0.812304 0.169646 0.307406
O O11 0.909095 0.328839 0.167989
O O12 0.342100 0.366922 0.359695
O O13 0.307235 0.715247 0.330236
O O14 0.223895 0.261847 0.503837
#
# Coordination Sequence:
#
# PCOD9097838 Si02
#       7
#     2   2   2   2   2   1   2
#     4  12  24  41  61  88 127 162 199 251 313 360
#     4  11  23  40  61  96 118 161 209 255 289 363
#     4  12  24  40  63  86 124 165 201 249 312 362
#     4  10  20  36  62  90 119 155 203 249 293 357
#     4  10  20  38  62  93 123 159 197 250 312 357
#     4   8  16  34  54  84 120 154 190 244 298 346
#     4   9  20  36  61  91 121 156 201 253 299 355
#
# _framework density 27.623407
#
# number of rings (size 3 to 8) (size 9 to 14) (size 15 to 20)
#    0.000    1.538    3.077    2.308    2.154    1.231 
#    0.000    0.769    0.000    9.231    0.000    0.000 
#    0.000    0.000    0.000    0.000    0.000    0.000 
#
# Total GULP energy -72448.369093 kJ/mol
# GULP energy per Si atom -5572.951469 kJ/mol
# Density = 2.756053 g / cm^3
# Si number density = 27.623407 Si / 1000 Ang^3
#
#
#
# Elastic Constant Matrix: (Units=GPa)
#
#
# Indices 1 2 3 4 5 6 
#
# 1 162.2699 29.0616 41.5689 8.4800 -33.1550 19.1024
# 2 29.0616 51.6815 14.0234 -6.3497 -8.6075 21.7884
# 3 41.5689 14.0234 112.1674 -23.5761 -20.0134 21.1305
# 4 8.4800 -6.3497 -23.5761 23.8159 11.1738 -3.6677
# 5 -33.1550 -8.6075 -20.0134 11.1738 48.6574 -0.8307
# 6 19.1024 21.7884 21.1305 -3.6677 -0.8307 48.4527
#
#
#
# Elastic Compliance Matrix: (Units=1/GPa)
#
#
# Indices 1 2 3 4 5 6 
#
# 1 0.010473 -0.004636 -0.004556 -0.013105 0.007436 -0.000922
# 2 -0.004636 0.026993 0.002374 0.009448 0.000242 -0.010627
# 3 -0.004556 0.002374 0.014417 0.016104 -0.000527 -0.004349
# 4 -0.013105 0.009448 0.016104 0.073171 -0.017453 -0.000865
# 5 0.007436 0.000242 -0.000527 -0.017453 0.029391 -0.003628
# 6 -0.000922 -0.010627 -0.004349 -0.000865 -0.003628 0.027550
#
#
# Mechanical properties :
#
#
# Convention : Reuss Voigt Hill
#
# Bulk Modulus (GPa) = 26.14533 55.04740 40.59637
# Shear Modulus (GPa) = 23.99486 40.28286 32.13886
#
# Velocity S-wave (km/s) = 2.95047 3.82290 3.41466
# Velocity P-wave (km/s) = 4.59266 6.28149 5.50225
#
# Compressibility (1/GPa) = 0.03824775
#
# Stress axis : x y z
#
# Youngs Moduli (GPa) = 95.48772 37.04651 69.36307
#
# Poissons Ratio (x) = 0.17174 0.31600
# Poissons Ratio (y) = 0.44267 -0.16468
# Poissons Ratio (z) = 0.43501 -0.08795
#
# Static dielectric constant tensor:
#      x y z
#    x -0.024240 1.950270 0.739290 
#    y 1.950270 0.323820 -0.742680 
#    z 0.739290 -0.742680 2.044040 
# 
# From -- ./inp_files/304459.got.cif
#   From: 2010.05.17/outbox.cif.g08.bks.cpg/sg2_153_cif.got.tgz:304459.got - 2010.06.03 11:33:40.
