data_PCOD9097348
_publ_section_title
;
Structure prediction by ZEFSAII (Michael W. Deem and Ramdas Pophale) SiO2 
 PCOD9097348
Probable space group: P -1
;
_chemical_formula_sum "Si O2"
_cell_formula_units_Z 12
_cell_length_a 9.169931
_cell_length_b 5.048944
_cell_length_c 14.435029
_cell_angle_alpha 88.686562
_cell_angle_beta 114.028342
_cell_angle_gamma 126.331311
_cell_volume 469.601165
_symmetry_space_group_name_H-M "P -1"
_symmetry_group_IT_number 2
_symmetry_cell_setting 'triclinic'
loop_
_space_group_symop_operation_xyz
x,y,z
-x,-y,-z
loop_
_atom_site_type_symbol
_atom_site_label
_atom_site_fract_x
_atom_site_fract_y
_atom_site_fract_z
Si Si1 0.481019 0.842382 0.178249
Si Si2 0.102860 0.654343 0.425254
Si Si3 0.546784 0.342376 0.433926
Si Si4 0.840157 0.325903 0.752094
Si Si5 0.251713 0.358111 0.701052
Si Si6 0.099560 0.362359 0.973102
O O1 0.298622 0.642377 0.213217
O O2 0.649730 0.791223 0.224783
O O3 0.606919 0.245836 0.227494
O O4 0.344224 0.652692 0.051831
O O5 0.334172 0.804434 0.509102
O O6 0.074432 0.457142 0.322766
O O7 0.000000 0.500000 0.500000
O O8 0.985813 0.798167 0.361692
O O9 0.500000 0.500000 0.500000
O O10 0.693751 0.632245 0.393078
O O11 0.334159 0.053749 0.329945
O O12 0.014608 0.336908 0.849205
O O13 0.000000 0.500000 0.000000
O O14 0.000000 0.000000 0.000000
#
# Coordination Sequence:
#
# PCOD9097348 Si02
#       6
#     2   2   2   2   2   2
#     4  10  20  40  64  90 119 158 204 253 304 362
#     4  10  22  38  56  89 127 166 204 249 304 363
#     4  10  20  36  60  88 118 161 211 254 298 357
#     4  10  21  38  62  91 122 161 208 256 303 362
#     4  10  22  39  60  88 126 161 197 251 307 361
#     4  10  20  37  65  96 120 151 203 261 307 355
#
# _framework density 25.553601
#
# number of rings (size 3 to 8) (size 9 to 14) (size 15 to 20)
#    0.000    2.000    0.000    4.500    0.000    5.333 
#    0.000   11.667    0.000    0.000    0.000    0.000 
#    0.000    0.000    0.000    0.000    0.000    0.000 
#
# Total GULP energy -66906.296829 kJ/mol
# GULP energy per Si atom -5575.524736 kJ/mol
# Density = 2.549544 g / cm^3
# Si number density = 25.553601 Si / 1000 Ang^3
#
#
#
# Elastic Constant Matrix: (Units=GPa)
#
#
# Indices 1 2 3 4 5 6 
#
# 1 156.9281 41.2309 57.8414 8.2602 40.2434 5.3844
# 2 41.2309 100.1320 34.0982 4.7077 14.3234 -30.7429
# 3 57.8414 34.0982 176.9593 0.5244 20.7330 1.5544
# 4 8.2602 4.7077 0.5244 29.3114 -1.5809 -1.3643
# 5 40.2434 14.3234 20.7330 -1.5809 47.3787 -3.2775
# 6 5.3844 -30.7429 1.5544 -1.3643 -3.2775 44.0046
#
#
#
# Elastic Compliance Matrix: (Units=1/GPa)
#
#
# Indices 1 2 3 4 5 6 
#
# 1 0.010120 -0.003811 -0.001694 -0.002800 -0.007104 -0.004457
# 2 -0.003811 0.015776 -0.001901 -0.000885 0.000068 0.011533
# 3 -0.001694 -0.001901 0.006699 0.000543 -0.000998 -0.001415
# 4 -0.002800 -0.000885 0.000543 0.035285 0.003660 0.001071
# 5 -0.007104 0.000068 -0.000998 0.003660 0.027897 0.003143
# 6 -0.004457 0.011533 -0.001415 0.001071 0.003143 0.031644
#
#
# Mechanical properties :
#
#
# Convention : Reuss Voigt Hill
#
# Bulk Modulus (GPa) = 56.23034 77.81781 67.02408
# Shear Modulus (GPa) = 33.74729 44.19555 38.97142
#
# Velocity S-wave (km/s) = 3.63801 4.16327 3.90947
# Velocity P-wave (km/s) = 6.30075 7.32320 6.83113
#
# Compressibility (1/GPa) = 0.01778399
#
# Stress axis : x y z
#
# Youngs Moduli (GPa) = 98.81345 63.38740 149.28405
#
# Poissons Ratio (x) = 0.24155 0.25285
# Poissons Ratio (y) = 0.37655 0.28377
# Poissons Ratio (z) = 0.16737 0.12049
#
# Static dielectric constant tensor:
#      x y z
#    x 2.021940 0.139940 -0.074940 
#    y 0.139940 2.206370 -0.073310 
#    z -0.074940 -0.073310 2.172570 
# 
# From -- ./inp_files/42977.got.cif
#   From: 2010.05.17/outbox.cif.g08.bks.cpg/sg2_22_cif.got.tgz:42977.got - 2010.06.03 11:33:40.
