data_PCOD9097724
_publ_section_title
;
Structure prediction by ZEFSAII (Michael W. Deem and Ramdas Pophale) SiO2 
 PCOD9097724
Probable space group: P -1
;
_chemical_formula_sum "Si O2"
_cell_formula_units_Z 14
_cell_length_a 19.291075
_cell_length_b 7.833207
_cell_length_c 11.857015
_cell_angle_alpha 43.266193
_cell_angle_beta 138.976596
_cell_angle_gamma 104.810806
_cell_volume 610.495912
_symmetry_space_group_name_H-M "P -1"
_symmetry_group_IT_number 2
_symmetry_cell_setting 'triclinic'
loop_
_space_group_symop_operation_xyz
x,y,z
-x,-y,-z
loop_
_atom_site_type_symbol
_atom_site_label
_atom_site_fract_x
_atom_site_fract_y
_atom_site_fract_z
Si Si1 0.648781 0.773004 0.350293
Si Si2 0.820706 0.993683 0.517876
Si Si3 0.738279 0.573598 0.981403
Si Si4 0.067239 0.479527 0.931128
Si Si5 0.873545 0.377910 0.644986
Si Si6 0.834349 0.733539 0.215449
Si Si7 0.634464 0.464441 0.701154
O O1 0.717797 0.936432 0.373168
O O2 0.753474 0.480902 0.532290
O O3 0.642408 0.651723 0.520878
O O4 0.500000 0.000000 0.000000
O O5 0.986241 0.740267 0.807917
O O6 0.833250 0.886248 0.715822
O O7 0.767366 0.315006 0.232022
O O8 0.626221 0.625737 0.732453
O O9 0.857607 0.452583 0.093940
O O10 0.744481 0.809711 0.955405
O O11 0.941828 0.536255 0.687396
O O12 0.822259 0.517622 0.390119
O O13 0.000000 0.000000 0.000000
O O14 0.000000 0.500000 0.500000
O O15 0.767192 0.075648 0.031326
O O16 0.500000 0.500000 0.500000
#
# Coordination Sequence:
#
# PCOD9097724 Si02
#       7
#     2   2   2   2   2   2   2
#     4  11  23  43  68  98 135 185 235 283 348 418
#     4  10  21  37  62  98 135 182 232 276 349 413
#     4  12  24  42  71  99 145 180 232 289 349 416
#     4  10  20  36  61  98 136 184 225 280 348 407
#     4  11  22  41  65  99 146 177 227 293 341 411
#     4  12  26  42  71 111 138 183 236 285 354 414
#     4  12  27  49  73  98 143 190 233 292 352 422
#
# _framework density 22.932174
#
# number of rings (size 3 to 8) (size 9 to 14) (size 15 to 20)
#    0.000    0.857    2.857    5.571    2.000    0.571 
#    0.000    0.000    0.000    4.286    0.000    0.000 
#    0.000    0.000    0.000    0.000    0.000    0.000 
#
# Total GULP energy -78065.426948 kJ/mol
# GULP energy per Si atom -5576.101925 kJ/mol
# Density = 2.287998 g / cm^3
# Si number density = 22.932174 Si / 1000 Ang^3
#
#
#
# Elastic Constant Matrix: (Units=GPa)
#
#
# Indices 1 2 3 4 5 6 
#
# 1 87.5543 35.0155 24.5667 10.9667 -21.5419 14.9954
# 2 35.0155 64.4139 25.4225 26.5205 -12.7785 0.0483
# 3 24.5667 25.4225 94.0749 16.1979 -15.0181 -6.6329
# 4 10.9667 26.5205 16.1979 41.5382 0.2047 -8.9587
# 5 -21.5419 -12.7785 -15.0181 0.2047 47.3749 4.2366
# 6 14.9954 0.0483 -6.6329 -8.9587 4.2366 39.8300
#
#
#
# Elastic Compliance Matrix: (Units=1/GPa)
#
#
# Indices 1 2 3 4 5 6 
#
# 1 0.017955 -0.007247 -0.002115 -0.001046 0.006259 -0.008004
# 2 -0.007247 0.027231 -0.002459 -0.014837 0.003461 -0.001419
# 3 -0.002115 -0.002459 0.012769 -0.002398 0.002241 0.002148
# 4 -0.001046 -0.014837 -0.002398 0.036715 -0.006195 0.008929
# 5 0.006259 0.003461 0.002241 -0.006195 0.026176 -0.006165
# 6 -0.008004 -0.001419 0.002148 0.008929 -0.006165 0.031144
#
#
# Mechanical properties :
#
#
# Convention : Reuss Voigt Hill
#
# Bulk Modulus (GPa) = 29.14489 46.22809 37.68649
# Shear Modulus (GPa) = 26.72770 36.48450 31.60610
#
# Velocity S-wave (km/s) = 3.41766 3.99303 3.71650
# Velocity P-wave (km/s) = 5.32077 6.43905 5.90644
#
# Compressibility (1/GPa) = 0.03431133
#
# Stress axis : x y z
#
# Youngs Moduli (GPa) = 55.69337 36.72258 78.31488
#
# Poissons Ratio (x) = 0.26615 0.16567
# Poissons Ratio (y) = 0.40364 0.19259
# Poissons Ratio (z) = 0.11782 0.09031
#
# Static dielectric constant tensor:
#      x y z
#    x 1.871560 -0.103590 -0.024960 
#    y -0.103590 2.051270 0.025050 
#    z -0.024960 0.025050 1.862530 
# 
# From -- ./inp_files/407480.got.cif
#   From: 2010.05.17/outbox.cif.g08.bks.cpg/sg2_204_cif.got.tgz:407480.got - 2010.06.03 11:33:40.
