data_PCOD9097213
_publ_section_title
;
Structure prediction by ZEFSAII (Michael W. Deem and Ramdas Pophale) SiO2 
 PCOD9097213
Probable space group: P -1
;
_chemical_formula_sum "Si O2"
_cell_formula_units_Z 14
_cell_length_a 7.761376
_cell_length_b 13.207117
_cell_length_c 14.838224
_cell_angle_alpha 31.024242
_cell_angle_beta 120.723115
_cell_angle_gamma 98.520772
_cell_volume 509.962359
_symmetry_space_group_name_H-M "P -1"
_symmetry_group_IT_number 2
_symmetry_cell_setting 'triclinic'
loop_
_space_group_symop_operation_xyz
x,y,z
-x,-y,-z
loop_
_atom_site_type_symbol
_atom_site_label
_atom_site_fract_x
_atom_site_fract_y
_atom_site_fract_z
Si Si1 0.231792 0.487483 0.379481
Si Si2 0.665832 0.611173 0.127202
Si Si3 0.012394 0.135663 0.315729
Si Si4 0.941848 0.101899 0.121294
Si Si5 0.797506 0.454117 0.468215
Si Si6 0.510965 0.067224 0.639179
Si Si7 0.449593 0.320382 0.255949
O O1 0.275250 0.531322 0.458845
O O2 0.463001 0.204895 0.616798
O O3 0.963664 0.519758 0.274722
O O4 0.225613 0.678267 0.166125
O O5 0.597341 0.656535 0.181777
O O6 0.623276 0.411606 0.240869
O O7 0.497584 0.851369 0.830439
O O8 0.817857 0.445945 0.045153
O O9 0.000000 0.000000 0.500000
O O10 0.889302 0.133241 0.190260
O O11 0.327813 0.960962 0.515406
O O12 0.048466 0.828247 0.319396
O O13 0.196882 0.081887 0.203557
O O14 0.000000 0.500000 0.500000
O O15 0.361449 0.293825 0.350790
#
# Coordination Sequence:
#
# PCOD9097213 Si02
#       7
#     2   2   2   2   2   2   2
#     4  10  21  37  62  89 134 178 224 274 331 402
#     4  10  22  38  60  96 133 178 222 275 332 396
#     4  11  23  42  75 103 130 177 228 277 342 406
#     4  10  20  40  59  92 132 171 222 280 339 393
#     4  10  20  36  59  94 132 174 230 274 328 401
#     4  10  21  37  62  91 130 182 217 274 334 398
#     4  11  23  44  70 101 137 176 222 282 341 396
#
# _framework density 27.453008000000001
#
# number of rings (size 3 to 8) (size 9 to 14) (size 15 to 20)
#    0.000    1.714    4.286    0.857    2.000    1.143 
#    0.000    1.429    0.000   22.286    0.000    0.000 
#    0.000    0.000    0.000    0.000    0.000    0.000 
#
# Total GULP energy -78224.403933 kJ/mol
# GULP energy per Si atom -5587.457424 kJ/mol
# Density = 2.739052 g / cm^3
# Si number density = 27.453008 Si / 1000 Ang^3
#
#
#
# Elastic Constant Matrix: (Units=GPa)
#
#
# Indices 1 2 3 4 5 6 
#
# 1 149.3992 54.2585 34.6103 16.7603 -24.0542 -6.7735
# 2 54.2585 145.6337 65.9590 18.9304 -25.1369 -22.0627
# 3 34.6103 65.9590 149.1489 15.9391 -13.2719 4.9463
# 4 16.7603 18.9304 15.9391 46.5368 -2.4006 1.3296
# 5 -24.0542 -25.1369 -13.2719 -2.4006 56.6456 -3.1750
# 6 -6.7735 -22.0627 4.9463 1.3296 -3.1750 50.9637
#
#
#
# Elastic Compliance Matrix: (Units=1/GPa)
#
#
# Indices 1 2 3 4 5 6 
#
# 1 0.008186 -0.002071 -0.000596 -0.001792 0.002366 0.000443
# 2 -0.002071 0.011155 -0.004077 -0.002373 0.003307 0.005217
# 3 -0.000596 -0.004077 0.008834 -0.001086 -0.000189 -0.002685
# 4 -0.001792 -0.002373 -0.001086 0.023463 -0.001178 -0.001846
# 5 0.002366 0.003307 -0.000189 -0.001178 0.020203 0.003054
# 6 0.000443 0.005217 -0.002685 -0.001846 0.003054 0.022438
#
#
# Mechanical properties :
#
#
# Convention : Reuss Voigt Hill
#
# Bulk Modulus (GPa) = 68.09584 83.75972 75.92778
# Shear Modulus (GPa) = 44.37962 50.11950 47.24956
#
# Velocity S-wave (km/s) = 4.02502 4.27739 4.15312
# Velocity P-wave (km/s) = 6.81611 7.41426 7.12147
#
# Compressibility (1/GPa) = 0.01468519
#
# Stress axis : x y z
#
# Youngs Moduli (GPa) = 122.16064 89.64853 113.19275
#
# Poissons Ratio (x) = 0.18569 0.06749
# Poissons Ratio (y) = 0.25303 0.46154
# Poissons Ratio (z) = 0.07283 0.36554
#
# Static dielectric constant tensor:
#      x y z
#    x 2.221670 -0.027830 0.090850 
#    y -0.027830 2.130110 0.003440 
#    z 0.090850 0.003440 2.275400 
# 
# From -- ./inp_files/138575.got.cif
#   From: 2010.05.17/outbox.cif.g08.bks.cpg/sg2_70_cif.got.tgz:138575.got - 2010.06.03 11:33:40.
