data_PCOD9097317
_publ_section_title
;
Structure prediction by ZEFSAII (Michael W. Deem and Ramdas Pophale) SiO2 
 PCOD9097317
Probable space group: P -1
;
_chemical_formula_sum "Si O2"
_cell_formula_units_Z 12
_cell_length_a 9.165310
_cell_length_b 11.375768
_cell_length_c 14.531027
_cell_angle_alpha 151.895755
_cell_angle_beta 72.089705
_cell_angle_gamma 88.311451
_cell_volume 503.590076
_symmetry_space_group_name_H-M "P -1"
_symmetry_group_IT_number 2
_symmetry_cell_setting 'triclinic'
loop_
_space_group_symop_operation_xyz
x,y,z
-x,-y,-z
loop_
_atom_site_type_symbol
_atom_site_label
_atom_site_fract_x
_atom_site_fract_y
_atom_site_fract_z
Si Si1 0.723365 0.515884 0.832057
Si Si2 0.364269 0.664364 0.934883
Si Si3 0.212189 0.918310 0.330559
Si Si4 0.985250 0.776763 0.745386
Si Si5 0.141549 0.413332 0.825546
Si Si6 0.169475 0.067900 0.911787
O O1 0.704352 0.429437 0.880606
O O2 0.599600 0.492217 0.763415
O O3 0.675129 0.864726 0.074213
O O4 0.966892 0.190845 0.545648
O O5 0.305897 0.883078 0.189782
O O6 0.220176 0.878944 0.024317
O O7 0.312078 0.441232 0.821784
O O8 0.239987 0.076303 0.518878
O O9 0.000000 0.500000 0.500000
O O10 0.942915 0.782678 0.864948
O O11 0.180696 0.754045 0.682722
O O12 0.000000 0.500000 0.000000
O O13 0.977525 0.700483 0.983420
#
# Coordination Sequence:
#
# PCOD9097317 Si02
#       6
#     2   2   2   2   2   2
#     4  10  20  37  60  86 118 150 187 239 288 338
#     4  11  22  37  60  88 115 150 198 238 278 341
#     4  10  21  39  59  84 122 154 180 231 297 345
#     4  10  20  37  60  80 110 157 194 231 287 339
#     4  10  20  36  60  87 116 153 190 232 287 343
#     4   9  20  37  55  81 117 148 186 240 286 332
#
# _framework density 23.828904999999999
#
# number of rings (size 3 to 8) (size 9 to 14) (size 15 to 20)
#    0.000    2.000    0.000    5.500    0.000    2.667 
#    0.000    7.500    0.000    0.000    0.000    0.000 
#    0.000    0.000    0.000    0.000    0.000    0.000 
#
# Total GULP energy -66878.579599 kJ/mol
# GULP energy per Si atom -5573.214967 kJ/mol
# Density = 2.377467 g / cm^3
# Si number density = 23.828905 Si / 1000 Ang^3
#
#
#
# Elastic Constant Matrix: (Units=GPa)
#
#
# Indices 1 2 3 4 5 6 
#
# 1 183.2287 31.9022 21.7820 7.8247 18.7588 21.8349
# 2 31.9022 137.7697 18.8287 -13.7497 13.1332 0.9424
# 3 21.7820 18.8287 34.4082 -8.2974 20.2061 -0.1077
# 4 7.8247 -13.7497 -8.2974 22.4070 -6.0434 11.8800
# 5 18.7588 13.1332 20.2061 -6.0434 40.5720 16.5983
# 6 21.8349 0.9424 -0.1077 11.8800 16.5983 41.6381
#
#
#
# Elastic Compliance Matrix: (Units=1/GPa)
#
#
# Indices 1 2 3 4 5 6 
#
# 1 0.006634 -0.001263 -0.004348 -0.003356 0.000037 -0.002519
# 2 -0.001263 0.008436 -0.002896 0.005439 0.000658 -0.001350
# 3 -0.004348 -0.002896 0.049757 0.005349 -0.025599 0.011153
# 4 -0.003356 0.005439 0.005349 0.069258 0.017746 -0.025184
# 5 0.000037 0.000658 -0.025599 0.017746 0.050092 -0.025132
# 6 -0.002519 -0.001350 0.011153 -0.025184 -0.025132 0.042601
#
#
# Mechanical properties :
#
#
# Convention : Reuss Voigt Hill
#
# Bulk Modulus (GPa) = 20.91414 55.60361 38.25888
# Shear Modulus (GPa) = 19.25081 39.78299 29.51690
#
# Velocity S-wave (km/s) = 2.84540 4.09042 3.52334
# Velocity P-wave (km/s) = 4.42616 6.75972 5.71335
#
# Compressibility (1/GPa) = 0.04781454
#
# Stress axis : x y z
#
# Youngs Moduli (GPa) = 150.73575 118.53834 20.09750
#
# Poissons Ratio (x) = 0.14975 0.08738
# Poissons Ratio (y) = 0.19043 0.05819
# Poissons Ratio (z) = 0.65534 0.34324
#
# Static dielectric constant tensor:
#      x y z
#    x 2.105250 0.126300 -0.018480 
#    y 0.126300 1.917530 0.011200 
#    z -0.018480 0.011200 2.028030 
# 
# From -- ./inp_files/493792.got.cif
#   From: 2010.05.17/outbox.cif.g08.bks.cpg/sg2_247_cif.got.tgz:493792.got - 2010.06.03 11:33:40.
