data_PCOD9097311
_publ_section_title
;
Structure prediction by ZEFSAII (Michael W. Deem and Ramdas Pophale) SiO2 
 PCOD9097311
Probable space group: P -1
;
_chemical_formula_sum "Si O2"
_cell_formula_units_Z 14
_cell_length_a 12.886933
_cell_length_b 9.212749
_cell_length_c 21.708028
_cell_angle_alpha 33.023389
_cell_angle_beta 27.828716
_cell_angle_gamma 36.192738
_cell_volume 633.549867
_symmetry_space_group_name_H-M "P -1"
_symmetry_group_IT_number 2
_symmetry_cell_setting 'triclinic'
loop_
_space_group_symop_operation_xyz
x,y,z
-x,-y,-z
loop_
_atom_site_type_symbol
_atom_site_label
_atom_site_fract_x
_atom_site_fract_y
_atom_site_fract_z
Si Si1 0.691914 0.310694 0.746394
Si Si2 0.790875 0.890776 0.174122
Si Si3 0.862220 0.521983 0.792343
Si Si4 0.831853 0.133807 0.612042
Si Si5 0.474214 0.507177 0.908944
Si Si6 0.467916 0.510259 0.587006
Si Si7 0.189806 0.126919 0.526816
O O1 0.665832 0.156830 0.751708
O O2 0.517847 0.331901 0.886078
O O3 0.693617 0.623734 0.614852
O O4 0.959878 0.176967 0.671941
O O5 0.703022 0.691733 0.244200
O O6 0.899598 0.704802 0.241414
O O7 0.592245 0.167958 0.190291
O O8 0.000000 0.000000 0.000000
O O9 0.707505 0.445353 0.847787
O O10 0.877267 0.833477 0.665782
O O11 0.720704 0.530556 0.928064
O O12 0.695548 0.369537 0.555034
O O13 0.066429 0.160039 0.512056
O O14 0.500000 0.500000 0.500000
O O15 0.350488 0.822368 0.556600
#
# Coordination Sequence:
#
# PCOD9097311 Si02
#       7
#     2   2   2   2   2   2   2
#     4   9  20  42  57  79 121 153 181 242 286 348
#     4  10  20  37  58  86 120 147 187 243 287 335
#     4  10  20  36  61  85 113 151 189 243 279 338
#     4  10  21  39  58  81 117 151 187 236 292 335
#     4  10  20  36  60  87 113 148 197 229 286 343
#     4  12  23  36  62  89 112 151 200 243 283 340
#     4   9  21  40  55  83 118 148 190 238 287 343
#
# _framework density 22.097707
#
# number of rings (size 3 to 8) (size 9 to 14) (size 15 to 20)
#    0.857    1.143    2.857    0.857    0.000    2.857 
#    2.571    0.000    0.000    2.571    0.000    0.000 
#    0.000    0.000    0.000    0.000    0.000    0.000 
#
# Total GULP energy -78114.683175 kJ/mol
# GULP energy per Si atom -5579.620227 kJ/mol
# Density = 2.204741 g / cm^3
# Si number density = 22.097707 Si / 1000 Ang^3
#
#
#
# Elastic Constant Matrix: (Units=GPa)
#
#
# Indices 1 2 3 4 5 6 
#
# 1 67.3169 29.1661 10.5830 -3.0213 10.7330 -22.9118
# 2 29.1661 146.2917 16.8557 -20.6997 14.5122 -22.3140
# 3 10.5830 16.8557 56.4997 -2.5824 7.7298 -4.0097
# 4 -3.0213 -20.6997 -2.5824 37.8540 7.7248 9.0462
# 5 10.7330 14.5122 7.7298 7.7248 31.1509 -1.3743
# 6 -22.9118 -22.3140 -4.0097 9.0462 -1.3743 44.1979
#
#
#
# Elastic Compliance Matrix: (Units=1/GPa)
#
#
# Indices 1 2 3 4 5 6 
#
# 1 0.019853 -0.001986 -0.001852 -0.000822 -0.004848 0.009139
# 2 -0.001986 0.008830 -0.001304 0.004926 -0.004231 0.002170
# 3 -0.001852 -0.001304 0.018993 0.001275 -0.003796 -0.000274
# 4 -0.000822 0.004926 0.001275 0.032437 -0.010583 -0.004792
# 5 -0.004848 -0.004231 -0.003796 -0.010583 0.039239 -0.001608
# 6 0.009139 0.002170 -0.000274 -0.004792 -0.001608 0.029364
#
#
# Mechanical properties :
#
#
# Convention : Reuss Voigt Hill
#
# Bulk Modulus (GPa) = 26.74391 42.59088 34.66740
# Shear Modulus (GPa) = 29.16055 36.87413 33.01734
#
# Velocity S-wave (km/s) = 3.63660 4.08939 3.86962
# Velocity P-wave (km/s) = 5.45545 6.45083 5.97391
#
# Compressibility (1/GPa) = 0.03739169
#
# Stress axis : x y z
#
# Youngs Moduli (GPa) = 50.36940 113.25525 52.65028
#
# Poissons Ratio (x) = 0.22495 0.09750
# Poissons Ratio (y) = 0.10005 0.06866
# Poissons Ratio (z) = 0.09328 0.14770
#
# Static dielectric constant tensor:
#      x y z
#    x 1.776310 0.010570 0.027080 
#    y 0.010570 1.815510 0.017020 
#    z 0.027080 0.017020 1.919670 
# 
# From -- ./inp_files/312206.got.cif
#   From: 2010.05.17/outbox.cif.g08.bks.cpg/sg2_157_cif.got.tgz:312206.got - 2010.06.03 11:33:40.
