data_PCOD9097166
_publ_section_title
;
Structure prediction by ZEFSAII (Michael W. Deem and Ramdas Pophale) SiO2 
 PCOD9097166
Probable space group: P -1
;
_chemical_formula_sum "Si O2"
_cell_formula_units_Z 14
_cell_length_a 11.690695
_cell_length_b 16.447171
_cell_length_c 9.254504
_cell_angle_alpha 155.596969
_cell_angle_beta 79.399279
_cell_angle_gamma 99.328757
_cell_volume 722.570607
_symmetry_space_group_name_H-M "P -1"
_symmetry_group_IT_number 2
_symmetry_cell_setting 'triclinic'
loop_
_space_group_symop_operation_xyz
x,y,z
-x,-y,-z
loop_
_atom_site_type_symbol
_atom_site_label
_atom_site_fract_x
_atom_site_fract_y
_atom_site_fract_z
Si Si1 0.414404 0.867060 0.398818
Si Si2 0.754897 0.625237 0.350817
Si Si3 0.370725 0.523426 0.620333
Si Si4 0.567655 0.882641 0.664580
Si Si5 0.944291 0.956029 0.788216
Si Si6 0.831264 0.175999 0.648654
Si Si7 0.771178 0.176213 0.997732
O O1 0.475903 0.830362 0.477232
O O2 0.281815 0.941995 0.572260
O O3 0.500000 0.000000 0.500000
O O4 0.390449 0.679901 0.999449
O O5 0.700696 0.645029 0.556926
O O6 0.642944 0.692165 0.389689
O O7 0.855342 0.777134 0.537985
O O8 0.810797 0.404972 0.973889
O O9 0.500000 0.500000 0.500000
O O10 0.291900 0.612534 0.655620
O O11 0.664598 0.027448 0.808316
O O12 0.500000 0.000000 0.000000
O O13 0.048343 0.901062 0.566980
O O14 0.866885 0.133724 0.027170
O O15 0.000000 0.000000 0.000000
O O16 0.826492 0.155745 0.791396
#
# Coordination Sequence:
#
# PCOD9097166 Si02
#       7
#     2   2   2   2   2   2   2
#     4  10  20  36  59  90 114 150 202 226 293 362
#     4   9  22  38  56  84 117 150 191 236 303 328
#     4  10  20  38  61  87 123 155 182 244 295 350
#     4  11  20  34  60  89 121 150 188 248 290 348
#     4  11  23  38  60  86 111 151 202 245 282 341
#     4  10  21  39  61  77 118 156 189 240 288 350
#     4   9  20  39  57  84 112 155 197 221 297 345
#
# _framework density 19.375268999999999
#
# number of rings (size 3 to 8) (size 9 to 14) (size 15 to 20)
#    0.000    2.286    2.857    1.714    4.000    2.286 
#    2.571    2.857    0.000    0.000    0.000    0.000 
#    0.000    0.000    0.000    0.000    0.000    0.000 
#
# Total GULP energy -77935.283002 kJ/mol
# GULP energy per Si atom -5566.805929 kJ/mol
# Density = 1.933117 g / cm^3
# Si number density = 19.375269 Si / 1000 Ang^3
#
#
#
# Elastic Constant Matrix: (Units=GPa)
#
#
# Indices 1 2 3 4 5 6 
#
# 1 149.1501 60.2930 16.4237 -5.9607 -14.3632 -7.5024
# 2 60.2930 107.3539 15.6537 8.3757 -11.7850 -8.9350
# 3 16.4237 15.6537 25.0119 -12.1346 -2.1822 -4.1229
# 4 -5.9607 8.3757 -12.1346 23.0391 1.9292 -0.2690
# 5 -14.3632 -11.7850 -2.1822 1.9292 26.8030 -5.6202
# 6 -7.5024 -8.9350 -4.1229 -0.2690 -5.6202 58.7374
#
#
#
# Elastic Compliance Matrix: (Units=1/GPa)
#
#
# Indices 1 2 3 4 5 6 
#
# 1 0.009245 -0.005004 -0.000902 0.003529 0.002556 0.000617
# 2 -0.005004 0.015672 -0.012763 -0.014072 0.004436 0.001209
# 3 -0.000902 -0.012763 0.068529 0.040774 -0.002892 0.002664
# 4 0.003529 -0.014072 0.040774 0.071415 -0.005921 0.000933
# 5 0.002556 0.004436 -0.002892 -0.005921 0.041821 0.004773
# 6 0.000617 0.001209 0.002664 0.000933 0.004773 0.017936
#
#
# Mechanical properties :
#
#
# Convention : Reuss Voigt Hill
#
# Bulk Modulus (GPa) = 17.82265 51.80629 34.81447
# Shear Modulus (GPa) = 17.81523 34.32561 26.07042
#
# Velocity S-wave (km/s) = 3.03559 4.21363 3.67216
# Velocity P-wave (km/s) = 4.63735 7.10417 5.99893
#
# Compressibility (1/GPa) = 0.05610837
#
# Stress axis : x y z
#
# Youngs Moduli (GPa) = 108.16519 63.80793 14.59233
#
# Poissons Ratio (x) = 0.31931 0.01316
# Poissons Ratio (y) = 0.54129 0.18624
# Poissons Ratio (z) = 0.09754 0.81438
#
# Static dielectric constant tensor:
#      x y z
#    x 1.733600 0.035790 -0.052910 
#    y 0.035790 1.746690 0.020840 
#    z -0.052910 0.020840 1.742470 
# 
# From -- ./inp_files/179889.got.cif
#   From: 2010.05.17/outbox.cif.g08.bks.cpg/sg2_90_cif.got.tgz:179889.got - 2010.06.03 11:33:40.
