data_PCOD9097014
_publ_section_title
;
Structure prediction by ZEFSAII (Michael W. Deem and Ramdas Pophale) SiO2 
 PCOD9097014
Probable space group: P -1
;
_chemical_formula_sum "Si O2"
_cell_formula_units_Z 16
_cell_length_a 6.846889
_cell_length_b 17.749859
_cell_length_c 7.333445
_cell_angle_alpha 106.405480
_cell_angle_beta 85.182562
_cell_angle_gamma 127.241557
_cell_volume 676.199489
_symmetry_space_group_name_H-M "P -1"
_symmetry_group_IT_number 2
_symmetry_cell_setting 'triclinic'
loop_
_space_group_symop_operation_xyz
x,y,z
-x,-y,-z
loop_
_atom_site_type_symbol
_atom_site_label
_atom_site_fract_x
_atom_site_fract_y
_atom_site_fract_z
Si Si1 0.033321 0.687892 0.753718
Si Si2 0.042363 0.567056 0.372350
Si Si3 0.594248 0.882562 0.906195
Si Si4 0.532413 0.187633 0.753498
Si Si5 0.397636 0.310330 0.710468
Si Si6 0.093340 0.382276 0.905971
Si Si7 0.101720 0.189515 0.289324
Si Si8 0.458280 0.933098 0.627809
O O1 0.006133 0.642034 0.527911
O O2 0.929111 0.608475 0.870341
O O3 0.888559 0.734904 0.799155
O O4 0.324880 0.776338 0.817002
O O5 0.884046 0.538843 0.180088
O O6 0.000000 0.500000 0.500000
O O7 0.318298 0.618659 0.320922
O O8 0.798669 0.867491 0.835677
O O9 0.616731 0.961419 0.820116
O O10 0.571873 0.891790 0.129885
O O11 0.387937 0.234759 0.798962
O O12 0.505077 0.141760 0.527679
O O13 0.824010 0.276043 0.816713
O O14 0.297833 0.367248 0.835494
O O15 0.249692 0.249914 0.499890
O O16 0.817648 0.118594 0.320736
O O17 0.500000 0.000000 0.500000
#
# Coordination Sequence:
#
# PCOD9097014 Si02
#       8
#     2   2   2   2   2   2   2   2
#     4  10  20  36  59  83 108 141 185 228 267 316
#     4  11  23  37  54  82 117 145 174 223 278 322
#     4  10  20  37  59  82 107 143 187 226 263 321
#     4  10  20  36  59  83 108 141 185 228 267 316
#     4  11  18  37  62  81 104 143 189 224 265 320
#     4  10  20  37  59  82 107 143 187 226 263 321
#     4  11  18  37  62  81 104 143 189 224 265 320
#     4  11  23  37  54  82 117 145 174 223 278 322
#
# _framework density 23.661653999999999
#
# number of rings (size 3 to 8) (size 9 to 14) (size 15 to 20)
#    0.000    1.500    5.000    2.250    0.000    2.000 
#    0.000    1.250    0.000    0.000    0.000    0.000 
#    0.000    0.000    0.000    0.000    0.000    0.000 
#
# Total GULP energy -89386.476215 kJ/mol
# GULP energy per Si atom -5586.654763 kJ/mol
# Density = 2.360780 g / cm^3
# Si number density = 23.661654 Si / 1000 Ang^3
#
#
#
# Elastic Constant Matrix: (Units=GPa)
#
#
# Indices 1 2 3 4 5 6 
#
# 1 157.8801 25.7100 39.1072 -26.3554 -5.5803 -12.0134
# 2 25.7100 45.6792 22.6349 -32.6717 12.2539 -26.0554
# 3 39.1072 22.6349 127.1291 -40.5012 -2.4689 -5.4177
# 4 -26.3554 -32.6717 -40.5012 44.8276 -13.8259 13.3160
# 5 -5.5803 12.2539 -2.4689 -13.8259 35.4664 -11.1696
# 6 -12.0134 -26.0554 -5.4177 13.3160 -11.1696 24.7439
#
#
#
# Elastic Compliance Matrix: (Units=1/GPa)
#
#
# Indices 1 2 3 4 5 6 
#
# 1 0.007575 -0.001621 -0.000972 0.002925 0.003360 0.001701
# 2 -0.001621 0.118136 0.004721 0.065486 0.015086 0.096212
# 3 -0.000972 0.004721 0.012372 0.015313 0.005504 0.001452
# 4 0.002925 0.065486 0.015313 0.080618 0.023180 0.040809
# 5 0.003360 0.015086 0.005504 0.023180 0.040683 0.024612
# 6 0.001701 0.096212 0.001452 0.040809 0.024612 0.132018
#
#
# Mechanical properties :
#
#
# Convention : Reuss Voigt Hill
#
# Bulk Modulus (GPa) = 7.02552 56.17696 31.60124
# Shear Modulus (GPa) = 11.50504 37.22334 24.36419
#
# Velocity S-wave (km/s) = 2.20746 3.97060 3.21236
# Velocity P-wave (km/s) = 3.07779 6.69434 5.20994
#
# Compressibility (1/GPa) = 0.14233814
#
# Stress axis : x y z
#
# Youngs Moduli (GPa) = 132.01063 8.46484 80.82873
#
# Poissons Ratio (x) = 0.01372 0.07856
# Poissons Ratio (y) = 0.21402 -0.38159
# Poissons Ratio (z) = 0.12831 -0.03996
#
# Static dielectric constant tensor:
#      x y z
#    x 1.896320 -0.120060 0.043940 
#    y -0.120060 2.004870 -0.010930 
#    z 0.043940 -0.010930 1.860740 
# 
# From -- ./inp_files/139129.got.cif
#   From: 2010.05.17/outbox.cif.g08.bks.cpg/sg2_70_cif.got.tgz:139129.got - 2010.06.03 11:33:40.
