data_PCOD9097002
_publ_section_title
;
Structure prediction by ZEFSAII (Michael W. Deem and Ramdas Pophale) SiO2 
 PCOD9097002
Probable space group: P -1
;
_chemical_formula_sum "Si O2"
_cell_formula_units_Z 16
_cell_length_a 11.295843
_cell_length_b 5.190769
_cell_length_c 14.598546
_cell_angle_alpha 70.438742
_cell_angle_beta 78.678056
_cell_angle_gamma 76.676858
_cell_volume 778.204859
_symmetry_space_group_name_H-M "P -1"
_symmetry_group_IT_number 2
_symmetry_cell_setting 'triclinic'
loop_
_space_group_symop_operation_xyz
x,y,z
-x,-y,-z
loop_
_atom_site_type_symbol
_atom_site_label
_atom_site_fract_x
_atom_site_fract_y
_atom_site_fract_z
Si Si1 0.365119 0.566117 0.287789
Si Si2 0.788319 0.167435 0.875392
Si Si3 0.586545 0.706746 0.497954
Si Si4 0.649512 0.653274 0.964354
Si Si5 0.924471 0.939829 0.138348
Si Si6 0.262994 0.247210 0.710782
Si Si7 0.492931 0.914752 0.805076
Si Si8 0.777687 0.521807 0.132838
O O1 0.242782 0.684922 0.235882
O O2 0.349078 0.434635 0.404131
O O3 0.442386 0.816679 0.251384
O O4 0.441652 0.322173 0.244326
O O5 0.708433 0.375147 0.934781
O O6 0.738466 0.879193 0.910844
O O7 0.930958 0.126454 0.881406
O O8 0.500000 0.500000 0.500000
O O9 0.679891 0.733498 0.398361
O O10 0.500000 0.000000 0.500000
O O11 0.523638 0.793410 0.917134
O O12 0.658470 0.596228 0.078010
O O13 0.868564 0.262920 0.108328
O O14 0.871822 0.827353 0.254108
O O15 0.856085 0.771769 0.095950
O O16 0.353765 0.011038 0.783271
O O17 0.256728 0.507488 0.751293
#
# Coordination Sequence:
#
# PCOD9097002 Si02
#       8
#     2   2   2   2   2   2   2   2
#     4  10  20  37  57  91 105 146 185 242 276 325
#     4  10  21  38  61  80 119 142 201 229 273 327
#     4  12  22  36  64  87 109 145 189 231 283 336
#     4  10  21  37  59  87 106 157 190 237 269 332
#     4  10  23  38  55  83 116 159 177 239 279 324
#     4  10  24  37  57  83 122 143 186 233 283 346
#     4  10  20  36  59  81 119 140 189 232 285 326
#     4  10  23  37  55  85 118 149 193 222 293 319
#
# _framework density 20.560138999999999
#
# number of rings (size 3 to 8) (size 9 to 14) (size 15 to 20)
#    0.750    1.000    2.500    1.500    3.500    3.500 
#    0.000    1.250    0.000    0.750    0.000    0.000 
#    0.000    0.000    0.000    0.000    0.000    0.000 
#
# Total GULP energy -89368.981355 kJ/mol
# GULP energy per Si atom -5585.561335 kJ/mol
# Density = 2.051334 g / cm^3
# Si number density = 20.560139 Si / 1000 Ang^3
#
#
#
# Elastic Constant Matrix: (Units=GPa)
#
#
# Indices 1 2 3 4 5 6 
#
# 1 81.9087 29.6818 31.2151 6.2036 -5.0279 -1.8464
# 2 29.6818 132.9435 22.5380 3.7475 -2.0757 12.6927
# 3 31.2151 22.5380 139.0096 5.5278 3.7349 -5.0209
# 4 6.2036 3.7475 5.5278 19.3567 1.2582 4.6154
# 5 -5.0279 -2.0757 3.7349 1.2582 30.1803 -0.5219
# 6 -1.8464 12.6927 -5.0209 4.6154 -0.5219 25.7087
#
#
#
# Elastic Compliance Matrix: (Units=1/GPa)
#
#
# Indices 1 2 3 4 5 6 
#
# 1 0.014862 -0.002974 -0.002658 -0.004290 0.002828 0.002844
# 2 -0.002974 0.008797 -0.000964 0.000678 0.000116 -0.004864
# 3 -0.002658 -0.000964 0.008130 -0.001705 -0.001407 0.002150
# 4 -0.004290 0.000678 -0.001705 0.056242 -0.002994 -0.011133
# 5 0.002828 0.000116 -0.001407 -0.002994 0.033931 0.001097
# 6 0.002844 -0.004864 0.002150 -0.011133 0.001097 0.043944
#
#
# Mechanical properties :
#
#
# Convention : Reuss Voigt Hill
#
# Bulk Modulus (GPa) = 53.77283 57.85905 55.81594
# Shear Modulus (GPa) = 26.98376 33.07760 30.03068
#
# Velocity S-wave (km/s) = 3.62668 4.01536 3.82596
# Velocity P-wave (km/s) = 6.61421 7.04982 6.83549
#
# Compressibility (1/GPa) = 0.01859675
#
# Stress axis : x y z
#
# Youngs Moduli (GPa) = 67.28576 113.68068 122.99915
#
# Poissons Ratio (x) = 0.33809 0.32690
# Poissons Ratio (y) = 0.20011 0.11859
# Poissons Ratio (z) = 0.17883 0.10960
#
# Static dielectric constant tensor:
#      x y z
#    x 1.716910 0.037340 0.020490 
#    y 0.037340 1.770530 -0.016120 
#    z 0.020490 -0.016120 1.781910 
# 
# From -- ./inp_files/371358.got.cif
#   From: 2010.05.17/outbox.cif.g08.bks.cpg/sg2_186_cif.got.tgz:371358.got - 2010.06.03 11:33:40.
