data_PCOD9097684
_publ_section_title
;
Structure prediction by ZEFSAII (Michael W. Deem and Ramdas Pophale) SiO2 
 PCOD9097684
Probable space group: P -1
;
_chemical_formula_sum "Si O2"
_cell_formula_units_Z 16
_cell_length_a 6.926537
_cell_length_b 11.873320
_cell_length_c 9.895976
_cell_angle_alpha 99.993106
_cell_angle_beta 68.925791
_cell_angle_gamma 113.705864
_cell_volume 694.942074
_symmetry_space_group_name_H-M "P -1"
_symmetry_group_IT_number 2
_symmetry_cell_setting 'triclinic'
loop_
_space_group_symop_operation_xyz
x,y,z
-x,-y,-z
loop_
_atom_site_type_symbol
_atom_site_label
_atom_site_fract_x
_atom_site_fract_y
_atom_site_fract_z
Si Si1 0.427395 0.143165 0.181520
Si Si2 0.078800 0.732912 0.879194
Si Si3 0.533199 0.899950 0.138584
Si Si4 0.025310 0.748576 0.199979
Si Si5 0.019053 0.510773 0.270099
Si Si6 0.973294 0.155588 0.370575
Si Si7 0.286716 0.119973 0.622082
Si Si8 0.746886 0.332112 0.526491
O O1 0.663173 0.253876 0.163788
O O2 0.221166 0.155089 0.314536
O O3 0.491487 0.027128 0.180815
O O4 0.363691 0.117059 0.033749
O O5 0.062956 0.813915 0.771590
O O6 0.936835 0.591017 0.852704
O O7 0.010926 0.770050 0.047780
O O8 0.664606 0.888419 0.233127
O O9 0.285147 0.800088 0.179875
O O10 0.903558 0.823943 0.326521
O O11 0.941298 0.605031 0.226348
O O12 0.228537 0.588957 0.327747
O O13 0.829923 0.429279 0.405154
O O14 0.924807 0.264510 0.480193
O O15 0.801697 0.021589 0.432255
O O16 0.515875 0.220904 0.531616
#
# Coordination Sequence:
#
# PCOD9097684 Si02
#       8
#     2   2   2   2   2   2   2   2
#     4  10  20  37  61  96 125 159 192 244 315 367
#     4  10  22  40  65  94 125 155 197 255 304 362
#     4  10  20  36  61  93 133 151 190 254 307 371
#     4  11  22  39  66  94 121 159 200 248 312 367
#     4  10  22  47  62  81 123 167 210 254 290 347
#     4  11  22  40  63  94 125 158 201 246 308 366
#     4  12  22  39  63  94 123 161 198 251 312 356
#     4  10  24  44  63  83 124 166 209 258 284 347
#
# _framework density 23.023503000000002
#
# number of rings (size 3 to 8) (size 9 to 14) (size 15 to 20)
#    0.000    1.500    3.750    1.500    0.000    1.500 
#   11.250    1.875    0.000    0.000    0.000    0.000 
#    0.000    0.000    0.000    0.000    0.000    0.000 
#
# Total GULP energy -89463.279674 kJ/mol
# GULP energy per Si atom -5591.454980 kJ/mol
# Density = 2.297110 g / cm^3
# Si number density = 23.023503 Si / 1000 Ang^3
#
#
#
# Elastic Constant Matrix: (Units=GPa)
#
#
# Indices 1 2 3 4 5 6 
#
# 1 54.1856 13.6227 9.4652 2.4845 0.5405 10.3953
# 2 13.6227 114.3708 11.3818 -5.4015 -8.5211 6.7815
# 3 9.4652 11.3818 42.0922 0.0342 0.4359 5.6946
# 4 2.4845 -5.4015 0.0342 32.3084 -7.6004 10.7345
# 5 0.5405 -8.5211 0.4359 -7.6004 38.5661 -5.8368
# 6 10.3953 6.7815 5.6946 10.7345 -5.8368 13.4272
#
#
#
# Elastic Compliance Matrix: (Units=1/GPa)
#
#
# Indices 1 2 3 4 5 6 
#
# 1 0.022991 -0.001312 -0.001943 0.004316 -0.002923 -0.021034
# 2 -0.001312 0.009743 -0.001615 0.004081 0.002154 -0.005546
# 3 -0.001943 -0.001615 0.026338 0.003578 -0.001814 -0.012499
# 4 0.004316 0.004081 0.003578 0.046182 0.003497 -0.042320
# 5 -0.002923 0.002154 -0.001814 0.003497 0.028931 0.011725
# 6 -0.021034 -0.005546 -0.012499 -0.042320 0.011725 0.137792
#
#
# Mechanical properties :
#
#
# Convention : Reuss Voigt Hill
#
# Bulk Modulus (GPa) = 20.27071 31.06534 25.66802
# Shear Modulus (GPa) = 16.76964 28.60560 22.68762
#
# Velocity S-wave (km/s) = 2.70176 3.52867 3.14253
# Velocity P-wave (km/s) = 4.30769 5.48855 4.93357
#
# Compressibility (1/GPa) = 0.04933227
#
# Stress axis : x y z
#
# Youngs Moduli (GPa) = 43.49575 102.64297 37.96841
#
# Poissons Ratio (x) = 0.13466 0.07376
# Poissons Ratio (y) = 0.05706 0.06131
# Poissons Ratio (z) = 0.08450 0.16573
#
# Static dielectric constant tensor:
#      x y z
#    x 1.846920 0.031480 0.044430 
#    y 0.031480 1.862100 -0.024940 
#    z 0.044430 -0.024940 1.908030 
# 
# From -- ./inp_files/99927.got.cif
#   From: 2010.05.17/outbox.cif.g08.bks.cpg/sg2_50_cif.got.tgz:99927.got - 2010.06.03 11:33:40.
