data_PCOD9097171
_publ_section_title
;
Structure prediction by ZEFSAII (Michael W. Deem and Ramdas Pophale) SiO2 
 PCOD9097171
Probable space group: P -1
;
_chemical_formula_sum "Si O2"
_cell_formula_units_Z 14
_cell_length_a 11.769456
_cell_length_b 10.817477
_cell_length_c 10.364598
_cell_angle_alpha 72.879956
_cell_angle_beta 80.796435
_cell_angle_gamma 143.245825
_cell_volume 544.679023
_symmetry_space_group_name_H-M "P -1"
_symmetry_group_IT_number 2
_symmetry_cell_setting 'triclinic'
loop_
_space_group_symop_operation_xyz
x,y,z
-x,-y,-z
loop_
_atom_site_type_symbol
_atom_site_label
_atom_site_fract_x
_atom_site_fract_y
_atom_site_fract_z
Si Si1 0.163765 0.140426 0.123360
Si Si2 0.572416 0.487472 0.730539
Si Si3 0.856438 0.015997 0.547474
Si Si4 0.906649 0.145045 0.125266
Si Si5 0.748679 0.153899 0.674520
Si Si6 0.060505 0.327860 0.770908
Si Si7 0.548277 0.958431 0.380868
O O1 0.132718 0.045456 0.297096
O O2 0.955968 0.844247 0.169733
O O3 0.427738 0.372381 0.927237
O O4 0.096661 0.222054 0.108848
O O5 0.676620 0.734152 0.585886
O O6 0.360858 0.195529 0.774252
O O7 0.838897 0.674045 0.642742
O O8 0.741046 0.037766 0.598729
O O9 0.814674 0.149545 0.251391
O O10 0.041856 0.351339 0.915017
O O11 0.811762 0.141334 0.798528
O O12 0.508261 0.008719 0.743930
O O13 0.000000 0.500000 0.500000
O O14 0.310902 0.618083 0.552330
O O15 0.500000 0.000000 0.500000
#
# Coordination Sequence:
#
# PCOD9097171 Si02
#       7
#     2   2   2   2   2   2   2
#     4  10  21  37  60  93 125 152 192 245 306 370
#     4  10  20  36  59  90 120 152 198 246 304 361
#     4  10  21  36  60  89 121 157 196 251 302 345
#     4  11  23  39  62  90 123 162 198 243 309 366
#     4   9  19  39  60  82 118 162 204 240 284 352
#     4   9  20  40  62  86 119 157 199 248 301 355
#     4  11  25  41  59  86 120 161 209 249 289 354
#
# _framework density 25.703212000000001
#
# number of rings (size 3 to 8) (size 9 to 14) (size 15 to 20)
#    0.000    2.000    0.000    4.714    0.000    9.143 
#    0.000    4.286    0.000    0.000    0.000    0.000 
#    0.000    0.000    0.000    0.000    0.000    0.000 
#
# Total GULP energy -78276.977852 kJ/mol
# GULP energy per Si atom -5591.212704 kJ/mol
# Density = 2.564471 g / cm^3
# Si number density = 25.703212 Si / 1000 Ang^3
#
#
#
# Elastic Constant Matrix: (Units=GPa)
#
#
# Indices 1 2 3 4 5 6 
#
# 1 157.2129 0.0117 59.3105 12.6850 -9.8325 8.7764
# 2 0.0117 43.5202 14.3998 5.7764 0.2793 -0.4267
# 3 59.3105 14.3998 118.1492 20.0921 -26.5411 12.3846
# 4 12.6850 5.7764 20.0921 43.5487 -0.3016 1.2021
# 5 -9.8325 0.2793 -26.5411 -0.3016 35.2776 1.7579
# 6 8.7764 -0.4267 12.3846 1.2021 1.7579 36.7635
#
#
#
# Elastic Compliance Matrix: (Units=1/GPa)
#
#
# Indices 1 2 3 4 5 6 
#
# 1 0.007977 0.001487 -0.004276 -0.000545 -0.000991 -0.000381
# 2 0.001487 0.024679 -0.004322 -0.001779 -0.003127 0.001595
# 3 -0.004276 -0.004322 0.014649 -0.004752 0.010037 -0.004289
# 4 -0.000545 -0.001779 -0.004752 0.025496 -0.003547 0.001046
# 5 -0.000991 -0.003127 0.010037 -0.003547 0.035854 -0.004779
# 6 -0.000381 0.001595 -0.004289 0.001046 -0.004779 0.028950
#
#
# Mechanical properties :
#
#
# Convention : Reuss Voigt Hill
#
# Bulk Modulus (GPa) = 30.22453 51.81402 41.01928
# Shear Modulus (GPa) = 30.70222 39.46197 35.08209
#
# Velocity S-wave (km/s) = 3.45989 3.92253 3.69845
# Velocity P-wave (km/s) = 5.26742 6.38102 5.85077
#
# Compressibility (1/GPa) = 0.03308570
#
# Stress axis : x y z
#
# Youngs Moduli (GPa) = 125.36005 40.51999 68.26183
#
# Poissons Ratio (x) = -0.06027 0.29187
# Poissons Ratio (y) = -0.18647 0.29501
# Poissons Ratio (z) = 0.53601 0.17512
#
# Static dielectric constant tensor:
#      x y z
#    x 2.023280 -0.024220 0.007050 
#    y -0.024220 2.242290 -0.028600 
#    z 0.007050 -0.028600 2.007880 
# 
# From -- ./inp_files/425628.got.cif
#   From: 2010.05.17/outbox.cif.g08.bks.cpg/sg2_213_cif.got.tgz:425628.got - 2010.06.03 11:33:40.
