data_PCOD9097633
_publ_section_title
;
Structure prediction by ZEFSAII (Michael W. Deem and Ramdas Pophale) SiO2 
 PCOD9097633
Probable space group: P -1
;
_chemical_formula_sum "Si O2"
_cell_formula_units_Z 16
_cell_length_a 14.948970
_cell_length_b 6.899684
_cell_length_c 12.460389
_cell_angle_alpha 114.694145
_cell_angle_beta 134.828478
_cell_angle_gamma 99.927346
_cell_volume 570.701357
_symmetry_space_group_name_H-M "P -1"
_symmetry_group_IT_number 2
_symmetry_cell_setting 'triclinic'
loop_
_space_group_symop_operation_xyz
x,y,z
-x,-y,-z
loop_
_atom_site_type_symbol
_atom_site_label
_atom_site_fract_x
_atom_site_fract_y
_atom_site_fract_z
Si Si1 0.070011 0.926687 0.665626
Si Si2 0.650564 0.374419 0.632852
Si Si3 0.486826 0.454161 0.131053
Si Si4 0.880158 0.487352 0.672236
Si Si5 0.158452 0.615876 0.813425
Si Si6 0.546001 0.921785 0.152140
Si Si7 0.996108 0.907763 0.158564
Si Si8 0.339546 0.208310 0.420543
O O1 0.118479 0.780063 0.747473
O O2 0.950014 0.702254 0.413856
O O3 0.966385 0.970183 0.661373
O O4 0.273848 0.253236 0.889025
O O5 0.740556 0.315728 0.614610
O O6 0.444203 0.131954 0.445115
O O7 0.662484 0.609267 0.627771
O O8 0.790461 0.582318 0.895714
O O9 0.587676 0.758092 0.218082
O O10 0.550052 0.556628 0.330315
O O11 0.506196 0.243313 0.045763
O O12 0.968503 0.829418 0.817343
O O13 0.050202 0.535551 0.813299
O O14 0.738725 0.279175 0.405288
O O15 0.374431 0.833236 0.040706
O O16 0.137301 0.921666 0.226860
#
# Coordination Sequence:
#
# PCOD9097633 Si02
#       8
#     2   2   2   2   2   2   2   2
#     4  10  20  38  62  93 118 149 206 251 296 354
#     4  10  21  36  62  94 120 151 199 254 304 342
#     4  11  23  42  60  88 124 159 204 238 292 372
#     4  10  21  37  57  89 119 152 201 241 290 360
#     4  10  22  38  61  90 121 155 193 257 302 341
#     4  11  25  41  60  85 126 168 191 238 303 363
#     4  10  20  36  62  92 121 149 196 257 301 345
#     4  10  20  36  61  91 118 156 194 250 296 348
#
# _framework density 28.035678999999998
#
# number of rings (size 3 to 8) (size 9 to 14) (size 15 to 20)
#    0.000    1.750    2.500    2.250    3.500    4.000 
#    2.250    0.625    0.000    3.750    0.000    0.000 
#    0.000    0.000    0.000    0.000    0.000    0.000 
#
# Total GULP energy -89698.632770 kJ/mol
# GULP energy per Si atom -5606.164548 kJ/mol
# Density = 2.797187 g / cm^3
# Si number density = 28.035679 Si / 1000 Ang^3
#
#
#
# Elastic Constant Matrix: (Units=GPa)
#
#
# Indices 1 2 3 4 5 6 
#
# 1 222.5949 6.8141 29.5138 -9.4618 31.3416 -14.1974
# 2 6.8141 88.6217 18.7470 -6.2344 -4.2412 -17.9679
# 3 29.5138 18.7470 126.7048 -1.4543 13.6464 -2.7004
# 4 -9.4618 -6.2344 -1.4543 34.4503 -2.9479 5.0582
# 5 31.3416 -4.2412 13.6464 -2.9479 50.7963 -3.8560
# 6 -14.1974 -17.9679 -2.7004 5.0582 -3.8560 26.6865
#
#
#
# Elastic Compliance Matrix: (Units=1/GPa)
#
#
# Indices 1 2 3 4 5 6 
#
# 1 0.005164 0.000168 -0.000878 0.000854 -0.002719 0.002217
# 2 0.000168 0.013807 -0.002128 0.001299 0.002400 0.009271
# 3 -0.000878 -0.002128 0.008603 -0.000251 -0.002059 -0.001279
# 4 0.000854 0.001299 -0.000251 0.030205 0.001078 -0.004266
# 5 -0.002719 0.002400 -0.002059 0.001078 0.022407 0.002995
# 6 0.002217 0.009271 -0.001279 -0.004266 0.002995 0.046006
#
#
# Mechanical properties :
#
#
# Convention : Reuss Voigt Hill
#
# Bulk Modulus (GPa) = 45.66440 60.89681 53.28060
# Shear Modulus (GPa) = 35.92789 47.90971 41.91880
#
# Velocity S-wave (km/s) = 3.58370 4.13835 3.87097
# Velocity P-wave (km/s) = 5.78335 6.67854 6.24700
#
# Compressibility (1/GPa) = 0.02189890
#
# Stress axis : x y z
#
# Youngs Moduli (GPa) = 193.64077 72.42677 116.23418
#
# Poissons Ratio (x) = -0.01218 0.10205
# Poissons Ratio (y) = -0.03255 0.24735
# Poissons Ratio (z) = 0.17000 0.15412
#
# Static dielectric constant tensor:
#      x y z
#    x 2.210040 0.039110 -0.022560 
#    y 0.039110 2.257100 -0.007590 
#    z -0.022560 -0.007590 2.063280 
# 
# From -- ./inp_files/522604.got.cif
#   From: 2010.05.17/outbox.cif.g08.bks.cpg/sg2_262_cif.got.tgz:522604.got - 2010.06.03 11:33:40.
