data_PCOD9097292
_publ_section_title
;
Structure prediction by ZEFSAII (Michael W. Deem and Ramdas Pophale) SiO2 
 PCOD9097292
Probable space group: P -1
;
_chemical_formula_sum "Si O2"
_cell_formula_units_Z 14
_cell_length_a 16.810771
_cell_length_b 8.790353
_cell_length_c 20.090643
_cell_angle_alpha 133.743207
_cell_angle_beta 159.907996
_cell_angle_gamma 55.954767
_cell_volume 687.230232
_symmetry_space_group_name_H-M "P -1"
_symmetry_group_IT_number 2
_symmetry_cell_setting 'triclinic'
loop_
_space_group_symop_operation_xyz
x,y,z
-x,-y,-z
loop_
_atom_site_type_symbol
_atom_site_label
_atom_site_fract_x
_atom_site_fract_y
_atom_site_fract_z
Si Si1 0.219125 0.481733 0.761138
Si Si2 0.080645 0.311541 0.865755
Si Si3 0.176909 0.086640 0.228946
Si Si4 0.983197 0.199718 0.368934
Si Si5 0.535607 0.693524 0.297241
Si Si6 0.066131 0.580571 0.812163
Si Si7 0.282862 0.822678 0.343655
O O1 0.063458 0.269705 0.528792
O O2 0.083210 0.480643 0.723879
O O3 0.218934 0.700642 0.785376
O O4 0.500000 0.500000 0.000000
O O5 0.969226 0.395714 0.739041
O O6 0.926792 0.319162 0.812921
O O7 0.363317 0.485560 0.142677
O O8 0.076388 0.061280 0.772813
O O9 0.178175 0.867669 0.204532
O O10 0.464715 0.226796 0.479307
O O11 0.072377 0.243154 0.238550
O O12 0.000000 0.000000 0.000000
O O13 0.228884 0.334755 0.559710
O O14 0.619355 0.925456 0.472174
O O15 0.351317 0.709356 0.098505
#
# Coordination Sequence:
#
# PCOD9097292 Si02
#       7
#     2   2   2   2   2   2   2
#     4  11  21  39  62  90 117 158 201 244 291 354
#     4   9  20  39  62  91 118 156 198 240 294 356
#     4  11  21  39  62  90 117 158 201 244 291 354
#     4  10  21  39  65  83 122 164 191 238 307 344
#     4   9  18  39  60  88 123 150 197 242 285 351
#     4  10  20  36  60  85 123 150 195 254 283 341
#     4  10  21  39  65  83 122 164 191 238 307 344
#
# _framework density 20.371628999999999
#
# number of rings (size 3 to 8) (size 9 to 14) (size 15 to 20)
#    0.857    1.143    2.857    1.714    0.000    1.143 
#    0.000   18.571    0.000    0.000    0.000    0.000 
#    0.000    0.000    0.000    0.000    0.000    0.000 
#
# Total GULP energy -78085.839689 kJ/mol
# GULP energy per Si atom -5577.559978 kJ/mol
# Density = 2.032526 g / cm^3
# Si number density = 20.371629 Si / 1000 Ang^3
#
#
#
# Elastic Constant Matrix: (Units=GPa)
#
#
# Indices 1 2 3 4 5 6 
#
# 1 123.5209 12.7534 37.1766 -8.1018 8.2741 -3.8693
# 2 12.7534 68.0414 34.1279 -18.8873 14.8345 -11.0137
# 3 37.1766 34.1279 78.3326 -13.6383 9.1483 1.5104
# 4 -8.1018 -18.8873 -13.6383 40.5069 6.1689 4.1537
# 5 8.2741 14.8345 9.1483 6.1689 27.8021 -4.4850
# 6 -3.8693 -11.0137 1.5104 4.1537 -4.4850 33.9507
#
#
#
# Elastic Compliance Matrix: (Units=1/GPa)
#
#
# Indices 1 2 3 4 5 6 
#
# 1 0.009665 0.001707 -0.004873 0.001284 -0.002240 0.001419
# 2 0.001707 0.025337 -0.008654 0.010558 -0.012579 0.005846
# 3 -0.004873 -0.008654 0.019531 0.002300 -0.001632 -0.004729
# 4 0.001284 0.010558 0.002300 0.033109 -0.014522 -0.002500
# 5 -0.002240 -0.012579 -0.001632 -0.014522 0.047722 0.003818
# 6 0.001419 0.005846 -0.004729 -0.002500 0.003818 0.032533
#
#
# Mechanical properties :
#
#
# Convention : Reuss Voigt Hill
#
# Bulk Modulus (GPa) = 32.36991 48.66786 40.51889
# Shear Modulus (GPa) = 24.77254 32.84107 28.80681
#
# Velocity S-wave (km/s) = 3.49095 4.01945 3.76449
# Velocity P-wave (km/s) = 5.67214 6.74412 6.23123
#
# Compressibility (1/GPa) = 0.03089289
#
# Stress axis : x y z
#
# Youngs Moduli (GPa) = 103.46763 39.46742 51.19952
#
# Poissons Ratio (x) = -0.06737 0.24949
# Poissons Ratio (y) = -0.17662 0.44310
# Poissons Ratio (z) = 0.50419 0.34157
#
# Static dielectric constant tensor:
#      x y z
#    x 1.771650 0.017250 -0.014810 
#    y 0.017250 1.723150 -0.018820 
#    z -0.014810 -0.018820 1.746230 
# 
# From -- ./inp_files/599291.got.cif
#   From: 2010.05.17/outbox.cif.g08.bks.cpg/sg2_300_cif.got.tgz:599291.got - 2010.06.03 11:33:40.
