data_PCOD9097959
_publ_section_title
;
Structure prediction by ZEFSAII (Michael W. Deem and Ramdas Pophale) SiO2 
 PCOD9097959
Probable space group: P -1
;
_chemical_formula_sum "Si O2"
_cell_formula_units_Z 16
_cell_length_a 13.588928
_cell_length_b 15.467732
_cell_length_c 11.122704
_cell_angle_alpha 38.451631
_cell_angle_beta 33.621119
_cell_angle_gamma 36.755240
_cell_volume 725.624335
_symmetry_space_group_name_H-M "P -1"
_symmetry_group_IT_number 2
_symmetry_cell_setting 'triclinic'
loop_
_space_group_symop_operation_xyz
x,y,z
-x,-y,-z
loop_
_atom_site_type_symbol
_atom_site_label
_atom_site_fract_x
_atom_site_fract_y
_atom_site_fract_z
Si Si1 0.525408 0.882518 0.707971
Si Si2 0.906521 0.516843 0.942649
Si Si3 0.224206 0.745690 0.599196
Si Si4 0.415367 0.246519 0.843349
Si Si5 0.003716 0.032485 0.628920
Si Si6 0.123343 0.851152 0.118586
Si Si7 0.341004 0.059211 0.934708
Si Si8 0.032246 0.386222 0.479198
O O1 0.482659 0.991743 0.750519
O O2 0.738727 0.739901 0.629164
O O3 0.500000 0.000000 0.500000
O O4 0.344589 0.832341 0.937046
O O5 0.011610 0.533308 0.696522
O O6 0.840966 0.379205 0.147405
O O7 0.716779 0.676907 0.990310
O O8 0.000000 0.500000 0.000000
O O9 0.452265 0.665772 0.417597
O O10 0.080888 0.840898 0.529622
O O11 0.205097 0.887192 0.550990
O O12 0.315964 0.212515 0.863514
O O13 0.571387 0.079948 0.908677
O O14 0.990345 0.117540 0.672403
O O15 0.865037 0.943363 0.884719
O O16 0.103181 0.701384 0.257439
O O17 0.000000 0.000000 0.000000
O O18 0.000000 0.500000 0.500000
#
# Coordination Sequence:
#
# PCOD9097959 Si02
#       8
#     2   2   2   2   2   2   2   2
#     4  11  23  45  74 101 138 186 242 296 350 425
#     4  12  25  43  65  94 142 186 226 282 365 416
#     4  10  21  36  63  97 132 171 220 281 342 421
#     4  10  20  36  62  95 130 167 218 277 345 408
#     4   9  20  38  62  96 131 166 226 281 336 408
#     4  11  24  43  74 101 133 187 244 289 352 423
#     4   9  19  36  62  95 128 166 215 284 339 404
#     4  12  29  49  71 105 151 188 239 302 358 425
#
# _framework density 22.049976999999998
#
# number of rings (size 3 to 8) (size 9 to 14) (size 15 to 20)
#    0.000    1.500    2.500    1.875    3.500    3.500 
#    2.250    0.000    0.000    0.000    0.000    0.000 
#    0.000    0.000    0.000    0.000    0.000    0.000 
#
# Total GULP energy -89233.906657 kJ/mol
# GULP energy per Si atom -5577.119166 kJ/mol
# Density = 2.199979 g / cm^3
# Si number density = 22.049977 Si / 1000 Ang^3
#
#
#
# Elastic Constant Matrix: (Units=GPa)
#
#
# Indices 1 2 3 4 5 6 
#
# 1 60.4297 29.3315 27.0957 -7.9186 3.2285 17.3181
# 2 29.3315 94.7139 30.6493 -1.0027 3.7894 31.8832
# 3 27.0957 30.6493 102.2865 -10.4435 8.3566 13.9062
# 4 -7.9186 -1.0027 -10.4435 41.3031 2.6718 -2.2827
# 5 3.2285 3.7894 8.3566 2.6718 28.9997 -1.0608
# 6 17.3181 31.8832 13.9062 -2.2827 -1.0608 37.2157
#
#
#
# Elastic Compliance Matrix: (Units=1/GPa)
#
#
# Indices 1 2 3 4 5 6 
#
# 1 0.022006 -0.003693 -0.003535 0.003018 -0.001432 -0.005611
# 2 -0.003693 0.016414 -0.002409 -0.001472 -0.001327 -0.011572
# 3 -0.003535 -0.002409 0.012030 0.002461 -0.003011 -0.000722
# 4 0.003018 -0.001472 0.002461 0.025606 -0.003196 0.000417
# 5 -0.001432 -0.001327 -0.003011 -0.003196 0.036116 0.003762
# 6 -0.005611 -0.011572 -0.000722 0.000417 0.003762 0.039798
#
#
# Mechanical properties :
#
#
# Convention : Reuss Voigt Hill
#
# Bulk Modulus (GPa) = 32.07486 47.95367 40.01426
# Shear Modulus (GPa) = 27.52781 32.86060 30.19420
#
# Velocity S-wave (km/s) = 3.53714 3.86460 3.70449
# Velocity P-wave (km/s) = 5.59105 6.45821 6.04021
#
# Compressibility (1/GPa) = 0.03117707
#
# Stress axis : x y z
#
# Youngs Moduli (GPa) = 45.44291 60.92326 83.12590
#
# Poissons Ratio (x) = 0.22498 0.29383
# Poissons Ratio (y) = 0.16781 0.20023
# Poissons Ratio (z) = 0.16063 0.14675
#
# Static dielectric constant tensor:
#      x y z
#    x 1.939920 -0.023390 -0.051090 
#    y -0.023390 1.891440 0.045140 
#    z -0.051090 0.045140 1.855890 
# 
# From -- ./inp_files/454464.got.cif
#   From: 2010.05.17/outbox.cif.g08.bks.cpg/sg2_228_cif.got.tgz:454464.got - 2010.06.03 11:33:40.
