data_PCOD9097088
_publ_section_title
;
Structure prediction by ZEFSAII (Michael W. Deem and Ramdas Pophale) SiO2 
 PCOD9097088
Probable space group: P -1
;
_chemical_formula_sum "Si O2"
_cell_formula_units_Z 16
_cell_length_a 12.124689
_cell_length_b 19.933652
_cell_length_c 9.997461
_cell_angle_alpha 149.371175
_cell_angle_beta 147.097828
_cell_angle_gamma 27.559137
_cell_volume 538.517446
_symmetry_space_group_name_H-M "P -1"
_symmetry_group_IT_number 2
_symmetry_cell_setting 'triclinic'
loop_
_space_group_symop_operation_xyz
x,y,z
-x,-y,-z
loop_
_atom_site_type_symbol
_atom_site_label
_atom_site_fract_x
_atom_site_fract_y
_atom_site_fract_z
Si Si1 0.520473 0.646791 0.365475
Si Si2 0.748118 0.012292 0.877950
Si Si3 0.000773 0.632189 0.539324
Si Si4 0.994428 0.917470 0.217714
Si Si5 0.812948 0.449725 0.698189
Si Si6 0.756321 0.815406 0.993783
Si Si7 0.296547 0.489863 0.032286
Si Si8 0.771648 0.916802 0.460939
O O1 0.809409 0.489814 0.360323
O O2 0.287318 0.765157 0.229451
O O3 0.415403 0.557825 0.181384
O O4 0.560289 0.772344 0.696776
O O5 0.769526 0.028754 0.768565
O O6 0.902545 0.817798 0.736770
O O7 0.453422 0.096624 0.744596
O O8 0.862062 0.045005 0.178813
O O9 0.189181 0.539787 0.445511
O O10 0.747398 0.641157 0.289102
O O11 0.827952 0.857999 0.000613
O O12 0.000000 0.000000 0.500000
O O13 0.611991 0.543650 0.776667
O O14 0.965805 0.257849 0.549447
O O15 0.000000 0.500000 0.000000
O O16 0.711814 0.938395 0.278460
O O17 0.006698 0.647420 0.009294
#
# Coordination Sequence:
#
# PCOD9097088 Si02
#       8
#     2   2   2   2   2   2   2   2
#     4  10  20  36  59  86 120 155 193 244 291 343
#     4  10  21  37  59  87 119 158 198 239 294 352
#     4   9  18  34  54  82 120 158 195 238 291 348
#     4  11  24  40  61  90 117 151 201 242 290 361
#     4   8  14  28  54  85 115 148 193 239 285 343
#     4   9  19  39  64  86 114 154 196 243 293 344
#     4   8  16  32  55  86 116 152 198 240 287 348
#     4   9  18  36  61  86 118 156 191 241 299 340
#
# _framework density 29.711203000000001
#
# number of rings (size 3 to 8) (size 9 to 14) (size 15 to 20)
#    0.000    2.750    0.000    1.500    0.000    3.000 
#    0.000    8.750    0.000    7.500    0.000    0.000 
#    0.000    0.000    0.000    0.000    0.000    0.000 
#
# Total GULP energy -89307.963345 kJ/mol
# GULP energy per Si atom -5581.747709 kJ/mol
# Density = 2.964358 g / cm^3
# Si number density = 29.711203 Si / 1000 Ang^3
#
#
#
# Elastic Constant Matrix: (Units=GPa)
#
#
# Indices 1 2 3 4 5 6 
#
# 1 194.4885 16.0426 44.4460 -3.9120 1.7050 24.2752
# 2 16.0426 131.3975 41.0551 -25.8501 11.0162 1.9072
# 3 44.4460 41.0551 157.1053 -23.5883 -1.2218 14.0990
# 4 -3.9120 -25.8501 -23.5883 54.3837 9.9094 1.5014
# 5 1.7050 11.0162 -1.2218 9.9094 50.3671 0.1424
# 6 24.2752 1.9072 14.0990 1.5014 0.1424 41.4464
#
#
#
# Elastic Compliance Matrix: (Units=1/GPa)
#
#
# Indices 1 2 3 4 5 6 
#
# 1 0.005836 -0.000277 -0.001344 -0.000191 -0.000124 -0.002941
# 2 -0.000277 0.009243 -0.001757 0.004129 -0.002868 0.000195
# 3 -0.001344 -0.001757 0.007740 0.002451 0.000141 -0.001854
# 4 -0.000191 0.004129 0.002451 0.022401 -0.005240 -0.001705
# 5 -0.000124 -0.002868 0.000141 -0.005240 0.021519 0.000272
# 6 -0.002941 0.000195 -0.001854 -0.001705 0.000272 0.026532
#
#
# Mechanical properties :
#
#
# Convention : Reuss Voigt Hill
#
# Bulk Modulus (GPa) = 62.25719 76.23097 69.24408
# Shear Modulus (GPa) = 47.44584 54.66929 51.05757
#
# Velocity S-wave (km/s) = 4.00046 4.29420 4.14993
# Velocity P-wave (km/s) = 6.50675 7.09224 6.80580
#
# Compressibility (1/GPa) = 0.01606240
#
# Stress axis : x y z
#
# Youngs Moduli (GPa) = 171.34811 108.18862 129.19738
#
# Poissons Ratio (x) = 0.02997 0.17370
# Poissons Ratio (y) = 0.04747 0.22699
# Poissons Ratio (z) = 0.23037 0.19008
#
# Static dielectric constant tensor:
#      x y z
#    x 2.413630 -0.018930 -0.094920 
#    y -0.018930 2.241230 0.002600 
#    z -0.094920 0.002600 2.613020 
# 
# From -- ./inp_files/457992.got.cif
#   From: 2010.05.17/outbox.cif.g08.bks.cpg/sg2_229_cif.got.tgz:457992.got - 2010.06.03 11:33:40.
