data_PCOD9097932
_publ_section_title
;
Structure prediction by ZEFSAII (Michael W. Deem and Ramdas Pophale) SiO2 
 PCOD9097932
Probable space group: P -1
;
_chemical_formula_sum "Si O2"
_cell_formula_units_Z 16
_cell_length_a 12.191064
_cell_length_b 11.626639
_cell_length_c 10.742840
_cell_angle_alpha 54.336773
_cell_angle_beta 79.846205
_cell_angle_gamma 40.538274
_cell_volume 693.913696
_symmetry_space_group_name_H-M "P -1"
_symmetry_group_IT_number 2
_symmetry_cell_setting 'triclinic'
loop_
_space_group_symop_operation_xyz
x,y,z
-x,-y,-z
loop_
_atom_site_type_symbol
_atom_site_label
_atom_site_fract_x
_atom_site_fract_y
_atom_site_fract_z
Si Si1 0.695312 0.076339 0.550476
Si Si2 0.235600 0.840979 0.256468
Si Si3 0.381329 0.330144 0.047288
Si Si4 0.845625 0.354061 0.877861
Si Si5 0.052237 0.518722 0.848592
Si Si6 0.264261 0.478613 0.464384
Si Si7 0.485252 0.531279 0.179749
Si Si8 0.674700 0.835796 0.168738
O O1 0.750791 0.088377 0.663546
O O2 0.483638 0.229880 0.522172
O O3 0.656627 0.241206 0.356454
O O4 0.862986 0.793247 0.660264
O O5 0.240592 0.667060 0.390911
O O6 0.419570 0.675368 0.231747
O O7 0.041233 0.093318 0.066136
O O8 0.276973 0.421300 0.143314
O O9 0.575863 0.037325 0.164963
O O10 0.218543 0.458545 0.895189
O O11 0.446173 0.423947 0.957905
O O12 0.871748 0.393329 0.710984
O O13 0.705502 0.362486 0.880433
O O14 0.146564 0.309839 0.865029
O O15 0.000000 0.500000 0.000000
O O16 0.250325 0.383350 0.638707
O O17 0.500000 0.000000 0.000000
#
# Coordination Sequence:
#
# PCOD9097932 Si02
#       8
#     2   2   2   2   2   2   2   2
#     4  10  20  36  62  94 122 164 207 256 311 360
#     4  10  20  36  66  92 128 163 205 252 314 361
#     4  11  23  39  64  89 126 172 205 251 312 374
#     4  10  21  42  63  95 128 167 200 252 313 372
#     4  11  24  40  61  90 126 160 211 261 312 361
#     4  10  21  40  63  92 129 161 205 256 306 372
#     4  10  22  36  63  95 130 160 205 258 308 365
#     4  10  24  39  61  90 123 163 207 259 310 358
#
# _framework density 23.057623
#
# number of rings (size 3 to 8) (size 9 to 14) (size 15 to 20)
#    0.000    2.000    1.250    4.875    8.750    2.000 
#    0.000    2.500    0.000    6.750    0.000    0.000 
#    0.000    0.000    0.000    0.000    0.000    0.000 
#
# Total GULP energy -89430.434868 kJ/mol
# GULP energy per Si atom -5589.402179 kJ/mol
# Density = 2.300514 g / cm^3
# Si number density = 23.057623 Si / 1000 Ang^3
#
#
#
# Elastic Constant Matrix: (Units=GPa)
#
#
# Indices 1 2 3 4 5 6 
#
# 1 38.6551 -5.3174 16.4928 -0.1863 5.2107 -2.9425
# 2 -5.3174 109.6253 28.9033 -19.2891 -21.8804 10.9183
# 3 16.4928 28.9033 121.1903 -7.3132 -5.8692 -11.9227
# 4 -0.1863 -19.2891 -7.3132 46.9304 -3.9714 -3.1959
# 5 5.2107 -21.8804 -5.8692 -3.9714 29.9741 4.5874
# 6 -2.9425 10.9183 -11.9227 -3.1959 4.5874 19.6081
#
#
#
# Elastic Compliance Matrix: (Units=1/GPa)
#
#
# Indices 1 2 3 4 5 6 
#
# 1 0.028736 0.001139 -0.004240 -0.000379 -0.005397 0.002301
# 2 0.001139 0.015059 -0.004031 0.005777 0.012714 -0.012699
# 3 -0.004240 -0.004031 0.010579 0.000433 -0.001367 0.008432
# 4 -0.000379 0.005777 0.000433 0.024344 0.007723 -0.000849
# 5 -0.005397 0.012714 -0.001367 0.007723 0.047168 -0.018497
# 6 0.002301 -0.012699 0.008432 -0.000849 -0.018497 0.067732
#
#
# Mechanical properties :
#
#
# Convention : Reuss Voigt Hill
#
# Bulk Modulus (GPa) = 24.93177 38.84754 31.88966
# Shear Modulus (GPa) = 22.59847 34.59533 28.59690
#
# Velocity S-wave (km/s) = 3.13403 3.87768 3.52552
# Velocity P-wave (km/s) = 4.89208 6.07727 5.51660
#
# Compressibility (1/GPa) = 0.04010946
#
# Stress axis : x y z
#
# Youngs Moduli (GPa) = 34.79900 66.40539 94.52263
#
# Poissons Ratio (x) = -0.07563 0.40080
# Poissons Ratio (y) = -0.03963 0.38106
# Poissons Ratio (z) = 0.14756 0.26771
#
# Static dielectric constant tensor:
#      x y z
#    x 1.924730 0.019210 0.008530 
#    y 0.019210 1.914980 0.037380 
#    z 0.008530 0.037380 1.870210 
# 
# From -- ./inp_files/321063.got.cif
#   From: 2010.05.17/outbox.cif.g08.bks.cpg/sg2_161_cif.got.tgz:321063.got - 2010.06.03 11:33:40.
