data_PCOD9097318
_publ_section_title
;
Structure prediction by ZEFSAII (Michael W. Deem and Ramdas Pophale) SiO2 
 PCOD9097318
Probable space group: P -1
;
_chemical_formula_sum "Si O2"
_cell_formula_units_Z 16
_cell_length_a 8.426125
_cell_length_b 16.147097
_cell_length_c 7.042291
_cell_angle_alpha 54.460502
_cell_angle_beta 57.304165
_cell_angle_gamma 74.257814
_cell_volume 654.852551
_symmetry_space_group_name_H-M "P -1"
_symmetry_group_IT_number 2
_symmetry_cell_setting 'triclinic'
loop_
_space_group_symop_operation_xyz
x,y,z
-x,-y,-z
loop_
_atom_site_type_symbol
_atom_site_label
_atom_site_fract_x
_atom_site_fract_y
_atom_site_fract_z
Si Si1 0.922128 0.278306 0.405858
Si Si2 0.296697 0.386640 0.074451
Si Si3 0.591002 0.415867 0.428346
Si Si4 0.621580 0.139979 0.640429
Si Si5 0.484487 0.792645 0.953869
Si Si6 0.086121 0.841865 0.043390
Si Si7 0.294111 0.264748 0.621017
Si Si8 0.302825 0.017961 0.494884
O O1 0.768404 0.357654 0.467663
O O2 0.806157 0.217345 0.398012
O O3 0.955727 0.196307 0.661333
O O4 0.106398 0.347264 0.140549
O O5 0.461285 0.322108 0.964928
O O6 0.267083 0.340369 0.363915
O O7 0.330878 0.508209 0.892182
O O8 0.500000 0.500000 0.500000
O O9 0.424894 0.334504 0.583225
O O10 0.434984 0.174938 0.608762
O O11 0.679950 0.034928 0.652709
O O12 0.572404 0.155846 0.875017
O O13 0.678430 0.860618 0.694579
O O14 0.298274 0.804677 0.930523
O O15 0.906997 0.788640 0.121580
O O16 0.129649 0.960002 0.796580
O O17 0.500000 0.000000 0.500000
#
# Coordination Sequence:
#
# PCOD9097318 Si02
#       8
#     2   2   2   2   2   2   2   2
#     4   9  21  39  60  86 117 155 194 241 293 347
#     4  11  21  40  61  84 119 156 197 243 287 347
#     4  11  22  38  61  88 120 156 193 239 297 350
#     4  10  20  37  58  84 120 154 193 243 291 344
#     4  10  21  39  59  85 118 157 196 242 291 342
#     4   9  19  38  58  83 118 149 192 239 287 346
#     4  10  21  37  59  87 117 154 193 239 293 350
#     4  10  20  36  60  87 116 157 196 238 292 346
#
# _framework density 24.432980000000001
#
# number of rings (size 3 to 8) (size 9 to 14) (size 15 to 20)
#    0.000    2.000    0.000    4.875    0.000    2.000 
#    0.000   20.625    0.000    0.000    0.000    0.000 
#    0.000    0.000    0.000    0.000    0.000    0.000 
#
# Total GULP energy -89167.339322 kJ/mol
# GULP energy per Si atom -5572.958708 kJ/mol
# Density = 2.437737 g / cm^3
# Si number density = 24.432980 Si / 1000 Ang^3
#
#
#
# Elastic Constant Matrix: (Units=GPa)
#
#
# Indices 1 2 3 4 5 6 
#
# 1 80.4729 8.4038 26.1558 2.2471 -37.6236 4.9914
# 2 8.4038 78.1183 7.9151 -3.6584 -14.9445 -1.9363
# 3 26.1558 7.9151 101.3208 -6.4950 -29.6226 1.4695
# 4 2.2471 -3.6584 -6.4950 42.9182 0.0133 -1.4686
# 5 -37.6236 -14.9445 -29.6226 0.0133 48.5649 -0.3505
# 6 4.9914 -1.9363 1.4695 -1.4686 -0.3505 25.2956
#
#
#
# Elastic Compliance Matrix: (Units=1/GPa)
#
#
# Indices 1 2 3 4 5 6 
#
# 1 0.019971 0.000684 -0.000800 -0.001240 0.015168 -0.003704
# 2 0.000684 0.013724 0.000250 0.001206 0.004913 0.001039
# 3 -0.000800 0.000250 0.012199 0.001896 0.006895 -0.000326
# 4 -0.001240 0.001206 0.001896 0.023810 0.000572 0.001617
# 5 0.015168 0.004913 0.006895 0.000572 0.038041 -0.002457
# 6 -0.003704 0.001039 -0.000326 0.001617 -0.002457 0.040422
#
#
# Mechanical properties :
#
#
# Convention : Reuss Voigt Hill
#
# Bulk Modulus (GPa) = 21.66278 38.31793 29.99036
# Shear Modulus (GPa) = 30.62117 37.85155 34.23636
#
# Velocity S-wave (km/s) = 3.54400 3.94026 3.74737
# Velocity P-wave (km/s) = 5.06281 6.03471 5.57000
#
# Compressibility (1/GPa) = 0.04616212
#
# Stress axis : x y z
#
# Youngs Moduli (GPa) = 50.07303 72.86354 81.97551
#
# Poissons Ratio (x) = -0.04987 0.06559
# Poissons Ratio (y) = -0.03427 -0.02048
# Poissons Ratio (z) = 0.04007 -0.01820
#
# Static dielectric constant tensor:
#      x y z
#    x 2.024830 0.002680 0.124090 
#    y 0.002680 1.935970 0.010880 
#    z 0.124090 0.010880 2.225460 
# 
# From -- ./inp_files/214263.got.cif
#   From: 2010.05.17/outbox.cif.g08.bks.cpg/sg2_108_cif.got.tgz:214263.got - 2010.06.03 11:33:40.
