data_PCOD9097569
_publ_section_title
;
Structure prediction by ZEFSAII (Michael W. Deem and Ramdas Pophale) SiO2 
 PCOD9097569
Probable space group: P -1
;
_chemical_formula_sum "Si O2"
_cell_formula_units_Z 12
_cell_length_a 8.709366
_cell_length_b 12.143780
_cell_length_c 12.047388
_cell_angle_alpha 123.534175
_cell_angle_beta 120.320224
_cell_angle_gamma 105.726672
_cell_volume 591.241764
_symmetry_space_group_name_H-M "P -1"
_symmetry_group_IT_number 2
_symmetry_cell_setting 'triclinic'
loop_
_space_group_symop_operation_xyz
x,y,z
-x,-y,-z
loop_
_atom_site_type_symbol
_atom_site_label
_atom_site_fract_x
_atom_site_fract_y
_atom_site_fract_z
Si Si1 0.744797 0.305668 0.457830
Si Si2 0.462527 0.476518 0.667524
Si Si3 0.740555 0.009103 0.331324
Si Si4 0.748232 0.771791 0.741799
Si Si5 0.608890 0.674279 0.222722
Si Si6 0.333571 0.697164 0.824884
O O1 0.513737 0.279332 0.391859
O O2 0.707342 0.259608 0.285765
O O3 0.052166 0.540877 0.706528
O O4 0.708807 0.146946 0.419359
O O5 0.685791 0.634403 0.741936
O O6 0.217901 0.278533 0.392291
O O7 0.542644 0.429837 0.772813
O O8 0.382488 0.570760 0.744047
O O9 0.601865 0.818218 0.252180
O O10 0.592366 0.897286 0.097976
O O11 0.068380 0.169746 0.545319
O O12 0.000000 0.000000 0.000000
O O13 0.500000 0.500000 0.000000
#
# Coordination Sequence:
#
# PCOD9097569 Si02
#       6
#     2   2   2   2   2   2
#     4  10  21  36  58  90 123 151 199 252 299 346
#     4  10  21  39  58  87 119 158 198 245 293 349
#     4  11  21  34  61  93 118 156 199 247 301 355
#     4  10  24  39  61  85 123 162 198 241 302 364
#     4  11  22  37  60  91 124 156 199 251 294 352
#     4  10  20  36  61  88 122 153 200 254 299 339
#
# _framework density 20.296264000000001
#
# number of rings (size 3 to 8) (size 9 to 14) (size 15 to 20)
#    0.000    1.667    3.333    0.500    4.667    5.333 
#    0.000    0.833    0.000    5.000    0.000    0.000 
#    0.000    0.000    0.000    0.000    0.000    0.000 
#
# Total GULP energy -66945.131894 kJ/mol
# GULP energy per Si atom -5578.760991 kJ/mol
# Density = 2.025007 g / cm^3
# Si number density = 20.296264 Si / 1000 Ang^3
#
#
#
# Elastic Constant Matrix: (Units=GPa)
#
#
# Indices 1 2 3 4 5 6 
#
# 1 53.5003 14.7965 19.9326 13.4785 1.6369 -9.0459
# 2 14.7965 150.2617 14.1148 8.3683 -9.2095 -13.8041
# 3 19.9326 14.1148 132.5361 2.7517 -7.7518 1.9116
# 4 13.4785 8.3683 2.7517 21.5517 -4.4278 -10.7350
# 5 1.6369 -9.2095 -7.7518 -4.4278 21.7308 -3.7056
# 6 -9.0459 -13.8041 1.9116 -10.7350 -3.7056 26.2198
#
#
#
# Elastic Compliance Matrix: (Units=1/GPa)
#
#
# Indices 1 2 3 4 5 6 
#
# 1 0.024699 -0.001591 -0.003635 -0.015452 -0.006869 0.000652
# 2 -0.001591 0.007448 -0.000402 0.001250 0.004155 0.004500
# 3 -0.003635 -0.000402 0.008305 0.001537 0.003211 -0.000988
# 4 -0.015452 0.001250 0.001537 0.074299 0.022289 0.028785
# 5 -0.006869 0.004155 0.003211 0.022289 0.056838 0.016742
# 6 0.000652 0.004500 -0.000988 0.028785 0.016742 0.054957
#
#
# Mechanical properties :
#
#
# Convention : Reuss Voigt Hill
#
# Bulk Modulus (GPa) = 34.25246 48.22065 41.23656
# Shear Modulus (GPa) = 20.19923 33.06408 26.63165
#
# Velocity S-wave (km/s) = 3.15813 4.04056 3.62628
# Velocity P-wave (km/s) = 5.49648 6.75115 6.15587
#
# Compressibility (1/GPa) = 0.02919498
#
# Stress axis : x y z
#
# Youngs Moduli (GPa) = 40.48722 134.26443 120.41257
#
# Poissons Ratio (x) = 0.21365 0.43776
# Poissons Ratio (y) = 0.06443 0.04837
# Poissons Ratio (z) = 0.14719 0.05394
#
# Static dielectric constant tensor:
#      x y z
#    x 1.717880 0.000760 -0.006690 
#    y 0.000760 1.780960 0.019060 
#    z -0.006690 0.019060 1.751090 
# 
# From -- ./inp_files/19744.got.cif
#   From: 2010.05.17/outbox.cif.g08.bks.cpg/sg2_10_cif.got.tgz:19744.got - 2010.06.03 11:33:40.
