data_PCOD9097511
_publ_section_title
;
Structure prediction by ZEFSAII (Michael W. Deem and Ramdas Pophale) SiO2 
 PCOD9097511
Probable space group: P -1
;
_chemical_formula_sum "Si O2"
_cell_formula_units_Z 14
_cell_length_a 13.961609
_cell_length_b 12.861773
_cell_length_c 8.441178
_cell_angle_alpha 53.249497
_cell_angle_beta 44.023780
_cell_angle_gamma 32.269895
_cell_volume 562.233384
_symmetry_space_group_name_H-M "P -1"
_symmetry_group_IT_number 2
_symmetry_cell_setting 'triclinic'
loop_
_space_group_symop_operation_xyz
x,y,z
-x,-y,-z
loop_
_atom_site_type_symbol
_atom_site_label
_atom_site_fract_x
_atom_site_fract_y
_atom_site_fract_z
Si Si1 0.781571 0.342354 0.859188
Si Si2 0.169345 0.295399 0.076292
Si Si3 0.363489 0.053596 0.787371
Si Si4 0.495160 0.287669 0.662641
Si Si5 0.600818 0.407063 0.696898
Si Si6 0.267677 0.024385 0.609251
Si Si7 0.129643 0.460545 0.528695
O O1 0.742647 0.293612 0.786538
O O2 0.719228 0.534000 0.714101
O O3 0.629057 0.412065 0.118611
O O4 0.021170 0.181624 0.765830
O O5 0.257871 0.117666 0.025414
O O6 0.354927 0.266882 0.907917
O O7 0.000000 0.500000 0.000000
O O8 0.040880 0.347685 0.334153
O O9 0.599806 0.936172 0.624795
O O10 0.242033 0.266371 0.665667
O O11 0.331100 0.968269 0.771244
O O12 0.596569 0.290967 0.686162
O O13 0.355846 0.494584 0.548979
O O14 0.645642 0.128804 0.491626
O O15 0.000000 0.500000 0.500000
#
# Coordination Sequence:
#
# PCOD9097511 Si02
#       7
#     2   2   2   2   2   2   2
#     4  11  22  38  60  88 116 153 193 242 288 337
#     4   9  18  32  60  87 111 145 192 234 284 345
#     4   9  19  36  56  87 120 153 181 233 301 357
#     4  10  21  41  60  84 114 154 200 239 279 345
#     4  10  23  40  62  80 114 160 206 233 269 345
#     4  10  20  36  61  83 122 146 189 244 296 341
#     4  11  19  34  62  90 116 150 190 239 293 349
#
# _framework density 24.900693
#
# number of rings (size 3 to 8) (size 9 to 14) (size 15 to 20)
#    0.000    2.000    1.429    3.429    2.000    1.143 
#    0.000    2.857    9.429    0.000    0.000    0.000 
#    0.000    0.000    0.000    0.000    0.000    0.000 
#
# Total GULP energy -78218.625738 kJ/mol
# GULP energy per Si atom -5587.044696 kJ/mol
# Density = 2.484402 g / cm^3
# Si number density = 24.900693 Si / 1000 Ang^3
#
#
#
# Elastic Constant Matrix: (Units=GPa)
#
#
# Indices 1 2 3 4 5 6 
#
# 1 186.4675 46.6191 27.5973 27.0043 10.1701 8.0275
# 2 46.6191 78.0851 14.9954 20.0217 -4.9779 -13.7662
# 3 27.5973 14.9954 94.1480 11.7778 3.1121 6.6432
# 4 27.0043 20.0217 11.7778 42.2891 5.2406 -1.1003
# 5 10.1701 -4.9779 3.1121 5.2406 31.2454 18.2194
# 6 8.0275 -13.7662 6.6432 -1.1003 18.2194 39.8341
#
#
#
# Elastic Compliance Matrix: (Units=1/GPa)
#
#
# Indices 1 2 3 4 5 6 
#
# 1 0.006942 -0.003823 -0.000957 -0.002265 -0.001178 -0.002084
# 2 -0.003823 0.018079 -0.001549 -0.005702 0.001478 0.006443
# 3 -0.000957 -0.001549 0.011569 -0.002052 0.000838 -0.002712
# 4 -0.002265 -0.005702 -0.002052 0.029217 -0.006347 0.002538
# 5 -0.001178 0.001478 0.000838 -0.006347 0.045482 -0.020370
# 6 -0.002084 0.006443 -0.002712 0.002538 -0.020370 0.037590
#
#
# Mechanical properties :
#
#
# Convention : Reuss Voigt Hill
#
# Bulk Modulus (GPa) = 41.78364 59.68045 50.73205
# Shear Modulus (GPa) = 29.49619 40.63965 35.06792
#
# Velocity S-wave (km/s) = 3.44547 4.04427 3.75682
# Velocity P-wave (km/s) = 5.71357 6.76961 6.26388
#
# Compressibility (1/GPa) = 0.02393281
#
# Stress axis : x y z
#
# Youngs Moduli (GPa) = 144.04677 55.31425 86.43706
#
# Poissons Ratio (x) = 0.21145 0.08270
# Poissons Ratio (y) = 0.55066 0.13389
# Poissons Ratio (z) = 0.13781 0.08568
#
# Static dielectric constant tensor:
#      x y z
#    x 2.006750 0.009820 0.058180 
#    y 0.009820 2.037310 -0.020740 
#    z 0.058180 -0.020740 1.980830 
# 
# From -- ./inp_files/312598.got.cif
#   From: 2010.05.17/outbox.cif.g08.bks.cpg/sg2_157_cif.got.tgz:312598.got - 2010.06.03 11:33:40.
