data_PCOD9097337
_publ_section_title
;
Structure prediction by ZEFSAII (Michael W. Deem and Ramdas Pophale) SiO2 
 PCOD9097337
Probable space group: P -1
;
_chemical_formula_sum "Si O2"
_cell_formula_units_Z 16
_cell_length_a 8.247554
_cell_length_b 21.032480
_cell_length_c 6.878336
_cell_angle_alpha 61.175232
_cell_angle_beta 103.602862
_cell_angle_gamma 131.420959
_cell_volume 777.457589
_symmetry_space_group_name_H-M "P -1"
_symmetry_group_IT_number 2
_symmetry_cell_setting 'triclinic'
loop_
_space_group_symop_operation_xyz
x,y,z
-x,-y,-z
loop_
_atom_site_type_symbol
_atom_site_label
_atom_site_fract_x
_atom_site_fract_y
_atom_site_fract_z
Si Si1 0.321503 0.545726 0.428836
Si Si2 0.320268 0.023278 0.061890
Si Si3 0.233108 0.809781 0.854999
Si Si4 0.026931 0.840060 0.065549
Si Si5 0.633006 0.535645 0.786215
Si Si6 0.931189 0.269603 0.471668
Si Si7 0.010348 0.993640 0.740986
Si Si8 0.843254 0.346418 0.675627
O O1 0.508694 0.557003 0.580242
O O2 0.357826 0.537649 0.222767
O O3 0.301337 0.623454 0.369632
O O4 0.092208 0.443786 0.576384
O O5 0.263974 0.929690 0.090950
O O6 0.538999 0.100516 0.122356
O O7 0.130283 0.985426 0.222414
O O8 0.251420 0.057011 0.812742
O O9 0.056371 0.811808 0.906597
O O10 0.217162 0.806359 0.624976
O O11 0.187468 0.717004 0.061750
O O12 0.916774 0.887347 0.932783
O O13 0.954300 0.759100 0.316613
O O14 0.879613 0.632785 0.728333
O O15 0.500000 0.500000 0.000000
O O16 0.805424 0.287910 0.557023
O O17 0.000000 0.000000 0.500000
#
# Coordination Sequence:
#
# PCOD9097337 Si02
#       8
#     2   2   2   2   2   2   2   2
#     4   9  19  38  61  78 117 151 184 241 283 339
#     4   9  21  37  56  82 109 149 196 229 281 345
#     4  11  21  35  57  84 115 148 189 241 283 334
#     4   9  21  37  56  82 112 150 193 232 283 342
#     4  10  20  36  60  88 111 150 193 229 288 347
#     4  10  22  36  55  86 120 148 191 242 282 339
#     4   9  20  38  58  78 107 148 192 238 280 336
#     4   9  20  38  56  84 112 152 192 233 291 336
#
# _framework density 20.579902000000001
#
# number of rings (size 3 to 8) (size 9 to 14) (size 15 to 20)
#    0.750    1.750    0.000    1.125    1.750    5.500 
#    0.000    5.000    0.000    0.000    0.000    0.000 
#    0.000    0.000    0.000    0.000    0.000    0.000 
#
# Total GULP energy -89098.255088 kJ/mol
# GULP energy per Si atom -5568.640943 kJ/mol
# Density = 2.053306 g / cm^3
# Si number density = 20.579902 Si / 1000 Ang^3
#
#
#
# Elastic Constant Matrix: (Units=GPa)
#
#
# Indices 1 2 3 4 5 6 
#
# 1 57.9491 25.1999 18.9651 8.4606 -5.5712 -21.3562
# 2 25.1999 55.8054 38.2320 19.8632 -2.7237 -20.1903
# 3 18.9651 38.2320 99.3017 22.7825 -17.1866 -10.2890
# 4 8.4606 19.8632 22.7825 34.3480 0.9078 3.8822
# 5 -5.5712 -2.7237 -17.1866 0.9078 13.0832 -0.2875
# 6 -21.3562 -20.1903 -10.2890 3.8822 -0.2875 32.7782
#
#
#
# Elastic Compliance Matrix: (Units=1/GPa)
#
#
# Indices 1 2 3 4 5 6 
#
# 1 0.027208 -0.004268 0.002815 -0.008441 0.015357 0.017116
# 2 -0.004268 0.039946 -0.008596 -0.018677 -0.003029 0.021312
# 3 0.002815 -0.008596 0.020363 -0.010440 0.026981 0.004405
# 4 -0.008441 -0.018677 -0.010440 0.052612 -0.025435 -0.026735
# 5 0.015357 -0.003029 0.026981 -0.025435 0.120005 0.020674
# 6 0.017116 0.021312 0.004405 -0.026735 0.020674 0.059518
#
#
# Mechanical properties :
#
#
# Convention : Reuss Voigt Hill
#
# Bulk Modulus (GPa) = 14.83244 41.98336 28.40790
# Shear Modulus (GPa) = 13.80365 24.75250 19.27807
#
# Velocity S-wave (km/s) = 2.59266 3.47183 3.06395
# Velocity P-wave (km/s) = 4.02311 6.04284 5.13329
#
# Compressibility (1/GPa) = 0.06741981
#
# Stress axis : x y z
#
# Youngs Moduli (GPa) = 36.75397 25.03375 49.10784
#
# Poissons Ratio (x) = 0.10685 -0.13824
# Poissons Ratio (y) = 0.15687 0.42211
# Poissons Ratio (z) = -0.10346 0.21518
#
# Static dielectric constant tensor:
#      x y z
#    x 1.738170 0.008450 -0.019330 
#    y 0.008450 1.786430 -0.004910 
#    z -0.019330 -0.004910 1.730430 
# 
# From -- ./inp_files/51191.got.cif
#   From: 2010.05.17/outbox.cif.g08.bks.cpg/sg2_26_cif.got.tgz:51191.got - 2010.06.03 11:33:40.
