data_PCOD9097362
_publ_section_title
;
Structure prediction by ZEFSAII (Michael W. Deem and Ramdas Pophale) SiO2 
 PCOD9097362
Probable space group: P -1
;
_chemical_formula_sum "Si O2"
_cell_formula_units_Z 12
_cell_length_a 8.870014
_cell_length_b 6.335409
_cell_length_c 14.211661
_cell_angle_alpha 133.860765
_cell_angle_beta 62.741925
_cell_angle_gamma 123.320356
_cell_volume 477.186962
_symmetry_space_group_name_H-M "P -1"
_symmetry_group_IT_number 2
_symmetry_cell_setting 'triclinic'
loop_
_space_group_symop_operation_xyz
x,y,z
-x,-y,-z
loop_
_atom_site_type_symbol
_atom_site_label
_atom_site_fract_x
_atom_site_fract_y
_atom_site_fract_z
Si Si1 0.369262 0.075392 0.442997
Si Si2 0.644568 0.342142 0.036061
Si Si3 0.110434 0.350022 0.313242
Si Si4 0.496294 0.167232 0.833987
Si Si5 0.845051 0.057341 0.999479
Si Si6 0.236835 0.509919 0.521788
O O1 0.258246 0.305471 0.540278
O O2 0.563624 0.247039 0.489932
O O3 0.233375 0.721441 0.386490
O O4 0.444777 0.072362 0.314438
O O5 0.654439 0.334332 0.916741
O O6 0.821083 0.366112 0.052813
O O7 0.553985 0.603840 0.154099
O O8 0.500000 0.000000 0.000000
O O9 0.162415 0.157103 0.157167
O O10 0.148537 0.282025 0.388679
O O11 0.900034 0.315329 0.357992
O O12 0.318304 0.026547 0.904280
O O13 0.000000 0.000000 0.000000
#
# Coordination Sequence:
#
# PCOD9097362 Si02
#       6
#     2   2   2   2   2   2
#     4  11  21  40  65  89 119 158 203 252 302 359
#     4   9  18  34  54  82 116 151 192 236 294 359
#     4  11  22  41  62  86 124 161 199 251 301 358
#     4  10  20  36  60  89 116 153 199 243 303 364
#     4  11  23  38  59  91 125 157 197 249 307 363
#     4  10  24  40  61  90 119 159 208 249 297 357
#
# _framework density 25.147376999999999
#
# number of rings (size 3 to 8) (size 9 to 14) (size 15 to 20)
#    0.000    1.667    0.000    6.000    0.000    2.000 
#    0.000    5.000    0.000    0.000    0.000    0.000 
#    0.000    0.000    0.000    0.000    0.000    0.000 
#
# Total GULP energy -66891.950912 kJ/mol
# GULP energy per Si atom -5574.329243 kJ/mol
# Density = 2.509014 g / cm^3
# Si number density = 25.147377 Si / 1000 Ang^3
#
#
#
# Elastic Constant Matrix: (Units=GPa)
#
#
# Indices 1 2 3 4 5 6 
#
# 1 154.7207 31.4379 11.3132 -6.0940 -26.8354 -30.1489
# 2 31.4379 65.7799 -9.8359 3.8805 -17.3251 -5.6898
# 3 11.3132 -9.8359 52.9555 -10.1290 -2.4390 -14.1830
# 4 -6.0940 3.8805 -10.1290 29.6912 -1.4181 -7.7339
# 5 -26.8354 -17.3251 -2.4390 -1.4181 31.6025 7.0844
# 6 -30.1489 -5.6898 -14.1830 -7.7339 7.0844 32.2935
#
#
#
# Elastic Compliance Matrix: (Units=1/GPa)
#
#
# Indices 1 2 3 4 5 6 
#
# 1 0.009873 -0.002692 0.001216 0.005505 0.005125 0.009471
# 2 -0.002692 0.019574 0.004681 -0.000869 0.008564 0.000904
# 3 0.001216 0.004681 0.026401 0.012959 0.002612 0.016086
# 4 0.005505 -0.000869 0.012959 0.044903 0.002533 0.020876
# 5 0.005125 0.008564 0.002612 0.002533 0.041229 -0.000997
# 6 0.009471 0.000904 0.016086 0.020876 -0.000997 0.052250
#
#
# Mechanical properties :
#
#
# Convention : Reuss Voigt Hill
#
# Bulk Modulus (GPa) = 16.06211 37.69850 26.88031
# Shear Modulus (GPa) = 23.97263 34.75351 29.36307
#
# Velocity S-wave (km/s) = 3.09088 3.72155 3.42078
# Velocity P-wave (km/s) = 4.37483 5.78707 5.12978
#
# Compressibility (1/GPa) = 0.06225831
#
# Stress axis : x y z
#
# Youngs Moduli (GPa) = 101.29056 51.08818 37.87776
#
# Poissons Ratio (x) = 0.13754 -0.04607
# Poissons Ratio (y) = 0.27269 -0.17731
# Poissons Ratio (z) = -0.12321 -0.23916
#
# Static dielectric constant tensor:
#      x y z
#    x 2.139130 0.000220 0.052710 
#    y 0.000220 2.106630 0.022680 
#    z 0.052710 0.022680 1.925700 
# 
# From -- ./inp_files/47975.got.cif
#   From: 2010.05.17/outbox.cif.g08.bks.cpg/sg2_24_cif.got.tgz:47975.got - 2010.06.03 11:33:40.
