data_PCOD9097871
_publ_section_title
;
Structure prediction by ZEFSAII (Michael W. Deem and Ramdas Pophale) SiO2 
 PCOD9097871
Probable space group: P -1
;
_chemical_formula_sum "Si O2"
_cell_formula_units_Z 16
_cell_length_a 15.008729
_cell_length_b 12.038888
_cell_length_c 10.023579
_cell_angle_alpha 141.927221
_cell_angle_beta 137.865333
_cell_angle_gamma 46.001935
_cell_volume 721.878879
_symmetry_space_group_name_H-M "P -1"
_symmetry_group_IT_number 2
_symmetry_cell_setting 'triclinic'
loop_
_space_group_symop_operation_xyz
x,y,z
-x,-y,-z
loop_
_atom_site_type_symbol
_atom_site_label
_atom_site_fract_x
_atom_site_fract_y
_atom_site_fract_z
Si Si1 0.091519 0.634010 0.148967
Si Si2 0.370370 0.596991 0.539244
Si Si3 0.921150 0.766918 0.307215
Si Si4 0.147463 0.629358 0.914401
Si Si5 0.399705 0.054304 0.569653
Si Si6 0.086652 0.222875 0.403811
Si Si7 0.627825 0.032750 0.250738
Si Si8 0.458642 0.450133 0.052662
O O1 0.231933 0.540722 0.297880
O O2 0.993607 0.798593 0.281531
O O3 0.035748 0.459179 0.873949
O O4 0.123665 0.705237 0.109118
O O5 0.500000 0.500000 0.500000
O O6 0.331460 0.807878 0.639113
O O7 0.425933 0.557944 0.714053
O O8 0.963520 0.827374 0.554469
O O9 0.757446 0.851493 0.213542
O O10 0.117549 0.425834 0.659860
O O11 0.037143 0.760229 0.819247
O O12 0.309988 0.594855 0.044746
O O13 0.235177 0.097951 0.399659
O O14 0.500000 0.000000 0.500000
O O15 0.415702 0.930448 0.606685
O O16 0.430834 0.246590 0.833538
O O17 0.500000 0.000000 0.000000
O O18 0.500000 0.500000 0.000000
#
# Coordination Sequence:
#
# PCOD9097871 Si02
#       8
#     2   2   2   2   2   2   2   2
#     4  10  20  36  62  91 121 151 209 248 300 373
#     4  12  24  40  63  91 122 165 207 255 311 360
#     4   9  20  38  60  90 119 157 201 250 304 365
#     4   9  17  35  55  84 117 152 193 246 293 347
#     4  10  22  40  62  92 119 160 206 244 305 370
#     4   8  17  34  58  81 116 153 195 243 292 349
#     4  11  22  41  64  85 127 164 199 257 308 359
#     4  11  24  40  60  90 126 157 201 256 304 364
#
# _framework density 22.164383000000001
#
# number of rings (size 3 to 8) (size 9 to 14) (size 15 to 20)
#    0.000    2.000    2.500    1.500    3.500    1.500 
#    2.250    0.000    0.000    2.250    0.000    0.000 
#    0.000    0.000    0.000    0.000    0.000    0.000 
#
# Total GULP energy -89170.280169 kJ/mol
# GULP energy per Si atom -5573.142511 kJ/mol
# Density = 2.211394 g / cm^3
# Si number density = 22.164383 Si / 1000 Ang^3
#
#
#
# Elastic Constant Matrix: (Units=GPa)
#
#
# Indices 1 2 3 4 5 6 
#
# 1 157.7460 38.6869 55.5323 -27.2992 -49.5049 -14.4720
# 2 38.6869 70.8328 43.7539 -25.9322 -19.1090 -0.8412
# 3 55.5323 43.7539 104.8744 -47.7025 -17.8564 -7.5207
# 4 -27.2992 -25.9322 -47.7025 50.5859 12.6593 0.1605
# 5 -49.5049 -19.1090 -17.8564 12.6593 40.0896 2.8116
# 6 -14.4720 -0.8412 -7.5207 0.1605 2.8116 33.5158
#
#
#
# Elastic Compliance Matrix: (Units=1/GPa)
#
#
# Indices 1 2 3 4 5 6 
#
# 1 0.012163 -0.001003 -0.004060 -0.000998 0.012821 0.003245
# 2 -0.001003 0.020912 -0.005937 0.003293 0.005163 -0.001690
# 3 -0.004060 -0.005937 0.020635 0.015124 -0.003636 0.002961
# 4 -0.000998 0.003293 0.015124 0.036328 -0.004626 0.003260
# 5 0.012821 0.005163 -0.003636 -0.004626 0.042989 0.001265
# 6 0.003245 -0.001690 0.002961 0.003260 0.001265 0.031738
#
#
# Mechanical properties :
#
#
# Convention : Reuss Voigt Hill
#
# Bulk Modulus (GPa) = 31.53801 67.71103 49.62452
# Shear Modulus (GPa) = 25.33761 37.87026 31.60394
#
# Velocity S-wave (km/s) = 3.38474 4.13802 3.78019
# Velocity P-wave (km/s) = 5.43464 7.31073 6.44135
#
# Compressibility (1/GPa) = 0.03170778
#
# Stress axis : x y z
#
# Youngs Moduli (GPa) = 82.21545 47.82029 48.46179
#
# Poissons Ratio (x) = 0.04797 0.19677
# Poissons Ratio (y) = 0.08248 0.28774
# Poissons Ratio (z) = 0.33382 0.28393
#
# Static dielectric constant tensor:
#      x y z
#    x 2.121910 0.095270 0.192640 
#    y 0.095270 1.918080 0.066130 
#    z 0.192640 0.066130 2.020680 
# 
# From -- ./inp_files/308616.got.cif
#   From: 2010.05.17/outbox.cif.g08.bks.cpg/sg2_155_cif.got.tgz:308616.got - 2010.06.03 11:33:40.
