data_PCOD9097760
_publ_section_title
;
Structure prediction by ZEFSAII (Michael W. Deem and Ramdas Pophale) SiO2 
 PCOD9097760
Probable space group: P -1
;
_chemical_formula_sum "Si O2"
_cell_formula_units_Z 14
_cell_length_a 9.015167
_cell_length_b 9.699995
_cell_length_c 10.792361
_cell_angle_alpha 136.978583
_cell_angle_beta 116.280288
_cell_angle_gamma 89.808143
_cell_volume 491.854443
_symmetry_space_group_name_H-M "P -1"
_symmetry_group_IT_number 2
_symmetry_cell_setting 'triclinic'
loop_
_space_group_symop_operation_xyz
x,y,z
-x,-y,-z
loop_
_atom_site_type_symbol
_atom_site_label
_atom_site_fract_x
_atom_site_fract_y
_atom_site_fract_z
Si Si1 0.513539 0.605887 0.224087
Si Si2 0.330607 0.754325 0.474883
Si Si3 0.249800 0.130051 0.927320
Si Si4 0.117523 0.340900 0.534985
Si Si5 0.330239 0.774519 0.061128
Si Si6 0.906291 0.219829 0.796712
Si Si7 0.821306 0.728034 0.765806
O O1 0.444945 0.703793 0.376510
O O2 0.746490 0.732182 0.387175
O O3 0.409977 0.645622 0.095977
O O4 0.428454 0.329665 0.045789
O O5 0.215960 0.855553 0.424929
O O6 0.199974 0.503782 0.327733
O O7 0.493625 0.975352 0.757949
O O8 0.079855 0.177690 0.853658
O O9 0.304670 0.217642 0.147813
O O10 0.115322 0.844362 0.674682
O O11 0.201900 0.351986 0.437189
O O12 0.183470 0.593425 0.785841
O O13 0.215244 0.841324 0.161709
O O14 0.000000 0.500000 0.000000
O O15 0.000000 0.000000 0.000000
#
# Coordination Sequence:
#
# PCOD9097760 Si02
#       7
#     2   2   2   2   2   2   2
#     4  10  20  38  60  86 113 154 198 238 288 344
#     4  10  20  36  62  86 110 151 203 239 277 349
#     4  10  20  39  63  84 111 157 204 235 281 347
#     4  11  23  38  56  86 128 154 186 241 295 345
#     4  11  22  36  57  92 118 147 191 244 301 340
#     4  11  18  38  64  85 111 150 196 245 286 336
#     4   9  20  38  60  83 114 157 199 233 279 350
#
# _framework density 28.463705000000001
#
# number of rings (size 3 to 8) (size 9 to 14) (size 15 to 20)
#    0.000    1.714    4.286    3.857    0.000    3.429 
#    2.571    2.143    0.000    0.000    0.000    0.000 
#    0.000    0.000    0.000    0.000    0.000    0.000 
#
# Total GULP energy -78270.377913 kJ/mol
# GULP energy per Si atom -5590.741279 kJ/mol
# Density = 2.839892 g / cm^3
# Si number density = 28.463705 Si / 1000 Ang^3
#
#
#
# Elastic Constant Matrix: (Units=GPa)
#
#
# Indices 1 2 3 4 5 6 
#
# 1 60.4199 31.4895 22.6392 7.0483 14.4704 11.8843
# 2 31.4895 140.5657 80.5585 17.0774 -5.0820 3.4579
# 3 22.6392 80.5585 214.7013 15.5133 -1.7977 22.5306
# 4 7.0483 17.0774 15.5133 33.1145 13.7600 4.2384
# 5 14.4704 -5.0820 -1.7977 13.7600 39.8499 5.8101
# 6 11.8843 3.4579 22.5306 4.2384 5.8101 44.2762
#
#
#
# Elastic Compliance Matrix: (Units=1/GPa)
#
#
# Indices 1 2 3 4 5 6 
#
# 1 0.022151 -0.005422 -0.000072 0.002396 -0.008903 -0.004547
# 2 -0.005422 0.011007 -0.003376 -0.005168 0.004685 0.002193
# 3 -0.000072 -0.003376 0.006325 -0.001122 0.000694 -0.002919
# 4 0.002396 -0.005168 -0.001122 0.039269 -0.014925 -0.001469
# 5 -0.008903 0.004685 0.000694 -0.014925 0.034314 -0.001403
# 6 -0.004547 0.002193 -0.002919 -0.001469 -0.001403 0.025445
#
#
# Mechanical properties :
#
#
# Convention : Reuss Voigt Hill
#
# Bulk Modulus (GPa) = 45.99165 76.11791 61.05478
# Shear Modulus (GPa) = 30.58169 42.18145 36.38157
#
# Velocity S-wave (km/s) = 3.28138 3.85377 3.57903
# Velocity P-wave (km/s) = 5.52717 6.82658 6.21095
#
# Compressibility (1/GPa) = 0.02174308
#
# Stress axis : x y z
#
# Youngs Moduli (GPa) = 45.14560 90.85396 158.10325
#
# Poissons Ratio (x) = 0.49263 0.01135
# Poissons Ratio (y) = 0.24479 0.53370
# Poissons Ratio (z) = 0.00324 0.30669
#
# Static dielectric constant tensor:
#      x y z
#    x 2.326360 -0.044980 -0.051770 
#    y -0.044980 2.217030 0.028970 
#    z -0.051770 0.028970 2.366010 
# 
# From -- ./inp_files/429098.got.cif
#   From: 2010.05.17/outbox.cif.g08.bks.cpg/sg2_215_cif.got.tgz:429098.got - 2010.06.03 11:33:40.
