data_PCOD9097003
_publ_section_title
;
Structure prediction by ZEFSAII (Michael W. Deem and Ramdas Pophale) SiO2 
 PCOD9097003
Probable space group: P -1
;
_chemical_formula_sum "Si O2"
_cell_formula_units_Z 16
_cell_length_a 8.850703
_cell_length_b 21.620918
_cell_length_c 7.046519
_cell_angle_alpha 65.549176
_cell_angle_beta 71.481467
_cell_angle_gamma 31.773745
_cell_volume 644.702623
_symmetry_space_group_name_H-M "P -1"
_symmetry_group_IT_number 2
_symmetry_cell_setting 'triclinic'
loop_
_space_group_symop_operation_xyz
x,y,z
-x,-y,-z
loop_
_atom_site_type_symbol
_atom_site_label
_atom_site_fract_x
_atom_site_fract_y
_atom_site_fract_z
Si Si1 0.844931 0.267901 0.039469
Si Si2 0.840398 0.659747 0.432155
Si Si3 0.347121 0.169061 0.009456
Si Si4 0.669563 0.115223 0.270244
Si Si5 0.337775 0.372171 0.999193
Si Si6 0.801639 0.351786 0.541262
Si Si7 0.429552 0.374978 0.515591
Si Si8 0.791822 0.995790 0.762425
O O1 0.509611 0.369731 0.050826
O O2 0.032995 0.256642 0.085660
O O3 0.880927 0.282404 0.789583
O O4 0.010399 0.139503 0.182482
O O5 0.621863 0.673919 0.529081
O O6 0.952162 0.676194 0.522633
O O7 0.140767 0.521075 0.418981
O O8 0.703661 0.745154 0.198334
O O9 0.551038 0.102582 0.189791
O O10 0.532644 0.063829 0.911304
O O11 0.463214 0.253948 0.152343
O O12 0.685609 0.074261 0.520789
O O13 0.987489 0.029028 0.199490
O O14 0.410888 0.358839 0.765224
O O15 0.000000 0.500000 0.000000
O O16 0.500000 0.500000 0.500000
O O17 0.707640 0.326027 0.460913
#
# Coordination Sequence:
#
# PCOD9097003 Si02
#       8
#     2   2   2   2   2   2   2   2
#     4   9  20  37  58  87 119 155 204 253 301 369
#     4   9  17  28  51  83 110 146 198 246 292 363
#     4  11  20  37  64  87 120 158 203 254 308 360
#     4  10  22  40  59  90 122 154 206 256 296 366
#     4  10  20  36  59  81 121 164 197 248 315 366
#     4   8  15  29  51  75 112 149 182 245 305 339
#     4   9  16  30  50  76 112 152 194 241 298 357
#     4  10  22  39  62  87 120 163 202 248 309 367
#
# _framework density 24.817644999999999
#
# number of rings (size 3 to 8) (size 9 to 14) (size 15 to 20)
#    0.000    2.500    1.250    0.750    1.750    0.500 
#    0.000    0.625    0.000    4.500    0.000    0.000 
#    0.000    0.000    0.000    0.000    0.000    0.000 
#
# Total GULP energy -89238.929825 kJ/mol
# GULP energy per Si atom -5577.433114 kJ/mol
# Density = 2.476116 g / cm^3
# Si number density = 24.817645 Si / 1000 Ang^3
#
#
#
# Elastic Constant Matrix: (Units=GPa)
#
#
# Indices 1 2 3 4 5 6 
#
# 1 160.4009 30.7338 6.9440 5.1280 4.2905 -38.6314
# 2 30.7338 71.6964 64.8548 -10.6773 -11.0084 -24.0532
# 3 6.9440 64.8548 62.8905 -9.8311 9.7112 -5.8879
# 4 5.1280 -10.6773 -9.8311 44.1678 -8.3967 -4.6583
# 5 4.2905 -11.0084 9.7112 -8.3967 27.5660 -7.9944
# 6 -38.6314 -24.0532 -5.8879 -4.6583 -7.9944 33.8319
#
#
#
# Elastic Compliance Matrix: (Units=1/GPa)
#
#
# Indices 1 2 3 4 5 6 
#
# 1 0.008664 -0.000619 0.000456 0.000203 0.001157 0.009834
# 2 -0.000619 -0.029751 0.032098 -0.008955 -0.033170 -0.025344
# 3 0.000456 0.032098 -0.017306 0.012926 0.031341 0.029515
# 4 0.000203 -0.008955 0.012926 0.022933 -0.001489 -0.001079
# 5 0.001157 -0.033170 0.031341 -0.001489 0.006894 -0.015383
# 6 0.009834 -0.025344 0.029515 -0.001079 -0.015383 0.024121
#
#
# Mechanical properties :
#
#
# Convention : Reuss Voigt Hill
#
# Bulk Modulus (GPa) = 39.25247 55.56142 47.40694
# Shear Modulus (GPa) = -125.55774 33.94348 -45.80713
#
# Velocity S-wave (km/s) = -7.12053 3.70228 -4.30088
# Velocity P-wave (km/s) = 7.19388 6.38062 2.34943
#
# Compressibility (1/GPa) = 0.02547611
#
# Stress axis : x y z
#
# Youngs Moduli (GPa) = 115.41648 -33.61208 -57.78246
#
# Poissons Ratio (x) = -0.02082 0.02634
# Poissons Ratio (y) = 0.07150 1.85472
# Poissons Ratio (z) = -0.05261 1.07889
#
# Static dielectric constant tensor:
#      x y z
#    x 2.083300 0.012160 0.016490 
#    y 0.012160 1.965990 0.036790 
#    z 0.016490 0.036790 1.939690 
# 
# From -- ./inp_files/225355.got.cif
#   From: 2010.05.17/outbox.cif.g08.bks.cpg/sg2_113_cif.got.tgz:225355.got - 2010.06.03 11:33:40.
