data_PCOD9097546
_publ_section_title
;
Structure prediction by ZEFSAII (Michael W. Deem and Ramdas Pophale) SiO2 
 PCOD9097546
Probable space group: P -1
;
_chemical_formula_sum "Si O2"
_cell_formula_units_Z 12
_cell_length_a 7.398611
_cell_length_b 13.581462
_cell_length_c 11.346533
_cell_angle_alpha 33.311289
_cell_angle_beta 106.820996
_cell_angle_gamma 123.836005
_cell_volume 479.859542
_symmetry_space_group_name_H-M "P -1"
_symmetry_group_IT_number 2
_symmetry_cell_setting 'triclinic'
loop_
_space_group_symop_operation_xyz
x,y,z
-x,-y,-z
loop_
_atom_site_type_symbol
_atom_site_label
_atom_site_fract_x
_atom_site_fract_y
_atom_site_fract_z
Si Si1 0.780617 0.100798 0.910282
Si Si2 0.057210 0.799744 0.771303
Si Si3 0.846402 0.778573 0.328832
Si Si4 0.066549 0.526019 0.240281
Si Si5 0.555713 0.085422 0.643808
Si Si6 0.209160 0.055709 0.313441
O O1 0.842830 0.276629 0.846536
O O2 0.607590 0.060940 0.812260
O O3 0.029198 0.217632 0.770566
O O4 0.689996 0.857714 0.185482
O O5 0.086216 0.848127 0.589995
O O6 0.303322 0.032620 0.631378
O O7 0.075479 0.620980 0.018721
O O8 0.825754 0.774295 0.798615
O O9 0.786885 0.571237 0.603001
O O10 0.054026 0.987018 0.236048
O O11 0.790112 0.328143 0.411099
O O12 0.564187 0.918368 0.721619
#
# Coordination Sequence:
#
# PCOD9097546 Si02
#       6
#     2   2   2   2   2   2
#     4   9  17  35  59  82 121 152 186 247 291 338
#     4  11  21  38  62  86 117 156 197 241 291 347
#     4   9  17  33  60  81 113 161 183 233 305 331
#     4  10  20  36  61  87 118 156 191 243 295 342
#     4  10  22  38  61  87 116 158 194 237 298 349
#     4   9  20  39  59  83 124 150 190 255 284 335
#
# _framework density 25.007317
#
# number of rings (size 3 to 8) (size 9 to 14) (size 15 to 20)
#    0.000    2.667    1.667    2.500    0.000    3.333 
#    0.000    7.500    0.000    1.000    0.000    0.000 
#    0.000    0.000    0.000    0.000    0.000    0.000 
#
# Total GULP energy -66893.169859 kJ/mol
# GULP energy per Si atom -5574.430822 kJ/mol
# Density = 2.495040 g / cm^3
# Si number density = 25.007317 Si / 1000 Ang^3
#
#
#
# Elastic Constant Matrix: (Units=GPa)
#
#
# Indices 1 2 3 4 5 6 
#
# 1 91.8248 14.6567 26.3525 -6.0851 1.6445 -1.8878
# 2 14.6567 62.9270 24.6280 21.3806 3.1284 4.3415
# 3 26.3525 24.6280 168.0718 26.1552 16.4773 7.2550
# 4 -6.0851 21.3806 26.1552 40.1017 4.4101 -0.0457
# 5 1.6445 3.1284 16.4773 4.4101 28.6365 -7.4933
# 6 -1.8878 4.3415 7.2550 -0.0457 -7.4933 25.4773
#
#
#
# Elastic Compliance Matrix: (Units=1/GPa)
#
#
# Indices 1 2 3 4 5 6 
#
# 1 0.012667 -0.004127 -0.002466 0.005627 0.000966 0.002638
# 2 -0.004127 0.021291 -0.000368 -0.011612 -0.001188 -0.004199
# 3 -0.002466 -0.000368 0.007723 -0.004726 -0.004489 -0.003648
# 4 0.005627 -0.011612 -0.004726 0.035158 -0.000817 0.003564
# 5 0.000966 -0.001188 -0.004489 -0.000817 0.041287 0.013694
# 6 0.002638 -0.004199 -0.003648 0.003564 0.013694 0.045235
#
#
# Mechanical properties :
#
#
# Convention : Reuss Voigt Hill
#
# Bulk Modulus (GPa) = 36.02421 50.45536 43.23979
# Shear Modulus (GPa) = 26.80471 35.98887 31.39679
#
# Velocity S-wave (km/s) = 3.27750 3.79771 3.54715
# Velocity P-wave (km/s) = 5.36278 6.28093 5.83993
#
# Compressibility (1/GPa) = 0.02775911
#
# Stress axis : x y z
#
# Youngs Moduli (GPa) = 78.94821 46.96849 129.47812
#
# Poissons Ratio (x) = 0.19386 0.31923
# Poissons Ratio (y) = 0.32585 0.04764
# Poissons Ratio (z) = 0.19465 0.01728
#
# Static dielectric constant tensor:
#      x y z
#    x 2.047120 -0.048480 0.037610 
#    y -0.048480 1.954510 -0.051910 
#    z 0.037610 -0.051910 2.019520 
# 
# From -- ./inp_files/225703.got.cif
#   From: 2010.05.17/outbox.cif.g08.bks.cpg/sg2_113_cif.got.tgz:225703.got - 2010.06.03 11:33:40.
