data_PCOD9097534
_publ_section_title
;
Structure prediction by ZEFSAII (Michael W. Deem and Ramdas Pophale) SiO2 
 PCOD9097534
Probable space group: P -1
;
_chemical_formula_sum "Si O2"
_cell_formula_units_Z 16
_cell_length_a 7.267356
_cell_length_b 14.680129
_cell_length_c 8.802897
_cell_angle_alpha 109.875712
_cell_angle_beta 73.765752
_cell_angle_gamma 131.606373
_cell_volume 658.453951
_symmetry_space_group_name_H-M "P -1"
_symmetry_group_IT_number 2
_symmetry_cell_setting 'triclinic'
loop_
_space_group_symop_operation_xyz
x,y,z
-x,-y,-z
loop_
_atom_site_type_symbol
_atom_site_label
_atom_site_fract_x
_atom_site_fract_y
_atom_site_fract_z
Si Si1 0.777080 0.051800 0.025490
Si Si2 0.324229 0.142313 0.265984
Si Si3 0.234642 0.300803 0.539239
Si Si4 0.595822 0.382636 0.129113
Si Si5 0.098670 0.492604 0.146398
Si Si6 0.485585 0.000122 0.323208
Si Si7 0.028517 0.746738 0.126697
Si Si8 0.267554 0.448038 0.373578
O O1 0.737112 0.046425 0.209267
O O2 0.971183 0.185548 0.983359
O O3 0.500000 0.000000 0.000000
O O4 0.825984 0.966714 0.884707
O O5 0.192584 0.179476 0.421866
O O6 0.502560 0.260350 0.177966
O O7 0.431502 0.092353 0.324795
O O8 0.114265 0.339611 0.472750
O O9 0.524397 0.418676 0.521702
O O10 0.175802 0.296249 0.725447
O O11 0.410455 0.410922 0.221279
O O12 0.868568 0.491389 0.193826
O O13 0.661354 0.395493 0.940735
O O14 0.134837 0.472411 0.297575
O O15 0.000426 0.367316 0.004822
O O16 0.500000 0.000000 0.500000
O O17 0.273452 0.858433 0.228256
#
# Coordination Sequence:
#
# PCOD9097534 Si02
#       8
#     2   2   2   2   2   2   2   2
#     4   8  17  35  59  80 114 157 199 262 311 369
#     4   9  19  39  58  83 123 165 205 259 313 372
#     4  10  21  38  59  87 129 174 202 270 314 368
#     4  10  20  36  63  88 123 163 218 258 307 381
#     4  11  21  37  64  92 120 172 218 262 313 384
#     4  10  21  39  63  91 121 157 201 270 329 372
#     4  10  20  36  61  86 121 164 213 255 313 377
#     4  10  22  41  58  89 137 170 210 260 326 362
#
# _framework density 24.299344000000001
#
# number of rings (size 3 to 8) (size 9 to 14) (size 15 to 20)
#    0.000    2.500    1.250    2.625    0.000    4.000 
#    6.750    5.625    0.000   13.500    0.000    0.000 
#    0.000    0.000    0.000    0.000    0.000    0.000 
#
# Total GULP energy -89266.133058 kJ/mol
# GULP energy per Si atom -5579.133316 kJ/mol
# Density = 2.424404 g / cm^3
# Si number density = 24.299344 Si / 1000 Ang^3
#
#
#
# Elastic Constant Matrix: (Units=GPa)
#
#
# Indices 1 2 3 4 5 6 
#
# 1 39.3003 8.9272 12.9738 4.2565 14.7977 -14.9506
# 2 8.9272 101.7386 33.5248 -10.1915 6.6738 -16.7152
# 3 12.9738 33.5248 141.3214 -14.0084 4.5029 -10.4199
# 4 4.2565 -10.1915 -14.0084 45.2211 -1.7956 2.1827
# 5 14.7977 6.6738 4.5029 -1.7956 40.5289 -6.6014
# 6 -14.9506 -16.7152 -10.4199 2.1827 -6.6014 23.0700
#
#
#
# Elastic Compliance Matrix: (Units=1/GPa)
#
#
# Indices 1 2 3 4 5 6 
#
# 1 0.039307 0.001225 -0.002446 -0.005707 -0.010838 0.022694
# 2 0.001225 0.011975 -0.002182 0.001484 -0.000789 0.008118
# 3 -0.002446 -0.002182 0.008053 0.002234 0.000523 0.000409
# 4 -0.005707 0.001484 0.002234 0.023919 0.002118 -0.003271
# 5 -0.010838 -0.000789 0.000523 0.002118 0.028913 0.000714
# 6 0.022694 0.008118 0.000409 -0.003271 0.000714 0.064634
#
#
# Mechanical properties :
#
#
# Convention : Reuss Voigt Hill
#
# Bulk Modulus (GPa) = 19.03764 43.69022 31.36393
# Shear Modulus (GPa) = 24.86104 36.89295 30.87700
#
# Velocity S-wave (km/s) = 3.20209 3.90073 3.56854
# Velocity P-wave (km/s) = 4.63927 6.18923 5.46943
#
# Compressibility (1/GPa) = 0.05252752
#
# Stress axis : x y z
#
# Youngs Moduli (GPa) = 25.44099 83.50733 124.17255
#
# Poissons Ratio (x) = -0.10228 0.30375
# Poissons Ratio (y) = -0.03116 0.27099
# Poissons Ratio (z) = 0.06223 0.18224
#
# Static dielectric constant tensor:
#      x y z
#    x 2.069590 -0.001330 0.024780 
#    y -0.001330 2.021150 -0.044880 
#    z 0.024780 -0.044880 1.985050 
# 
# From -- ./inp_files/202978.got.cif
#   From: 2010.05.17/outbox.cif.g08.bks.cpg/sg2_102_cif.got.tgz:202978.got - 2010.06.03 11:33:40.
