data_PCOD9097194
_publ_section_title
;
Structure prediction by ZEFSAII (Michael W. Deem and Ramdas Pophale) SiO2 
 PCOD9097194
Probable space group: P -1
;
_chemical_formula_sum "Si O2"
_cell_formula_units_Z 16
_cell_length_a 10.380136
_cell_length_b 15.752683
_cell_length_c 8.070426
_cell_angle_alpha 75.270490
_cell_angle_beta 110.692318
_cell_angle_gamma 144.342629
_cell_volume 718.333516
_symmetry_space_group_name_H-M "P -1"
_symmetry_group_IT_number 2
_symmetry_cell_setting 'triclinic'
loop_
_space_group_symop_operation_xyz
x,y,z
-x,-y,-z
loop_
_atom_site_type_symbol
_atom_site_label
_atom_site_fract_x
_atom_site_fract_y
_atom_site_fract_z
Si Si1 0.418697 0.844244 0.189334
Si Si2 0.405747 0.569062 0.065497
Si Si3 0.210133 0.810576 0.791465
Si Si4 0.587389 0.145331 0.461548
Si Si5 0.884726 0.055915 0.772524
Si Si6 0.275927 0.121576 0.896728
Si Si7 0.198256 0.378902 0.763336
Si Si8 0.725973 0.555174 0.593646
O O1 0.585879 0.852513 0.200087
O O2 0.594192 0.015824 0.200482
O O3 0.243188 0.776417 0.995640
O O4 0.776832 0.552355 0.093804
O O5 0.543139 0.725426 0.999237
O O6 0.591016 0.583986 0.151843
O O7 0.318409 0.534557 0.231766
O O8 0.266149 0.776045 0.678130
O O9 0.958031 0.720405 0.684685
O O10 0.349936 0.075456 0.365203
O O11 0.690021 0.223745 0.645786
O O12 0.500000 0.000000 0.500000
O O13 0.831581 0.004374 0.965141
O O14 0.075257 0.086586 0.775590
O O15 0.980376 0.203550 0.737874
O O16 0.223451 0.446047 0.571657
O O17 0.500000 0.500000 0.500000
#
# Coordination Sequence:
#
# PCOD9097194 Si02
#       8
#     2   2   2   2   2   2   2   2
#     4  10  21  37  62  91 123 167 199 259 321 367
#     4   9  20  36  57  85 123 160 198 248 305 373
#     4  10  21  37  60  92 121 155 219 259 301 371
#     4  10  20  36  59  92 122 157 208 265 303 362
#     4  10  20  37  63  93 129 161 205 265 309 370
#     4  10  21  39  59  95 134 163 198 257 329 372
#     4   9  18  36  60  85 116 162 206 247 302 356
#     4  10  21  38  61  90 119 157 212 262 296 364
#
# _framework density 22.273778
#
# number of rings (size 3 to 8) (size 9 to 14) (size 15 to 20)
#    0.000    2.250    1.250    1.500    1.750    1.500 
#    4.500    0.625    0.000    1.500    0.000    0.000 
#    0.000    0.000    0.000    0.000    0.000    0.000 
#
# Total GULP energy -89236.365429 kJ/mol
# GULP energy per Si atom -5577.272839 kJ/mol
# Density = 2.222308 g / cm^3
# Si number density = 22.273778 Si / 1000 Ang^3
#
#
#
# Elastic Constant Matrix: (Units=GPa)
#
#
# Indices 1 2 3 4 5 6 
#
# 1 95.3606 20.0834 61.5998 1.4932 -17.7002 9.9586
# 2 20.0834 53.4308 39.1121 0.0135 -8.0553 19.5517
# 3 61.5998 39.1121 143.6733 17.8600 -22.6095 18.9210
# 4 1.4932 0.0135 17.8600 28.5211 12.1396 8.2827
# 5 -17.7002 -8.0553 -22.6095 12.1396 32.2096 3.2019
# 6 9.9586 19.5517 18.9210 8.2827 3.2019 13.0455
#
#
#
# Elastic Compliance Matrix: (Units=1/GPa)
#
#
# Indices 1 2 3 4 5 6 
#
# 1 0.015737 0.004556 -0.005785 0.004809 0.005388 -0.014827
# 2 0.004556 0.067689 -0.006245 0.032143 0.014855 -0.119922
# 3 -0.005785 -0.006245 0.014648 -0.012798 0.010557 -0.001934
# 4 0.004809 0.032143 -0.012798 0.072196 -0.018089 -0.074681
# 5 0.005388 0.014855 0.010557 -0.018089 0.056328 -0.044029
# 6 -0.014827 -0.119922 -0.001934 -0.074681 -0.044029 0.328733
#
#
# Mechanical properties :
#
#
# Convention : Reuss Voigt Hill
#
# Bulk Modulus (GPa) = 12.02996 59.33949 35.68472
# Shear Modulus (GPa) = 8.36140 26.19987 17.28063
#
# Velocity S-wave (km/s) = 1.93961 3.43339 2.78839
# Velocity P-wave (km/s) = 3.22936 6.51279 5.14029
#
# Compressibility (1/GPa) = 0.08312581
#
# Stress axis : x y z
#
# Youngs Moduli (GPa) = 63.54467 14.77348 68.27074
#
# Poissons Ratio (x) = -0.06731 0.39492
# Poissons Ratio (y) = -0.28952 0.42637
# Poissons Ratio (z) = 0.36758 0.09227
#
# Static dielectric constant tensor:
#      x y z
#    x 1.833800 0.053770 0.006840 
#    y 0.053770 1.832630 -0.007060 
#    z 0.006840 -0.007060 1.849060 
# 
# From -- ./inp_files/435711.got.cif
#   From: 2010.05.17/outbox.cif.g08.bks.cpg/sg2_218_cif.got.tgz:435711.got - 2010.06.03 11:33:40.
