data_PCOD9097648
_publ_section_title
;
Structure prediction by ZEFSAII (Michael W. Deem and Ramdas Pophale) SiO2 
 PCOD9097648
Probable space group: P -1
;
_chemical_formula_sum "Si O2"
_cell_formula_units_Z 14
_cell_length_a 20.048396
_cell_length_b 9.912920
_cell_length_c 5.095617
_cell_angle_alpha 100.434901
_cell_angle_beta 97.788024
_cell_angle_gamma 33.696167
_cell_volume 552.325129
_symmetry_space_group_name_H-M "P -1"
_symmetry_group_IT_number 2
_symmetry_cell_setting 'triclinic'
loop_
_space_group_symop_operation_xyz
x,y,z
-x,-y,-z
loop_
_atom_site_type_symbol
_atom_site_label
_atom_site_fract_x
_atom_site_fract_y
_atom_site_fract_z
Si Si1 0.928269 0.480581 0.467374
Si Si2 0.596199 0.237901 0.099430
Si Si3 0.473740 0.799925 0.429645
Si Si4 0.261861 0.745544 0.694644
Si Si5 0.709604 0.708988 0.291444
Si Si6 0.893507 0.047113 0.817752
Si Si7 0.840505 0.420970 0.757044
O O1 0.000000 0.500000 0.500000
O O2 0.792957 0.707418 0.359176
O O3 0.910686 0.443303 0.734896
O O4 0.999190 0.240859 0.266428
O O5 0.546249 0.269786 0.361280
O O6 0.708492 0.146026 0.180687
O O7 0.500000 0.500000 0.000000
O O8 0.605323 0.103271 0.837837
O O9 0.611791 0.550087 0.332582
O O10 0.423079 0.025339 0.606019
O O11 0.206612 0.829162 0.406361
O O12 0.168654 0.854727 0.901158
O O13 0.772475 0.511768 0.478331
O O14 0.738133 0.604810 0.986417
O O15 0.921681 0.155758 0.786630
#
# Coordination Sequence:
#
# PCOD9097648 Si02
#       7
#     2   2   2   2   2   2   2
#     4  10  27  45  71 100 130 168 227 278 341 386
#     4  10  20  36  61  91 136 180 218 265 329 385
#     4  11  21  41  63  98 140 174 221 274 333 386
#     4  11  24  37  65  99 132 179 225 263 329 397
#     4  10  24  42  71  93 134 175 221 269 336 387
#     4  12  25  44  68  98 137 175 222 277 321 404
#     4  10  24  46  67  97 131 182 222 263 343 385
#
# _framework density 25.347387999999999
#
# number of rings (size 3 to 8) (size 9 to 14) (size 15 to 20)
#    0.857    0.571    0.000    6.429    6.000    1.143 
#    0.000    4.286    0.000    0.000    0.000    0.000 
#    0.000    0.000    0.000    0.000    0.000    0.000 
#
# Total GULP energy -78329.521650 kJ/mol
# GULP energy per Si atom -5594.965832 kJ/mol
# Density = 2.528970 g / cm^3
# Si number density = 25.347388 Si / 1000 Ang^3
#
#
#
# Elastic Constant Matrix: (Units=GPa)
#
#
# Indices 1 2 3 4 5 6 
#
# 1 125.9560 19.9310 31.3860 1.8710 -14.6958 5.6603
# 2 19.9310 107.4325 33.5705 22.5877 -21.9323 -0.7085
# 3 31.3860 33.5705 155.0837 22.0751 -19.9994 -5.5342
# 4 1.8710 22.5877 22.0751 46.5297 -7.5071 -6.2712
# 5 -14.6958 -21.9323 -19.9994 -7.5071 40.1641 -4.2948
# 6 5.6603 -0.7085 -5.5342 -6.2712 -4.2948 36.8286
#
#
#
# Elastic Compliance Matrix: (Units=1/GPa)
#
#
# Indices 1 2 3 4 5 6 
#
# 1 0.008732 -0.000965 -0.001484 0.000982 0.001986 -0.001185
# 2 -0.000965 0.011706 -0.001116 -0.004360 0.004669 0.000008
# 3 -0.001484 -0.001116 0.007692 -0.002508 0.002338 0.001208
# 4 0.000982 -0.004360 -0.002508 0.025607 0.001941 0.003975
# 5 0.001986 0.004669 0.002338 0.001941 0.030127 0.003980
# 6 -0.001185 0.000008 0.001208 0.003975 0.003980 0.028658
#
#
# Mechanical properties :
#
#
# Convention : Reuss Voigt Hill
#
# Bulk Modulus (GPa) = 47.61969 62.02746 54.82357
# Shear Modulus (GPa) = 39.47839 44.94347 42.21093
#
# Velocity S-wave (km/s) = 3.95079 4.21539 4.08523
# Velocity P-wave (km/s) = 6.29597 6.94383 6.62782
#
# Compressibility (1/GPa) = 0.02099972
#
# Stress axis : x y z
#
# Youngs Moduli (GPa) = 114.51850 85.42751 130.01164
#
# Poissons Ratio (x) = 0.08245 0.19298
# Poissons Ratio (y) = 0.11052 0.14503
# Poissons Ratio (z) = 0.16998 0.09530
#
# Static dielectric constant tensor:
#      x y z
#    x 2.063540 0.034630 0.085200 
#    y 0.034630 2.041880 -0.012040 
#    z 0.085200 -0.012040 1.985890 
# 
# From -- ./inp_files/116243.got.cif
#   From: 2010.05.17/outbox.cif.g08.bks.cpg/sg2_59_cif.got.tgz:116243.got - 2010.06.03 11:33:40.
