data_PCOD9097955
_publ_section_title
;
Structure prediction by ZEFSAII (Michael W. Deem and Ramdas Pophale) SiO2 
 PCOD9097955
Probable space group: P -1
;
_chemical_formula_sum "Si O2"
_cell_formula_units_Z 16
_cell_length_a 8.346769
_cell_length_b 19.529913
_cell_length_c 7.434922
_cell_angle_alpha 92.272082
_cell_angle_beta 119.277614
_cell_angle_gamma 132.995778
_cell_volume 627.162747
_symmetry_space_group_name_H-M "P -1"
_symmetry_group_IT_number 2
_symmetry_cell_setting 'triclinic'
loop_
_space_group_symop_operation_xyz
x,y,z
-x,-y,-z
loop_
_atom_site_type_symbol
_atom_site_label
_atom_site_fract_x
_atom_site_fract_y
_atom_site_fract_z
Si Si1 0.615883 0.146551 0.136680
Si Si2 0.806347 0.645498 0.304986
Si Si3 0.696228 0.470693 0.698696
Si Si4 0.369549 0.694653 0.206124
Si Si5 0.451081 0.258472 0.070499
Si Si6 0.870025 0.037305 0.885805
Si Si7 0.665514 0.920967 0.396444
Si Si8 0.409047 0.557672 0.760444
O O1 0.545819 0.207399 0.129596
O O2 0.374381 0.026455 0.097786
O O3 0.938260 0.238411 0.427735
O O4 0.554723 0.118794 0.888726
O O5 0.492825 0.562051 0.236797
O O6 0.835610 0.571675 0.315204
O O7 0.722975 0.643177 0.058495
O O8 0.688283 0.385869 0.703794
O O9 0.548021 0.444117 0.425383
O O10 0.039840 0.603951 0.916216
O O11 0.502136 0.803459 0.372913
O O12 0.602945 0.747912 0.174581
O O13 0.674864 0.388079 0.253761
O O14 0.154778 0.173748 0.029414
O O15 0.718624 0.986008 0.600082
O O16 0.000000 0.000000 0.000000
O O17 0.000000 0.000000 0.500000
#
# Coordination Sequence:
#
# PCOD9097955 Si02
#       8
#     2   2   2   2   2   2   2   2
#     4  10  23  38  66  96 124 164 208 260 307 370
#     4  11  25  45  59  93 134 161 208 258 310 378
#     4  11  24  42  64  91 128 164 210 253 310 376
#     4  10  22  39  65  99 121 158 213 263 299 370
#     4  10  20  41  62  95 123 158 212 260 295 367
#     4  10  20  36  62  95 124 156 209 260 302 363
#     4  11  19  36  64  93 127 161 202 260 317 350
#     4  11  24  40  67  86 128 174 197 253 321 362
#
# _framework density 25.51172
#
# number of rings (size 3 to 8) (size 9 to 14) (size 15 to 20)
#    0.000    1.500    5.000    1.875    3.500    5.000 
#    0.000    0.625    0.000    3.750    0.000    0.000 
#    0.000    0.000    0.000    0.000    0.000    0.000 
#
# Total GULP energy -89465.495480 kJ/mol
# GULP energy per Si atom -5591.593467 kJ/mol
# Density = 2.545365 g / cm^3
# Si number density = 25.511720 Si / 1000 Ang^3
#
#
#
# Elastic Constant Matrix: (Units=GPa)
#
#
# Indices 1 2 3 4 5 6 
#
# 1 34.8105 4.5911 3.3017 -11.1639 -3.7841 -10.4611
# 2 4.5911 107.8034 33.9651 2.4178 14.9903 2.0813
# 3 3.3017 33.9651 150.3985 -20.7849 -9.0844 5.0370
# 4 -11.1639 2.4178 -20.7849 38.2831 10.1190 -8.0443
# 5 -3.7841 14.9903 -9.0844 10.1190 21.8571 -0.4320
# 6 -10.4611 2.0813 5.0370 -8.0443 -0.4320 29.3778
#
#
#
# Elastic Compliance Matrix: (Units=1/GPa)
#
#
# Indices 1 2 3 4 5 6 
#
# 1 0.040021 -0.003335 0.001625 0.015908 0.002894 0.018607
# 2 -0.003335 0.011843 -0.003304 -0.001435 -0.009448 -0.001992
# 3 0.001625 -0.003304 0.008159 0.004181 0.004015 0.000617
# 4 0.015908 -0.001435 0.004181 0.039768 -0.012623 0.015753
# 5 0.002894 -0.009448 0.004015 -0.012623 0.060214 -0.001560
# 6 0.018607 -0.001992 0.000617 0.015753 -0.001560 0.044991
#
#
# Mechanical properties :
#
#
# Convention : Reuss Voigt Hill
#
# Bulk Modulus (GPa) = 20.00166 41.85869 30.93017
# Shear Modulus (GPa) = 21.58058 34.64722 28.11390
#
# Velocity S-wave (km/s) = 2.91161 3.68923 3.32324
# Velocity P-wave (km/s) = 4.37727 5.88136 5.18415
#
# Compressibility (1/GPa) = 0.04999585
#
# Stress axis : x y z
#
# Youngs Moduli (GPa) = 24.98685 84.43463 122.56335
#
# Poissons Ratio (x) = 0.28157 -0.19912
# Poissons Ratio (y) = 0.08332 0.40492
# Poissons Ratio (z) = -0.04060 0.27895
#
# Static dielectric constant tensor:
#      x y z
#    x 2.118240 -0.073740 0.066180 
#    y -0.073740 1.995810 -0.017440 
#    z 0.066180 -0.017440 2.004770 
# 
# From -- ./inp_files/284823.got.cif
#   From: 2010.05.17/outbox.cif.g08.bks.cpg/sg2_143_cif.got.tgz:284823.got - 2010.06.03 11:33:40.
