data_PCOD9097711
_publ_section_title
;
Structure prediction by ZEFSAII (Michael W. Deem and Ramdas Pophale) SiO2 
 PCOD9097711
Probable space group: P -1
;
_chemical_formula_sum "Si O2"
_cell_formula_units_Z 16
_cell_length_a 15.234325
_cell_length_b 10.574876
_cell_length_c 7.740741
_cell_angle_alpha 40.709604
_cell_angle_beta 54.706674
_cell_angle_gamma 57.366458
_cell_volume 651.731020
_symmetry_space_group_name_H-M "P -1"
_symmetry_group_IT_number 2
_symmetry_cell_setting 'triclinic'
loop_
_space_group_symop_operation_xyz
x,y,z
-x,-y,-z
loop_
_atom_site_type_symbol
_atom_site_label
_atom_site_fract_x
_atom_site_fract_y
_atom_site_fract_z
Si Si1 0.298820 0.529313 0.283274
Si Si2 0.709037 0.561726 0.997340
Si Si3 0.882175 0.018918 0.285505
Si Si4 0.603167 0.347624 0.612688
Si Si5 0.044204 0.558543 0.204336
Si Si6 0.325148 0.064144 0.206253
Si Si7 0.820773 0.747796 0.113856
Si Si8 0.889799 0.107998 0.802277
O O1 0.324635 0.529358 0.051456
O O2 0.379952 0.594875 0.266024
O O3 0.259197 0.323370 0.580413
O O4 0.190325 0.690713 0.280131
O O5 0.837285 0.579942 0.815074
O O6 0.630643 0.778777 0.883733
O O7 0.698569 0.414240 0.319298
O O8 0.764956 0.017417 0.495078
O O9 0.917075 0.230144 0.051034
O O10 0.886537 0.984977 0.110927
O O11 0.986705 0.870818 0.399387
O O12 0.500000 0.500000 0.500000
O O13 0.606669 0.119126 0.788653
O O14 0.000000 0.500000 0.500000
O O15 0.939581 0.604731 0.145629
O O16 0.257015 0.228536 0.986502
O O17 0.844500 0.969904 0.863155
#
# Coordination Sequence:
#
# PCOD9097711 Si02
#       8
#     2   2   2   2   2   2   2   2
#     4  12  23  46  72 101 143 183 232 285 351 422
#     4  12  26  45  74 107 143 188 232 284 349 417
#     4  10  21  35  61  99 146 191 229 272 331 413
#     4  12  29  54  75  98 133 181 243 311 364 412
#     4  11  21  38  65 105 154 193 227 266 333 423
#     4  12  25  44  66 104 141 179 238 296 345 415
#     4  11  23  36  65 103 143 189 218 274 336 411
#     4  10  20  36  61  96 143 190 227 265 334 409
#
# _framework density 24.550007000000001
#
# number of rings (size 3 to 8) (size 9 to 14) (size 15 to 20)
#    0.000    0.750    6.250    0.750    5.250    4.500 
#    0.000    0.625    0.000    0.000    0.000    0.000 
#    0.000    0.000    0.000    0.000    0.000    0.000 
#
# Total GULP energy -89285.375188 kJ/mol
# GULP energy per Si atom -5580.335949 kJ/mol
# Density = 2.449413 g / cm^3
# Si number density = 24.550007 Si / 1000 Ang^3
#
#
#
# Elastic Constant Matrix: (Units=GPa)
#
#
# Indices 1 2 3 4 5 6 
#
# 1 64.6035 41.4880 -17.4278 -18.1688 13.8597 7.0437
# 2 41.4880 136.5424 3.0361 -20.9552 -1.8205 4.6402
# 3 -17.4278 3.0361 52.4927 -8.1565 3.4422 3.0096
# 4 -18.1688 -20.9552 -8.1565 29.9545 3.6741 -8.5511
# 5 13.8597 -1.8205 3.4422 3.6741 26.8324 -3.9188
# 6 7.0437 4.6402 3.0096 -8.5511 -3.9188 32.5416
#
#
#
# Elastic Compliance Matrix: (Units=1/GPa)
#
#
# Indices 1 2 3 4 5 6 
#
# 1 0.040900 -0.009102 0.020347 0.025760 -0.028777 -0.006133
# 2 -0.009102 0.010245 -0.004071 0.000270 0.006129 0.001695
# 3 0.020347 -0.004071 0.030358 0.018854 -0.017820 -0.003823
# 4 0.025760 0.000270 0.018854 0.058658 -0.022965 0.005290
# 5 -0.028777 0.006129 -0.017820 -0.022965 0.059161 0.008093
# 6 -0.006133 0.001695 -0.003823 0.005290 0.008093 0.034534
#
#
# Mechanical properties :
#
#
# Convention : Reuss Voigt Hill
#
# Bulk Modulus (GPa) = 10.43294 34.20346 22.31820
# Shear Modulus (GPa) = 19.88393 32.96851 26.42622
#
# Velocity S-wave (km/s) = 2.84902 3.66855 3.28445
# Velocity P-wave (km/s) = 3.88349 5.64861 4.84707
#
# Compressibility (1/GPa) = 0.09585028
#
# Stress axis : x y z
#
# Youngs Moduli (GPa) = 24.45010 97.60545 32.94000
#
# Poissons Ratio (x) = 0.88836 -0.67022
# Poissons Ratio (y) = 0.22253 0.13411
# Poissons Ratio (z) = -0.49748 0.39740
#
# Static dielectric constant tensor:
#      x y z
#    x 2.072410 0.050250 -0.016130 
#    y 0.050250 2.063530 -0.022650 
#    z -0.016130 -0.022650 1.968440 
# 
# From -- ./inp_files/306139.got.cif
#   From: 2010.05.17/outbox.cif.g08.bks.cpg/sg2_154_cif.got.tgz:306139.got - 2010.06.03 11:33:40.
