data_PCOD9097517
_publ_section_title
;
Structure prediction by ZEFSAII (Michael W. Deem and Ramdas Pophale) SiO2 
 PCOD9097517
Probable space group: P -1
;
_chemical_formula_sum "Si O2"
_cell_formula_units_Z 16
_cell_length_a 14.107450
_cell_length_b 18.441420
_cell_length_c 8.024523
_cell_angle_alpha 70.970879
_cell_angle_beta 98.368836
_cell_angle_gamma 160.765349
_cell_volume 554.902484
_symmetry_space_group_name_H-M "P -1"
_symmetry_group_IT_number 2
_symmetry_cell_setting 'triclinic'
loop_
_space_group_symop_operation_xyz
x,y,z
-x,-y,-z
loop_
_atom_site_type_symbol
_atom_site_label
_atom_site_fract_x
_atom_site_fract_y
_atom_site_fract_z
Si Si1 0.675989 0.664677 0.667912
Si Si2 0.181997 0.732621 0.883543
Si Si3 0.387800 0.312502 0.048165
Si Si4 0.192820 0.645494 0.659763
Si Si5 0.888733 0.545717 0.434813
Si Si6 0.855947 0.678923 0.461116
Si Si7 0.866386 0.162138 0.028177
Si Si8 0.416137 0.179253 0.991682
O O1 0.813010 0.826833 0.725461
O O2 0.879273 0.749674 0.577946
O O3 0.479878 0.555710 0.551894
O O4 0.392579 0.396984 0.893406
O O5 0.370904 0.830152 0.715772
O O6 0.304034 0.910159 0.832513
O O7 0.800412 0.457986 0.931106
O O8 0.118445 0.631230 0.105728
O O9 0.758654 0.572541 0.015455
O O10 0.315198 0.190080 0.988861
O O11 0.073496 0.620316 0.525415
O O12 0.342996 0.686641 0.572191
O O13 0.078943 0.743227 0.194203
O O14 0.815994 0.556453 0.544705
O O15 0.174264 0.951328 0.233528
O O16 0.672052 0.934572 0.113075
#
# Coordination Sequence:
#
# PCOD9097517 Si02
#       8
#     2   2   2   2   2   2   2   2
#     4  10  21  38  60  84 115 158 193 231 288 337
#     4   9  19  35  60  85 114 150 193 234 283 343
#     4  10  20  37  62  81 112 155 196 235 278 334
#     4   9  18  34  58  88 109 153 194 227 287 354
#     4   9  17  33  59  78 117 150 182 234 289 333
#     4  10  21  38  57  84 121 153 187 239 289 336
#     4   9  18  37  55  81 118 150 182 238 285 329
#     4  10  20  36  61  84 119 149 188 241 288 329
#
# _framework density 28.833894999999998
#
# number of rings (size 3 to 8) (size 9 to 14) (size 15 to 20)
#    0.000    2.500    2.500    0.000    3.500    1.000 
#    0.000   12.500   11.000    0.000    0.000    0.000 
#    0.000    0.000    0.000    0.000    0.000    0.000 
#
# Total GULP energy -89468.307540 kJ/mol
# GULP energy per Si atom -5591.769221 kJ/mol
# Density = 2.876827 g / cm^3
# Si number density = 28.833895 Si / 1000 Ang^3
#
#
#
# Elastic Constant Matrix: (Units=GPa)
#
#
# Indices 1 2 3 4 5 6 
#
# 1 221.5690 69.1480 34.0943 11.9198 -5.4278 -69.1895
# 2 69.1480 125.5341 22.2080 3.6581 -11.4902 -30.1656
# 3 34.0943 22.2080 66.6592 5.6434 0.1266 6.1900
# 4 11.9198 3.6581 5.6434 30.9979 -15.0394 -7.6587
# 5 -5.4278 -11.4902 0.1266 -15.0394 57.1362 15.1303
# 6 -69.1895 -30.1656 6.1900 -7.6587 15.1303 67.1562
#
#
#
# Elastic Compliance Matrix: (Units=1/GPa)
#
#
# Indices 1 2 3 4 5 6 
#
# 1 0.008523 -0.002007 -0.004391 -0.001163 -0.002179 0.008643
# 2 -0.002007 0.010295 -0.002775 0.001477 0.001579 0.002625
# 3 -0.004391 -0.002775 0.019195 -0.003345 0.000212 -0.007969
# 4 -0.001163 0.001477 -0.003345 0.038367 0.009778 0.001946
# 5 -0.002179 0.001579 0.000212 0.009778 0.021591 -0.005304
# 6 0.008643 0.002625 -0.007969 0.001946 -0.005304 0.027126
#
#
# Mechanical properties :
#
#
# Convention : Reuss Voigt Hill
#
# Bulk Modulus (GPa) = 50.84604 73.85143 62.34873
# Shear Modulus (GPa) = 33.33396 50.27886 41.80641
#
# Velocity S-wave (km/s) = 3.40379 4.18034 3.81189
# Velocity P-wave (km/s) = 5.75501 6.99776 6.40659
#
# Compressibility (1/GPa) = 0.01966721
#
# Stress axis : x y z
#
# Youngs Moduli (GPa) = 117.32483 97.13812 52.09762
#
# Poissons Ratio (x) = 0.19494 0.22875
# Poissons Ratio (y) = 0.23545 0.14458
# Poissons Ratio (z) = 0.51516 0.26957
#
# Static dielectric constant tensor:
#      x y z
#    x 2.239210 -0.064960 -0.111150 
#    y -0.064960 2.337280 0.031430 
#    z -0.111150 0.031430 2.321780 
# 
# From -- ./inp_files/337207.got.cif
#   From: 2010.05.17/outbox.cif.g08.bks.cpg/sg2_169_cif.got.tgz:337207.got - 2010.06.03 11:33:40.
