data_PCOD9097887
_publ_section_title
;
Structure prediction by ZEFSAII (Michael W. Deem and Ramdas Pophale) SiO2 
 PCOD9097887
Probable space group: P -1
;
_chemical_formula_sum "Si O2"
_cell_formula_units_Z 15
_cell_length_a 8.658182
_cell_length_b 26.231182
_cell_length_c 4.906069
_cell_angle_alpha 96.973014
_cell_angle_beta 95.765266
_cell_angle_gamma 27.433802
_cell_volume 509.493985
_symmetry_space_group_name_H-M "P -1"
_symmetry_group_IT_number 2
_symmetry_cell_setting 'triclinic'
loop_
_space_group_symop_operation_xyz
x,y,z
-x,-y,-z
loop_
_atom_site_type_symbol
_atom_site_label
_atom_site_fract_x
_atom_site_fract_y
_atom_site_fract_z
Si Si1 0.755951 0.394323 0.672722
Si Si2 0.678000 0.145568 0.782051
Si Si3 0.390934 0.663929 0.642683
Si Si4 0.436329 0.877960 0.753152
Si Si5 0.000000 0.500000 0.500000
Si Si6 0.570670 0.930548 0.155711
Si Si7 0.067572 0.845918 0.547339
Si Si8 0.168282 0.527467 0.012384
O O1 0.500000 0.500000 0.500000
O O2 0.820154 0.324075 0.461653
O O3 0.538434 0.434983 0.909902
O O4 0.971770 0.378427 0.821302
O O5 0.482546 0.162917 0.562779
O O6 0.710366 0.188078 0.648256
O O7 0.564263 0.172316 0.088751
O O8 0.063092 0.011391 0.771063
O O9 0.606146 0.621554 0.396073
O O10 0.214912 0.767532 0.767911
O O11 0.745989 0.538401 0.767579
O O12 0.642119 0.860336 0.941143
O O13 0.029805 0.437356 0.252500
O O14 0.861097 0.861814 0.364583
O O15 0.219154 0.030553 0.320882
O O16 0.500000 0.000000 0.000000
#
# Coordination Sequence:
#
# PCOD9097887 Si02
#       8
#     2   2   2   2   1   2   2   2
#     4   8  16  33  60  86 113 159 199 242 305 377
#     4  10  20  37  64  93 120 176 219 272 326 396
#     4  10  21  38  61  92 123 159 204 261 317 380
#     4  10  20  38  65  88 125 173 229 263 331 383
#     4  10  20  36  62  92 118 158 198 262 312 378
#     4  11  23  39  61  91 126 171 211 266 313 389
#     4  11  24  39  60  94 128 162 216 265 327 377
#     4   9  17  34  61  89 118 157 201 246 315 379
#
# _framework density 29.440973
#
# number of rings (size 3 to 8) (size 9 to 14) (size 15 to 20)
#    0.000    2.133    1.333    2.800    1.867    2.133 
#    0.000    1.333   17.600    0.000    0.000    0.000 
#    0.000    0.000    0.000    0.000    0.000    0.000 
#
# Total GULP energy -83708.895386 kJ/mol
# GULP energy per Si atom -5580.593026 kJ/mol
# Density = 2.937396 g / cm^3
# Si number density = 29.440973 Si / 1000 Ang^3
#
#
#
# Elastic Constant Matrix: (Units=GPa)
#
#
# Indices 1 2 3 4 5 6 
#
# 1 178.1846 47.1431 57.3373 -6.5506 23.1801 23.1947
# 2 47.1431 97.6763 28.2011 -3.2792 2.4302 29.0257
# 3 57.3373 28.2011 172.3903 0.1139 21.8630 13.8512
# 4 -6.5506 -3.2792 0.1139 40.8731 8.2695 3.7325
# 5 23.1801 2.4302 21.8630 8.2695 72.4938 -10.7150
# 6 23.1947 29.0257 13.8512 3.7325 -10.7150 52.9936
#
#
#
# Elastic Compliance Matrix: (Units=1/GPa)
#
#
# Indices 1 2 3 4 5 6 
#
# 1 0.007389 -0.002365 -0.001612 0.001655 -0.002296 -0.002099
# 2 -0.002365 0.013586 -0.000854 0.001408 -0.000547 -0.006393
# 3 -0.001612 -0.000854 0.006759 0.000071 -0.001640 -0.000930
# 4 0.001655 0.001408 0.000071 0.026076 -0.004193 -0.004199
# 5 -0.002296 -0.000547 -0.001640 -0.004193 0.016307 0.005326
# 6 -0.002099 -0.006393 -0.000930 -0.004199 0.005326 0.024906
#
#
# Mechanical properties :
#
#
# Convention : Reuss Voigt Hill
#
# Bulk Modulus (GPa) = 55.32901 79.29046 67.30973
# Shear Modulus (GPa) = 45.16309 54.31010 49.73660
#
# Velocity S-wave (km/s) = 3.92091 4.29967 4.11465
# Velocity P-wave (km/s) = 6.27152 7.18610 6.74433
#
# Compressibility (1/GPa) = 0.01807370
#
# Stress axis : x y z
#
# Youngs Moduli (GPa) = 135.33103 73.60265 147.94352
#
# Poissons Ratio (x) = 0.17404 0.23850
# Poissons Ratio (y) = 0.32001 0.12633
# Poissons Ratio (z) = 0.21817 0.06285
#
# Static dielectric constant tensor:
#      x y z
#    x 2.672470 0.015830 -0.337510 
#    y 0.015830 2.624180 0.063960 
#    z -0.337510 0.063960 2.618190 
# 
# From -- ./inp_files/56215.got.cif
#   From: 2010.05.17/outbox.cif.g08.bks.cpg/sg2_29_cif.got.tgz:56215.got - 2010.06.03 11:33:40.
