data_PCOD9097527
_publ_section_title
;
Structure prediction by ZEFSAII (Michael W. Deem and Ramdas Pophale) SiO2 
 PCOD9097527
Probable space group: P -1
;
_chemical_formula_sum "Si O2"
_cell_formula_units_Z 16
_cell_length_a 9.155743
_cell_length_b 15.053579
_cell_length_c 10.726121
_cell_angle_alpha 40.280511
_cell_angle_beta 81.378758
_cell_angle_gamma 70.343829
_cell_volume 886.166149
_symmetry_space_group_name_H-M "P -1"
_symmetry_group_IT_number 2
_symmetry_cell_setting 'triclinic'
loop_
_space_group_symop_operation_xyz
x,y,z
-x,-y,-z
loop_
_atom_site_type_symbol
_atom_site_label
_atom_site_fract_x
_atom_site_fract_y
_atom_site_fract_z
Si Si1 0.756496 0.545377 0.900091
Si Si2 0.715669 0.296135 0.011054
Si Si3 0.434781 0.666155 0.284115
Si Si4 0.302489 0.240185 0.950571
Si Si5 0.912773 0.451495 0.244356
Si Si6 0.478146 0.158049 0.278348
Si Si7 0.895064 0.197889 0.695798
Si Si8 0.035870 0.133819 0.014210
O O1 0.631770 0.706331 0.769766
O O2 0.309727 0.559185 0.059763
O O3 0.911106 0.556800 0.801172
O O4 0.817550 0.469779 0.107050
O O5 0.899695 0.220854 0.035243
O O6 0.641038 0.187799 0.204067
O O7 0.626729 0.334026 0.849310
O O8 0.500000 0.500000 0.500000
O O9 0.287298 0.756592 0.290048
O O10 0.569921 0.737368 0.183865
O O11 0.201633 0.146276 0.014899
O O12 0.391422 0.175562 0.136775
O O13 0.178705 0.401773 0.824072
O O14 0.914072 0.312260 0.471909
O O15 0.500000 0.000000 0.500000
O O16 0.956040 0.033121 0.814230
O O17 0.985397 0.199755 0.811878
#
# Coordination Sequence:
#
# PCOD9097527 Si02
#       8
#     2   2   2   2   2   2   2   2
#     4  10  21  38  59  85 114 150 192 232 278 335
#     4  10  21  39  61  82 114 151 190 235 278 339
#     4  10  20  37  60  84 114 147 190 234 284 333
#     4  10  20  39  60  83 115 148 189 238 278 337
#     4  10  20  36  61  86 112 147 194 235 275 331
#     4  10  23  39  56  85 120 150 184 233 288 335
#     4  10  22  38  59  85 116 150 187 238 283 335
#     4  10  22  39  59  86 115 147 191 236 287 329
#
# _framework density 18.055305000000001
#
# number of rings (size 3 to 8) (size 9 to 14) (size 15 to 20)
#    0.000    2.000    2.500    0.375    1.750    3.000 
#    2.250    1.250    0.000    0.000    0.000    0.000 
#    0.000    0.000    0.000    0.000    0.000    0.000 
#
# Total GULP energy -89324.329864 kJ/mol
# GULP energy per Si atom -5582.770616 kJ/mol
# Density = 1.801421 g / cm^3
# Si number density = 18.055305 Si / 1000 Ang^3
#
#
#
# Elastic Constant Matrix: (Units=GPa)
#
#
# Indices 1 2 3 4 5 6 
#
# 1 89.9768 24.2319 29.2250 2.6519 -19.4808 0.0317
# 2 24.2319 64.1151 39.2442 -1.6270 -10.5258 -1.7170
# 3 29.2250 39.2442 140.1275 -1.1573 -21.6156 -6.3248
# 4 2.6519 -1.6270 -1.1573 16.1764 -7.5380 -5.0183
# 5 -19.4808 -10.5258 -21.6156 -7.5380 17.9974 -5.2594
# 6 0.0317 -1.7170 -6.3248 -5.0183 -5.2594 16.7192
#
#
#
# Elastic Compliance Matrix: (Units=1/GPa)
#
#
# Indices 1 2 3 4 5 6 
#
# 1 0.017535 -0.001950 0.003157 0.018654 0.034537 0.017424
# 2 -0.001950 0.020931 -0.002672 0.011968 0.014666 0.009348
# 3 0.003157 -0.002672 0.013955 0.024004 0.035499 0.023371
# 4 0.018654 0.011968 0.024004 0.171307 0.160560 0.112200
# 5 0.034537 0.014666 0.035499 0.160560 0.253105 0.142682
# 6 0.017424 0.009348 0.023371 0.112200 0.142682 0.148140
#
#
# Mechanical properties :
#
#
# Convention : Reuss Voigt Hill
#
# Bulk Modulus (GPa) = 20.20525 53.29127 36.74826
# Shear Modulus (GPa) = 7.75913 23.61314 15.68614
#
# Velocity S-wave (km/s) = 2.07527 3.62031 2.95071
# Velocity P-wave (km/s) = 4.11794 6.85968 5.65741
#
# Compressibility (1/GPa) = 0.04949208
#
# Stress axis : x y z
#
# Youngs Moduli (GPa) = 57.02757 47.77536 71.65683
#
# Poissons Ratio (x) = 0.09315 -0.22622
# Poissons Ratio (y) = 0.11119 0.19149
# Poissons Ratio (z) = -0.18004 0.12767
#
# Static dielectric constant tensor:
#      x y z
#    x 1.614200 -0.012960 0.007970 
#    y -0.012960 1.616430 0.009010 
#    z 0.007970 0.009010 1.580100 
# 
# From -- ./inp_files/401654.got.cif
#   From: 2010.05.17/outbox.cif.g08.bks.cpg/sg2_201_cif.got.tgz:401654.got - 2010.06.03 11:33:40.
