data_PCOD9097131
_publ_section_title
;
Structure prediction by ZEFSAII (Michael W. Deem and Ramdas Pophale) SiO2 
 PCOD9097131
Probable space group: P -1
;
_chemical_formula_sum "Si O2"
_cell_formula_units_Z 16
_cell_length_a 14.278753
_cell_length_b 8.003667
_cell_length_c 9.767999
_cell_angle_alpha 78.412466
_cell_angle_beta 114.372657
_cell_angle_gamma 135.957244
_cell_volume 698.760628
_symmetry_space_group_name_H-M "P -1"
_symmetry_group_IT_number 2
_symmetry_cell_setting 'triclinic'
loop_
_space_group_symop_operation_xyz
x,y,z
-x,-y,-z
loop_
_atom_site_type_symbol
_atom_site_label
_atom_site_fract_x
_atom_site_fract_y
_atom_site_fract_z
Si Si1 0.525308 0.535328 0.846852
Si Si2 0.919938 0.017596 0.643171
Si Si3 0.604621 0.487021 0.497245
Si Si4 0.872816 0.327093 0.709611
Si Si5 0.619916 0.945230 0.150882
Si Si6 0.914261 0.106062 0.306694
Si Si7 0.665449 0.032828 0.859548
Si Si8 0.415342 0.959417 0.599679
O O1 0.411573 0.488257 0.678428
O O2 0.661075 0.823246 0.868366
O O3 0.526356 0.334885 0.852351
O O4 0.500000 0.500000 0.000000
O O5 0.767399 0.729905 0.602036
O O6 0.039859 0.008612 0.731148
O O7 0.914564 0.183712 0.705636
O O8 0.938124 0.102076 0.483443
O O9 0.500000 0.500000 0.500000
O O10 0.529691 0.228990 0.555783
O O11 0.995631 0.615911 0.719354
O O12 0.730100 0.215487 0.552229
O O13 0.814546 0.264890 0.840728
O O14 0.653105 0.082944 0.285391
O O15 0.746055 0.953058 0.209426
O O16 0.628374 0.040993 0.992208
O O17 0.527056 0.942092 0.708643
#
# Coordination Sequence:
#
# PCOD9097131 Si02
#       8
#     2   2   2   2   2   2   2   2
#     4  10  20  36  59  88 122 159 201 255 316 372
#     4  11  23  39  66  94 127 165 212 270 319 371
#     4  12  18  37  64  90 121 160 204 265 320 364
#     4  12  23  41  64  99 126 164 216 270 309 381
#     4  11  23  45  61  89 133 174 205 261 322 389
#     4  11  24  41  65  92 129 173 217 253 318 384
#     4  11  25  39  64  96 130 162 211 269 330 376
#     4  12  23  38  67  97 127 161 214 269 327 378
#
# _framework density 22.897683000000001
#
# number of rings (size 3 to 8) (size 9 to 14) (size 15 to 20)
#    0.000    0.750    6.250    1.875    1.750    0.500 
#    0.000    0.625    0.000    0.000    0.000    0.000 
#    0.000    0.000    0.000    0.000    0.000    0.000 
#
# Total GULP energy -89087.618907 kJ/mol
# GULP energy per Si atom -5567.976182 kJ/mol
# Density = 2.284557 g / cm^3
# Si number density = 22.897683 Si / 1000 Ang^3
#
#
#
# Elastic Constant Matrix: (Units=GPa)
#
#
# Indices 1 2 3 4 5 6 
#
# 1 102.6158 2.8773 35.7360 -0.7754 0.3480 3.4571
# 2 2.8773 104.0888 32.0592 -31.7292 0.7783 1.4555
# 3 35.7360 32.0592 95.8677 -21.0693 -17.9102 -13.7518
# 4 -0.7754 -31.7292 -21.0693 27.0398 -1.2178 -3.7783
# 5 0.3480 0.7783 -17.9102 -1.2178 26.2126 -5.6641
# 6 3.4571 1.4555 -13.7518 -3.7783 -5.6641 22.0496
#
#
#
# Elastic Compliance Matrix: (Units=1/GPa)
#
#
# Indices 1 2 3 4 5 6 
#
# 1 0.014745 0.000155 -0.012973 -0.012311 -0.013068 -0.015879
# 2 0.000155 0.015140 -0.001381 0.016798 -0.000424 0.000884
# 3 -0.012973 -0.001381 0.034117 0.031283 0.033026 0.037248
# 4 -0.012311 0.016798 0.031283 0.088488 0.034749 0.044421
# 5 -0.013068 -0.000424 0.033026 0.034749 0.072740 0.047314
# 6 -0.015879 0.000884 0.037248 0.044421 0.047314 0.090780
#
#
# Mechanical properties :
#
#
# Convention : Reuss Voigt Hill
#
# Bulk Modulus (GPa) = 28.08731 49.32413 38.70572
# Shear Modulus (GPa) = 14.03408 30.52038 22.27723
#
# Velocity S-wave (km/s) = 2.47838 3.65485 3.12252
# Velocity P-wave (km/s) = 4.52580 6.27682 5.47181
#
# Compressibility (1/GPa) = 0.03560327
#
# Stress axis : x y z
#
# Youngs Moduli (GPa) = 67.82021 66.05196 29.31083
#
# Poissons Ratio (x) = -0.01024 0.38025
# Poissons Ratio (y) = -0.01052 0.04048
# Poissons Ratio (z) = 0.87983 0.09123
#
# Static dielectric constant tensor:
#      x y z
#    x 1.944300 -0.093350 -0.013780 
#    y -0.093350 1.912710 -0.014650 
#    z -0.013780 -0.014650 1.908300 
# 
# From -- ./inp_files/297963.got.cif
#   From: 2010.05.17/outbox.cif.g08.bks.cpg/sg2_149_cif.got.tgz:297963.got - 2010.06.03 11:33:40.
