data_PCOD9097617
_publ_section_title
;
Structure prediction by ZEFSAII (Michael W. Deem and Ramdas Pophale) SiO2 
 PCOD9097617
Probable space group: P -1
;
_chemical_formula_sum "Si O2"
_cell_formula_units_Z 12
_cell_length_a 12.907697
_cell_length_b 5.164458
_cell_length_c 8.694181
_cell_angle_alpha 108.108424
_cell_angle_beta 121.092776
_cell_angle_gamma 58.597456
_cell_volume 422.914855
_symmetry_space_group_name_H-M "P -1"
_symmetry_group_IT_number 2
_symmetry_cell_setting 'triclinic'
loop_
_space_group_symop_operation_xyz
x,y,z
-x,-y,-z
loop_
_atom_site_type_symbol
_atom_site_label
_atom_site_fract_x
_atom_site_fract_y
_atom_site_fract_z
Si Si1 0.650981 0.578258 0.287141
Si Si2 0.581563 0.651023 0.939055
Si Si3 0.495437 0.199241 0.389737
Si Si4 0.913928 0.825417 0.207921
Si Si5 0.154533 0.965138 0.473662
Si Si6 0.893450 0.864419 0.863567
O O1 0.752342 0.373874 0.454788
O O2 0.376378 0.317485 0.194570
O O3 0.617620 0.930032 0.343268
O O4 0.690239 0.489257 0.123991
O O5 0.482378 0.486180 0.817842
O O6 0.500000 0.000000 0.000000
O O7 0.500000 0.500000 0.500000
O O8 0.500000 0.000000 0.500000
O O9 0.001224 0.013543 0.335995
O O10 0.023987 0.484216 0.189626
O O11 0.852641 0.846708 0.337788
O O12 0.832201 0.900858 0.996304
O O13 0.193922 0.990507 0.330038
O O14 0.000000 0.000000 0.000000
#
# Coordination Sequence:
#
# PCOD9097617 Si02
#       6
#     2   2   2   2   2   2
#     4  10  21  39  61  91 121 168 212 265 309 388
#     4   9  20  39  61  81 125 163 204 261 317 367
#     4  11  21  40  66  90 122 163 208 261 325 374
#     4   9  19  37  59  86 126 163 199 250 311 367
#     4  10  20  36  61  90 119 160 210 248 316 367
#     4   9  18  35  58  81 122 163 197 253 302 367
#
# _framework density 28.374504000000002
#
# number of rings (size 3 to 8) (size 9 to 14) (size 15 to 20)
#    0.000    2.333    1.667    0.500    0.000    2.667 
#    3.000    3.333    0.000    0.000    0.000    0.000 
#    0.000    0.000    0.000    0.000    0.000    0.000 
#
# Total GULP energy -66924.579189 kJ/mol
# GULP energy per Si atom -5577.048266 kJ/mol
# Density = 2.830992 g / cm^3
# Si number density = 28.374504 Si / 1000 Ang^3
#
#
#
# Elastic Constant Matrix: (Units=GPa)
#
#
# Indices 1 2 3 4 5 6 
#
# 1 74.8775 31.1029 83.8786 9.6885 12.5717 6.3094
# 2 31.1029 163.9694 73.6922 23.5428 -30.8069 10.3702
# 3 83.8786 73.6922 350.7812 -30.0177 -70.6252 21.2383
# 4 9.6885 23.5428 -30.0177 70.1839 10.2180 -8.8915
# 5 12.5717 -30.8069 -70.6252 10.2180 60.5700 14.9154
# 6 6.3094 10.3702 21.2383 -8.8915 14.9154 36.3940
#
#
#
# Elastic Compliance Matrix: (Units=1/GPa)
#
#
# Indices 1 2 3 4 5 6 
#
# 1 0.039250 -0.007608 -0.016171 -0.002321 -0.035061 0.018602
# 2 -0.007608 0.009963 0.002406 -0.004210 0.012386 -0.009029
# 3 -0.016171 0.002406 0.011220 0.001679 0.020431 -0.012392
# 4 -0.002321 -0.004210 0.001679 0.018226 -0.004477 0.006910
# 5 -0.035061 0.012386 0.020431 -0.004477 0.063667 -0.036560
# 6 0.018602 -0.009029 -0.012392 0.006910 -0.036560 0.050728
#
#
# Mechanical properties :
#
#
# Convention : Reuss Voigt Hill
#
# Bulk Modulus (GPa) = 56.53958 107.44171 81.99064
# Shear Modulus (GPa) = 20.68715 60.15988 40.42352
#
# Velocity S-wave (km/s) = 2.70307 4.60957 3.77854
# Velocity P-wave (km/s) = 5.45083 8.14117 6.92785
#
# Compressibility (1/GPa) = 0.01768673
#
# Stress axis : x y z
#
# Youngs Moduli (GPa) = 25.47761 100.37318 89.12960
#
# Poissons Ratio (x) = 0.76364 1.44134
# Poissons Ratio (y) = 0.19383 -0.21447
# Poissons Ratio (z) = 0.41200 -0.24153
#
# Static dielectric constant tensor:
#      x y z
#    x 2.453400 -0.022520 -0.137340 
#    y -0.022520 2.194230 -0.014870 
#    z -0.137340 -0.014870 2.275470 
# 
# From -- ./inp_files/221051.got.cif
#   From: 2010.05.17/outbox.cif.g08.bks.cpg/sg2_111_cif.got.tgz:221051.got - 2010.06.03 11:33:40.
