data_PCOD9097686
_publ_section_title
;
Structure prediction by ZEFSAII (Michael W. Deem and Ramdas Pophale) SiO2 
 PCOD9097686
Probable space group: P -1
;
_chemical_formula_sum "Si O2"
_cell_formula_units_Z 16
_cell_length_a 13.869106
_cell_length_b 13.020907
_cell_length_c 18.195188
_cell_angle_alpha 42.081221
_cell_angle_beta 148.090458
_cell_angle_gamma 158.162249
_cell_volume 628.313709
_symmetry_space_group_name_H-M "P -1"
_symmetry_group_IT_number 2
_symmetry_cell_setting 'triclinic'
loop_
_space_group_symop_operation_xyz
x,y,z
-x,-y,-z
loop_
_atom_site_type_symbol
_atom_site_label
_atom_site_fract_x
_atom_site_fract_y
_atom_site_fract_z
Si Si1 0.278733 0.518738 0.034696
Si Si2 0.479959 0.537129 0.575415
Si Si3 0.457763 0.969450 0.118666
Si Si4 0.040811 0.808214 0.136954
Si Si5 0.869851 0.579817 0.454972
Si Si6 0.510967 0.154851 0.639993
Si Si7 0.733402 0.462744 0.260041
Si Si8 0.757467 0.908978 0.262406
O O1 0.937748 0.279799 0.989632
O O2 0.209011 0.358330 0.005765
O O3 0.359084 0.743135 0.934169
O O4 0.585297 0.707254 0.187864
O O5 0.421216 0.592161 0.583289
O O6 0.275755 0.237041 0.615477
O O7 0.372857 0.587031 0.418935
O O8 0.867857 0.776501 0.682708
O O9 0.535551 0.899407 0.144615
O O10 0.578584 0.980213 0.267709
O O11 0.871621 0.681509 0.174319
O O12 0.211781 0.762110 0.258428
O O13 0.357765 0.145976 0.161214
O O14 0.759421 0.522885 0.330230
O O15 0.179550 0.906217 0.507374
O O16 0.025383 0.518801 0.597434
#
# Coordination Sequence:
#
# PCOD9097686 Si02
#       8
#     2   2   2   2   2   2   2   2
#     4  11  22  43  67  87 121 154 209 267 298 336
#     4  12  24  40  59  88 133 166 193 241 301 386
#     4  11  24  41  67  90 118 155 211 268 290 345
#     4  10  20  36  61  94 114 151 196 267 299 342
#     4  10  21  38  58  90 126 161 191 247 299 368
#     4  10  22  38  62  90 128 160 194 245 319 349
#     4  10  21  33  64  92 119 148 208 242 305 355
#     4  12  26  41  62  90 119 172 207 238 303 364
#
# _framework density 25.464987000000001
#
# number of rings (size 3 to 8) (size 9 to 14) (size 15 to 20)
#    0.000    1.250    2.500    4.500    3.500    2.500 
#    0.000    0.000    0.000    4.500    0.000    0.000 
#    0.000    0.000    0.000    0.000    0.000    0.000 
#
# Total GULP energy -89670.271363 kJ/mol
# GULP energy per Si atom -5604.391960 kJ/mol
# Density = 2.540703 g / cm^3
# Si number density = 25.464987 Si / 1000 Ang^3
#
#
#
# Elastic Constant Matrix: (Units=GPa)
#
#
# Indices 1 2 3 4 5 6 
#
# 1 113.8777 32.2298 26.6665 6.1280 -11.5724 11.7765
# 2 32.2298 113.3838 33.1885 -1.3589 -0.9196 20.4990
# 3 26.6665 33.1885 93.6344 2.7450 -21.7132 -6.8525
# 4 6.1280 -1.3589 2.7450 40.3344 -7.5962 3.8085
# 5 -11.5724 -0.9196 -21.7132 -7.5962 37.7429 0.8491
# 6 11.7765 20.4990 -6.8525 3.8085 0.8491 40.0356
#
#
#
# Elastic Compliance Matrix: (Units=1/GPa)
#
#
# Indices 1 2 3 4 5 6 
#
# 1 0.010260 -0.001920 -0.001958 -0.000925 0.001839 -0.002321
# 2 -0.001920 0.011923 -0.004806 0.001119 -0.002694 -0.006412
# 3 -0.001958 -0.004806 0.015171 0.000076 0.007903 0.005458
# 4 -0.000925 0.001119 0.000076 0.026204 0.005126 -0.002889
# 5 0.001839 -0.002694 0.007903 0.005126 0.032548 0.001013
# 6 -0.002321 -0.006412 0.005458 -0.002889 0.001013 0.030131
#
#
# Mechanical properties :
#
#
# Convention : Reuss Voigt Hill
#
# Bulk Modulus (GPa) = 50.03459 56.11839 53.07649
# Shear Modulus (GPa) = 33.27430 38.87664 36.07547
#
# Velocity S-wave (km/s) = 3.61871 3.91150 3.76795
# Velocity P-wave (km/s) = 6.09517 6.51806 6.31016
#
# Compressibility (1/GPa) = 0.01998618
#
# Stress axis : x y z
#
# Youngs Moduli (GPa) = 97.46757 83.87256 65.91675
#
# Poissons Ratio (x) = 0.16102 0.12905
# Poissons Ratio (y) = 0.18713 0.31679
# Poissons Ratio (z) = 0.19082 0.40308
#
# Static dielectric constant tensor:
#      x y z
#    x 2.002970 -0.011760 0.028930 
#    y -0.011760 1.935300 -0.028290 
#    z 0.028930 -0.028290 2.074470 
# 
# From -- ./inp_files/573963.got.cif
#   From: 2010.05.17/outbox.cif.g08.bks.cpg/sg2_287_cif.got.tgz:573963.got - 2010.06.03 11:33:40.
