data_PCOD9097252
_publ_section_title
;
Structure prediction by ZEFSAII (Michael W. Deem and Ramdas Pophale) SiO2 
 PCOD9097252
Probable space group: P -1
;
_chemical_formula_sum "Si O2"
_cell_formula_units_Z 10
_cell_length_a 9.224802
_cell_length_b 12.251845
_cell_length_c 9.615887
_cell_angle_alpha 37.611773
_cell_angle_beta 136.085762
_cell_angle_gamma 125.320433
_cell_volume 459.966310
_symmetry_space_group_name_H-M "P -1"
_symmetry_group_IT_number 2
_symmetry_cell_setting 'triclinic'
loop_
_space_group_symop_operation_xyz
x,y,z
-x,-y,-z
loop_
_atom_site_type_symbol
_atom_site_label
_atom_site_fract_x
_atom_site_fract_y
_atom_site_fract_z
Si Si1 0.336287 0.326693 0.669078
Si Si2 0.345839 0.755552 0.580925
Si Si3 0.938252 0.566760 0.170691
Si Si4 0.239728 0.140844 0.064517
Si Si5 0.370079 0.371639 0.342248
O O1 0.351423 0.267748 0.579515
O O2 0.547951 0.429097 0.760790
O O3 0.161618 0.480281 0.397598
O O4 0.265348 0.180966 0.879219
O O5 0.214784 0.587061 0.715978
O O6 0.536351 0.798524 0.774749
O O7 0.459930 0.709378 0.562438
O O8 0.213335 0.933970 0.292748
O O9 0.923779 0.731400 0.100990
O O10 0.840973 0.621458 0.900313
#
# Coordination Sequence:
#
# PCOD9097252 Si02
#       5
#     2   2   2   2   2
#     4  11  21  35  60  83 110 146 185 220 276 329
#     4  10  20  37  61  79 112 147 181 227 275 316
#     4  11  20  39  59  81 110 146 182 230 268 321
#     4  10  20  36  60  84 108 144 189 223 269 329
#     4  10  21  38  56  82 114 147 176 227 279 321
#
# _framework density 21.740724
#
# number of rings (size 3 to 8) (size 9 to 14) (size 15 to 20)
#    0.000    1.600    4.000    2.400    0.000    1.600 
#    0.000    0.000    0.000    4.800    0.000    0.000 
#    0.000    0.000    0.000    0.000    0.000    0.000 
#
# Total GULP energy -55955.072171 kJ/mol
# GULP energy per Si atom -5595.507217 kJ/mol
# Density = 2.169124 g / cm^3
# Si number density = 21.740724 Si / 1000 Ang^3
#
#
#
# Elastic Constant Matrix: (Units=GPa)
#
#
# Indices 1 2 3 4 5 6 
#
# 1 76.1720 15.8449 29.5351 14.1933 -27.0070 -16.7663
# 2 15.8449 78.0243 30.3337 8.1444 -16.0807 -4.0670
# 3 29.5351 30.3337 62.4958 3.2601 -22.6829 -17.6151
# 4 14.1933 8.1444 3.2601 35.8612 -10.8894 -1.8200
# 5 -27.0070 -16.0807 -22.6829 -10.8894 38.0218 17.9018
# 6 -16.7663 -4.0670 -17.6151 -1.8200 17.9018 23.4229
#
#
#
# Elastic Compliance Matrix: (Units=1/GPa)
#
#
# Indices 1 2 3 4 5 6 
#
# 1 0.019584 0.000382 -0.005310 -0.004814 0.007734 0.003807
# 2 0.000382 0.016936 -0.008448 -0.002001 0.005268 -0.007321
# 3 -0.005310 -0.008448 0.027451 0.003413 0.004132 0.012484
# 4 -0.004814 -0.002001 0.003413 0.032698 0.010179 -0.006466
# 5 0.007734 0.005268 0.004132 0.010179 0.053940 -0.030877
# 6 0.003807 -0.007321 0.012484 -0.006466 -0.030877 0.076633
#
#
# Mechanical properties :
#
#
# Convention : Reuss Voigt Hill
#
# Bulk Modulus (GPa) = 26.86691 40.90218 33.88455
# Shear Modulus (GPa) = 18.76871 28.85973 23.81422
#
# Velocity S-wave (km/s) = 2.94138 3.64737 3.31323
# Velocity P-wave (km/s) = 4.89084 6.04915 5.50057
#
# Compressibility (1/GPa) = 0.03722050
#
# Stress axis : x y z
#
# Youngs Moduli (GPa) = 51.06089 59.04461 36.42818
#
# Poissons Ratio (x) = -0.02255 0.19343
# Poissons Ratio (y) = -0.01950 0.30774
# Poissons Ratio (z) = 0.27112 0.49881
#
# Static dielectric constant tensor:
#      x y z
#    x 1.764050 -0.001150 0.014220 
#    y -0.001150 1.797780 0.046260 
#    z 0.014220 0.046260 1.810960 
# 
# From -- ./inp_files/143968.got.cif
#   From: 2010.05.17/outbox.cif.g08.bks.cpg/sg2_72_cif.got.tgz:143968.got - 2010.06.03 11:33:40.
