data_PCOD9097238
_publ_section_title
;
Structure prediction by ZEFSAII (Michael W. Deem and Ramdas Pophale) SiO2 
 PCOD9097238
Probable space group: P -1
;
_chemical_formula_sum "Si O2"
_cell_formula_units_Z 16
_cell_length_a 5.135152
_cell_length_b 10.677895
_cell_length_c 13.333685
_cell_angle_alpha 76.703341
_cell_angle_beta 64.576039
_cell_angle_gamma 72.378352
_cell_volume 625.067970
_symmetry_space_group_name_H-M "P -1"
_symmetry_group_IT_number 2
_symmetry_cell_setting 'triclinic'
loop_
_space_group_symop_operation_xyz
x,y,z
-x,-y,-z
loop_
_atom_site_type_symbol
_atom_site_label
_atom_site_fract_x
_atom_site_fract_y
_atom_site_fract_z
Si Si1 0.647322 0.817727 0.515836
Si Si2 0.934319 0.964463 0.904145
Si Si3 0.371999 0.107262 0.721204
Si Si4 0.072410 0.351064 0.202376
Si Si5 0.049938 0.094242 0.358551
Si Si6 0.478790 0.486342 0.834715
Si Si7 0.492628 0.546171 0.605437
Si Si8 0.614183 0.791512 0.088984
O O1 0.713082 0.833372 0.385067
O O2 0.849431 0.863253 0.557258
O O3 0.653799 0.665651 0.562147
O O4 0.302136 0.892285 0.580612
O O5 0.657628 0.080062 0.894886
O O6 0.845140 0.826839 0.965014
O O7 0.211041 0.986453 0.790586
O O8 0.000000 0.000000 0.000000
O O9 0.284298 0.207722 0.811174
O O10 0.724220 0.045444 0.673580
O O11 0.128361 0.194344 0.242823
O O12 0.338379 0.423353 0.155303
O O13 0.853826 0.398665 0.324430
O O14 0.851527 0.422343 0.139201
O O15 0.595185 0.459666 0.704023
O O16 0.475129 0.342329 0.901836
O O17 0.500000 0.500000 0.500000
#
# Coordination Sequence:
#
# PCOD9097238 Si02
#       8
#     2   2   2   2   2   2   2   2
#     4  11  23  38  56  93 129 168 206 246 292 360
#     4   9  22  42  60  92 119 152 202 260 324 362
#     4  11  24  37  64  89 120 169 206 251 304 366
#     4   9  20  37  54  85 114 167 192 242 293 351
#     4  11  22  42  59  86 135 168 209 241 291 362
#     4  10  20  36  60  82 118 152 196 241 309 354
#     4   9  19  34  52  85 120 155 198 244 292 354
#     4  10  22  40  64  93 119 153 201 268 318 362
#
# _framework density 25.597216
#
# number of rings (size 3 to 8) (size 9 to 14) (size 15 to 20)
#    0.750    1.250    1.250    1.500    7.000    0.500 
#    0.000    0.000    0.000    1.500    0.000    0.000 
#    0.000    0.000    0.000    0.000    0.000    0.000 
#
# Total GULP energy -89458.121993 kJ/mol
# GULP energy per Si atom -5591.132625 kJ/mol
# Density = 2.553896 g / cm^3
# Si number density = 25.597216 Si / 1000 Ang^3
#
#
#
# Elastic Constant Matrix: (Units=GPa)
#
#
# Indices 1 2 3 4 5 6 
#
# 1 120.7823 1.7504 36.1461 -9.5981 0.8215 17.7032
# 2 1.7504 66.9862 26.0553 -29.4449 -9.4632 7.7656
# 3 36.1461 26.0553 154.4478 -13.6828 8.4069 15.2699
# 4 -9.5981 -29.4449 -13.6828 51.1864 10.6160 -7.3566
# 5 0.8215 -9.4632 8.4069 10.6160 32.2228 -6.1807
# 6 17.7032 7.7656 15.2699 -7.3566 -6.1807 23.2505
#
#
#
# Elastic Compliance Matrix: (Units=1/GPa)
#
#
# Indices 1 2 3 4 5 6 
#
# 1 0.009907 0.001781 -0.001740 0.001678 -0.001126 -0.006763
# 2 0.001781 0.021578 -0.003021 0.010982 0.003020 -0.002301
# 3 -0.001740 -0.003021 0.008002 0.000306 -0.003765 -0.003825
# 4 0.001678 0.010982 0.000306 0.027722 -0.005622 0.002130
# 5 -0.001126 0.003020 -0.003765 -0.005622 0.036763 0.010315
# 6 -0.006763 -0.002301 -0.003825 0.002130 0.010315 0.054856
#
#
# Mechanical properties :
#
#
# Convention : Reuss Voigt Hill
#
# Bulk Modulus (GPa) = 29.82827 52.23554 41.03190
# Shear Modulus (GPa) = 28.41505 39.88292 34.14899
#
# Velocity S-wave (km/s) = 3.33541 3.95155 3.65648
# Velocity P-wave (km/s) = 5.14893 6.42423 5.82161
#
# Compressibility (1/GPa) = 0.03352524
#
# Stress axis : x y z
#
# Youngs Moduli (GPa) = 100.94224 46.34437 124.97133
#
# Poissons Ratio (x) = -0.08253 0.21749
# Poissons Ratio (y) = -0.17976 0.37752
# Poissons Ratio (z) = 0.17567 0.14000
#
# Static dielectric constant tensor:
#      x y z
#    x 2.038400 0.064210 0.020470 
#    y 0.064210 2.095570 0.001700 
#    z 0.020470 0.001700 2.079860 
# 
# From -- ./inp_files/123784.got.cif
#   From: 2010.05.17/outbox.cif.g08.bks.cpg/sg2_62_cif.got.tgz:123784.got - 2010.06.03 11:33:40.
