data_PCOD9097713
_publ_section_title
;
Structure prediction by ZEFSAII (Michael W. Deem and Ramdas Pophale) SiO2 
 PCOD9097713
Probable space group: P -1
;
_chemical_formula_sum "Si O2"
_cell_formula_units_Z 15
_cell_length_a 17.177541
_cell_length_b 9.205875
_cell_length_c 11.874607
_cell_angle_alpha 42.513379
_cell_angle_beta 42.098828
_cell_angle_gamma 38.791355
_cell_volume 730.138971
_symmetry_space_group_name_H-M "P -1"
_symmetry_group_IT_number 2
_symmetry_cell_setting 'triclinic'
loop_
_space_group_symop_operation_xyz
x,y,z
-x,-y,-z
loop_
_atom_site_type_symbol
_atom_site_label
_atom_site_fract_x
_atom_site_fract_y
_atom_site_fract_z
Si Si1 0.167563 0.007376 0.861573
Si Si2 0.124610 0.725449 0.880839
Si Si3 0.065671 0.514062 0.536811
Si Si4 0.063459 0.302777 0.204543
Si Si5 0.500000 0.500000 0.000000
Si Si6 0.424262 0.987591 0.700692
Si Si7 0.238594 0.737890 0.281601
Si Si8 0.773245 0.460122 0.349131
O O1 0.188970 0.786277 0.882384
O O2 0.302635 0.941384 0.819446
O O3 0.127588 0.247355 0.687251
O O4 0.037032 0.083220 0.036960
O O5 0.192757 0.717765 0.693629
O O6 0.139258 0.454803 0.023999
O O7 0.173127 0.602908 0.359456
O O8 0.000000 0.500000 0.500000
O O9 0.959554 0.708294 0.631127
O O10 0.913201 0.457954 0.223508
O O11 0.138097 0.034564 0.221839
O O12 0.519492 0.742672 0.809208
O O13 0.619407 0.328439 0.881555
O O14 0.500000 0.000000 0.500000
O O15 0.350401 0.255343 0.689038
O O16 0.249949 0.647225 0.449855
#
# Coordination Sequence:
#
# PCOD9097713 Si02
#       8
#     2   2   2   2   1   2   2   2
#     4  10  22  38  61  94 134 161 208 261 325 389
#     4  10  21  36  61  97 124 163 195 265 334 370
#     4  10  20  36  61  97 131 165 198 266 334 374
#     4  10  21  37  59  98 130 158 213 263 316 384
#     4  12  26  38  70  90 122 176 214 266 306 374
#     4  12  23  46  65  91 131 170 227 259 307 389
#     4  11  23  40  61 100 124 165 221 258 312 383
#     4  11  20  39  64  91 128 166 211 266 319 375
#
# _framework density 20.544035000000001
#
# number of rings (size 3 to 8) (size 9 to 14) (size 15 to 20)
#    0.000    1.333    5.333    2.800    5.600    2.133 
#    0.000    0.667    0.000    4.000    0.000    0.000 
#    0.000    0.000    0.000    0.000    0.000    0.000 
#
# Total GULP energy -83532.328182 kJ/mol
# GULP energy per Si atom -5568.821879 kJ/mol
# Density = 2.049728 g / cm^3
# Si number density = 20.544035 Si / 1000 Ang^3
#
#
#
# Elastic Constant Matrix: (Units=GPa)
#
#
# Indices 1 2 3 4 5 6 
#
# 1 55.0706 17.6387 5.8912 16.0834 6.2654 27.6152
# 2 17.6387 112.0713 28.1002 3.7447 6.8142 15.2688
# 3 5.8912 28.1002 79.1737 5.2059 -3.5677 13.9464
# 4 16.0834 3.7447 5.2059 40.8639 -1.1040 7.1792
# 5 6.2654 6.8142 -3.5677 -1.1040 17.4968 5.0688
# 6 27.6152 15.2688 13.9464 7.1792 5.0688 21.6405
#
#
#
# Elastic Compliance Matrix: (Units=1/GPa)
#
#
# Indices 1 2 3 4 5 6 
#
# 1 0.060796 -0.001150 0.011068 -0.010869 0.003766 -0.081180
# 2 -0.001150 0.010556 -0.003277 0.000371 -0.003420 -0.003191
# 3 0.011068 -0.003277 0.017765 -0.001797 0.007926 -0.024521
# 4 -0.010869 0.000371 -0.001797 0.028261 0.003865 0.004486
# 5 0.003766 -0.003420 0.007926 0.003865 0.066021 -0.024247
# 6 -0.081180 -0.003191 -0.024521 0.004486 -0.024247 0.172047
#
#
# Mechanical properties :
#
#
# Convention : Reuss Voigt Hill
#
# Bulk Modulus (GPa) = 9.76563 38.84175 24.30369
# Shear Modulus (GPa) = 13.28741 28.97927 21.13334
#
# Velocity S-wave (km/s) = 2.54594 3.75986 3.21079
# Velocity P-wave (km/s) = 3.66145 6.14787 5.05977
#
# Compressibility (1/GPa) = 0.10239995
#
# Stress axis : x y z
#
# Youngs Moduli (GPa) = 16.44836 94.73432 56.29141
#
# Poissons Ratio (x) = 0.10890 -0.62306
# Poissons Ratio (y) = 0.01891 0.18449
# Poissons Ratio (z) = -0.18206 0.31048
#
# Static dielectric constant tensor:
#      x y z
#    x 1.769450 -0.033670 0.064170 
#    y -0.033670 1.763990 -0.015860 
#    z 0.064170 -0.015860 1.806220 
# 
# From -- ./inp_files/213844.got.cif
#   From: 2010.05.17/outbox.cif.g08.bks.cpg/sg2_107_cif.got.tgz:213844.got - 2010.06.03 11:33:40.
