data_PCOD9097875
_publ_section_title
;
Structure prediction by ZEFSAII (Michael W. Deem and Ramdas Pophale) SiO2 
 PCOD9097875
Probable space group: P -1
;
_chemical_formula_sum "Si O2"
_cell_formula_units_Z 14
_cell_length_a 19.555180
_cell_length_b 4.888304
_cell_length_c 6.991964
_cell_angle_alpha 73.226909
_cell_angle_beta 118.737849
_cell_angle_gamma 74.864500
_cell_volume 493.383600
_symmetry_space_group_name_H-M "P -1"
_symmetry_group_IT_number 2
_symmetry_cell_setting 'triclinic'
loop_
_space_group_symop_operation_xyz
x,y,z
-x,-y,-z
loop_
_atom_site_type_symbol
_atom_site_label
_atom_site_fract_x
_atom_site_fract_y
_atom_site_fract_z
Si Si1 0.924513 0.955897 0.796711
Si Si2 0.692905 0.371880 0.165580
Si Si3 0.933748 0.394748 0.198279
Si Si4 0.791904 0.786401 0.178040
Si Si5 0.783292 0.321851 0.799783
Si Si6 0.504453 0.702958 0.692833
Si Si7 0.599940 0.690222 0.370835
O O1 0.921393 0.665863 0.967878
O O2 0.829862 0.253870 0.666054
O O3 0.964734 0.868592 0.655134
O O4 0.000000 0.000000 0.000000
O O5 0.736790 0.594789 0.125948
O O6 0.606867 0.448010 0.907570
O O7 0.764305 0.000181 0.290756
O O8 0.648435 0.501062 0.282986
O O9 0.896551 0.552311 0.322487
O O10 0.861488 0.294032 0.048217
O O11 0.765193 0.037923 0.914140
O O12 0.687989 0.633690 0.617428
O O13 0.500000 0.000000 0.500000
O O14 0.462180 0.920509 0.786310
O O15 0.548256 0.489409 0.398573
#
# Coordination Sequence:
#
# PCOD9097875 Si02
#       7
#     2   2   2   2   2   2   2
#     4   8  16  30  56  93 121 152 194 258 299 345
#     4  12  24  42  61  87 125 164 201 247 306 363
#     4   9  17  33  59  92 120 155 201 253 297 347
#     4  11  21  38  63  87 120 159 209 246 293 356
#     4  10  20  36  62  91 122 155 208 252 299 355
#     4  12  25  44  65  90 119 157 210 253 300 354
#     4  12  26  41  63  91 125 160 197 251 309 359
#
# _framework density 28.375488000000001
#
# number of rings (size 3 to 8) (size 9 to 14) (size 15 to 20)
#    0.000    1.429    1.429    4.714    4.000    0.000 
#    0.000    0.000    0.000    1.714    0.000    0.000 
#    0.000    0.000    0.000    0.000    0.000    0.000 
#
# Total GULP energy -78349.975129 kJ/mol
# GULP energy per Si atom -5596.426795 kJ/mol
# Density = 2.831090 g / cm^3
# Si number density = 28.375488 Si / 1000 Ang^3
#
#
#
# Elastic Constant Matrix: (Units=GPa)
#
#
# Indices 1 2 3 4 5 6 
#
# 1 213.9416 73.5182 27.7963 -0.5193 16.0002 -13.4608
# 2 73.5182 177.6897 23.0982 4.4756 11.6294 -5.8052
# 3 27.7963 23.0982 59.8802 0.2250 18.1140 1.6489
# 4 -0.5193 4.4756 0.2250 48.5781 -10.7190 1.4224
# 5 16.0002 11.6294 18.1140 -10.7190 35.2633 4.1123
# 6 -13.4608 -5.8052 1.6489 1.4224 4.1123 79.9455
#
#
#
# Elastic Compliance Matrix: (Units=1/GPa)
#
#
# Indices 1 2 3 4 5 6 
#
# 1 0.005730 -0.002061 -0.001506 -0.000048 -0.001268 0.000912
# 2 -0.002061 0.006746 -0.001390 -0.000833 -0.000856 0.000230
# 3 -0.001506 -0.001390 0.021081 -0.002263 -0.010349 -0.000217
# 4 -0.000048 -0.000833 -0.002263 0.022554 0.008414 -0.000856
# 5 -0.001268 -0.000856 -0.010349 0.008414 0.037338 -0.002132
# 6 0.000912 0.000230 -0.000217 -0.000856 -0.002132 0.012808
#
#
# Mechanical properties :
#
#
# Convention : Reuss Voigt Hill
#
# Bulk Modulus (GPa) = 42.29755 77.81523 60.05639
# Shear Modulus (GPa) = 40.30573 54.56397 47.43485
#
# Velocity S-wave (km/s) = 3.77296 4.38988 4.09306
# Velocity P-wave (km/s) = 5.82401 7.29230 6.59912
#
# Compressibility (1/GPa) = 0.02364203
#
# Stress axis : x y z
#
# Youngs Moduli (GPa) = 174.51315 148.24301 47.43693
#
# Poissons Ratio (x) = 0.30554 0.07146
# Poissons Ratio (y) = 0.35968 0.06593
# Poissons Ratio (z) = 0.26289 0.20602
#
# Static dielectric constant tensor:
#      x y z
#    x 2.382990 -0.152800 -0.144460 
#    y -0.152800 2.325220 0.056850 
#    z -0.144460 0.056850 2.272970 
# 
# From -- ./inp_files/339675.got.cif
#   From: 2010.05.17/outbox.cif.g08.bks.cpg/sg2_170_cif.got.tgz:339675.got - 2010.06.03 11:33:40.
