data_PCOD9097490
_publ_section_title
;
Structure prediction by ZEFSAII (Michael W. Deem and Ramdas Pophale) SiO2 
 PCOD9097490
Probable space group: P -1
;
_chemical_formula_sum "Si O2"
_cell_formula_units_Z 16
_cell_length_a 13.231485
_cell_length_b 9.160778
_cell_length_c 10.571397
_cell_angle_alpha 119.033567
_cell_angle_beta 140.813248
_cell_angle_gamma 59.526672
_cell_volume 687.709573
_symmetry_space_group_name_H-M "P -1"
_symmetry_group_IT_number 2
_symmetry_cell_setting 'triclinic'
loop_
_space_group_symop_operation_xyz
x,y,z
-x,-y,-z
loop_
_atom_site_type_symbol
_atom_site_label
_atom_site_fract_x
_atom_site_fract_y
_atom_site_fract_z
Si Si1 0.490386 0.151206 0.454063
Si Si2 0.930907 0.397082 0.496972
Si Si3 0.814845 0.938214 0.003206
Si Si4 0.340173 0.520673 0.546419
Si Si5 0.700376 0.303313 0.037504
Si Si6 0.190518 0.835367 0.382997
Si Si7 0.438793 0.324645 0.995917
Si Si8 0.207892 0.090406 0.734033
O O1 0.466469 0.342129 0.567699
O O2 0.659920 0.113139 0.524195
O O3 0.500000 0.000000 0.500000
O O4 0.318749 0.163541 0.216296
O O5 0.802244 0.514879 0.515538
O O6 0.827361 0.292780 0.270664
O O7 0.000000 0.500000 0.500000
O O8 0.063416 0.262534 0.647934
O O9 0.779762 0.961320 0.129717
O O10 0.011958 0.867016 0.156265
O O11 0.763887 0.121337 0.957287
O O12 0.253943 0.633899 0.393711
O O13 0.431832 0.648963 0.762348
O O14 0.523139 0.312353 0.934145
O O15 0.689682 0.488590 0.044128
O O16 0.171840 0.950106 0.542116
O O17 0.366046 0.161608 0.878719
#
# Coordination Sequence:
#
# PCOD9097490 Si02
#       8
#     2   2   2   2   2   2   2   2
#     4  12  30  51  71  99 141 194 244 289 341 419
#     4  11  21  37  68 105 142 173 221 295 347 414
#     4  12  25  45  73 105 137 186 236 291 355 417
#     4  11  25  47  66  98 143 186 236 284 349 416
#     4  10  20  36  60  97 137 174 224 279 350 404
#     4  12  26  46  74 105 144 182 231 299 350 426
#     4  10  21  36  65  95 136 185 219 281 347 411
#     4  12  22  41  70 111 137 172 230 290 363 413
#
# _framework density 23.265636000000001
#
# number of rings (size 3 to 8) (size 9 to 14) (size 15 to 20)
#    0.000    0.750    3.750    4.500    1.750    2.500 
#    2.250    0.000    0.000    0.000    0.000    0.000 
#    0.000    0.000    0.000    0.000    0.000    0.000 
#
# Total GULP energy -89411.013398 kJ/mol
# GULP energy per Si atom -5588.188337 kJ/mol
# Density = 2.321268 g / cm^3
# Si number density = 23.265636 Si / 1000 Ang^3
#
#
#
# Elastic Constant Matrix: (Units=GPa)
#
#
# Indices 1 2 3 4 5 6 
#
# 1 99.0992 14.1928 28.0416 -0.4704 22.4146 14.9494
# 2 14.1928 93.8260 14.5664 -16.5195 11.5118 14.8855
# 3 28.0416 14.5664 103.8381 -6.9729 22.6698 1.2582
# 4 -0.4704 -16.5195 -6.9729 34.2806 0.8949 4.9405
# 5 22.4146 11.5118 22.6698 0.8949 29.5219 3.9416
# 6 14.9494 14.8855 1.2582 4.9405 3.9416 35.7738
#
#
#
# Elastic Compliance Matrix: (Units=1/GPa)
#
#
# Indices 1 2 3 4 5 6 
#
# 1 0.013089 0.000162 -0.001675 0.000806 -0.008112 -0.004696
# 2 0.000162 0.013549 -0.000384 0.007468 -0.004507 -0.006227
# 3 -0.001675 -0.000384 0.012030 0.002304 -0.008020 0.001002
# 4 0.000806 0.007468 0.002304 0.034499 -0.005310 -0.007705
# 5 -0.008112 -0.004507 -0.008020 -0.005310 0.047976 0.000995
# 6 -0.004696 -0.006227 0.001002 -0.007705 0.000995 0.033426
#
#
# Mechanical properties :
#
#
# Convention : Reuss Voigt Hill
#
# Bulk Modulus (GPa) = 28.67451 45.59610 37.13530
# Shear Modulus (GPa) = 29.41413 35.91275 32.66344
#
# Velocity S-wave (km/s) = 3.55952 3.93313 3.75098
# Velocity P-wave (km/s) = 5.40788 6.34559 5.89541
#
# Compressibility (1/GPa) = 0.03487418
#
# Stress axis : x y z
#
# Youngs Moduli (GPa) = 76.40191 73.80730 83.12479
#
# Poissons Ratio (x) = -0.01198 0.13927
# Poissons Ratio (y) = -0.01240 0.03188
# Poissons Ratio (z) = 0.12801 0.02831
#
# Static dielectric constant tensor:
#      x y z
#    x 1.916980 -0.017930 0.022910 
#    y -0.017930 1.913970 -0.008030 
#    z 0.022910 -0.008030 1.930320 
# 
# From -- ./inp_files/448093.got.cif
#   From: 2010.05.17/outbox.cif.g08.bks.cpg/sg2_225_cif.got.tgz:448093.got - 2010.06.03 11:33:40.
