data_PCOD9097426
_publ_section_title
;
Structure prediction by ZEFSAII (Michael W. Deem and Ramdas Pophale) SiO2 
 PCOD9097426
Probable space group: P -1
;
_chemical_formula_sum "Si O2"
_cell_formula_units_Z 16
_cell_length_a 8.947039
_cell_length_b 8.671181
_cell_length_c 10.838555
_cell_angle_alpha 105.616258
_cell_angle_beta 112.677493
_cell_angle_gamma 92.023934
_cell_volume 738.010620
_symmetry_space_group_name_H-M "P -1"
_symmetry_group_IT_number 2
_symmetry_cell_setting 'triclinic'
loop_
_space_group_symop_operation_xyz
x,y,z
-x,-y,-z
loop_
_atom_site_type_symbol
_atom_site_label
_atom_site_fract_x
_atom_site_fract_y
_atom_site_fract_z
Si Si1 0.398288 0.107959 0.630376
Si Si2 0.545894 0.376125 0.295421
Si Si3 0.897708 0.140294 0.468090
Si Si4 0.123117 0.523645 0.427519
Si Si5 0.519900 0.382318 0.869019
Si Si6 0.999154 0.185757 0.228630
Si Si7 0.640333 0.158188 0.053972
Si Si8 0.668089 0.901647 0.673519
O O1 0.369500 0.251254 0.743206
O O2 0.350474 0.150850 0.487103
O O3 0.288954 0.943960 0.602926
O O4 0.580632 0.061420 0.679949
O O5 0.692955 0.456394 0.450893
O O6 0.450279 0.505187 0.220186
O O7 0.624999 0.281391 0.189684
O O8 0.425814 0.240932 0.302566
O O9 0.907166 0.299093 0.589562
O O10 0.952951 0.180193 0.356442
O O11 0.000000 0.000000 0.500000
O O12 0.000000 0.500000 0.500000
O O13 0.077189 0.377361 0.284943
O O14 0.500000 0.500000 0.000000
O O15 0.620005 0.258429 0.944402
O O16 0.825339 0.122395 0.098381
O O17 0.141730 0.080365 0.227849
O O18 0.500000 0.000000 0.000000
#
# Coordination Sequence:
#
# PCOD9097426 Si02
#       8
#     2   2   2   2   2   2   2   2
#     4  11  22  41  61  96 140 163 213 263 330 401
#     4  11  21  41  63  93 129 166 212 260 339 383
#     4  11  20  35  59  92 130 163 210 261 317 377
#     4  10  20  36  60  91 128 159 201 277 318 373
#     4  10  24  39  66  91 118 175 228 263 302 377
#     4  11  22  38  62  94 126 168 219 260 329 383
#     4  11  22  43  67  88 123 170 226 273 304 371
#     4  11  23  39  64  98 136 172 197 267 353 393
#
# _framework density 21.679905000000002
#
# number of rings (size 3 to 8) (size 9 to 14) (size 15 to 20)
#    0.000    1.250    5.000    2.250    1.750    2.000 
#    0.000    3.125    0.000    0.000    0.000    0.000 
#    0.000    0.000    0.000    0.000    0.000    0.000 
#
# Total GULP energy -89088.023881 kJ/mol
# GULP energy per Si atom -5568.001493 kJ/mol
# Density = 2.163056 g / cm^3
# Si number density = 21.679905 Si / 1000 Ang^3
#
#
#
# Elastic Constant Matrix: (Units=GPa)
#
#
# Indices 1 2 3 4 5 6 
#
# 1 82.3559 11.9822 35.6918 -16.6070 24.0816 -0.6587
# 2 11.9822 98.5860 39.3725 -19.9805 12.9277 -1.3296
# 3 35.6918 39.3725 67.0696 -0.9393 21.4233 -5.9329
# 4 -16.6070 -19.9805 -0.9393 45.1125 -12.3432 -1.0449
# 5 24.0816 12.9277 21.4233 -12.3432 27.4304 -8.2089
# 6 -0.6587 -1.3296 -5.9329 -1.0449 -8.2089 28.8964
#
#
#
# Elastic Compliance Matrix: (Units=1/GPa)
#
#
# Indices 1 2 3 4 5 6 
#
# 1 0.020122 0.004144 -0.010187 0.006169 -0.010111 -0.004091
# 2 0.004144 0.016061 -0.012274 0.008966 0.002192 -0.000740
# 3 -0.010187 -0.012274 0.032655 -0.012968 -0.016376 0.000786
# 4 0.006169 0.008966 -0.012968 0.032685 0.016303 0.003704
# 5 -0.010111 0.002192 -0.016376 0.016303 0.069462 0.016830
# 6 -0.004091 -0.000740 0.000786 0.003704 0.016830 0.039556
#
#
# Mechanical properties :
#
#
# Convention : Reuss Voigt Hill
#
# Bulk Modulus (GPa) = 31.05106 46.90050 38.97578
# Shear Modulus (GPa) = 19.38668 31.01887 25.20278
#
# Velocity S-wave (km/s) = 2.99360 3.78665 3.41324
# Velocity P-wave (km/s) = 5.12859 6.38736 5.79227
#
# Compressibility (1/GPa) = 0.03220502
#
# Stress axis : x y z
#
# Youngs Moduli (GPa) = 49.69669 62.26143 30.62350
#
# Poissons Ratio (x) = -0.25799 0.31195
# Poissons Ratio (y) = -0.20592 0.37586
# Poissons Ratio (z) = 0.50624 0.76417
#
# Static dielectric constant tensor:
#      x y z
#    x 1.825460 -0.079600 0.090310 
#    y -0.079600 1.827510 0.115560 
#    z 0.090310 0.115560 1.737670 
# 
# From -- ./inp_files/379697.got.cif
#   From: 2010.05.17/outbox.cif.g08.bks.cpg/sg2_190_cif.got.tgz:379697.got - 2010.06.03 11:33:40.
