data_PCOD9097515
_publ_section_title
;
Structure prediction by ZEFSAII (Michael W. Deem and Ramdas Pophale) SiO2 
 PCOD9097515
Probable space group: P -1
;
_chemical_formula_sum "Si O2"
_cell_formula_units_Z 16
_cell_length_a 7.724163
_cell_length_b 11.063350
_cell_length_c 15.360444
_cell_angle_alpha 93.865639
_cell_angle_beta 59.779489
_cell_angle_gamma 134.805947
_cell_volume 710.915317
_symmetry_space_group_name_H-M "P -1"
_symmetry_group_IT_number 2
_symmetry_cell_setting 'triclinic'
loop_
_space_group_symop_operation_xyz
x,y,z
-x,-y,-z
loop_
_atom_site_type_symbol
_atom_site_label
_atom_site_fract_x
_atom_site_fract_y
_atom_site_fract_z
Si Si1 0.802176 0.528046 0.075090
Si Si2 0.279350 0.608908 0.366753
Si Si3 0.330166 0.114518 0.222362
Si Si4 0.117432 0.912236 0.077426
Si Si5 0.108269 0.733826 0.652144
Si Si6 0.049496 0.735322 0.858629
Si Si7 0.369499 0.117476 0.848689
Si Si8 0.299716 0.097854 0.580184
O O1 0.477123 0.318469 0.181838
O O2 0.007111 0.719728 0.089718
O O3 0.000000 0.500000 0.000000
O O4 0.781150 0.581289 0.989333
O O5 0.313227 0.716360 0.281277
O O6 0.579426 0.771686 0.359615
O O7 0.000000 0.500000 0.500000
O O8 0.185831 0.435645 0.344129
O O9 0.613674 0.165969 0.191108
O O10 0.231530 0.011540 0.147924
O O11 0.033376 0.991465 0.357658
O O12 0.805761 0.836810 0.116820
O O13 0.372499 0.069508 0.944327
O O14 0.987769 0.657314 0.775807
O O15 0.407854 0.785366 0.555389
O O16 0.225855 0.925559 0.619573
O O17 0.131654 0.914768 0.848868
#
# Coordination Sequence:
#
# PCOD9097515 Si02
#       8
#     2   2   2   2   2   2   2   2
#     4   9  22  38  54  86 119 151 193 223 285 352
#     4  10  20  36  61  84 112 148 193 243 286 339
#     4  11  22  38  61  84 123 154 191 238 285 353
#     4  10  21  38  60  84 117 155 188 245 283 333
#     4  10  21  37  62  82 115 152 189 248 291 329
#     4  10  21  40  57  86 120 156 191 235 290 350
#     4  10  20  38  58  88 115 145 204 230 286 345
#     4  10  21  39  59  88 111 148 200 240 290 340
#
# _framework density 22.506198000000001
#
# number of rings (size 3 to 8) (size 9 to 14) (size 15 to 20)
#    0.000    2.000    2.500    0.000    3.500    5.000 
#    2.250    2.500    0.000    1.500    0.000    0.000 
#    0.000    0.000    0.000    0.000    0.000    0.000 
#
# Total GULP energy -89175.585247 kJ/mol
# GULP energy per Si atom -5573.474078 kJ/mol
# Density = 2.245497 g / cm^3
# Si number density = 22.506198 Si / 1000 Ang^3
#
#
#
# Elastic Constant Matrix: (Units=GPa)
#
#
# Indices 1 2 3 4 5 6 
#
# 1 43.8927 27.6653 -6.6904 10.8719 -16.9204 -3.9479
# 2 27.6653 106.6977 18.9060 6.3582 2.2969 -5.8016
# 3 -6.6904 18.9060 72.4566 0.9587 -1.4143 -8.5077
# 4 10.8719 6.3582 0.9587 38.0764 2.1120 7.0386
# 5 -16.9204 2.2969 -1.4143 2.1120 22.2037 2.6863
# 6 -3.9479 -5.8016 -8.5077 7.0386 2.6863 19.4733
#
#
#
# Elastic Compliance Matrix: (Units=1/GPa)
#
#
# Indices 1 2 3 4 5 6 
#
# 1 0.060556 -0.017125 0.012832 -0.019917 0.049031 0.013216
# 2 -0.017125 0.014935 -0.005914 0.003534 -0.015213 -0.000785
# 3 0.012832 -0.005914 0.017883 -0.005416 0.010944 0.009101
# 4 -0.019917 0.003534 -0.005416 0.035368 -0.017348 -0.015742
# 5 0.049031 -0.015213 0.010944 -0.017348 0.085763 0.004629
# 6 0.013216 -0.000785 0.009101 -0.015742 0.004629 0.062825
#
#
# Mechanical properties :
#
#
# Convention : Reuss Voigt Hill
#
# Bulk Modulus (GPa) = 13.70611 33.64543 23.67577
# Shear Modulus (GPa) = 15.52484 28.16173 21.84329
#
# Velocity S-wave (km/s) = 2.62926 3.54119 3.11874
# Velocity P-wave (km/s) = 3.91414 5.63045 4.84884
#
# Compressibility (1/GPa) = 0.07296018
#
# Stress axis : x y z
#
# Youngs Moduli (GPa) = 16.51366 66.95768 55.91822
#
# Poissons Ratio (x) = 1.14667 -0.71756
# Poissons Ratio (y) = 0.28280 0.33070
# Poissons Ratio (z) = -0.21191 0.39599
#
# Static dielectric constant tensor:
#      x y z
#    x 1.901190 -0.014550 -0.059390 
#    y -0.014550 1.872440 -0.010940 
#    z -0.059390 -0.010940 1.926440 
# 
# From -- ./inp_files/272046.got.cif
#   From: 2010.05.17/outbox.cif.g08.bks.cpg/sg2_137_cif.got.tgz:272046.got - 2010.06.03 11:33:40.
