data_PCOD9097452
_publ_section_title
;
Structure prediction by ZEFSAII (Michael W. Deem and Ramdas Pophale) SiO2 
 PCOD9097452
Probable space group: P -1
;
_chemical_formula_sum "Si O2"
_cell_formula_units_Z 16
_cell_length_a 10.887202
_cell_length_b 14.011903
_cell_length_c 17.892163
_cell_angle_alpha 144.927117
_cell_angle_beta 138.193085
_cell_angle_gamma 30.540073
_cell_volume 789.258053
_symmetry_space_group_name_H-M "P -1"
_symmetry_group_IT_number 2
_symmetry_cell_setting 'triclinic'
loop_
_space_group_symop_operation_xyz
x,y,z
-x,-y,-z
loop_
_atom_site_type_symbol
_atom_site_label
_atom_site_fract_x
_atom_site_fract_y
_atom_site_fract_z
Si Si1 0.154241 0.450007 0.365078
Si Si2 0.177307 0.741380 0.665011
Si Si3 0.740761 0.204656 0.838066
Si Si4 0.428287 0.190181 0.931970
Si Si5 0.826174 0.909237 0.813909
Si Si6 0.524881 0.800508 0.785558
Si Si7 0.364252 0.588747 0.807191
Si Si8 0.932547 0.457422 0.124011
O O1 0.105345 0.649944 0.511871
O O2 0.183515 0.281976 0.329298
O O3 0.394851 0.314302 0.334118
O O4 0.949081 0.514319 0.253022
O O5 0.377488 0.748590 0.728032
O O6 0.282771 0.584269 0.684964
O O7 0.954466 0.985233 0.749380
O O8 0.517798 0.374375 0.790524
O O9 0.691156 0.112341 0.826044
O O10 0.832734 0.329082 0.989919
O O11 0.230891 0.332739 0.869181
O O12 0.688997 0.999104 0.888077
O O13 0.378302 0.059121 0.874863
O O14 0.472336 0.342375 0.086242
O O15 0.112119 0.783372 0.860184
O O16 0.785634 0.695026 0.871947
#
# Coordination Sequence:
#
# PCOD9097452 Si02
#       8
#     2   2   2   2   2   2   2   2
#     4   9  22  40  59  84 113 150 194 238 276 333
#     4  11  22  42  57  81 119 155 189 232 286 335
#     4  10  23  37  58  89 116 150 187 231 288 339
#     4  10  20  36  60  93 111 144 193 238 282 336
#     4  10  21  36  63  83 116 151 190 234 280 337
#     4   9  20  38  62  82 112 152 192 235 280 332
#     4  10  23  36  58  88 120 148 185 233 289 339
#     4   9  21  37  57  91 113 141 193 235 281 332
#
# _framework density 20.272202
#
# number of rings (size 3 to 8) (size 9 to 14) (size 15 to 20)
#    0.750    1.500    0.000    2.250    3.500    6.000 
#    4.500    4.375    0.000    0.000    0.000    0.000 
#    0.000    0.000    0.000    0.000    0.000    0.000 
#
# Total GULP energy -89240.768376 kJ/mol
# GULP energy per Si atom -5577.548024 kJ/mol
# Density = 2.022606 g / cm^3
# Si number density = 20.272202 Si / 1000 Ang^3
#
#
#
# Elastic Constant Matrix: (Units=GPa)
#
#
# Indices 1 2 3 4 5 6 
#
# 1 58.5503 23.6669 34.7779 3.1595 7.8670 9.4575
# 2 23.6669 122.4415 34.2408 -6.1486 2.6358 20.6519
# 3 34.7779 34.2408 54.2432 -10.3845 -6.6046 8.3211
# 4 3.1595 -6.1486 -10.3845 2.7236 11.4063 -7.5650
# 5 7.8670 2.6358 -6.6046 11.4063 23.2040 2.6852
# 6 9.4575 20.6519 8.3211 -7.5650 2.6852 7.3983
#
#
#
# Elastic Compliance Matrix: (Units=1/GPa)
#
#
# Indices 1 2 3 4 5 6 
#
# 1 0.030723 -0.000435 -0.021131 0.014958 -0.024896 0.010039
# 2 -0.000435 0.012191 -0.003873 0.014219 -0.007977 -0.011682
# 3 -0.021131 -0.003873 0.039769 -0.008012 0.025688 -0.024420
# 4 0.014958 0.014219 -0.008012 -0.044756 0.025149 -0.104693
# 5 -0.024896 -0.007977 0.025688 0.025149 0.043320 0.035194
# 6 0.010039 -0.011682 -0.024420 -0.104693 0.035194 0.062582
#
#
# Mechanical properties :
#
#
# Convention : Reuss Voigt Hill
#
# Bulk Modulus (GPa) = 31.44357 46.73402 39.08880
# Shear Modulus (GPa) = 24.35371 16.16847 20.26109
#
# Velocity S-wave (km/s) = 3.46979 2.82719 3.16484
# Velocity P-wave (km/s) = 5.62111 5.81039 5.71654
#
# Compressibility (1/GPa) = 0.03180300
#
# Stress axis : x y z
#
# Youngs Moduli (GPa) = 32.54889 82.03065 25.14551
#
# Poissons Ratio (x) = 0.03572 0.53135
# Poissons Ratio (y) = 0.01417 0.09739
# Poissons Ratio (z) = 0.68778 0.31773
#
# Static dielectric constant tensor:
#      x y z
#    x 1.749630 0.007980 -0.005050 
#    y 0.007980 1.724810 0.003610 
#    z -0.005050 0.003610 1.728560 
# 
# From -- ./inp_files/595542.got.cif
#   From: 2010.05.17/outbox.cif.g08.bks.cpg/sg2_298_cif.got.tgz:595542.got - 2010.06.03 11:33:40.
