data_PCOD9097059
_publ_section_title
;
Structure prediction by ZEFSAII (Michael W. Deem and Ramdas Pophale) SiO2 
 PCOD9097059
Probable space group: P -1
;
_chemical_formula_sum "Si O2"
_cell_formula_units_Z 14
_cell_length_a 9.522803
_cell_length_b 7.353871
_cell_length_c 11.898752
_cell_angle_alpha 68.819390
_cell_angle_beta 122.719626
_cell_angle_gamma 92.738653
_cell_volume 642.026217
_symmetry_space_group_name_H-M "P -1"
_symmetry_group_IT_number 2
_symmetry_cell_setting 'triclinic'
loop_
_space_group_symop_operation_xyz
x,y,z
-x,-y,-z
loop_
_atom_site_type_symbol
_atom_site_label
_atom_site_fract_x
_atom_site_fract_y
_atom_site_fract_z
Si Si1 0.980203 0.991633 0.125827
Si Si2 0.024499 0.321413 0.236064
Si Si3 0.362720 0.023528 0.531318
Si Si4 0.423243 0.349383 0.649285
Si Si5 0.233523 0.622287 0.312559
Si Si6 0.827077 0.145849 0.352041
Si Si7 0.321120 0.106095 0.847620
O O1 0.823704 0.890647 0.121420
O O2 0.153272 0.842767 0.268373
O O3 0.964942 0.207268 0.129365
O O4 0.000000 0.000000 0.000000
O O5 0.194783 0.170508 0.383063
O O6 0.086710 0.527816 0.210341
O O7 0.887895 0.326554 0.276135
O O8 0.437786 0.139858 0.637202
O O9 0.500000 0.000000 0.500000
O O10 0.302573 0.834364 0.604455
O O11 0.300617 0.501453 0.481360
O O12 0.610749 0.396817 0.703553
O O13 0.352064 0.303549 0.750474
O O14 0.747117 0.029561 0.246057
O O15 0.000000 0.000000 0.500000
O O16 0.500000 0.000000 0.000000
#
# Coordination Sequence:
#
# PCOD9097059 Si02
#       7
#     2   2   2   2   2   2   2
#     4  11  23  38  60  84 112 156 203 241 292 356
#     4   9  19  35  54  80 112 148 189 237 289 338
#     4   9  15  27  52  81 112 148 189 235 283 340
#     4   9  19  35  55  86 123 153 189 244 300 343
#     4  10  20  37  60  86 116 150 198 247 287 349
#     4   8  16  32  53  78 111 150 190 233 285 342
#     4  10  20  36  59  85 119 158 193 241 300 350
#
# _framework density 21.805963999999999
#
# number of rings (size 3 to 8) (size 9 to 14) (size 15 to 20)
#    0.000    2.571    0.000    2.571    0.000    2.286 
#    0.000    4.286    0.000    4.286    0.000    0.000 
#    0.000    0.000    0.000    0.000    0.000    0.000 
#
# Total GULP energy -78023.129656 kJ/mol
# GULP energy per Si atom -5573.080690 kJ/mol
# Density = 2.175633 g / cm^3
# Si number density = 21.805964 Si / 1000 Ang^3
#
#
#
# Elastic Constant Matrix: (Units=GPa)
#
#
# Indices 1 2 3 4 5 6 
#
# 1 189.2160 29.6329 52.8718 -3.1125 -29.3838 22.5072
# 2 29.6329 62.9336 18.2789 9.7349 -8.8959 12.2475
# 3 52.8718 18.2789 79.5484 3.9185 -3.1866 14.2170
# 4 -3.1125 9.7349 3.9185 23.4644 1.9150 -0.1024
# 5 -29.3838 -8.8959 -3.1866 1.9150 35.3399 -3.3630
# 6 22.5072 12.2475 14.2170 -0.1024 -3.3630 32.5261
#
#
#
# Elastic Compliance Matrix: (Units=1/GPa)
#
#
# Indices 1 2 3 4 5 6 
#
# 1 0.007907 -0.001516 -0.004350 0.001948 0.005464 -0.002428
# 2 -0.001516 0.020049 -0.002102 -0.008481 0.003558 -0.005240
# 3 -0.004350 -0.002102 0.016614 -0.002260 -0.002884 -0.003765
# 4 0.001948 -0.008481 -0.002260 0.047030 -0.003013 0.002670
# 5 0.005464 0.003558 -0.002884 -0.003013 0.033601 -0.000395
# 6 -0.002428 -0.005240 -0.003765 0.002670 -0.000395 0.036011
#
#
# Mechanical properties :
#
#
# Convention : Reuss Voigt Hill
#
# Bulk Modulus (GPa) = 34.92503 59.25168 47.08835
# Shear Modulus (GPa) = 26.78166 33.66035 30.22101
#
# Velocity S-wave (km/s) = 3.50834 3.93317 3.72681
# Velocity P-wave (km/s) = 5.69757 6.91792 6.33719
#
# Compressibility (1/GPa) = 0.02863276
#
# Stress axis : x y z
#
# Youngs Moduli (GPa) = 126.46302 49.87826 60.18901
#
# Poissons Ratio (x) = 0.07562 0.26185
# Poissons Ratio (y) = 0.19173 0.12654
# Poissons Ratio (z) = 0.55017 0.10486
#
# Static dielectric constant tensor:
#      x y z
#    x 1.848920 0.035740 -0.037450 
#    y 0.035740 1.867250 0.007800 
#    z -0.037450 0.007800 1.813070 
# 
# From -- ./inp_files/174890.got.cif
#   From: 2010.05.17/outbox.cif.g08.bks.cpg/sg2_88_cif.got.tgz:174890.got - 2010.06.03 11:33:40.
