data_PCOD9097160
_publ_section_title
;
Structure prediction by ZEFSAII (Michael W. Deem and Ramdas Pophale) SiO2 
 PCOD9097160
Probable space group: P -1
;
_chemical_formula_sum "Si O2"
_cell_formula_units_Z 16
_cell_length_a 9.175687
_cell_length_b 14.175495
_cell_length_c 13.303619
_cell_angle_alpha 129.041431
_cell_angle_beta 46.663033
_cell_angle_gamma 90.171530
_cell_volume 635.405447
_symmetry_space_group_name_H-M "P -1"
_symmetry_group_IT_number 2
_symmetry_cell_setting 'triclinic'
loop_
_space_group_symop_operation_xyz
x,y,z
-x,-y,-z
loop_
_atom_site_type_symbol
_atom_site_label
_atom_site_fract_x
_atom_site_fract_y
_atom_site_fract_z
Si Si1 0.924379 0.199679 0.522872
Si Si2 0.548692 0.784009 0.865632
Si Si3 0.684135 0.612687 0.280321
Si Si4 0.792858 0.406287 0.523838
Si Si5 0.660942 0.803966 0.594471
Si Si6 0.989876 0.248415 0.940347
Si Si7 0.010874 0.137861 0.065770
Si Si8 0.581320 0.138005 0.608900
O O1 0.046762 0.241552 0.572656
O O2 0.785916 0.341830 0.591901
O O3 0.685742 0.203943 0.670522
O O4 0.232742 0.987181 0.194341
O O5 0.585325 0.622894 0.755712
O O6 0.575004 0.808132 0.751742
O O7 0.852152 0.702315 0.716976
O O8 0.701128 0.665031 0.416343
O O9 0.434894 0.794663 0.450967
O O10 0.000000 0.500000 0.000000
O O11 0.717253 0.452966 0.160609
O O12 0.823074 0.296933 0.344377
O O13 0.370715 0.004794 0.817132
O O14 0.894228 0.221290 0.066542
O O15 0.256880 0.220620 0.832814
O O16 0.160668 0.084198 0.670019
O O17 0.000000 0.000000 0.000000
#
# Coordination Sequence:
#
# PCOD9097160 Si02
#       8
#     2   2   2   2   2   2   2   2
#     4  11  21  40  61  94 130 163 202 257 315 370
#     4  10  20  36  61  90 127 165 201 252 318 363
#     4  10  22  42  66  88 122 169 211 261 309 362
#     4  10  20  36  59  89 126 166 202 251 309 372
#     4  11  21  39  62  90 131 162 202 263 312 367
#     4  10  22  41  64  86 125 162 213 261 307 364
#     4  12  22  38  64  94 125 166 206 258 314 370
#     4  10  22  41  65  88 121 169 210 257 310 369
#
# _framework density 25.180769999999999
#
# number of rings (size 3 to 8) (size 9 to 14) (size 15 to 20)
#    0.000    1.500    3.750    2.250    0.000    1.000 
#    0.000    4.375    0.000    0.000    0.000    0.000 
#    0.000    0.000    0.000    0.000    0.000    0.000 
#
# Total GULP energy -89573.349791 kJ/mol
# GULP energy per Si atom -5598.334362 kJ/mol
# Density = 2.512346 g / cm^3
# Si number density = 25.180770 Si / 1000 Ang^3
#
#
#
# Elastic Constant Matrix: (Units=GPa)
#
#
# Indices 1 2 3 4 5 6 
#
# 1 82.7464 13.5124 -0.6770 17.6191 -2.1368 17.8940
# 2 13.5124 103.3249 10.8813 32.4011 1.5416 13.0615
# 3 -0.6770 10.8813 83.0555 37.5778 -4.6927 -17.4662
# 4 17.6191 32.4011 37.5778 42.9273 2.7336 -5.5231
# 5 -2.1368 1.5416 -4.6927 2.7336 28.6686 8.4224
# 6 17.8940 13.0615 -17.4662 -5.5231 8.4224 51.8022
#
#
#
# Elastic Compliance Matrix: (Units=1/GPa)
#
#
# Indices 1 2 3 4 5 6 
#
# 1 0.016457 0.002683 0.005207 -0.014586 0.005393 -0.007037
# 2 0.002683 0.015047 0.005236 -0.017970 0.003563 -0.005450
# 3 0.005207 0.005236 0.024637 -0.027918 0.006460 0.001161
# 4 -0.014586 -0.017970 -0.027918 0.069460 -0.014215 0.009873
# 5 0.005393 0.003563 0.006460 -0.014215 0.040033 -0.008607
# 6 -0.007037 -0.005450 0.001161 0.009873 -0.008607 0.025953
#
#
# Mechanical properties :
#
#
# Convention : Reuss Voigt Hill
#
# Bulk Modulus (GPa) = 12.13712 35.17334 23.65523
# Shear Modulus (GPa) = 25.93359 41.04029 33.48694
#
# Velocity S-wave (km/s) = 3.21268 4.04149 3.65068
# Velocity P-wave (km/s) = 4.31187 5.98138 5.21388
#
# Compressibility (1/GPa) = 0.08239190
#
# Stress axis : x y z
#
# Youngs Moduli (GPa) = 60.76596 66.45869 40.58910
#
# Poissons Ratio (x) = -0.17829 -0.21134
# Poissons Ratio (y) = -0.16302 -0.21253
# Poissons Ratio (z) = -0.31640 -0.34798
#
# Static dielectric constant tensor:
#      x y z
#    x 2.247420 0.183880 -0.133650 
#    y 0.183880 2.085630 -0.067330 
#    z -0.133650 -0.067330 1.972040 
# 
# From -- ./inp_files/399250.got.cif
#   From: 2010.05.17/outbox.cif.g08.bks.cpg/sg2_200_cif.got.tgz:399250.got - 2010.06.03 11:33:40.
