data_PCOD9097087
_publ_section_title
;
Structure prediction by ZEFSAII (Michael W. Deem and Ramdas Pophale) SiO2 
 PCOD9097087
Probable space group: P -1
;
_chemical_formula_sum "Si O2"
_cell_formula_units_Z 16
_cell_length_a 27.556703
_cell_length_b 9.229491
_cell_length_c 5.649583
_cell_angle_alpha 50.462771
_cell_angle_beta 60.762924
_cell_angle_gamma 35.252984
_cell_volume 638.010167
_symmetry_space_group_name_H-M "P -1"
_symmetry_group_IT_number 2
_symmetry_cell_setting 'triclinic'
loop_
_space_group_symop_operation_xyz
x,y,z
-x,-y,-z
loop_
_atom_site_type_symbol
_atom_site_label
_atom_site_fract_x
_atom_site_fract_y
_atom_site_fract_z
Si Si1 0.206185 0.457964 0.260983
Si Si2 0.046607 0.683112 0.235064
Si Si3 0.480645 0.827356 0.726457
Si Si4 0.325883 0.682669 0.210575
Si Si5 0.783525 0.351306 0.463729
Si Si6 0.483713 0.814398 0.232339
Si Si7 0.930074 0.690405 0.767579
Si Si8 0.672720 0.169317 0.446394
O O1 0.126744 0.517144 0.382384
O O2 0.205436 0.560208 0.412297
O O3 0.291898 0.126520 0.371128
O O4 0.198846 0.597817 0.887118
O O5 0.081982 0.487251 0.123223
O O6 0.975075 0.721498 0.449251
O O7 0.000000 0.000000 0.000000
O O8 0.576199 0.505942 0.831854
O O9 0.441273 0.876528 0.518785
O O10 0.500000 0.000000 0.500000
O O11 0.441562 0.873108 0.021883
O O12 0.309981 0.500842 0.471119
O O13 0.291931 0.857937 0.352690
O O14 0.293930 0.810371 0.890864
O O15 0.845037 0.014860 0.695719
O O16 0.574425 0.479974 0.363972
O O17 0.500000 0.000000 0.000000
O O18 0.000000 0.500000 0.000000
#
# Coordination Sequence:
#
# PCOD9097087 Si02
#       8
#     2   2   2   2   2   2   2   2
#     4  12  26  41  63  87 128 168 206 259 315 380
#     4  11  24  45  65  93 125 164 215 260 320 370
#     4   8  14  26  48  81 109 142 187 246 301 350
#     4  10  20  36  59  86 120 151 205 258 301 369
#     4  12  26  42  60  91 126 167 209 254 322 370
#     4   8  14  26  48  81 111 139 188 249 297 353
#     4  11  26  41  69  92 123 168 214 265 312 379
#     4  10  20  36  59  88 115 157 204 254 309 362
#
# _framework density 25.077971999999999
#
# number of rings (size 3 to 8) (size 9 to 14) (size 15 to 20)
#    0.000    1.750    1.250    3.000    5.250    1.000 
#    0.000    0.000    0.000    0.000    0.000   84.000 
#    0.000    0.000    0.000    0.000    0.000    0.000 
#
# Total GULP energy -89320.580833 kJ/mol
# GULP energy per Si atom -5582.536302 kJ/mol
# Density = 2.502089 g / cm^3
# Si number density = 25.077972 Si / 1000 Ang^3
#
#
#
# Elastic Constant Matrix: (Units=GPa)
#
#
# Indices 1 2 3 4 5 6 
#
# 1 103.1439 54.6367 2.4373 9.6758 5.7117 20.6015
# 2 54.6367 146.4045 66.1936 -1.6869 12.6376 32.9020
# 3 2.4373 66.1936 107.7586 16.1393 5.0727 24.3001
# 4 9.6758 -1.6869 16.1393 69.5594 17.3799 9.1340
# 5 5.7117 12.6376 5.0727 17.3799 30.1686 8.1421
# 6 20.6015 32.9020 24.3001 9.1340 8.1421 55.7655
#
#
#
# Elastic Compliance Matrix: (Units=1/GPa)
#
#
# Indices 1 2 3 4 5 6 
#
# 1 0.014205 -0.007223 0.005218 -0.003544 0.002315 -0.003017
# 2 -0.007223 0.014498 -0.008768 0.005059 -0.005585 -0.002078
# 3 0.005218 -0.008768 0.015906 -0.005156 0.003901 -0.003410
# 4 -0.003544 0.005059 -0.005156 0.019147 -0.011368 -0.000905
# 5 0.002315 -0.005585 0.003901 -0.011368 0.041890 -0.003514
# 6 -0.003017 -0.002078 -0.003410 -0.000905 -0.003514 0.022420
#
#
# Mechanical properties :
#
#
# Convention : Reuss Voigt Hill
#
# Bulk Modulus (GPa) = 43.36260 67.09360 55.22810
# Shear Modulus (GPa) = 31.78653 46.70131 39.24392
#
# Velocity S-wave (km/s) = 3.56407 4.32005 3.96014
# Velocity P-wave (km/s) = 5.85367 7.18999 6.55596
#
# Compressibility (1/GPa) = 0.02306135
#
# Stress axis : x y z
#
# Youngs Moduli (GPa) = 70.39877 68.97698 62.87000
#
# Poissons Ratio (x) = 0.49820 -0.32804
# Poissons Ratio (y) = 0.50847 0.55127
# Poissons Ratio (z) = -0.36732 0.60482
#
# Static dielectric constant tensor:
#      x y z
#    x 1.994020 -0.054910 -0.118090 
#    y -0.054910 2.098250 0.135230 
#    z -0.118090 0.135230 2.350780 
# 
# From -- ./inp_files/10718.got.cif
#   From: 2010.05.17/outbox.cif.g08.bks.cpg/sg2_6_cif.got.tgz:10718.got - 2010.06.03 11:33:40.
