data_PCOD9097346
_publ_section_title
;
Structure prediction by ZEFSAII (Michael W. Deem and Ramdas Pophale) SiO2 
 PCOD9097346
Probable space group: P -1
;
_chemical_formula_sum "Si O2"
_cell_formula_units_Z 15
_cell_length_a 6.108011
_cell_length_b 4.971155
_cell_length_c 24.177488
_cell_angle_alpha 73.537112
_cell_angle_beta 66.410005
_cell_angle_gamma 84.684453
_cell_volume 645.011868
_symmetry_space_group_name_H-M "P -1"
_symmetry_group_IT_number 2
_symmetry_cell_setting 'triclinic'
loop_
_space_group_symop_operation_xyz
x,y,z
-x,-y,-z
loop_
_atom_site_type_symbol
_atom_site_label
_atom_site_fract_x
_atom_site_fract_y
_atom_site_fract_z
Si Si1 0.772314 0.400068 0.776059
Si Si2 0.387842 0.445476 0.454130
Si Si3 0.453539 0.848093 0.821598
Si Si4 0.000000 0.000000 0.000000
Si Si5 0.103199 0.530676 0.633607
Si Si6 0.499133 0.762530 0.944886
Si Si7 0.025527 0.867934 0.128672
Si Si8 0.012773 0.880998 0.429072
O O1 0.562455 0.624196 0.782625
O O2 0.884637 0.381390 0.827359
O O3 0.976933 0.471770 0.707534
O O4 0.649196 0.099213 0.793424
O O5 0.500000 0.500000 0.500000
O O6 0.615285 0.389070 0.396296
O O7 0.247599 0.716688 0.432341
O O8 0.191385 0.200449 0.500333
O O9 0.426606 0.696404 0.892867
O O10 0.201858 0.989997 0.828152
O O11 0.711913 0.040989 0.025234
O O12 0.030006 0.184232 0.927043
O O13 0.068959 0.263910 0.612242
O O14 0.975102 0.790198 0.601855
O O15 0.757342 0.906532 0.908852
O O16 0.500000 0.500000 0.000000
#
# Coordination Sequence:
#
# PCOD9097346 Si02
#       8
#     2   2   2   1   2   2   2   2
#     4  11  24  43  62  89 126 167 214 258 307 371
#     4   9  21  40  65  95 129 164 205 258 315 366
#     4  10  24  42  62  87 122 163 205 255 309 367
#     4  10  20  36  60  88 118 154 200 254 312 368
#     4  11  23  39  63  92 125 168 213 256 309 370
#     4  10  21  36  60  91 120 153 198 251 312 375
#     4  10  23  40  62  91 126 164 206 258 316 373
#     4  10  22  40  63  94 128 162 207 260 311 368
#
# _framework density 23.255389000000001
#
# number of rings (size 3 to 8) (size 9 to 14) (size 15 to 20)
#    0.000    1.867    0.000    2.400    0.000   18.667 
#    0.000    0.000    0.000    0.000    0.000    0.000 
#    0.000    0.000    0.000    0.000    0.000    0.000 
#
# Total GULP energy -83659.413004 kJ/mol
# GULP energy per Si atom -5577.294200 kJ/mol
# Density = 2.320246 g / cm^3
# Si number density = 23.255389 Si / 1000 Ang^3
#
#
#
# Elastic Constant Matrix: (Units=GPa)
#
#
# Indices 1 2 3 4 5 6 
#
# 1 85.0846 12.6683 36.9569 -10.8664 -12.1343 -30.9094
# 2 12.6683 66.7140 35.3089 -3.3590 -8.9375 -6.7579
# 3 36.9569 35.3089 134.9680 3.4841 -27.2229 -16.0105
# 4 -10.8664 -3.3590 3.4841 28.6327 -3.7601 -1.2469
# 5 -12.1343 -8.9375 -27.2229 -3.7601 24.0598 7.9464
# 6 -30.9094 -6.7579 -16.0105 -1.2469 7.9464 37.6768
#
#
#
# Elastic Compliance Matrix: (Units=1/GPa)
#
#
# Indices 1 2 3 4 5 6 
#
# 1 0.020198 0.000380 -0.003528 0.009162 0.002867 0.014838
# 2 0.000380 0.017730 -0.004259 0.003063 0.001987 0.001365
# 3 -0.003528 -0.004259 0.011341 -0.002016 0.009453 -0.000899
# 4 0.009162 0.003063 -0.002016 0.040292 0.007473 0.006966
# 5 0.002867 0.001987 0.009453 0.007473 0.057299 -0.005112
# 6 0.014838 0.001365 -0.000899 0.006966 -0.005112 0.039885
#
#
# Mechanical properties :
#
#
# Convention : Reuss Voigt Hill
#
# Bulk Modulus (GPa) = 29.02260 50.73719 39.87990
# Shear Modulus (GPa) = 23.46931 31.52936 27.49933
#
# Velocity S-wave (km/s) = 3.18024 3.68610 3.44247
# Velocity P-wave (km/s) = 5.09826 6.32307 5.74340
#
# Compressibility (1/GPa) = 0.03445590
#
# Stress axis : x y z
#
# Youngs Moduli (GPa) = 49.50975 56.40221 88.17241
#
# Poissons Ratio (x) = -0.02145 0.31109
# Poissons Ratio (y) = -0.01883 0.37551
# Poissons Ratio (z) = 0.17468 0.24021
#
# Static dielectric constant tensor:
#      x y z
#    x 1.896200 0.042750 0.029290 
#    y 0.042750 1.869180 0.032120 
#    z 0.029290 0.032120 1.865510 
# 
# From -- ./inp_files/9238.got.cif
#   From: 2010.05.17/outbox.cif.g08.bks.cpg/sg2_5_cif.got.tgz:9238.got - 2010.06.03 11:33:40.
