data_PCOD9097038
_publ_section_title
;
Structure prediction by ZEFSAII (Michael W. Deem and Ramdas Pophale) SiO2 
 PCOD9097038
Probable space group: P -1
;
_chemical_formula_sum "Si O2"
_cell_formula_units_Z 16
_cell_length_a 9.575016
_cell_length_b 13.339690
_cell_length_c 14.666548
_cell_angle_alpha 140.372734
_cell_angle_beta 119.552272
_cell_angle_gamma 42.547238
_cell_volume 795.862719
_symmetry_space_group_name_H-M "P -1"
_symmetry_group_IT_number 2
_symmetry_cell_setting 'triclinic'
loop_
_space_group_symop_operation_xyz
x,y,z
-x,-y,-z
loop_
_atom_site_type_symbol
_atom_site_label
_atom_site_fract_x
_atom_site_fract_y
_atom_site_fract_z
Si Si1 0.112052 0.942623 0.771694
Si Si2 0.151293 0.811325 0.981303
Si Si3 0.234890 0.138575 0.820192
Si Si4 0.600769 0.453908 0.282992
Si Si5 0.468744 0.339048 0.903900
Si Si6 0.501815 0.871653 0.553280
Si Si7 0.720637 0.988222 0.607130
Si Si8 0.226037 0.482829 0.101741
O O1 0.267229 0.732772 0.732765
O O2 0.931018 0.950555 0.671775
O O3 0.224746 0.984287 0.765598
O O4 0.984726 0.136767 0.936984
O O5 0.333488 0.815370 0.074420
O O6 0.262799 0.615704 0.815477
O O7 0.000000 0.000000 0.000000
O O8 0.009087 0.307042 0.816593
O O9 0.413491 0.013809 0.713655
O O10 0.258105 0.278220 0.989320
O O11 0.546918 0.662122 0.443450
O O12 0.392998 0.488582 0.209812
O O13 0.518660 0.206832 0.739002
O O14 0.500000 0.500000 0.000000
O O15 0.271167 0.454333 0.986502
O O16 0.700416 0.835909 0.547015
O O17 0.326163 0.989969 0.499531
#
# Coordination Sequence:
#
# PCOD9097038 Si02
#       8
#     2   2   2   2   2   2   2   2
#     4  10  21  38  63  88 116 155 196 239 292 348
#     4   8  16  32  54  82 107 137 186 234 275 327
#     4  11  23  39  59  86 122 155 193 243 292 346
#     4  10  21  38  63  88 116 155 196 239 292 348
#     4  10  16  30  58  84 105 141 189 238 283 329
#     4  11  23  39  59  86 122 155 193 243 292 346
#     4  10  21  38  59  87 118 152 194 245 292 342
#     4  10  21  38  59  87 118 152 194 245 292 342
#
# _framework density 20.10397
#
# number of rings (size 3 to 8) (size 9 to 14) (size 15 to 20)
#    0.000    2.000    1.250    3.750    0.000    3.500 
#    2.250    0.000    0.000    0.000    0.000    0.000 
#    0.000    0.000    0.000    0.000    0.000    0.000 
#
# Total GULP energy -89156.984111 kJ/mol
# GULP energy per Si atom -5572.311507 kJ/mol
# Density = 2.005821 g / cm^3
# Si number density = 20.103970 Si / 1000 Ang^3
#
#
#
# Elastic Constant Matrix: (Units=GPa)
#
#
# Indices 1 2 3 4 5 6 
#
# 1 77.1999 25.1501 10.5567 8.6287 13.7393 16.5370
# 2 25.1501 75.1829 19.5144 9.6248 10.8969 9.8490
# 3 10.5567 19.5144 71.3769 12.8194 12.7549 5.6702
# 4 8.6287 9.6248 12.8194 23.3163 5.9744 -1.1189
# 5 13.7393 10.8969 12.7549 5.9744 34.2088 3.9912
# 6 16.5370 9.8490 5.6702 -1.1189 3.9912 22.6427
#
#
#
# Elastic Compliance Matrix: (Units=1/GPa)
#
#
# Indices 1 2 3 4 5 6 
#
# 1 0.017634 -0.003417 0.000858 -0.005063 -0.004131 -0.011130
# 2 -0.003417 0.016376 -0.002681 -0.003759 -0.001740 -0.003835
# 3 0.000858 -0.002681 0.016993 -0.007666 -0.004094 -0.003373
# 4 -0.005063 -0.003759 -0.007666 0.052125 -0.004248 0.010577
# 5 -0.004131 -0.001740 -0.004094 -0.004248 0.033875 -0.001382
# 6 -0.011130 -0.003835 -0.003373 0.010577 -0.001382 0.055572
#
#
# Mechanical properties :
#
#
# Convention : Reuss Voigt Hill
#
# Bulk Modulus (GPa) = 24.67754 37.13357 30.90556
# Shear Modulus (GPa) = 23.08806 27.26948 25.17877
#
# Velocity S-wave (km/s) = 3.39253 3.68696 3.54280
# Velocity P-wave (km/s) = 5.25807 6.05275 5.66935
#
# Compressibility (1/GPa) = 0.04052267
#
# Stress axis : x y z
#
# Youngs Moduli (GPa) = 56.70740 61.06624 58.84918
#
# Poissons Ratio (x) = 0.20865 -0.05047
# Poissons Ratio (y) = 0.19375 0.15777
# Poissons Ratio (z) = -0.04863 0.16371
#
# Static dielectric constant tensor:
#      x y z
#    x 1.754020 -0.002050 -0.008780 
#    y -0.002050 1.737310 -0.005370 
#    z -0.008780 -0.005370 1.757980 
# 
# From -- ./inp_files/338056.got.cif
#   From: 2010.05.17/outbox.cif.g08.bks.cpg/sg2_170_cif.got.tgz:338056.got - 2010.06.03 11:33:40.
