data_PCOD9097098
_publ_section_title
;
Structure prediction by ZEFSAII (Michael W. Deem and Ramdas Pophale) SiO2 
 PCOD9097098
Probable space group: P -1
;
_chemical_formula_sum "Si O2"
_cell_formula_units_Z 15
_cell_length_a 12.655603
_cell_length_b 8.532365
_cell_length_c 10.543033
_cell_angle_alpha 55.311635
_cell_angle_beta 49.030151
_cell_angle_gamma 42.676386
_cell_volume 574.191193
_symmetry_space_group_name_H-M "P -1"
_symmetry_group_IT_number 2
_symmetry_cell_setting 'triclinic'
loop_
_space_group_symop_operation_xyz
x,y,z
-x,-y,-z
loop_
_atom_site_type_symbol
_atom_site_label
_atom_site_fract_x
_atom_site_fract_y
_atom_site_fract_z
Si Si1 0.500000 0.500000 0.000000
Si Si2 0.157959 0.632064 0.304599
Si Si3 0.664387 0.472758 0.526302
Si Si4 0.162060 0.055612 0.418020
Si Si5 0.267179 0.014499 0.749521
Si Si6 0.335254 0.551797 0.851768
Si Si7 0.473215 0.963297 0.355954
Si Si8 0.076082 0.486960 0.177991
O O1 0.288302 0.676370 0.119467
O O2 0.546470 0.572643 0.061357
O O3 0.266925 0.494559 0.409204
O O4 0.126976 0.501865 0.278299
O O5 0.971867 0.835734 0.409855
O O6 0.476786 0.518169 0.658601
O O7 0.624818 0.685623 0.372593
O O8 0.793658 0.198063 0.525001
O O9 0.079392 0.256161 0.282421
O O10 0.345055 0.012926 0.322422
O O11 0.429328 0.910039 0.769104
O O12 0.104546 0.262172 0.807737
O O13 0.224050 0.830831 0.838828
O O14 0.356065 0.022611 0.546742
O O15 0.209859 0.473176 0.980617
#
# Coordination Sequence:
#
# PCOD9097098 Si02
#       8
#     1   2   2   2   2   2   2   2
#     4   8  18  34  58  86 112 144 186 240 284 344
#     4  10  20  37  59  88 114 149 195 240 291 340
#     4  10  22  40  57  83 121 159 191 235 295 353
#     4  12  23  35  60  89 120 153 193 243 286 353
#     4  10  20  36  59  87 115 148 192 253 289 339
#     4   9  20  36  61  81 117 152 195 237 296 339
#     4  10  22  35  58  85 119 152 192 242 298 339
#     4  11  22  36  60  89 114 148 203 246 285 340
#
# _framework density 26.123702000000002
#
# number of rings (size 3 to 8) (size 9 to 14) (size 15 to 20)
#    0.000    1.867    1.333    2.400    9.333    0.533 
#    0.000    0.000    0.000    0.800    0.000    0.000 
#    0.000    0.000    0.000    0.000    0.000    0.000 
#
# Total GULP energy -83540.872566 kJ/mol
# GULP energy per Si atom -5569.391504 kJ/mol
# Density = 2.606424 g / cm^3
# Si number density = 26.123702 Si / 1000 Ang^3
#
#
#
# Elastic Constant Matrix: (Units=GPa)
#
#
# Indices 1 2 3 4 5 6 
#
# 1 67.5275 5.2425 2.9325 1.8152 -20.0852 -10.0842
# 2 5.2425 154.2589 36.2486 0.4864 -18.3437 -12.4933
# 3 2.9325 36.2486 112.3337 0.8068 -29.8370 1.8995
# 4 1.8152 0.4864 0.8068 16.7670 -2.3215 -4.5110
# 5 -20.0852 -18.3437 -29.8370 -2.3215 40.8887 0.4002
# 6 -10.0842 -12.4933 1.8995 -4.5110 0.4002 23.9256
#
#
#
# Elastic Compliance Matrix: (Units=1/GPa)
#
#
# Indices 1 2 3 4 5 6 
#
# 1 0.019270 0.000899 0.002077 0.001666 0.011396 0.008550
# 2 0.000899 0.007569 -0.001895 0.001384 0.002488 0.004701
# 3 0.002077 -0.001895 0.011819 0.000168 0.008816 -0.001168
# 4 0.001666 0.001384 0.000168 0.063700 0.005048 0.013337
# 5 0.011396 0.002488 0.008816 0.005048 0.037834 0.005721
# 6 0.008550 0.004701 -0.001168 0.013337 0.005721 0.050367
#
#
# Mechanical properties :
#
#
# Convention : Reuss Voigt Hill
#
# Bulk Modulus (GPa) = 24.49616 46.99638 35.74627
# Shear Modulus (GPa) = 24.75200 35.62936 30.19068
#
# Velocity S-wave (km/s) = 3.08148 3.69707 3.40322
# Velocity P-wave (km/s) = 4.69659 6.02108 5.39960
#
# Compressibility (1/GPa) = 0.04082273
#
# Stress axis : x y z
#
# Youngs Moduli (GPa) = 51.89297 132.10937 84.60669
#
# Poissons Ratio (x) = -0.11882 -0.17573
# Poissons Ratio (y) = -0.04667 0.16031
# Poissons Ratio (z) = -0.10779 0.25032
#
# Static dielectric constant tensor:
#      x y z
#    x 2.074420 0.038450 -0.058390 
#    y 0.038450 2.104860 0.020690 
#    z -0.058390 0.020690 1.964410 
# 
# From -- ./inp_files/447073.got.cif
#   From: 2010.05.17/outbox.cif.g08.bks.cpg/sg2_224_cif.got.tgz:447073.got - 2010.06.03 11:33:40.
