data_PCOD9097175
_publ_section_title
;
Structure prediction by ZEFSAII (Michael W. Deem and Ramdas Pophale) SiO2 
 PCOD9097175
Probable space group: P -1
;
_chemical_formula_sum "Si O2"
_cell_formula_units_Z 16
_cell_length_a 8.427796
_cell_length_b 9.235053
_cell_length_c 13.519899
_cell_angle_alpha 142.801450
_cell_angle_beta 61.638528
_cell_angle_gamma 110.311436
_cell_volume 558.850642
_symmetry_space_group_name_H-M "P -1"
_symmetry_group_IT_number 2
_symmetry_cell_setting 'triclinic'
loop_
_space_group_symop_operation_xyz
x,y,z
-x,-y,-z
loop_
_atom_site_type_symbol
_atom_site_label
_atom_site_fract_x
_atom_site_fract_y
_atom_site_fract_z
Si Si1 0.102681 0.132124 0.170018
Si Si2 0.691452 0.422370 0.694559
Si Si3 0.297716 0.297240 0.404539
Si Si4 0.071817 0.259657 0.653009
Si Si5 0.693143 0.953453 0.368233
Si Si6 0.682683 0.155442 0.289145
Si Si7 0.625176 0.209512 0.034165
Si Si8 0.307364 0.641722 0.126981
O O1 0.195357 0.343085 0.197476
O O2 0.169404 0.212210 0.306255
O O3 0.898115 0.131280 0.193836
O O4 0.197725 0.863455 0.993549
O O5 0.782131 0.213224 0.486876
O O6 0.682345 0.269004 0.714030
O O7 0.499068 0.545044 0.784460
O O8 0.192263 0.312158 0.549320
O O9 0.496744 0.157885 0.281595
O O10 0.341084 0.569265 0.517583
O O11 0.901035 0.424688 0.834138
O O12 0.191498 0.228468 0.699133
O O13 0.000000 0.000000 0.500000
O O14 0.668463 0.932834 0.247979
O O15 0.500000 0.000000 0.500000
O O16 0.686741 0.230264 0.911865
O O17 0.500000 0.000000 0.000000
O O18 0.500000 0.500000 0.000000
#
# Coordination Sequence:
#
# PCOD9097175 Si02
#       8
#     2   2   2   2   2   2   2   2
#     4  11  21  39  67  91 127 169 217 264 325 384
#     4  10  21  38  61  91 126 170 213 264 322 384
#     4  11  23  38  60  96 133 165 213 268 324 382
#     4  12  22  36  63  93 122 167 213 261 319 381
#     4  12  23  38  57  90 131 166 207 267 325 378
#     4  11  23  38  58  95 130 166 209 268 327 384
#     4   9  20  37  62  90 120 169 218 261 315 390
#     4  10  20  36  59  90 124 157 215 262 310 384
#
# _framework density 28.630189000000001
#
# number of rings (size 3 to 8) (size 9 to 14) (size 15 to 20)
#    0.000    1.250    3.750    3.375    0.000    0.000 
#    0.000    0.000    0.000   18.000    0.000    0.000 
#    0.000    0.000    0.000    0.000    0.000    0.000 
#
# Total GULP energy -89078.814432 kJ/mol
# GULP energy per Si atom -5567.425902 kJ/mol
# Density = 2.856503 g / cm^3
# Si number density = 28.630189 Si / 1000 Ang^3
#
#
#
# Elastic Constant Matrix: (Units=GPa)
#
#
# Indices 1 2 3 4 5 6 
#
# 1 180.1860 87.1665 86.2070 -11.8440 -60.8926 -18.8968
# 2 87.1665 151.6338 42.5371 -32.4791 0.6982 -30.9328
# 3 86.2070 42.5371 112.7297 -15.1766 -49.8180 -13.1471
# 4 -11.8440 -32.4791 -15.1766 37.5075 -4.4160 -3.1572
# 5 -60.8926 0.6982 -49.8180 -4.4160 56.9701 6.2041
# 6 -18.8968 -30.9328 -13.1471 -3.1572 6.2041 64.0144
#
#
#
# Elastic Compliance Matrix: (Units=1/GPa)
#
#
# Indices 1 2 3 4 5 6 
#
# 1 0.016199 -0.009614 -0.002686 -0.002689 0.015094 -0.002011
# 2 -0.009614 0.015952 -0.002239 0.008922 -0.012397 0.006052
# 3 -0.002686 -0.002239 0.019090 0.006700 0.014261 0.000994
# 4 -0.002689 0.008922 0.006700 0.037374 0.005093 0.006243
# 5 0.015094 -0.012397 0.014261 0.005093 0.047020 -0.002912
# 6 -0.002011 0.006052 0.000994 0.006243 -0.002912 0.018747
#
#
# Mechanical properties :
#
#
# Convention : Reuss Voigt Hill
#
# Bulk Modulus (GPa) = 45.12053 97.37451 71.24752
# Shear Modulus (GPa) = 26.19885 46.94099 36.56992
#
# Velocity S-wave (km/s) = 3.02831 4.05354 3.57784
# Velocity P-wave (km/s) = 5.29353 7.48286 6.48131
#
# Compressibility (1/GPa) = 0.02216286
#
# Stress axis : x y z
#
# Youngs Moduli (GPa) = 61.73146 62.68725 52.38378
#
# Poissons Ratio (x) = 0.60269 0.14072
# Poissons Ratio (y) = 0.59350 0.11727
# Poissons Ratio (z) = 0.16583 0.14033
#
# Static dielectric constant tensor:
#      x y z
#    x 2.451290 -0.018560 0.113650 
#    y -0.018560 2.475230 -0.176010 
#    z 0.113650 -0.176010 2.420640 
# 
# From -- ./inp_files/556480.got.cif
#   From: 2010.05.17/outbox.cif.g08.bks.cpg/sg2_279_cif.got.tgz:556480.got - 2010.06.03 11:33:40.
