data_PCOD9097867
_publ_section_title
;
Structure prediction by ZEFSAII (Michael W. Deem and Ramdas Pophale) SiO2 
 PCOD9097867
Probable space group: P -1
;
_chemical_formula_sum "Si O2"
_cell_formula_units_Z 15
_cell_length_a 5.275211
_cell_length_b 16.831194
_cell_length_c 10.934291
_cell_angle_alpha 122.592144
_cell_angle_beta 60.151709
_cell_angle_gamma 113.959408
_cell_volume 696.684645
_symmetry_space_group_name_H-M "P -1"
_symmetry_group_IT_number 2
_symmetry_cell_setting 'triclinic'
loop_
_space_group_symop_operation_xyz
x,y,z
-x,-y,-z
loop_
_atom_site_type_symbol
_atom_site_label
_atom_site_fract_x
_atom_site_fract_y
_atom_site_fract_z
Si Si1 0.358229 0.512928 0.411916
Si Si2 0.375002 0.278854 0.448848
Si Si3 0.500000 0.000000 0.000000
Si Si4 0.406854 0.312908 0.175847
Si Si5 0.863769 0.160408 0.198534
Si Si6 0.857865 0.119582 0.425371
Si Si7 0.383918 0.854441 0.139069
Si Si8 0.230793 0.091798 0.662480
O O1 0.500000 0.500000 0.500000
O O2 0.503015 0.621447 0.429566
O O3 0.431884 0.425583 0.240323
O O4 0.000000 0.500000 0.500000
O O5 0.406335 0.301359 0.314094
O O6 0.589764 0.203560 0.352124
O O7 0.044734 0.221537 0.508697
O O8 0.242857 0.916472 0.940013
O O9 0.506298 0.062507 0.918330
O O10 0.084382 0.251718 0.168953
O O11 0.612921 0.249790 0.007696
O O12 0.983756 0.114633 0.252309
O O13 0.505829 0.110718 0.518923
O O14 0.907726 0.021990 0.395143
O O15 0.602838 0.876569 0.221880
O O16 0.044779 0.858232 0.256892
#
# Coordination Sequence:
#
# PCOD9097867 Si02
#       8
#     2   2   1   2   2   2   2   2
#     4  10  20  37  59  91 124 153 195 251 311 371
#     4  10  20  36  62  91 118 157 203 257 308 357
#     4  12  22  36  58  92 128 154 200 236 316 370
#     4  10  22  36  58  89 127 155 195 248 319 375
#     4  11  20  36  60  91 123 162 196 253 306 367
#     4  10  24  40  61  86 121 169 215 255 290 353
#     4  12  25  39  60  89 124 168 198 250 305 371
#     4  11  26  42  60  87 124 170 214 246 291 358
#
# _framework density 21.530546000000001
#
# number of rings (size 3 to 8) (size 9 to 14) (size 15 to 20)
#    0.000    1.333    4.000    1.600    3.733    2.133 
#    0.000    0.000    0.000    1.600    0.000    0.000 
#    0.000    0.000    0.000    0.000    0.000    0.000 
#
# Total GULP energy -83533.350623 kJ/mol
# GULP energy per Si atom -5568.890042 kJ/mol
# Density = 2.148154 g / cm^3
# Si number density = 21.530546 Si / 1000 Ang^3
#
#
#
# Elastic Constant Matrix: (Units=GPa)
#
#
# Indices 1 2 3 4 5 6 
#
# 1 71.3152 46.4391 35.9934 17.2425 -1.3558 8.9783
# 2 46.4391 77.9401 33.8408 19.2253 8.4342 33.3416
# 3 35.9934 33.8408 77.0122 23.6996 0.9973 11.8060
# 4 17.2425 19.2253 23.6996 32.5191 1.5644 15.5734
# 5 -1.3558 8.4342 0.9973 1.5644 36.8554 -0.8114
# 6 8.9783 33.3416 11.8060 15.5734 -0.8114 28.9199
#
#
#
# Elastic Compliance Matrix: (Units=1/GPa)
#
#
# Indices 1 2 3 4 5 6 
#
# 1 0.037450 -0.034492 -0.003504 -0.015822 0.010883 0.038396
# 2 -0.034492 0.064206 -0.007278 0.021096 -0.018250 -0.072215
# 3 -0.003504 -0.007278 0.020472 -0.012667 0.001696 0.007990
# 4 -0.015822 0.021096 -0.012667 0.058273 -0.008550 -0.045858
# 5 0.010883 -0.018250 0.001696 -0.008550 0.032522 0.022486
# 6 0.038396 -0.072215 0.007990 -0.045858 0.022486 0.127978
#
#
# Mechanical properties :
#
#
# Convention : Reuss Voigt Hill
#
# Bulk Modulus (GPa) = 31.66631 50.97935 41.32283
# Shear Modulus (GPa) = 11.31283 26.99182 19.15233
#
# Velocity S-wave (km/s) = 2.29472 3.54454 2.98575
# Velocity P-wave (km/s) = 4.66482 6.36245 5.57859
#
# Compressibility (1/GPa) = 0.03157930
#
# Stress axis : x y z
#
# Youngs Moduli (GPa) = 26.70217 15.57498 48.84683
#
# Poissons Ratio (x) = 0.53722 0.17118
# Poissons Ratio (y) = 0.92102 0.35549
# Poissons Ratio (z) = 0.09357 0.11335
#
# Static dielectric constant tensor:
#      x y z
#    x 1.898520 -0.007190 -0.102110 
#    y -0.007190 1.743200 0.021840 
#    z -0.102110 0.021840 1.912110 
# 
# From -- ./inp_files/76355.got.cif
#   From: 2010.05.17/outbox.cif.g08.bks.cpg/sg2_39_cif.got.tgz:76355.got - 2010.06.03 11:33:40.
