data_PCOD9097591
_publ_section_title
;
Structure prediction by ZEFSAII (Michael W. Deem and Ramdas Pophale) SiO2 
 PCOD9097591
Probable space group: P -1
;
_chemical_formula_sum "Si O2"
_cell_formula_units_Z 12
_cell_length_a 9.061738
_cell_length_b 9.878739
_cell_length_c 11.628034
_cell_angle_alpha 54.756621
_cell_angle_beta 143.517446
_cell_angle_gamma 104.853139
_cell_volume 456.934682
_symmetry_space_group_name_H-M "P -1"
_symmetry_group_IT_number 2
_symmetry_cell_setting 'triclinic'
loop_
_space_group_symop_operation_xyz
x,y,z
-x,-y,-z
loop_
_atom_site_type_symbol
_atom_site_label
_atom_site_fract_x
_atom_site_fract_y
_atom_site_fract_z
Si Si1 0.227065 0.019396 0.749152
Si Si2 0.081604 0.414364 0.467416
Si Si3 0.526530 0.716773 0.626067
Si Si4 0.726707 0.308791 0.920536
Si Si5 0.573668 0.002655 0.367435
Si Si6 0.014534 0.748242 0.140723
O O1 0.298886 0.975576 0.682461
O O2 0.027040 0.234700 0.519853
O O3 0.145810 0.871801 0.831996
O O4 0.500000 0.000000 0.000000
O O5 0.408012 0.344396 0.683576
O O6 0.938949 0.580340 0.208833
O O7 0.000000 0.500000 0.500000
O O8 0.698928 0.501149 0.860311
O O9 0.451376 0.850414 0.622348
O O10 0.247267 0.735269 0.381979
O O11 0.667751 0.802817 0.581424
O O12 0.873315 0.277250 0.905281
O O13 0.252216 0.064213 0.103980
#
# Coordination Sequence:
#
# PCOD9097591 Si02
#       6
#     2   2   2   2   2   2
#     4  10  20  38  61  90 124 161 204 251 306 363
#     4  10  20  36  61  89 120 159 202 250 304 361
#     4  10  22  39  60  93 126 158 208 250 298 361
#     4  10  21  37  62  91 126 162 203 255 299 360
#     4  11  23  39  65  90 124 165 200 252 306 360
#     4  11  21  39  66  91 121 164 204 249 305 360
#
# _framework density 26.261959000000001
#
# number of rings (size 3 to 8) (size 9 to 14) (size 15 to 20)
#    0.000    1.667    0.000    7.500    0.000    4.000 
#    0.000    0.000    0.000   20.000    0.000    0.000 
#    0.000    0.000    0.000    0.000    0.000    0.000 
#
# Total GULP energy -67313.462756 kJ/mol
# GULP energy per Si atom -5609.455230 kJ/mol
# Density = 2.620219 g / cm^3
# Si number density = 26.261959 Si / 1000 Ang^3
#
#
#
# Elastic Constant Matrix: (Units=GPa)
#
#
# Indices 1 2 3 4 5 6 
#
# 1 194.3797 65.4131 39.8226 -27.9666 -36.8715 -1.2451
# 2 65.4131 167.0341 52.2409 -33.7710 -38.4306 11.6202
# 3 39.8226 52.2409 82.6963 -19.0049 -29.5768 8.9556
# 4 -27.9666 -33.7710 -19.0049 67.0390 12.7274 -14.3554
# 5 -36.8715 -38.4306 -29.5768 12.7274 53.0036 -4.7182
# 6 -1.2451 11.6202 8.9556 -14.3554 -4.7182 52.7942
#
#
#
# Elastic Compliance Matrix: (Units=1/GPa)
#
#
# Indices 1 2 3 4 5 6 
#
# 1 0.006578 -0.001394 -0.001120 0.001490 0.002698 0.001298
# 2 -0.001394 0.008702 -0.003193 0.002216 0.002978 -0.000538
# 3 -0.001120 -0.003193 0.017295 0.001382 0.006106 -0.001336
# 4 0.001490 0.002216 0.001382 0.018043 -0.000547 0.004170
# 5 0.002698 0.002978 0.006106 -0.000547 0.026493 0.000591
# 6 0.001298 -0.000538 -0.001336 0.004170 0.000591 0.020504
#
#
# Mechanical properties :
#
#
# Convention : Reuss Voigt Hill
#
# Bulk Modulus (GPa) = 47.25964 84.34038 65.80001
# Shear Modulus (GPa) = 43.07242 53.67626 48.37434
#
# Velocity S-wave (km/s) = 4.05422 4.52583 4.29650
# Velocity P-wave (km/s) = 6.32061 7.71334 7.05144
#
# Compressibility (1/GPa) = 0.02115971
#
# Stress axis : x y z
#
# Youngs Moduli (GPa) = 152.03214 114.91501 57.81968
#
# Poissons Ratio (x) = 0.16018 0.06477
# Poissons Ratio (y) = 0.21192 0.18464
# Poissons Ratio (z) = 0.17031 0.36697
#
# Static dielectric constant tensor:
#      x y z
#    x 2.011870 0.108710 0.026300 
#    y 0.108710 2.095060 0.029610 
#    z 0.026300 0.029610 2.083640 
# 
# From -- ./inp_files/244346.got.cif
#   From: 2010.05.17/outbox.cif.g08.bks.cpg/sg2_123_cif.got.tgz:244346.got - 2010.06.03 11:33:40.
