data_PCOD9097570
_publ_section_title
;
Structure prediction by ZEFSAII (Michael W. Deem and Ramdas Pophale) SiO2 
 PCOD9097570
Probable space group: P -1
;
_chemical_formula_sum "Si O2"
_cell_formula_units_Z 12
_cell_length_a 8.246604
_cell_length_b 8.300323
_cell_length_c 12.757740
_cell_angle_alpha 120.551791
_cell_angle_beta 126.404251
_cell_angle_gamma 62.225091
_cell_volume 588.011570
_symmetry_space_group_name_H-M "P -1"
_symmetry_group_IT_number 2
_symmetry_cell_setting 'triclinic'
loop_
_space_group_symop_operation_xyz
x,y,z
-x,-y,-z
loop_
_atom_site_type_symbol
_atom_site_label
_atom_site_fract_x
_atom_site_fract_y
_atom_site_fract_z
Si Si1 0.208010 0.190932 0.938966
Si Si2 0.140069 0.124962 0.651506
Si Si3 0.862572 0.173193 0.935510
Si Si4 0.369302 0.757628 0.931128
Si Si5 0.834711 0.529007 0.354156
Si Si6 0.490574 0.891028 0.353032
O O1 0.137685 0.133886 0.778399
O O2 0.017254 0.280462 0.971955
O O3 0.309629 0.986825 0.966062
O O4 0.388795 0.302182 0.025945
O O5 0.083715 0.345701 0.662053
O O6 0.372221 0.046031 0.666808
O O7 0.000000 0.000000 0.500000
O O8 0.738614 0.091628 0.770699
O O9 0.686604 0.284121 0.984753
O O10 0.000000 0.000000 0.000000
O O11 0.221413 0.661622 0.772431
O O12 0.615403 0.671206 0.348395
O O13 0.000000 0.500000 0.500000
O O14 0.500000 0.000000 0.500000
#
# Coordination Sequence:
#
# PCOD9097570 Si02
#       6
#     2   2   2   2   2   2
#     4  10  20  36  65  92 122 166 210 258 311 386
#     4  10  20  36  61  88 122 166 212 250 315 374
#     4  10  21  37  63  94 124 166 209 259 313 376
#     4  10  20  40  61  93 127 161 214 256 320 375
#     4  10  23  39  64  91 130 170 204 270 321 369
#     4  10  22  38  61  90 127 165 212 257 312 376
#
# _framework density 20.407761000000001
#
# number of rings (size 3 to 8) (size 9 to 14) (size 15 to 20)
#    1.000    1.000    1.667    2.000    4.667    2.667 
#    0.000    5.000    0.000    6.000    0.000    0.000 
#    0.000    0.000    0.000    0.000    0.000    0.000 
#
# Total GULP energy -66857.557505 kJ/mol
# GULP energy per Si atom -5571.463125 kJ/mol
# Density = 2.036131 g / cm^3
# Si number density = 20.407761 Si / 1000 Ang^3
#
#
#
# Elastic Constant Matrix: (Units=GPa)
#
#
# Indices 1 2 3 4 5 6 
#
# 1 152.0239 24.8944 44.0699 -4.0967 2.8547 35.9191
# 2 24.8944 44.9870 5.7313 -3.2024 8.2052 10.7792
# 3 44.0699 5.7313 127.2632 -5.9106 16.3076 13.2461
# 4 -4.0967 -3.2024 -5.9106 33.1641 7.1975 3.5983
# 5 2.8547 8.2052 16.3076 7.1975 38.9495 -0.4497
# 6 35.9191 10.7792 13.2461 3.5983 -0.4497 23.8642
#
#
#
# Elastic Compliance Matrix: (Units=1/GPa)
#
#
# Indices 1 2 3 4 5 6 
#
# 1 0.011148 -0.002095 -0.002065 0.002471 -0.000142 -0.015061
# 2 -0.002095 0.027675 0.001909 0.005652 -0.007652 -0.011403
# 3 -0.002065 0.001909 0.009642 0.003110 -0.004905 -0.003667
# 4 0.002471 0.005652 0.003110 0.035038 -0.009304 -0.013457
# 5 -0.000142 -0.007652 -0.004905 -0.009304 0.031166 0.008382
# 6 -0.015061 -0.011403 -0.003667 -0.013457 0.008382 0.073946
#
#
# Mechanical properties :
#
#
# Convention : Reuss Voigt Hill
#
# Bulk Modulus (GPa) = 22.74730 52.62947 37.68838
# Shear Modulus (GPa) = 24.06508 35.83414 29.94961
#
# Velocity S-wave (km/s) = 3.43769 4.19490 3.83503
# Velocity P-wave (km/s) = 5.18918 7.02196 6.17395
#
# Compressibility (1/GPa) = 0.04396126
#
# Stress axis : x y z
#
# Youngs Moduli (GPa) = 89.70607 36.13371 103.71826
#
# Poissons Ratio (x) = 0.07570 0.21422
# Poissons Ratio (y) = 0.18794 -0.19800
# Poissons Ratio (z) = 0.18528 -0.06898
#
# Static dielectric constant tensor:
#      x y z
#    x 1.780890 0.003990 -0.020280 
#    y 0.003990 1.728450 0.017620 
#    z -0.020280 0.017620 1.687930 
# 
# From -- ./inp_files/221166.got.cif
#   From: 2010.05.17/outbox.cif.g08.bks.cpg/sg2_111_cif.got.tgz:221166.got - 2010.06.03 11:33:40.
