data_PCOD9097928
_publ_section_title
;
Structure prediction by ZEFSAII (Michael W. Deem and Ramdas Pophale) SiO2 
 PCOD9097928
Probable space group: P -1
;
_chemical_formula_sum "Si O2"
_cell_formula_units_Z 16
_cell_length_a 14.182937
_cell_length_b 8.865567
_cell_length_c 6.741335
_cell_angle_alpha 92.987091
_cell_angle_beta 111.217865
_cell_angle_gamma 120.261795
_cell_volume 652.927759
_symmetry_space_group_name_H-M "P -1"
_symmetry_group_IT_number 2
_symmetry_cell_setting 'triclinic'
loop_
_space_group_symop_operation_xyz
x,y,z
-x,-y,-z
loop_
_atom_site_type_symbol
_atom_site_label
_atom_site_fract_x
_atom_site_fract_y
_atom_site_fract_z
Si Si1 0.713218 0.853956 0.890393
Si Si2 0.477304 0.806311 0.774567
Si Si3 0.614079 0.474875 0.842270
Si Si4 0.085029 0.707920 0.654638
Si Si5 0.334521 0.802434 0.048432
Si Si6 0.361027 0.404758 0.668076
Si Si7 0.978040 0.040446 0.263228
Si Si8 0.826829 0.001589 0.609986
O O1 0.603256 0.824987 0.937837
O O2 0.744824 0.982457 0.732598
O O3 0.671111 0.655596 0.768231
O O4 0.835397 0.924105 0.103407
O O5 0.393965 0.808283 0.880319
O O6 0.400940 0.601019 0.613712
O O7 0.554196 0.008905 0.753114
O O8 0.671812 0.360368 0.852407
O O9 0.638286 0.543492 0.095615
O O10 0.469239 0.374706 0.706339
O O11 0.200400 0.755521 0.884897
O O12 0.997907 0.759095 0.700947
O O13 0.000000 0.500000 0.500000
O O14 0.143459 0.845868 0.517659
O O15 0.239192 0.205760 0.533404
O O16 0.050520 0.969158 0.200222
O O17 0.000000 0.000000 0.500000
#
# Coordination Sequence:
#
# PCOD9097928 Si02
#       8
#     2   2   2   2   2   2   2   2
#     4  11  21  42  60  93 124 160 201 250 309 360
#     4   9  20  35  64  89 125 159 195 256 299 358
#     4   9  19  32  65  88 120 154 206 252 296 352
#     4  11  25  41  63  91 118 158 213 257 298 362
#     4  10  20  36  62  94 119 158 205 255 302 350
#     4   9  19  36  60  92 115 160 215 246 286 352
#     4  10  22  40  65  85 113 160 215 249 286 351
#     4  11  25  39  63  87 127 162 201 257 304 358
#
# _framework density 24.505008
#
# number of rings (size 3 to 8) (size 9 to 14) (size 15 to 20)
#    0.000    2.000    1.250    2.625   14.000    2.000 
#    0.000    2.500    0.000    0.000    0.000    0.000 
#    0.000    0.000    0.000    0.000    0.000    0.000 
#
# Total GULP energy -89087.364583 kJ/mol
# GULP energy per Si atom -5567.960286 kJ/mol
# Density = 2.444923 g / cm^3
# Si number density = 24.505008 Si / 1000 Ang^3
#
#
#
# Elastic Constant Matrix: (Units=GPa)
#
#
# Indices 1 2 3 4 5 6 
#
# 1 91.6784 27.5151 9.5062 -6.9219 4.8041 -11.8035
# 2 27.5151 142.0859 39.6277 3.1244 7.3719 -6.7286
# 3 9.5062 39.6277 82.1374 2.9623 11.0442 -0.3292
# 4 -6.9219 3.1244 2.9623 47.8970 -4.0289 -1.6893
# 5 4.8041 7.3719 11.0442 -4.0289 20.6002 -7.4619
# 6 -11.8035 -6.7286 -0.3292 -1.6893 -7.4619 36.8122
#
#
#
# Elastic Compliance Matrix: (Units=1/GPa)
#
#
# Indices 1 2 3 4 5 6 
#
# 1 0.012210 -0.002111 -0.000432 0.002042 -0.000162 0.003586
# 2 -0.002111 0.008581 -0.003818 -0.000634 -0.000384 0.000751
# 3 -0.000432 -0.003818 0.015161 -0.001490 -0.007804 -0.002351
# 4 0.002042 -0.000634 -0.001490 0.021891 0.005812 0.002708
# 5 -0.000162 -0.000384 -0.007804 0.005812 0.058350 0.011902
# 6 0.003586 0.000751 -0.002351 0.002708 0.011902 0.030968
#
#
# Mechanical properties :
#
#
# Convention : Reuss Voigt Hill
#
# Bulk Modulus (GPa) = 43.04870 52.13329 47.59099
# Shear Modulus (GPa) = 29.82818 37.01207 33.42013
#
# Velocity S-wave (km/s) = 3.49266 3.89059 3.69698
# Velocity P-wave (km/s) = 5.81983 6.44228 6.13895
#
# Compressibility (1/GPa) = 0.02322951
#
# Stress axis : x y z
#
# Youngs Moduli (GPa) = 81.89759 116.53614 65.96080
#
# Poissons Ratio (x) = 0.24596 0.02852
# Poissons Ratio (y) = 0.17285 0.25185
# Poissons Ratio (z) = 0.03541 0.44496
#
# Static dielectric constant tensor:
#      x y z
#    x 2.079430 -0.038710 -0.120890 
#    y -0.038710 2.087960 0.010480 
#    z -0.120890 0.010480 2.062600 
# 
# From -- ./inp_files/298599.got.cif
#   From: 2010.05.17/outbox.cif.g08.bks.cpg/sg2_150_cif.got.tgz:298599.got - 2010.06.03 11:33:40.
