data_PCOD9097163
_publ_section_title
;
Structure prediction by ZEFSAII (Michael W. Deem and Ramdas Pophale) SiO2 
 PCOD9097163
Probable space group: P -1
;
_chemical_formula_sum "Si O2"
_cell_formula_units_Z 14
_cell_length_a 9.172732
_cell_length_b 21.802589
_cell_length_c 21.641910
_cell_angle_alpha 166.941583
_cell_angle_beta 49.773426
_cell_angle_gamma 130.278733
_cell_volume 742.833818
_symmetry_space_group_name_H-M "P -1"
_symmetry_group_IT_number 2
_symmetry_cell_setting 'triclinic'
loop_
_space_group_symop_operation_xyz
x,y,z
-x,-y,-z
loop_
_atom_site_type_symbol
_atom_site_label
_atom_site_fract_x
_atom_site_fract_y
_atom_site_fract_z
Si Si1 0.012332 0.447216 0.372841
Si Si2 0.037101 0.708084 0.942243
Si Si3 0.636392 0.975721 0.665199
Si Si4 0.808562 0.977361 0.161921
Si Si5 0.071074 0.183263 0.488814
Si Si6 0.871264 0.560562 0.152321
Si Si7 0.359989 0.729091 0.776356
O O1 0.811331 0.313750 0.268825
O O2 0.000000 0.500000 0.500000
O O3 0.073817 0.731342 0.599074
O O4 0.164136 0.230138 0.105169
O O5 0.016026 0.887757 0.185487
O O6 0.014339 0.394763 0.661122
O O7 0.245413 0.737163 0.880561
O O8 0.894578 0.820912 0.042373
O O9 0.412243 0.983096 0.729617
O O10 0.704190 0.830233 0.566904
O O11 0.720884 0.784857 0.402629
O O12 0.750550 0.276810 0.926578
O O13 0.004657 0.292923 0.680965
O O14 0.000000 0.500000 0.000000
O O15 0.500000 0.500000 0.500000
O O16 0.500000 0.000000 0.000000
#
# Coordination Sequence:
#
# PCOD9097163 Si02
#       7
#     2   2   2   2   2   2   2
#     4  11  24  41  58  85 118 166 203 254 311 353
#     4  11  21  38  58  83 120 154 194 249 301 351
#     4  10  21  37  60  93 112 154 202 235 301 347
#     4  11  23  40  61  85 124 156 200 253 305 359
#     4  10  20  36  59  90 111 152 201 232 297 345
#     4  10  20  38  63  91 123 149 194 247 300 355
#     4  11  23  39  56  82 115 159 201 249 304 352
#
# _framework density 18.846746
#
# number of rings (size 3 to 8) (size 9 to 14) (size 15 to 20)
#    0.857    0.571    1.429    6.000    0.000    3.429 
#    0.000    0.000    0.000    5.143    0.000    0.000 
#    0.000    0.000    0.000    0.000    0.000    0.000 
#
# Total GULP energy -77937.972009 kJ/mol
# GULP energy per Si atom -5566.998001 kJ/mol
# Density = 1.880385 g / cm^3
# Si number density = 18.846746 Si / 1000 Ang^3
#
#
#
# Elastic Constant Matrix: (Units=GPa)
#
#
# Indices 1 2 3 4 5 6 
#
# 1 69.2371 34.4493 24.9985 -7.4199 -7.3082 5.9745
# 2 34.4493 53.9437 32.0069 -18.0780 7.9266 3.3538
# 3 24.9985 32.0069 139.6493 -13.1506 -1.8237 8.7165
# 4 -7.4199 -18.0780 -13.1506 40.4361 -3.6338 0.6852
# 5 -7.3082 7.9266 -1.8237 -3.6338 31.4728 -10.5193
# 6 5.9745 3.3538 8.7165 0.6852 -10.5193 18.2832
#
#
#
# Elastic Compliance Matrix: (Units=1/GPa)
#
#
# Indices 1 2 3 4 5 6 
#
# 1 0.023989 -0.017522 -0.000498 -0.002707 0.010164 0.001562
# 2 -0.017522 0.039075 -0.004383 0.011560 -0.015795 -0.008873
# 3 -0.000498 -0.004383 0.008512 0.000823 0.000660 -0.002742
# 4 -0.002707 0.011560 0.000823 0.029618 -0.001223 -0.003442
# 5 0.010164 -0.015795 0.000660 -0.001223 0.046771 0.026217
# 6 0.001562 -0.008873 -0.002742 -0.003442 0.026217 0.072333
#
#
# Mechanical properties :
#
#
# Convention : Reuss Voigt Hill
#
# Bulk Modulus (GPa) = 37.35568 49.52661 43.44115
# Shear Modulus (GPa) = 18.24634 29.46345 23.85490
#
# Velocity S-wave (km/s) = 3.11487 3.95817 3.56157
# Velocity P-wave (km/s) = 5.72716 6.87205 6.32556
#
# Compressibility (1/GPa) = 0.02676969
#
# Stress axis : x y z
#
# Youngs Moduli (GPa) = 41.68557 25.59182 117.48400
#
# Poissons Ratio (x) = 0.44842 0.05850
# Poissons Ratio (y) = 0.73042 0.51494
# Poissons Ratio (z) = 0.02076 0.11217
#
# Static dielectric constant tensor:
#      x y z
#    x 1.667180 -0.038200 0.006800 
#    y -0.038200 1.675600 -0.017300 
#    z 0.006800 -0.017300 1.676780 
# 
# From -- ./inp_files/357976.got.cif
#   From: 2010.05.17/outbox.cif.g08.bks.cpg/sg2_179_cif.got.tgz:357976.got - 2010.06.03 11:33:40.
