data_PCOD9097522
_publ_section_title
;
Structure prediction by ZEFSAII (Michael W. Deem and Ramdas Pophale) SiO2 
 PCOD9097522
Probable space group: P -1
;
_chemical_formula_sum "Si O2"
_cell_formula_units_Z 16
_cell_length_a 16.474907
_cell_length_b 9.372050
_cell_length_c 9.641967
_cell_angle_alpha 136.436940
_cell_angle_beta 61.580392
_cell_angle_gamma 92.363803
_cell_volume 780.954689
_symmetry_space_group_name_H-M "P -1"
_symmetry_group_IT_number 2
_symmetry_cell_setting 'triclinic'
loop_
_space_group_symop_operation_xyz
x,y,z
-x,-y,-z
loop_
_atom_site_type_symbol
_atom_site_label
_atom_site_fract_x
_atom_site_fract_y
_atom_site_fract_z
Si Si1 0.572941 0.128442 0.909422
Si Si2 0.669435 0.370849 0.137744
Si Si3 0.346340 0.374727 0.187677
Si Si4 0.374086 0.195699 0.730572
Si Si5 0.143641 0.841451 0.360985
Si Si6 0.059620 0.645055 0.086859
Si Si7 0.741043 0.581456 0.437478
Si Si8 0.319987 0.821348 0.404060
O O1 0.594979 0.238647 0.830240
O O2 0.667373 0.856171 0.645840
O O3 0.588185 0.274890 0.122363
O O4 0.456328 0.165512 0.016221
O O5 0.640396 0.599028 0.221743
O O6 0.681925 0.443186 0.331682
O O7 0.783056 0.165469 0.834698
O O8 0.253788 0.424019 0.405154
O O9 0.357813 0.609900 0.334006
O O10 0.337430 0.304285 0.989551
O O11 0.500000 0.000000 0.500000
O O12 0.310527 0.061513 0.642104
O O13 0.115729 0.639618 0.186331
O O14 0.217474 0.829041 0.420778
O O15 0.032441 0.078543 0.648247
O O16 0.150298 0.547155 0.826942
O O17 0.000000 0.500000 0.000000
#
# Coordination Sequence:
#
# PCOD9097522 Si02
#       8
#     2   2   2   2   2   2   2   2
#     4  11  20  37  61  84 120 168 203 239 289 367
#     4  10  20  36  61  85 118 154 210 243 290 361
#     4  12  24  37  56  93 131 153 199 254 302 353
#     4  12  21  35  61  89 119 170 210 236 283 362
#     4   9  20  35  60  93 107 149 205 258 287 353
#     4  10  20  38  65  88 114 153 209 250 306 367
#     4  11  24  39  58  92 124 153 196 263 310 352
#     4  11  21  37  63  87 121 163 205 248 289 357
#
# _framework density 20.487743999999999
#
# number of rings (size 3 to 8) (size 9 to 14) (size 15 to 20)
#    0.000    1.250    5.000    3.000    1.750    1.500 
#    0.000    0.625    0.000    1.500    0.000    0.000 
#    0.000    0.000    0.000    0.000    0.000    0.000 
#
# Total GULP energy -89182.903821 kJ/mol
# GULP energy per Si atom -5573.931489 kJ/mol
# Density = 2.044111 g / cm^3
# Si number density = 20.487744 Si / 1000 Ang^3
#
#
#
# Elastic Constant Matrix: (Units=GPa)
#
#
# Indices 1 2 3 4 5 6 
#
# 1 120.4578 10.5201 52.1024 3.3655 25.3870 13.3786
# 2 10.5201 48.6563 45.0778 -3.6119 1.1579 0.9404
# 3 52.1024 45.0778 123.1008 1.9384 7.3739 3.0950
# 4 3.3655 -3.6119 1.9384 26.9903 -1.5335 5.8722
# 5 25.3870 1.1579 7.3739 -1.5335 48.1016 8.3967
# 6 13.3786 0.9404 3.0950 5.8722 8.3967 21.5621
#
#
#
# Elastic Compliance Matrix: (Units=1/GPa)
#
#
# Indices 1 2 3 4 5 6 
#
# 1 0.012093 0.002982 -0.005806 0.000132 -0.004685 -0.005011
# 2 0.002982 0.032657 -0.013256 0.005637 0.000385 -0.003057
# 3 -0.005806 -0.013256 0.015384 -0.002671 0.000503 0.002504
# 4 0.000132 0.005637 -0.002671 0.040915 0.003695 -0.012526
# 5 -0.004685 0.000385 0.000503 0.003695 0.024653 -0.007789
# 6 -0.005011 -0.003057 0.002504 -0.012526 -0.007789 0.055705
#
#
# Mechanical properties :
#
#
# Convention : Reuss Voigt Hill
#
# Bulk Modulus (GPa) = 35.74629 56.40173 46.07401
# Shear Modulus (GPa) = 22.43258 31.63179 27.03219
#
# Velocity S-wave (km/s) = 3.31256 3.93356 3.63634
# Velocity P-wave (km/s) = 5.66712 6.94405 6.33782
#
# Compressibility (1/GPa) = 0.02797493
#
# Stress axis : x y z
#
# Youngs Moduli (GPa) = 82.69463 30.62157 65.00359
#
# Poissons Ratio (x) = -0.09132 0.37740
# Poissons Ratio (y) = -0.24663 0.86167
# Poissons Ratio (z) = 0.48011 0.40591
#
# Static dielectric constant tensor:
#      x y z
#    x 1.814000 -0.015160 0.005630 
#    y -0.015160 1.763400 0.029520 
#    z 0.005630 0.029520 1.757600 
# 
# From -- ./inp_files/327963.got.cif
#   From: 2010.05.17/outbox.cif.g08.bks.cpg/sg2_164_cif.got.tgz:327963.got - 2010.06.03 11:33:40.
