data_PCOD9097185
_publ_section_title
;
Structure prediction by ZEFSAII (Michael W. Deem and Ramdas Pophale) SiO2 
 PCOD9097185
Probable space group: P -1
;
_chemical_formula_sum "Si O2"
_cell_formula_units_Z 13
_cell_length_a 16.072743
_cell_length_b 6.529706
_cell_length_c 7.946962
_cell_angle_alpha 98.086527
_cell_angle_beta 146.294097
_cell_angle_gamma 86.850702
_cell_volume 455.294658
_symmetry_space_group_name_H-M "P -1"
_symmetry_group_IT_number 2
_symmetry_cell_setting 'triclinic'
loop_
_space_group_symop_operation_xyz
x,y,z
-x,-y,-z
loop_
_atom_site_type_symbol
_atom_site_label
_atom_site_fract_x
_atom_site_fract_y
_atom_site_fract_z
Si Si1 0.755271 0.426804 0.299151
Si Si2 0.544993 0.663095 0.767884
Si Si3 0.772359 0.510058 0.706849
Si Si4 0.794121 0.881745 0.014827
Si Si5 0.981872 0.777448 0.649773
Si Si6 0.500000 0.000000 0.000000
Si Si7 0.809736 0.092125 0.592260
O O1 0.718984 0.532662 0.428082
O O2 0.746390 0.189001 0.319251
O O3 0.923404 0.536207 0.554033
O O4 0.644924 0.481535 0.974653
O O5 0.374587 0.568936 0.441149
O O6 0.546058 0.801931 0.952817
O O7 0.624102 0.813052 0.776067
O O8 0.864690 0.307295 0.809788
O O9 0.838294 0.725438 0.924374
O O10 0.848966 0.120177 0.089570
O O11 0.889369 0.826359 0.331797
O O12 0.917571 0.927081 0.699153
O O13 0.349897 0.004281 0.616147
#
# Coordination Sequence:
#
# PCOD9097185 Si02
#       7
#     2   2   2   2   2   1   2
#     4   9  19  34  58  84 102 143 186 215 263 324
#     4  10  18  34  58  80 108 143 179 218 275 321
#     4   9  20  32  57  85 107 135 183 233 263 302
#     4  10  20  35  55  81 112 145 173 225 276 312
#     4  10  20  38  59  73 111 153 179 207 272 332
#     4  10  16  30  60  80 100 142 188 212 256 332
#     4   9  19  33  57  83 101 145 183 218 256 325
#
# _framework density 28.552935999999999
#
# number of rings (size 3 to 8) (size 9 to 14) (size 15 to 20)
#    0.923    1.538    3.077    0.923    0.000    1.231 
#    0.000    6.923    6.769    1.846    0.000    0.000 
#    0.000    0.000    0.000    0.000    0.000    0.000 
#
# Total GULP energy -72444.575308 kJ/mol
# GULP energy per Si atom -5572.659639 kJ/mol
# Density = 2.848795 g / cm^3
# Si number density = 28.552936 Si / 1000 Ang^3
#
#
#
# Elastic Constant Matrix: (Units=GPa)
#
#
# Indices 1 2 3 4 5 6 
#
# 1 96.8326 10.6953 20.8444 -13.3075 1.9472 7.6097
# 2 10.6953 97.0000 16.0895 -20.2943 3.6877 -7.8235
# 3 20.8444 16.0895 75.3958 17.5691 -17.7161 -11.8048
# 4 -13.3075 -20.2943 17.5691 42.3327 -5.4513 -4.1065
# 5 1.9472 3.6877 -17.7161 -5.4513 49.8716 8.5275
# 6 7.6097 -7.8235 -11.8048 -4.1065 8.5275 45.3349
#
#
#
# Elastic Compliance Matrix: (Units=1/GPa)
#
#
# Indices 1 2 3 4 5 6 
#
# 1 0.012621 0.000749 -0.005891 0.006320 -0.001493 -0.002670
# 2 0.000749 0.013143 -0.005239 0.008612 -0.002260 0.001983
# 3 -0.005891 -0.005239 0.020723 -0.011859 0.006126 0.003254
# 4 0.006320 0.008612 -0.011859 0.034545 -0.001447 0.000739
# 5 -0.001493 -0.002260 0.006126 -0.001447 0.022802 -0.002964
# 6 -0.002670 0.001983 0.003254 0.000739 -0.002964 0.024320
#
#
# Mechanical properties :
#
#
# Convention : Reuss Voigt Hill
#
# Bulk Modulus (GPa) = 38.87272 40.49856 39.68564
# Shear Modulus (GPa) = 31.74787 42.28112 37.01450
#
# Velocity S-wave (km/s) = 3.33813 3.85229 3.60439
# Velocity P-wave (km/s) = 5.33866 5.83106 5.59028
#
# Compressibility (1/GPa) = 0.02572498
#
# Stress axis : x y z
#
# Youngs Moduli (GPa) = 79.23427 76.08330 48.25670
#
# Poissons Ratio (x) = -0.05701 0.28427
# Poissons Ratio (y) = -0.05937 0.25284
# Poissons Ratio (z) = 0.46675 0.39863
#
# Static dielectric constant tensor:
#      x y z
#    x 7.957250 0.297080 3.568430 
#    y 0.297080 2.248820 0.124330 
#    z 3.568430 0.124330 4.528040 
# 
# From -- ./inp_files/165444.got.cif
#   From: 2010.05.17/outbox.cif.g08.bks.cpg/sg2_83_cif.got.tgz:165444.got - 2010.06.03 11:33:40.
