data_PCOD9097583
_publ_section_title
;
Structure prediction by ZEFSAII (Michael W. Deem and Ramdas Pophale) SiO2 
 PCOD9097583
Probable space group: P -1
;
_chemical_formula_sum "Si O2"
_cell_formula_units_Z 16
_cell_length_a 19.453180
_cell_length_b 5.700866
_cell_length_c 9.479179
_cell_angle_alpha 109.388721
_cell_angle_beta 49.521113
_cell_angle_gamma 113.264955
_cell_volume 730.294927
_symmetry_space_group_name_H-M "P -1"
_symmetry_group_IT_number 2
_symmetry_cell_setting 'triclinic'
loop_
_space_group_symop_operation_xyz
x,y,z
-x,-y,-z
loop_
_atom_site_type_symbol
_atom_site_label
_atom_site_fract_x
_atom_site_fract_y
_atom_site_fract_z
Si Si1 0.996560 0.645214 0.176658
Si Si2 0.524480 0.258885 0.343221
Si Si3 0.867538 0.361536 0.746346
Si Si4 0.014410 0.146929 0.361913
Si Si5 0.534231 0.639419 0.837126
Si Si6 0.627967 0.239522 0.468651
Si Si7 0.784271 0.474525 0.495619
Si Si8 0.278915 0.983091 0.281565
O O1 0.894783 0.530083 0.353227
O O2 0.078211 0.635454 0.177592
O O3 0.001987 0.946606 0.212887
O O4 0.000000 0.500000 0.000000
O O5 0.500000 0.500000 0.500000
O O6 0.540545 0.311050 0.166661
O O7 0.605798 0.210234 0.325896
O O8 0.432225 0.025074 0.436544
O O9 0.929914 0.279979 0.521040
O O10 0.884033 0.660827 0.747959
O O11 0.768230 0.164523 0.825401
O O12 0.000000 0.000000 0.500000
O O13 0.584201 0.454673 0.643990
O O14 0.611266 0.895725 0.826237
O O15 0.500000 0.500000 0.000000
O O16 0.734919 0.337285 0.391178
O O17 0.760689 0.756385 0.599289
O O18 0.745957 0.252552 0.619077
#
# Coordination Sequence:
#
# PCOD9097583 Si02
#       8
#     2   2   2   2   2   2   2   2
#     4  11  24  39  59  91 132 166 210 270 331 373
#     4   9  17  36  59  88 118 163 213 251 315 387
#     4  10  20  36  61  89 117 167 212 257 310 390
#     4   9  17  34  60  86 112 158 208 252 304 371
#     4  10  21  37  61  96 130 159 206 276 332 370
#     4   9  19  36  63  87 118 168 217 255 309 396
#     4  11  22  40  65  95 121 168 221 266 309 390
#     4  11  22  39  67  95 121 164 222 264 313 392
#
# _framework density 21.908954999999999
#
# number of rings (size 3 to 8) (size 9 to 14) (size 15 to 20)
#    0.000    2.000    2.500    2.250    1.750    1.000 
#    0.000    3.750    0.000    1.500    0.000    0.000 
#    0.000    0.000    0.000    0.000    0.000    0.000 
#
# Total GULP energy -89108.713771 kJ/mol
# GULP energy per Si atom -5569.294611 kJ/mol
# Density = 2.185909 g / cm^3
# Si number density = 21.908955 Si / 1000 Ang^3
#
#
#
# Elastic Constant Matrix: (Units=GPa)
#
#
# Indices 1 2 3 4 5 6 
#
# 1 119.1517 35.4040 35.4941 -6.9460 46.9646 24.8483
# 2 35.4040 152.4805 34.4955 6.0417 18.4543 25.6691
# 3 35.4941 34.4955 71.6217 10.5155 30.9507 2.0093
# 4 -6.9460 6.0417 10.5155 33.7358 -2.0171 6.5564
# 5 46.9646 18.4543 30.9507 -2.0171 29.2372 6.1772
# 6 24.8483 25.6691 2.0093 6.5564 6.1772 45.2936
#
#
#
# Elastic Compliance Matrix: (Units=1/GPa)
#
#
# Indices 1 2 3 4 5 6 
#
# 1 0.029215 -0.000940 0.009494 0.001667 -0.054426 -0.008735
# 2 -0.000940 0.008214 -0.004191 0.000573 0.001703 -0.004269
# 3 0.009494 -0.004191 0.035336 -0.012269 -0.051797 0.004439
# 4 0.001667 0.000573 -0.012269 0.036073 0.014092 -0.007839
# 5 -0.054426 0.001703 -0.051797 0.014092 0.175250 0.005250
# 6 -0.008735 -0.004269 0.004439 -0.007839 0.005250 0.029511
#
#
# Mechanical properties :
#
#
# Convention : Reuss Voigt Hill
#
# Bulk Modulus (GPa) = 12.27106 61.56012 36.91559
# Shear Modulus (GPa) = 15.05862 37.51067 26.28465
#
# Velocity S-wave (km/s) = 2.62454 4.14226 3.46746
# Velocity P-wave (km/s) = 3.84673 7.14401 5.73735
#
# Compressibility (1/GPa) = 0.08149258
#
# Stress axis : x y z
#
# Youngs Moduli (GPa) = 34.22926 121.73781 28.29983
#
# Poissons Ratio (x) = 0.11442 -0.26869
# Poissons Ratio (y) = 0.03217 0.11860
# Poissons Ratio (z) = -0.32499 0.51017
#
# Static dielectric constant tensor:
#      x y z
#    x 1.923870 -0.058620 0.014710 
#    y -0.058620 1.910260 -0.006470 
#    z 0.014710 -0.006470 1.806250 
# 
# From -- ./inp_files/339923.got.cif
#   From: 2010.05.17/outbox.cif.g08.bks.cpg/sg2_170_cif.got.tgz:339923.got - 2010.06.03 11:33:40.
