data_PCOD9097208
_publ_section_title
;
Structure prediction by ZEFSAII (Michael W. Deem and Ramdas Pophale) SiO2 
 PCOD9097208
Probable space group: P -1
;
_chemical_formula_sum "Si O2"
_cell_formula_units_Z 16
_cell_length_a 9.900553
_cell_length_b 12.786321
_cell_length_c 9.814238
_cell_angle_alpha 42.082235
_cell_angle_beta 104.162507
_cell_angle_gamma 84.383128
_cell_volume 728.868668
_symmetry_space_group_name_H-M "P -1"
_symmetry_group_IT_number 2
_symmetry_cell_setting 'triclinic'
loop_
_space_group_symop_operation_xyz
x,y,z
-x,-y,-z
loop_
_atom_site_type_symbol
_atom_site_label
_atom_site_fract_x
_atom_site_fract_y
_atom_site_fract_z
Si Si1 0.483449 0.640084 0.148115
Si Si2 0.304527 0.665031 0.695108
Si Si3 0.858172 0.506396 0.049382
Si Si4 0.088868 0.336141 0.507886
Si Si5 0.904434 0.193370 0.747636
Si Si6 0.696324 0.471433 0.614967
Si Si7 0.455614 0.173955 0.405581
Si Si8 0.401872 0.028734 0.806313
O O1 0.601280 0.519663 0.180469
O O2 0.567845 0.595952 0.359191
O O3 0.360588 0.561663 0.222050
O O4 0.425382 0.844553 0.926042
O O5 0.219850 0.629548 0.838550
O O6 0.179646 0.786160 0.437927
O O7 0.424191 0.745378 0.673588
O O8 0.941018 0.451881 0.268852
O O9 0.716252 0.689830 0.810105
O O10 0.000000 0.500000 0.000000
O O11 0.184114 0.447373 0.429405
O O12 0.219507 0.151248 0.665368
O O13 0.017340 0.288067 0.668665
O O14 0.775286 0.289137 0.734480
O O15 0.000000 0.000000 0.000000
O O16 0.458212 0.126311 0.612531
O O17 0.500000 0.000000 0.500000
O O18 0.500000 0.000000 0.000000
#
# Coordination Sequence:
#
# PCOD9097208 Si02
#       8
#     2   2   2   2   2   2   2   2
#     4  10  21  37  64 101 133 174 230 278 342 414
#     4  10  24  44  72  95 135 189 239 287 344 426
#     4  11  24  47  69  96 137 185 239 287 355 424
#     4  11  22  40  64  96 136 185 222 288 353 416
#     4  10  22  36  61  98 139 173 223 282 361 416
#     4  10  20  36  59  93 134 180 218 273 347 412
#     4  12  27  48  74 103 138 191 245 292 347 423
#     4  12  24  40  70 103 140 175 233 297 346 414
#
# _framework density 21.951827000000002
#
# number of rings (size 3 to 8) (size 9 to 14) (size 15 to 20)
#    0.000    1.250    2.500    3.000    5.250    1.000 
#    0.000    0.625    0.000    0.000    0.000    0.000 
#    0.000    0.000    0.000    0.000    0.000    0.000 
#
# Total GULP energy -89325.582610 kJ/mol
# GULP energy per Si atom -5582.848913 kJ/mol
# Density = 2.190186 g / cm^3
# Si number density = 21.951827 Si / 1000 Ang^3
#
#
#
# Elastic Constant Matrix: (Units=GPa)
#
#
# Indices 1 2 3 4 5 6 
#
# 1 156.2748 31.0589 60.9263 -5.7153 -15.6538 9.8438
# 2 31.0589 61.7379 47.3767 -4.7053 3.2275 7.9485
# 3 60.9263 47.3767 168.2312 -5.1552 10.4590 1.1125
# 4 -5.7153 -4.7053 -5.1552 38.4453 -5.9233 -2.5598
# 5 -15.6538 3.2275 10.4590 -5.9233 43.1370 -1.5451
# 6 9.8438 7.9485 1.1125 -2.5598 -1.5451 28.7888
#
#
#
# Elastic Compliance Matrix: (Units=1/GPa)
#
#
# Indices 1 2 3 4 5 6 
#
# 1 0.008399 -0.002062 -0.002659 0.001120 0.003933 -0.001889
# 2 -0.002062 0.022155 -0.005352 0.001169 -0.001133 -0.005162
# 3 -0.002659 -0.005352 0.008558 -0.000176 -0.002595 0.001901
# 4 0.001120 0.001169 -0.000176 0.027064 0.004147 0.001930
# 5 0.003933 -0.001133 -0.002595 0.004147 0.025922 0.000828
# 6 -0.001889 -0.005162 0.001901 0.001930 0.000828 0.036950
#
#
# Mechanical properties :
#
#
# Convention : Reuss Voigt Hill
#
# Bulk Modulus (GPa) = 52.72614 73.88529 63.30572
# Shear Modulus (GPa) = 32.15099 38.53301 35.34200
#
# Velocity S-wave (km/s) = 3.83118 4.19423 4.01681
# Velocity P-wave (km/s) = 6.60619 7.56217 7.10029
#
# Compressibility (1/GPa) = 0.01896592
#
# Stress axis : x y z
#
# Youngs Moduli (GPa) = 119.05669 45.13686 116.85358
#
# Poissons Ratio (x) = 0.09308 0.31070
# Poissons Ratio (y) = 0.24552 0.62540
# Poissons Ratio (z) = 0.31656 0.24157
#
# Static dielectric constant tensor:
#      x y z
#    x 1.939400 0.022420 -0.016930 
#    y 0.022420 1.870730 0.011950 
#    z -0.016930 0.011950 1.813970 
# 
# From -- ./inp_files/398256.got.cif
#   From: 2010.05.17/outbox.cif.g08.bks.cpg/sg2_200_cif.got.tgz:398256.got - 2010.06.03 11:33:40.
