data_PCOD9097096
_publ_section_title
;
Structure prediction by ZEFSAII (Michael W. Deem and Ramdas Pophale) SiO2 
 PCOD9097096
Probable space group: P -1
;
_chemical_formula_sum "Si O2"
_cell_formula_units_Z 16
_cell_length_a 9.029709
_cell_length_b 11.356852
_cell_length_c 14.089375
_cell_angle_alpha 115.476892
_cell_angle_beta 140.364394
_cell_angle_gamma 80.987274
_cell_volume 792.880852
_symmetry_space_group_name_H-M "P -1"
_symmetry_group_IT_number 2
_symmetry_cell_setting 'triclinic'
loop_
_space_group_symop_operation_xyz
x,y,z
-x,-y,-z
loop_
_atom_site_type_symbol
_atom_site_label
_atom_site_fract_x
_atom_site_fract_y
_atom_site_fract_z
Si Si1 0.875793 0.011118 0.342326
Si Si2 0.888623 0.276738 0.917202
Si Si3 0.209055 0.546031 0.243301
Si Si4 0.511002 0.744642 0.125158
Si Si5 0.226439 0.000407 0.337112
Si Si6 0.906793 0.690982 0.444234
Si Si7 0.259828 0.302480 0.422258
Si Si8 0.907174 0.458258 0.238775
O O1 0.626516 0.888155 0.178417
O O2 0.000000 0.000000 0.500000
O O3 0.059275 0.993314 0.345058
O O4 0.872522 0.167671 0.389942
O O5 0.801785 0.352370 0.812488
O O6 0.691054 0.250133 0.894748
O O7 0.895933 0.131485 0.833033
O O8 0.132781 0.391111 0.112309
O O9 0.473667 0.600915 0.437883
O O10 0.009131 0.544318 0.224097
O O11 0.722341 0.711132 0.278591
O O12 0.374316 0.624980 0.944003
O O13 0.244422 0.144668 0.346966
O O14 0.500000 0.000000 0.500000
O O15 0.776414 0.675769 0.475806
O O16 0.967507 0.557747 0.392750
O O17 0.053071 0.347957 0.282932
#
# Coordination Sequence:
#
# PCOD9097096 Si02
#       8
#     2   2   2   2   2   2   2   2
#     4   9  20  33  56  87 112 141 193 239 273 332
#     4  10  20  36  59  87 110 148 191 244 278 328
#     4  10  21  37  57  83 118 143 195 233 283 339
#     4  10  20  39  57  86 116 145 196 240 275 336
#     4  11  20  36  61  85 111 151 190 233 287 336
#     4  10  20  38  58  82 113 153 189 231 283 340
#     4  11  22  40  56  85 119 149 187 238 285 346
#     4  11  24  36  58  86 117 152 188 235 291 336
#
# _framework density 20.179577999999999
#
# number of rings (size 3 to 8) (size 9 to 14) (size 15 to 20)
#    0.000    1.750    2.500    2.625    3.500    2.000 
#    0.000    6.250    0.000    0.000    0.000    0.000 
#    0.000    0.000    0.000    0.000    0.000    0.000 
#
# Total GULP energy -89296.607828 kJ/mol
# GULP energy per Si atom -5581.037989 kJ/mol
# Density = 2.013365 g / cm^3
# Si number density = 20.179578 Si / 1000 Ang^3
#
#
#
# Elastic Constant Matrix: (Units=GPa)
#
#
# Indices 1 2 3 4 5 6 
#
# 1 60.2439 34.0627 27.1866 29.6023 -0.7941 7.2147
# 2 34.0627 95.3404 43.8950 25.9065 3.7638 -9.3147
# 3 27.1866 43.8950 72.6645 29.1449 10.6685 4.9532
# 4 29.6023 25.9065 29.1449 37.6614 -0.4224 -1.4609
# 5 -0.7941 3.7638 10.6685 -0.4224 31.7853 13.1389
# 6 7.2147 -9.3147 4.9532 -1.4609 13.1389 24.9438
#
#
#
# Elastic Compliance Matrix: (Units=1/GPa)
#
#
# Indices 1 2 3 4 5 6 
#
# 1 0.035068 -0.009469 0.001909 -0.023213 0.009487 -0.020415
# 2 -0.009469 0.019170 -0.008874 0.001631 -0.005581 0.014695
# 3 0.001909 -0.008874 0.025962 -0.015830 -0.004747 -0.007448
# 4 -0.023213 0.001631 -0.015830 0.056465 -0.000515 0.014045
# 5 0.009487 -0.005581 -0.004747 -0.000515 0.045463 -0.027863
# 6 -0.020415 0.014695 -0.007448 0.014045 -0.027863 0.068460
#
#
# Mechanical properties :
#
#
# Convention : Reuss Voigt Hill
#
# Bulk Modulus (GPa) = 21.12745 48.72636 34.92691
# Shear Modulus (GPa) = 16.70933 27.08507 21.89720
#
# Velocity S-wave (km/s) = 2.88068 3.66758 3.29768
# Velocity P-wave (km/s) = 4.64293 6.49105 5.64316
#
# Compressibility (1/GPa) = 0.04733179
#
# Stress axis : x y z
#
# Youngs Moduli (GPa) = 28.51618 52.16391 38.51808
#
# Poissons Ratio (x) = 0.49395 -0.07353
# Poissons Ratio (y) = 0.27003 0.34181
# Poissons Ratio (z) = -0.05444 0.46290
#
# Static dielectric constant tensor:
#      x y z
#    x 1.701740 -0.001000 -0.008770 
#    y -0.001000 1.742400 0.025750 
#    z -0.008770 0.025750 1.739520 
# 
# From -- ./inp_files/274687.got.cif
#   From: 2010.05.17/outbox.cif.g08.bks.cpg/sg2_138_cif.got.tgz:274687.got - 2010.06.03 11:33:40.
