data_PCOD9097884
_publ_section_title
;
Structure prediction by ZEFSAII (Michael W. Deem and Ramdas Pophale) SiO2 
 PCOD9097884
Probable space group: P -1
;
_chemical_formula_sum "Si O2"
_cell_formula_units_Z 14
_cell_length_a 7.683440
_cell_length_b 7.851096
_cell_length_c 13.761447
_cell_angle_alpha 52.122797
_cell_angle_beta 62.883807
_cell_angle_gamma 62.793443
_cell_volume 564.339927
_symmetry_space_group_name_H-M "P -1"
_symmetry_group_IT_number 2
_symmetry_cell_setting 'triclinic'
loop_
_space_group_symop_operation_xyz
x,y,z
-x,-y,-z
loop_
_atom_site_type_symbol
_atom_site_label
_atom_site_fract_x
_atom_site_fract_y
_atom_site_fract_z
Si Si1 0.200232 0.446017 0.761721
Si Si2 0.138100 0.157153 0.268206
Si Si3 0.363423 0.968608 0.637020
Si Si4 0.441229 0.737195 0.377744
Si Si5 0.609147 0.526313 0.799015
Si Si6 0.665175 0.779350 0.002936
Si Si7 0.997860 0.334207 0.650260
O O1 0.438298 0.339034 0.724477
O O2 0.179142 0.333601 0.910487
O O3 0.091691 0.708726 0.699471
O O4 0.108243 0.376064 0.708721
O O5 0.263683 0.323196 0.229016
O O6 0.216806 0.898305 0.372151
O O7 0.202975 0.166416 0.137348
O O8 0.454373 0.094810 0.653266
O O9 0.129172 0.098314 0.658322
O O10 0.500000 0.000000 0.500000
O O11 0.428360 0.709435 0.731529
O O12 0.500000 0.500000 0.500000
O O13 0.483077 0.376266 0.938021
O O14 0.771130 0.383415 0.731585
O O15 0.500000 0.000000 0.000000
O O16 0.000000 0.500000 0.500000
#
# Coordination Sequence:
#
# PCOD9097884 Si02
#       7
#     2   2   2   2   2   2   2
#     4  10  23  41  65  95 131 169 217 269 328 380
#     4  10  22  46  66  90 129 177 219 268 319 392
#     4  10  20  36  62  91 127 163 212 260 314 383
#     4  10  22  39  63  95 133 167 210 268 328 386
#     4  10  23  42  65  93 126 175 219 262 323 389
#     4  12  24  44  67  93 135 170 220 280 326 376
#     4  10  20  41  66  96 132 170 214 266 321 395
#
# _framework density 24.807741
#
# number of rings (size 3 to 8) (size 9 to 14) (size 15 to 20)
#    0.000    1.714    2.857    0.857    2.000    0.571 
#    5.143    1.429    0.000    0.000    0.000    0.000 
#    0.000    0.000    0.000    0.000    0.000    0.000 
#
# Total GULP energy -78045.259831 kJ/mol
# GULP energy per Si atom -5574.661417 kJ/mol
# Density = 2.475128 g / cm^3
# Si number density = 24.807741 Si / 1000 Ang^3
#
#
#
# Elastic Constant Matrix: (Units=GPa)
#
#
# Indices 1 2 3 4 5 6 
#
# 1 129.9837 36.3055 -4.7139 0.4237 22.7860 -13.1929
# 2 36.3055 241.1126 32.5465 -6.0763 15.3340 -29.8970
# 3 -4.7139 32.5465 74.6926 0.6425 11.6980 -5.0391
# 4 0.4237 -6.0763 0.6425 44.5596 -3.5372 -0.8164
# 5 22.7860 15.3340 11.6980 -3.5372 31.1533 -6.9195
# 6 -13.1929 -29.8970 -5.0391 -0.8164 -6.9195 45.1103
#
#
#
# Elastic Compliance Matrix: (Units=1/GPa)
#
#
# Indices 1 2 3 4 5 6 
#
# 1 0.009455 -0.001163 0.002291 -0.000819 -0.007040 0.001156
# 2 -0.001163 0.004962 -0.002037 0.000756 -0.000139 0.002713
# 3 0.002291 -0.002037 0.015463 -0.001046 -0.006594 0.000017
# 4 -0.000819 0.000756 -0.001046 0.022862 0.003457 0.001089
# 5 -0.007040 -0.000139 -0.006594 0.003457 0.040953 0.003457
# 6 0.001156 0.002713 0.000017 0.001089 0.003457 0.024856
#
#
# Mechanical properties :
#
#
# Convention : Reuss Voigt Hill
#
# Bulk Modulus (GPa) = 35.63456 63.78500 49.70978
# Shear Modulus (GPa) = 38.54351 49.60802 44.07576
#
# Velocity S-wave (km/s) = 3.94596 4.47665 4.21966
# Velocity P-wave (km/s) = 5.92927 7.24487 6.61983
#
# Compressibility (1/GPa) = 0.02806265
#
# Stress axis : x y z
#
# Youngs Moduli (GPa) = 105.76256 201.54113 64.66900
#
# Poissons Ratio (x) = 0.23430 -0.14815
# Poissons Ratio (y) = 0.12295 0.13174
# Poissons Ratio (z) = -0.24229 0.41057
#
# Static dielectric constant tensor:
#      x y z
#    x 2.065340 -0.132450 -0.046200 
#    y -0.132450 1.705230 -0.026250 
#    z -0.046200 -0.026250 2.023420 
# 
# From -- ./inp_files/491971.got.cif
#   From: 2010.05.17/outbox.cif.g08.bks.cpg/sg2_246_cif.got.tgz:491971.got - 2010.06.03 11:33:40.
