data_PCOD9097373
_publ_section_title
;
Structure prediction by ZEFSAII (Michael W. Deem and Ramdas Pophale) SiO2 
 PCOD9097373
Probable space group: P -1
;
_chemical_formula_sum "Si O2"
_cell_formula_units_Z 16
_cell_length_a 5.441030
_cell_length_b 9.324884
_cell_length_c 17.565082
_cell_angle_alpha 56.973638
_cell_angle_beta 92.442475
_cell_angle_gamma 74.432172
_cell_volume 699.825263
_symmetry_space_group_name_H-M "P -1"
_symmetry_group_IT_number 2
_symmetry_cell_setting 'triclinic'
loop_
_space_group_symop_operation_xyz
x,y,z
-x,-y,-z
loop_
_atom_site_type_symbol
_atom_site_label
_atom_site_fract_x
_atom_site_fract_y
_atom_site_fract_z
Si Si1 0.172856 0.853520 0.697844
Si Si2 0.168928 0.232263 0.639058
Si Si3 0.750631 0.532976 0.160254
Si Si4 0.692662 0.593141 0.548053
Si Si5 0.364759 0.867990 0.999401
Si Si6 0.521983 0.612369 0.298432
Si Si7 0.330452 0.155265 0.395039
Si Si8 0.027440 0.798427 0.153401
O O1 0.168377 0.678918 0.797522
O O2 0.453625 0.818926 0.668160
O O3 0.917274 0.885082 0.631495
O O4 0.134537 0.040060 0.687234
O O5 0.342935 0.261507 0.561236
O O6 0.315335 0.265510 0.706192
O O7 0.899337 0.402026 0.578843
O O8 0.582615 0.667411 0.053206
O O9 0.601568 0.535942 0.237667
O O10 0.943278 0.634550 0.165200
O O11 0.450793 0.542643 0.593277
O O12 0.789802 0.667789 0.603407
O O13 0.186915 0.836206 0.073314
O O14 0.500000 0.000000 0.000000
O O15 0.192717 0.001390 0.894280
O O16 0.218772 0.733542 0.246008
O O17 0.500000 0.000000 0.500000
#
# Coordination Sequence:
#
# PCOD9097373 Si02
#       8
#     2   2   2   2   2   2   2   2
#     4  12  26  42  63  93 125 167 214 263 323 370
#     4  11  26  39  57  87 125 169 213 265 315 375
#     4  10  20  36  60  89 122 160 207 257 310 374
#     4  11  24  41  61  83 120 168 221 263 316 366
#     4   8  16  31  56  90 122 149 194 257 311 364
#     4  11  20  36  58  85 119 162 207 258 312 373
#     4  12  25  44  65  88 120 168 219 271 317 368
#     4   9  17  32  57  91 120 154 199 256 309 372
#
# _framework density 22.862849000000001
#
# number of rings (size 3 to 8) (size 9 to 14) (size 15 to 20)
#    0.000    1.500    2.500    3.000    3.500    1.000 
#    0.000    0.000    0.000    0.750    0.000   35.875 
#    0.000    0.000    0.000    0.000    0.000    0.000 
#
# Total GULP energy -89198.997705 kJ/mol
# GULP energy per Si atom -5574.937357 kJ/mol
# Density = 2.281081 g / cm^3
# Si number density = 22.862849 Si / 1000 Ang^3
#
#
#
# Elastic Constant Matrix: (Units=GPa)
#
#
# Indices 1 2 3 4 5 6 
#
# 1 68.6355 16.7620 15.3902 -9.9388 -6.4243 20.3423
# 2 16.7620 121.3094 20.5590 -36.3295 0.9267 23.1976
# 3 15.3902 20.5590 97.8652 -37.6171 -3.6888 15.3047
# 4 -9.9388 -36.3295 -37.6171 43.2738 3.5131 -8.4988
# 5 -6.4243 0.9267 -3.6888 3.5131 41.3386 2.8127
# 6 20.3423 23.1976 15.3047 -8.4988 2.8127 32.2356
#
#
#
# Elastic Compliance Matrix: (Units=1/GPa)
#
#
# Indices 1 2 3 4 5 6 
#
# 1 0.018597 0.000107 -0.000474 0.001401 0.003511 -0.011525
# 2 0.000107 0.012715 0.003043 0.011917 -0.000501 -0.007477
# 3 -0.000474 0.003043 0.016601 0.015734 0.000387 -0.005658
# 4 0.001401 0.011917 0.015734 0.046415 -0.002284 -0.004493
# 5 0.003511 -0.000501 0.000387 -0.002284 0.025306 -0.004849
# 6 -0.011525 -0.007477 -0.005658 -0.004493 -0.004849 0.045600
#
#
# Mechanical properties :
#
#
# Convention : Reuss Voigt Hill
#
# Bulk Modulus (GPa) = 18.77401 43.69249 31.23325
# Shear Modulus (GPa) = 28.14740 39.04285 33.59512
#
# Velocity S-wave (km/s) = 3.51257 4.13691 3.83746
# Velocity P-wave (km/s) = 4.96792 6.47850 5.77283
#
# Compressibility (1/GPa) = 0.05326513
#
# Stress axis : x y z
#
# Youngs Moduli (GPa) = 53.77224 78.64493 60.23911
#
# Poissons Ratio (x) = -0.00843 0.02856
# Poissons Ratio (y) = -0.00576 -0.18331
# Poissons Ratio (z) = 0.02549 -0.23932
#
# Static dielectric constant tensor:
#      x y z
#    x 2.008310 -0.068380 0.020950 
#    y -0.068380 1.901160 -0.041820 
#    z 0.020950 -0.041820 1.939010 
# 
# From -- ./inp_files/142184.got.cif
#   From: 2010.05.17/outbox.cif.g08.bks.cpg/sg2_72_cif.got.tgz:142184.got - 2010.06.03 11:33:40.
