data_PCOD9097518
_publ_section_title
;
Structure prediction by ZEFSAII (Michael W. Deem and Ramdas Pophale) SiO2 
 PCOD9097518
Probable space group: P -1
;
_chemical_formula_sum "Si O2"
_cell_formula_units_Z 16
_cell_length_a 9.306743
_cell_length_b 17.401289
_cell_length_c 11.919200
_cell_angle_alpha 128.698393
_cell_angle_beta 118.715617
_cell_angle_gamma 101.883482
_cell_volume 889.062369
_symmetry_space_group_name_H-M "P -1"
_symmetry_group_IT_number 2
_symmetry_cell_setting 'triclinic'
loop_
_space_group_symop_operation_xyz
x,y,z
-x,-y,-z
loop_
_atom_site_type_symbol
_atom_site_label
_atom_site_fract_x
_atom_site_fract_y
_atom_site_fract_z
Si Si1 0.915685 0.113419 0.602559
Si Si2 0.193611 0.654741 0.049807
Si Si3 0.738385 0.430948 0.366369
Si Si4 0.399893 0.224135 0.846746
Si Si5 0.353031 0.650779 0.482635
Si Si6 0.385616 0.834192 0.505338
Si Si7 0.134341 0.850665 0.125023
Si Si8 0.686386 0.624567 0.591074
O O1 0.803324 0.160608 0.548522
O O2 0.932363 0.139049 0.766780
O O3 0.179753 0.203332 0.737217
O O4 0.733132 0.941027 0.357615
O O5 0.397649 0.682070 0.088487
O O6 0.274972 0.712264 0.258875
O O7 0.186440 0.757925 0.078581
O O8 0.922964 0.492706 0.791068
O O9 0.658093 0.364139 0.400555
O O10 0.751142 0.556298 0.481469
O O11 0.000000 0.500000 0.500000
O O12 0.542770 0.305552 0.089846
O O13 0.429688 0.790826 0.593147
O O14 0.538722 0.649685 0.505540
O O15 0.627488 0.988897 0.684056
O O16 0.919941 0.764971 0.876142
O O17 0.500000 0.500000 0.500000
#
# Coordination Sequence:
#
# PCOD9097518 Si02
#       8
#     2   2   2   2   2   2   2   2
#     4  10  21  35  61  88 116 150 198 242 283 347
#     4  11  19  39  61  84 114 156 198 240 279 350
#     4  11  21  37  63  83 115 155 199 233 282 353
#     4  11  20  36  61  89 110 151 204 236 281 341
#     4  11  23  39  58  89 119 151 195 243 295 338
#     4  11  23  37  59  89 120 153 188 247 301 331
#     4  11  18  38  65  84 114 150 204 241 281 336
#     4  10  20  36  61  85 111 153 203 241 270 345
#
# _framework density 17.996486999999998
#
# number of rings (size 3 to 8) (size 9 to 14) (size 15 to 20)
#    0.000    1.250    6.250    2.625    1.750    0.500 
#    0.000    2.500    0.000    0.000    0.000    0.000 
#    0.000    0.000    0.000    0.000    0.000    0.000 
#
# Total GULP energy -89301.287033 kJ/mol
# GULP energy per Si atom -5581.330440 kJ/mol
# Density = 1.795553 g / cm^3
# Si number density = 17.996487 Si / 1000 Ang^3
#
#
#
# Elastic Constant Matrix: (Units=GPa)
#
#
# Indices 1 2 3 4 5 6 
#
# 1 140.7246 31.3620 27.1922 5.5264 25.0653 -10.9709
# 2 31.3620 65.4777 -14.2216 11.0043 15.8888 -0.2896
# 3 27.1922 -14.2216 69.6969 12.6513 20.9101 12.8264
# 4 5.5264 11.0043 12.6513 -6.3199 -23.0437 -21.3671
# 5 25.0653 15.8888 20.9101 -23.0437 8.1047 -25.5063
# 6 -10.9709 -0.2896 12.8264 -21.3671 -25.5063 -12.5047
#
#
#
# Elastic Compliance Matrix: (Units=1/GPa)
#
#
# Indices 1 2 3 4 5 6 
#
# 1 0.010315 -0.003516 -0.003417 -0.003802 -0.006175 0.006617
# 2 -0.003516 0.018465 0.003580 -0.002299 -0.001188 0.012681
# 3 -0.003417 0.003580 0.013972 0.004787 0.001300 0.006414
# 4 -0.003802 -0.002299 0.004787 0.046600 -0.011870 -0.047116
# 5 -0.006175 -0.001188 0.001300 -0.011870 0.025996 -0.025964
# 6 0.006617 0.012681 0.006414 -0.047116 -0.025964 0.053978
#
#
# Mechanical properties :
#
#
# Convention : Reuss Voigt Hill
#
# Bulk Modulus (GPa) = 27.74352 40.50713 34.12532
# Shear Modulus (GPa) = 26.58907 13.29380 19.94143
#
# Velocity S-wave (km/s) = 3.84794 2.72083 3.33239
# Velocity P-wave (km/s) = 5.93226 5.69454 5.81462
#
# Compressibility (1/GPa) = 0.03604446
#
# Stress axis : x y z
#
# Youngs Moduli (GPa) = 96.94615 54.15697 71.57190
#
# Poissons Ratio (x) = 0.19043 0.24457
# Poissons Ratio (y) = 0.34089 -0.25620
# Poissons Ratio (z) = 0.33128 -0.19386
#
# Static dielectric constant tensor:
#      x y z
#    x 1.655820 -0.002570 0.011250 
#    y -0.002570 1.630650 0.010720 
#    z 0.011250 0.010720 1.634140 
# 
# From -- ./inp_files/258116.got.cif
#   From: 2010.05.17/outbox.cif.g08.bks.cpg/sg2_130_cif.got.tgz:258116.got - 2010.06.03 11:33:40.
