data_PCOD9097022
_publ_section_title
;
Structure prediction by ZEFSAII (Michael W. Deem and Ramdas Pophale) SiO2 
 PCOD9097022
Probable space group: P -1
;
_chemical_formula_sum "Si O2"
_cell_formula_units_Z 14
_cell_length_a 13.780116
_cell_length_b 10.721922
_cell_length_c 15.517341
_cell_angle_alpha 113.610143
_cell_angle_beta 27.070825
_cell_angle_gamma 132.928191
_cell_volume 600.574741
_symmetry_space_group_name_H-M "P -1"
_symmetry_group_IT_number 2
_symmetry_cell_setting 'triclinic'
loop_
_space_group_symop_operation_xyz
x,y,z
-x,-y,-z
loop_
_atom_site_type_symbol
_atom_site_label
_atom_site_fract_x
_atom_site_fract_y
_atom_site_fract_z
Si Si1 0.475693 0.558261 0.920121
Si Si2 0.049060 0.916162 0.818382
Si Si3 0.551964 0.986444 0.108298
Si Si4 0.677572 0.974928 0.198464
Si Si5 0.089992 0.020080 0.635685
Si Si6 0.000826 0.509187 0.398648
Si Si7 0.606121 0.795400 0.725474
O O1 0.853108 0.783930 0.715385
O O2 0.446461 0.603155 0.859399
O O3 0.321528 0.331484 0.978964
O O4 0.236915 0.519992 0.164848
O O5 0.230624 0.025676 0.613990
O O6 0.986860 0.036069 0.936427
O O7 0.208356 0.908720 0.767760
O O8 0.570742 0.999391 0.202102
O O9 0.185789 0.744719 0.301201
O O10 0.576332 0.150752 0.099648
O O11 0.833761 0.018170 0.861263
O O12 0.373478 0.721217 0.394869
O O13 0.361269 0.206548 0.403436
O O14 0.000000 0.500000 0.500000
O O15 0.000000 0.000000 0.500000
#
# Coordination Sequence:
#
# PCOD9097022 Si02
#       7
#     2   2   2   2   2   2   2
#     4  10  21  35  54  89 113 143 190 235 280 335
#     4  10  20  36  59  83 116 143 195 235 275 348
#     4   9  19  38  58  82 119 144 191 236 277 344
#     4   9  20  36  58  85 110 153 184 235 295 320
#     4   9  20  36  60  84 113 152 187 235 287 324
#     4   9  19  33  56  86 107 144 183 234 291 320
#     4  10  22  36  57  88 113 152 187 230 290 333
#
# _framework density 23.311002999999999
#
# number of rings (size 3 to 8) (size 9 to 14) (size 15 to 20)
#    0.000    2.571    0.000    1.286    8.000    5.714 
#    0.000    0.714    0.000    2.571    0.000    0.000 
#    0.000    0.000    0.000    0.000    0.000    0.000 
#
# Total GULP energy -78092.335081 kJ/mol
# GULP energy per Si atom -5578.023934 kJ/mol
# Density = 2.325795 g / cm^3
# Si number density = 23.311003 Si / 1000 Ang^3
#
#
#
# Elastic Constant Matrix: (Units=GPa)
#
#
# Indices 1 2 3 4 5 6 
#
# 1 112.7215 24.9000 22.2012 -2.3276 17.2255 6.0721
# 2 24.9000 28.7875 22.1503 15.4438 9.6287 4.6494
# 3 22.2012 22.1503 73.3020 11.0431 15.4588 2.9045
# 4 -2.3276 15.4438 11.0431 24.3237 -2.3894 -1.3722
# 5 17.2255 9.6287 15.4588 -2.3894 45.3103 1.7991
# 6 6.0721 4.6494 2.9045 -1.3722 1.7991 33.7955
#
#
#
# Elastic Compliance Matrix: (Units=1/GPa)
#
#
# Indices 1 2 3 4 5 6 
#
# 1 0.013222 -0.017973 -0.000457 0.012884 -0.000399 0.000681
# 2 -0.017973 0.097771 -0.011931 -0.060239 -0.012615 -0.010971
# 3 -0.000457 -0.011931 0.018303 -0.001116 -0.003606 0.000297
# 4 0.012884 -0.060239 -0.001116 0.082802 0.012302 0.008776
# 5 -0.000399 -0.012615 -0.003606 0.012302 0.026734 0.001193
# 6 0.000681 -0.010971 0.000297 0.008776 0.001193 0.031244
#
#
# Mechanical properties :
#
#
# Convention : Reuss Voigt Hill
#
# Bulk Modulus (GPa) = 14.58281 39.25711 26.91996
# Shear Modulus (GPa) = 14.13806 30.38988 22.26397
#
# Velocity S-wave (km/s) = 2.46539 3.61456 3.09380
# Velocity P-wave (km/s) = 3.79124 5.85638 4.93309
#
# Compressibility (1/GPa) = 0.06857388
#
# Stress axis : x y z
#
# Youngs Moduli (GPa) = 75.63159 10.22799 54.63687
#
# Poissons Ratio (x) = 0.18383 0.02499
# Poissons Ratio (y) = 1.35931 0.65186
# Poissons Ratio (z) = 0.03459 0.12203
#
# Static dielectric constant tensor:
#      x y z
#    x 1.944880 0.021750 -0.004650 
#    y 0.021750 1.886660 0.041220 
#    z -0.004650 0.041220 1.895650 
# 
# From -- ./inp_files/235376.got.cif
#   From: 2010.05.17/outbox.cif.g08.bks.cpg/sg2_118_cif.got.tgz:235376.got - 2010.06.03 11:33:40.
