data_PCOD9097651
_publ_section_title
;
Structure prediction by ZEFSAII (Michael W. Deem and Ramdas Pophale) SiO2 
 PCOD9097651
Probable space group: P -1
;
_chemical_formula_sum "Si O2"
_cell_formula_units_Z 16
_cell_length_a 14.969961
_cell_length_b 5.218377
_cell_length_c 11.856809
_cell_angle_alpha 118.708087
_cell_angle_beta 122.088162
_cell_angle_gamma 54.786914
_cell_volume 620.548487
_symmetry_space_group_name_H-M "P -1"
_symmetry_group_IT_number 2
_symmetry_cell_setting 'triclinic'
loop_
_space_group_symop_operation_xyz
x,y,z
-x,-y,-z
loop_
_atom_site_type_symbol
_atom_site_label
_atom_site_fract_x
_atom_site_fract_y
_atom_site_fract_z
Si Si1 0.986790 0.142698 0.746037
Si Si2 0.458822 0.900081 0.183474
Si Si3 0.726748 0.662944 0.287263
Si Si4 0.353509 0.401533 0.029019
Si Si5 0.985242 0.280150 0.138296
Si Si6 0.633053 0.866721 0.595787
Si Si7 0.784864 0.192611 0.774547
Si Si8 0.812384 0.221131 0.459057
O O1 0.061508 0.349359 0.847869
O O2 0.868605 0.292772 0.776949
O O3 0.934282 0.137353 0.587750
O O4 0.052863 0.803788 0.785286
O O5 0.592589 0.825540 0.279314
O O6 0.373110 0.133826 0.271531
O O7 0.438313 0.578670 0.109509
O O8 0.419332 0.070308 0.072071
O O9 0.699709 0.615758 0.129671
O O10 0.798448 0.354235 0.350049
O O11 0.783977 0.913404 0.384442
O O12 0.250346 0.624057 0.092131
O O13 0.123242 0.186289 0.228957
O O14 0.000000 0.000000 0.000000
O O15 0.712178 0.523770 0.521801
O O16 0.500000 0.000000 0.500000
O O17 0.675328 0.141650 0.645893
#
# Coordination Sequence:
#
# PCOD9097651 Si02
#       8
#     2   2   2   2   2   2   2   2
#     4  10  20  37  58  84 121 136 174 234 287 343
#     4  11  23  37  54  74 106 152 198 250 278 310
#     4  12  24  36  54  75 109 155 204 231 267 336
#     4  11  23  39  53  75 108 153 197 240 277 313
#     4  10  20  36  61  92 115 139 174 226 301 353
#     4  11  21  37  56  83 118 154 192 235 283 336
#     4   9  22  36  59  84 117 148 185 237 284 328
#     4  12  22  38  52  83 111 148 185 233 283 329
#
# _framework density 25.783642
#
# number of rings (size 3 to 8) (size 9 to 14) (size 15 to 20)
#    0.750    0.500    2.500    4.875    3.500    1.500 
#    0.000    0.000    0.000    0.000    0.000    5.250 
#    0.000    0.000    0.000    0.000    0.000    0.000 
#
# Total GULP energy -89479.288553 kJ/mol
# GULP energy per Si atom -5592.455535 kJ/mol
# Density = 2.572496 g / cm^3
# Si number density = 25.783642 Si / 1000 Ang^3
#
#
#
# Elastic Constant Matrix: (Units=GPa)
#
#
# Indices 1 2 3 4 5 6 
#
# 1 89.8291 38.5611 32.8383 3.1910 -16.4291 23.2759
# 2 38.5611 122.9460 32.9179 1.3994 5.1247 49.9844
# 3 32.8383 32.9179 126.2392 0.1895 -8.7847 26.8462
# 4 3.1910 1.3994 0.1895 53.1340 10.5702 5.0215
# 5 -16.4291 5.1247 -8.7847 10.5702 46.8907 -0.8270
# 6 23.2759 49.9844 26.8462 5.0215 -0.8270 54.9547
#
#
#
# Elastic Compliance Matrix: (Units=1/GPa)
#
#
# Indices 1 2 3 4 5 6 
#
# 1 0.015038 -0.003632 -0.002200 -0.001752 0.005618 -0.001747
# 2 -0.003632 0.014117 -0.000598 0.001601 -0.003486 -0.011209
# 3 -0.002200 -0.000598 0.009377 0.000220 0.000947 -0.003111
# 4 -0.001752 0.001601 0.000220 0.020207 -0.005351 -0.002749
# 5 0.005618 -0.003486 0.000947 -0.005351 0.025080 0.001195
# 6 -0.001747 -0.011209 -0.003111 -0.002749 0.001195 0.030921
#
#
# Mechanical properties :
#
#
# Convention : Reuss Voigt Hill
#
# Bulk Modulus (GPa) = 38.95126 60.84987 49.90056
# Shear Modulus (GPa) = 36.72309 46.64234 41.68271
#
# Velocity S-wave (km/s) = 3.77806 4.25784 4.02510
# Velocity P-wave (km/s) = 5.84563 6.91546 6.40293
#
# Compressibility (1/GPa) = 0.02567311
#
# Stress axis : x y z
#
# Youngs Moduli (GPa) = 66.50006 70.83824 106.64710
#
# Poissons Ratio (x) = 0.25725 0.23459
# Poissons Ratio (y) = 0.24150 0.06375
# Poissons Ratio (z) = 0.14628 0.04234
#
# Static dielectric constant tensor:
#      x y z
#    x 2.067180 -0.054690 -0.031320 
#    y -0.054690 2.083540 -0.091940 
#    z -0.031320 -0.091940 2.092860 
# 
# From -- ./inp_files/468477.got.cif
#   From: 2010.05.17/outbox.cif.g08.bks.cpg/sg2_235_cif.got.tgz:468477.got - 2010.06.03 11:33:40.
