data_PCOD9097766
_publ_section_title
;
Structure prediction by ZEFSAII (Michael W. Deem and Ramdas Pophale) SiO2 
 PCOD9097766
Probable space group: P -1
;
_chemical_formula_sum "Si O2"
_cell_formula_units_Z 16
_cell_length_a 19.816041
_cell_length_b 9.722515
_cell_length_c 16.679384
_cell_angle_alpha 110.283073
_cell_angle_beta 159.685269
_cell_angle_gamma 57.309327
_cell_volume 785.951189
_symmetry_space_group_name_H-M "P -1"
_symmetry_group_IT_number 2
_symmetry_cell_setting 'triclinic'
loop_
_space_group_symop_operation_xyz
x,y,z
-x,-y,-z
loop_
_atom_site_type_symbol
_atom_site_label
_atom_site_fract_x
_atom_site_fract_y
_atom_site_fract_z
Si Si1 0.804928 0.461565 0.265568
Si Si2 0.789564 0.295347 0.050462
Si Si3 0.462070 0.687894 0.518735
Si Si4 0.235806 0.275533 0.248183
Si Si5 0.823877 0.368841 0.564992
Si Si6 0.199409 0.778277 0.650089
Si Si7 0.044302 0.563481 0.869899
Si Si8 0.048017 0.096697 0.911683
O O1 0.862172 0.331234 0.224622
O O2 0.821391 0.349344 0.338903
O O3 0.000000 0.500000 0.500000
O O4 0.505656 0.665395 0.967361
O O5 0.917995 0.327299 0.129641
O O6 0.482284 0.464269 0.736463
O O7 0.844576 0.097712 0.054212
O O8 0.500000 0.500000 0.500000
O O9 0.519121 0.757674 0.518570
O O10 0.178668 0.846166 0.270705
O O11 0.683311 0.605218 0.815523
O O12 0.168856 0.294058 0.270627
O O13 0.000000 0.500000 0.000000
O O14 0.225003 0.122453 0.163327
O O15 0.880132 0.228401 0.528882
O O16 0.924359 0.262997 0.740211
O O17 0.950437 0.461102 0.704100
O O18 0.000000 0.000000 0.500000
#
# Coordination Sequence:
#
# PCOD9097766 Si02
#       8
#     2   2   2   2   2   2   2   2
#     4  10  22  45  64  89 134 162 196 262 317 371
#     4  11  26  39  62  96 118 159 206 253 307 360
#     4  11  19  37  63  82 119 165 203 248 303 350
#     4  10  20  36  62  86 116 171 201 242 308 355
#     4  11  22  42  64  86 128 157 199 258 299 365
#     4  10  22  41  67  95 121 164 207 250 315 379
#     4  11  21  39  61  87 120 163 206 243 309 356
#     4  12  22  40  62  88 125 159 206 254 299 359
#
# _framework density 20.357499000000001
#
# number of rings (size 3 to 8) (size 9 to 14) (size 15 to 20)
#    0.000    1.250    6.250    1.500    0.000    2.000 
#    2.250    1.250    0.000    0.000    0.000    0.000 
#    0.000    0.000    0.000    0.000    0.000    0.000 
#
# Total GULP energy -89428.056648 kJ/mol
# GULP energy per Si atom -5589.253541 kJ/mol
# Density = 2.031116 g / cm^3
# Si number density = 20.357499 Si / 1000 Ang^3
#
#
#
# Elastic Constant Matrix: (Units=GPa)
#
#
# Indices 1 2 3 4 5 6 
#
# 1 15.8996 -3.9391 39.4872 17.8748 37.4065 -15.6299
# 2 -3.9391 119.4516 55.1435 16.6825 25.3276 -25.8420
# 3 39.4872 55.1435 51.8325 22.5281 8.6868 -2.5134
# 4 17.8748 16.6825 22.5281 31.5335 1.8497 7.9645
# 5 37.4065 25.3276 8.6868 1.8497 18.0822 5.1815
# 6 -15.6299 -25.8420 -2.5134 7.9645 5.1815 38.6094
#
#
#
# Elastic Compliance Matrix: (Units=1/GPa)
#
#
# Indices 1 2 3 4 5 6 
#
# 1 -0.002008 -0.008491 0.006717 0.002099 0.015043 -0.008510
# 2 -0.008491 0.008251 -0.005367 0.003840 0.008240 -0.000162
# 3 0.006717 -0.005367 0.036899 -0.028606 -0.024239 0.010683
# 4 0.002099 0.003840 -0.028606 0.051165 0.001421 -0.009188
# 5 0.015043 0.008240 -0.024239 0.001421 0.022204 0.006755
# 6 -0.008510 -0.000162 0.010683 -0.009188 0.006755 0.024031
#
#
# Mechanical properties :
#
#
# Convention : Reuss Voigt Hill
#
# Bulk Modulus (GPa) = 34.65044 40.95189 37.80116
# Shear Modulus (GPa) = 30.40565 24.07783 27.24174
#
# Velocity S-wave (km/s) = 3.86889 3.44284 3.66207
# Velocity P-wave (km/s) = 6.08405 5.99702 6.04069
#
# Compressibility (1/GPa) = 0.02885966
#
# Stress axis : x y z
#
# Youngs Moduli (GPa) = -498.09230 121.20461 27.10101
#
# Poissons Ratio (x) = 1.02913 -0.18203
# Poissons Ratio (y) = -4.22921 0.14545
# Poissons Ratio (z) = 3.34556 0.65051
#
# Static dielectric constant tensor:
#      x y z
#    x 1.704870 -0.016540 -0.001610 
#    y -0.016540 1.714900 -0.003610 
#    z -0.001610 -0.003610 1.749740 
# 
# From -- ./inp_files/577382.got.cif
#   From: 2010.05.17/outbox.cif.g08.bks.cpg/sg2_289_cif.got.tgz:577382.got - 2010.06.03 11:33:40.
