data_PCOD9097843
_publ_section_title
;
Structure prediction by ZEFSAII (Michael W. Deem and Ramdas Pophale) SiO2 
 PCOD9097843
Probable space group: P -1
;
_chemical_formula_sum "Si O2"
_cell_formula_units_Z 16
_cell_length_a 8.757561
_cell_length_b 11.570969
_cell_length_c 7.546438
_cell_angle_alpha 73.724317
_cell_angle_beta 74.221254
_cell_angle_gamma 107.619470
_cell_volume 644.241203
_symmetry_space_group_name_H-M "P -1"
_symmetry_group_IT_number 2
_symmetry_cell_setting 'triclinic'
loop_
_space_group_symop_operation_xyz
x,y,z
-x,-y,-z
loop_
_atom_site_type_symbol
_atom_site_label
_atom_site_fract_x
_atom_site_fract_y
_atom_site_fract_z
Si Si1 0.330700 0.657227 0.695994
Si Si2 0.815797 0.859528 0.303018
Si Si3 0.633726 0.408153 0.883112
Si Si4 0.114027 0.279455 0.372736
Si Si5 0.204839 0.939215 0.027860
Si Si6 0.325327 0.406753 0.752691
Si Si7 0.264356 0.775114 0.336545
Si Si8 0.967014 0.293835 0.079885
O O1 0.389777 0.557697 0.607466
O O2 0.360847 0.773636 0.492123
O O3 0.133902 0.635237 0.815610
O O4 0.393937 0.648574 0.881812
O O5 0.800396 0.813857 0.531072
O O6 0.738009 0.714962 0.303951
O O7 0.023127 0.931931 0.169920
O O8 0.732372 0.941721 0.182616
O O9 0.759892 0.565367 0.759961
O O10 0.450542 0.392645 0.866916
O O11 0.704983 0.325949 0.765426
O O12 0.032588 0.218827 0.236074
O O13 0.944738 0.272905 0.541061
O O14 0.314112 0.915729 0.163642
O O15 0.152508 0.809423 0.978227
O O16 0.141594 0.393186 0.895482
#
# Coordination Sequence:
#
# PCOD9097843 Si02
#       8
#     2   2   2   2   2   2   2   2
#     4  11  22  37  64  88 125 158 194 246 299 361
#     4   9  20  37  60  84 120 157 201 248 297 345
#     4  12  23  39  60  89 132 157 188 252 304 355
#     4  10  21  34  59  95 119 157 200 243 300 363
#     4   9  18  39  61  84 115 159 204 253 285 345
#     4  11  23  38  58  91 123 161 192 243 311 355
#     4  10  22  37  61  91 115 162 208 237 295 361
#     4  10  20  36  62  90 120 156 202 243 298 352
#
# _framework density 24.835419999999999
#
# number of rings (size 3 to 8) (size 9 to 14) (size 15 to 20)
#    0.000    1.750    2.500    1.875    1.750    2.500 
#    0.000    1.875    0.000    0.750    0.000    0.000 
#    0.000    0.000    0.000    0.000    0.000    0.000 
#
# Total GULP energy -89171.260042 kJ/mol
# GULP energy per Si atom -5573.203753 kJ/mol
# Density = 2.477889 g / cm^3
# Si number density = 24.835420 Si / 1000 Ang^3
#
#
#
# Elastic Constant Matrix: (Units=GPa)
#
#
# Indices 1 2 3 4 5 6 
#
# 1 53.3390 0.4532 35.3981 -21.4314 6.9163 -4.1117
# 2 0.4532 -5.6623 3.5110 -1.3030 -8.9275 -12.4467
# 3 35.3981 3.5110 127.0675 -21.6101 54.4442 -1.9486
# 4 -21.4314 -1.3030 -21.6101 22.1845 1.4905 11.8302
# 5 6.9163 -8.9275 54.4442 1.4905 61.2627 -11.1499
# 6 -4.1117 -12.4467 -1.9486 11.8302 -11.1499 25.4027
#
#
#
# Elastic Compliance Matrix: (Units=1/GPa)
#
#
# Indices 1 2 3 4 5 6 
#
# 1 0.034272 0.009192 -0.003593 0.033712 -0.001343 -0.006514
# 2 0.009192 -0.021408 0.020446 0.054833 -0.032238 -0.047119
# 3 -0.003593 0.020446 0.014641 0.012409 -0.009845 0.000460
# 4 0.033712 0.054833 0.012409 0.105408 -0.013352 -0.021675
# 5 -0.001343 -0.032238 -0.009845 -0.013352 0.020574 -0.001519
# 6 -0.006514 -0.047119 0.000460 -0.021675 -0.001519 0.024687
#
#
# Mechanical properties :
#
#
# Convention : Reuss Voigt Hill
#
# Bulk Modulus (GPa) = 12.56326 28.16321 20.36323
# Shear Modulus (GPa) = 32.76227 30.79543 31.77885
#
# Velocity S-wave (km/s) = 3.63599 3.52516 3.58100
# Velocity P-wave (km/s) = 4.76411 5.28522 5.03142
#
# Compressibility (1/GPa) = 0.07959721
#
# Stress axis : x y z
#
# Youngs Moduli (GPa) = 29.17869 -46.71172 68.30057
#
# Poissons Ratio (x) = 0.42939 0.24537
# Poissons Ratio (y) = -0.26822 -1.39649
# Poissons Ratio (z) = 0.10482 0.95508
#
# Static dielectric constant tensor:
#      x y z
#    x 1.999820 -0.002130 0.022590 
#    y -0.002130 1.970550 -0.060010 
#    z 0.022590 -0.060010 2.148800 
# 
# From -- ./inp_files/185930.got.cif
#   From: 2010.05.17/outbox.cif.g08.bks.cpg/sg2_93_cif.got.tgz:185930.got - 2010.06.03 11:33:40.
