data_PCOD9097626
_publ_section_title
;
Structure prediction by ZEFSAII (Michael W. Deem and Ramdas Pophale) SiO2 
 PCOD9097626
Probable space group: P -1
;
_chemical_formula_sum "Si O2"
_cell_formula_units_Z 16
_cell_length_a 8.774161
_cell_length_b 18.834120
_cell_length_c 15.771758
_cell_angle_alpha 31.695133
_cell_angle_beta 152.733061
_cell_angle_gamma 139.601374
_cell_volume 627.209488
_symmetry_space_group_name_H-M "P -1"
_symmetry_group_IT_number 2
_symmetry_cell_setting 'triclinic'
loop_
_space_group_symop_operation_xyz
x,y,z
-x,-y,-z
loop_
_atom_site_type_symbol
_atom_site_label
_atom_site_fract_x
_atom_site_fract_y
_atom_site_fract_z
Si Si1 0.892382 0.501060 0.825655
Si Si2 0.461770 0.576046 0.684055
Si Si3 0.199684 0.939702 0.356182
Si Si4 0.178392 0.930396 0.755600
Si Si5 0.812342 0.194790 0.938252
Si Si6 0.505795 0.119677 0.615638
Si Si7 0.166351 0.457811 0.827129
Si Si8 0.917644 0.780657 0.506469
O O1 0.568149 0.494800 0.733090
O O2 0.025887 0.657502 0.741055
O O3 0.886007 0.485832 0.734821
O O4 0.188265 0.416803 0.097856
O O5 0.375042 0.728472 0.457985
O O6 0.208067 0.516887 0.691516
O O7 0.311400 0.921809 0.335519
O O8 0.101881 0.794235 0.494506
O O9 0.500000 0.000000 0.500000
O O10 0.902791 0.044230 0.108255
O O11 0.887028 0.874575 0.608478
O O12 0.501149 0.991452 0.806234
O O13 0.040530 0.069949 0.586403
O O14 0.234878 0.822338 0.966677
O O15 0.471541 0.238792 0.684286
O O16 0.108929 0.296442 0.955884
O O17 0.500000 0.500000 0.000000
#
# Coordination Sequence:
#
# PCOD9097626 Si02
#       8
#     2   2   2   2   2   2   2   2
#     4  10  21  37  64  88 125 169 204 256 325 360
#     4  10  21  37  61  98 124 154 216 272 301 360
#     4  11  22  36  66  96 118 165 215 253 315 373
#     4  10  20  36  61  90 128 159 196 262 316 362
#     4  11  24  43  59  93 132 165 201 258 323 382
#     4  11  20  36  63  99 124 152 214 271 305 361
#     4  10  22  39  65  90 122 161 219 263 301 368
#     4  11  22  41  62  88 135 165 200 254 323 388
#
# _framework density 25.509817000000002
#
# number of rings (size 3 to 8) (size 9 to 14) (size 15 to 20)
#    0.000    1.500    3.750    3.750    3.500    0.500 
#    4.500    3.125    0.000    0.000    0.000    0.000 
#    0.000    0.000    0.000    0.000    0.000    0.000 
#
# Total GULP energy -89318.625528 kJ/mol
# GULP energy per Si atom -5582.414096 kJ/mol
# Density = 2.545176 g / cm^3
# Si number density = 25.509817 Si / 1000 Ang^3
#
#
#
# Elastic Constant Matrix: (Units=GPa)
#
#
# Indices 1 2 3 4 5 6 
#
# 1 227.8934 16.6070 16.1489 -8.2402 -15.1523 30.4172
# 2 16.6070 66.4359 30.3868 -6.8326 -25.4425 26.9451
# 3 16.1489 30.3868 52.4224 -2.7470 -6.6402 15.9116
# 4 -8.2402 -6.8326 -2.7470 34.5729 9.0859 -8.3026
# 5 -15.1523 -25.4425 -6.6402 9.0859 32.6893 -19.5793
# 6 30.4172 26.9451 15.9116 -8.3026 -19.5793 38.5838
#
#
#
# Elastic Compliance Matrix: (Units=1/GPa)
#
#
# Indices 1 2 3 4 5 6 
#
# 1 0.004940 0.000903 -0.000784 0.000240 0.000404 -0.003945
# 2 0.000903 0.030726 -0.013498 -0.001231 0.016996 -0.008243
# 3 -0.000784 -0.013498 0.027811 0.000264 -0.008782 -0.005824
# 4 0.000240 -0.001231 0.000264 0.031571 -0.007417 0.003591
# 5 0.000404 0.016996 -0.008782 -0.007417 0.054877 0.017685
# 6 -0.003945 -0.008243 -0.005824 0.003591 0.017685 0.046933
#
#
# Mechanical properties :
#
#
# Convention : Reuss Voigt Hill
#
# Bulk Modulus (GPa) = 27.23444 52.55969 39.89707
# Shear Modulus (GPa) = 21.19953 40.07645 30.63799
#
# Velocity S-wave (km/s) = 2.88589 3.96791 3.46934
# Velocity P-wave (km/s) = 4.66945 6.45297 5.63226
#
# Compressibility (1/GPa) = 0.03671821
#
# Stress axis : x y z
#
# Youngs Moduli (GPa) = 202.43528 32.54606 35.95732
#
# Poissons Ratio (x) = -0.02940 0.02819
# Poissons Ratio (y) = -0.18284 0.48536
# Poissons Ratio (z) = 0.15873 0.43931
#
# Static dielectric constant tensor:
#      x y z
#    x 2.232630 -0.002470 0.045150 
#    y -0.002470 1.995820 -0.042770 
#    z 0.045150 -0.042770 2.065300 
# 
# From -- ./inp_files/379690.got.cif
#   From: 2010.05.17/outbox.cif.g08.bks.cpg/sg2_190_cif.got.tgz:379690.got - 2010.06.03 11:33:40.
