data_PCOD9097438
_publ_section_title
;
Structure prediction by ZEFSAII (Michael W. Deem and Ramdas Pophale) SiO2 
 PCOD9097438
Probable space group: P -1
;
_chemical_formula_sum "Si O2"
_cell_formula_units_Z 16
_cell_length_a 7.828935
_cell_length_b 16.442499
_cell_length_c 7.824980
_cell_angle_alpha 92.126052
_cell_angle_beta 125.783851
_cell_angle_gamma 114.576959
_cell_volume 687.385416
_symmetry_space_group_name_H-M "P -1"
_symmetry_group_IT_number 2
_symmetry_cell_setting 'triclinic'
loop_
_space_group_symop_operation_xyz
x,y,z
-x,-y,-z
loop_
_atom_site_type_symbol
_atom_site_label
_atom_site_fract_x
_atom_site_fract_y
_atom_site_fract_z
Si Si1 0.262239 0.156824 0.040801
Si Si2 0.240322 0.335001 0.924689
Si Si3 0.765822 0.036293 0.578921
Si Si4 0.244152 0.789664 0.539660
Si Si5 0.468036 0.147435 0.793131
Si Si6 0.728166 0.531129 0.764568
Si Si7 0.539667 0.671874 0.312719
Si Si8 0.966430 0.277531 0.222410
O O1 0.280639 0.258482 0.042805
O O2 0.355381 0.137340 0.914232
O O3 0.460524 0.165776 0.296045
O O4 0.971282 0.073347 0.851212
O O5 0.366711 0.347668 0.814898
O O6 0.942817 0.284725 0.715688
O O7 0.327399 0.428744 0.094092
O O8 0.715005 0.948306 0.425386
O O9 0.500000 0.000000 0.500000
O O10 0.821342 0.127684 0.501240
O O11 0.156531 0.734339 0.664670
O O12 0.490571 0.240009 0.729138
O O13 0.758521 0.181996 0.991883
O O14 0.500000 0.500000 0.500000
O O15 0.700679 0.429738 0.776286
O O16 0.965721 0.623651 0.822643
O O17 0.769541 0.709291 0.582697
#
# Coordination Sequence:
#
# PCOD9097438 Si02
#       8
#     2   2   2   2   2   2   2   2
#     4   9  20  39  62  87 117 162 204 236 296 369
#     4   9  18  36  62  86 127 156 200 248 296 357
#     4  11  24  38  60  94 125 151 201 255 299 353
#     4   9  20  40  60  86 118 165 196 240 306 356
#     4  10  21  38  62  86 122 161 203 244 294 358
#     4  10  20  36  60  92 124 157 198 251 302 354
#     4   9  19  38  59  89 116 169 200 241 303 352
#     4   9  20  36  59  86 121 155 201 246 294 351
#
# _framework density 23.276606000000001
#
# number of rings (size 3 to 8) (size 9 to 14) (size 15 to 20)
#    0.000    2.500    0.000    1.500    3.500    4.000 
#    4.500    2.500    0.000   12.750    0.000    0.000 
#    0.000    0.000    0.000    0.000    0.000    0.000 
#
# Total GULP energy -89345.057695 kJ/mol
# GULP energy per Si atom -5584.066106 kJ/mol
# Density = 2.322363 g / cm^3
# Si number density = 23.276606 Si / 1000 Ang^3
#
#
#
# Elastic Constant Matrix: (Units=GPa)
#
#
# Indices 1 2 3 4 5 6 
#
# 1 51.6914 17.0850 22.4603 1.7239 -3.4424 7.0260
# 2 17.0850 80.6789 34.8740 12.3636 -5.2062 -0.8918
# 3 22.4603 34.8740 134.7182 8.8310 20.0956 -19.1764
# 4 1.7239 12.3636 8.8310 35.0315 1.8960 -0.6526
# 5 -3.4424 -5.2062 20.0956 1.8960 35.4560 4.1446
# 6 7.0260 -0.8918 -19.1764 -0.6526 4.1446 33.0566
#
#
#
# Elastic Compliance Matrix: (Units=1/GPa)
#
#
# Indices 1 2 3 4 5 6 
#
# 1 0.024315 -0.002463 -0.005724 0.000601 0.006302 -0.009334
# 2 -0.002463 0.015891 -0.004512 -0.004675 0.005183 -0.002408
# 3 -0.005724 -0.004512 0.012297 -0.000550 -0.009255 0.009378
# 4 0.000601 -0.004675 -0.000550 0.030417 -0.001975 0.000275
# 5 0.006302 0.005183 -0.009255 -0.001975 0.036231 -0.011150
# 6 -0.009334 -0.002408 0.009378 0.000275 -0.011150 0.039014
#
#
# Mechanical properties :
#
#
# Convention : Reuss Voigt Hill
#
# Bulk Modulus (GPa) = 36.89587 46.21414 41.55501
# Shear Modulus (GPa) = 25.96057 33.55342 29.75700
#
# Velocity S-wave (km/s) = 3.34325 3.80084 3.57936
# Velocity P-wave (km/s) = 5.54874 6.25774 5.91387
#
# Compressibility (1/GPa) = 0.02710330
#
# Stress axis : x y z
#
# Youngs Moduli (GPa) = 41.12640 62.92743 81.32176
#
# Poissons Ratio (x) = 0.15501 0.46551
# Poissons Ratio (y) = 0.10131 0.36696
# Poissons Ratio (z) = 0.23542 0.28396
#
# Static dielectric constant tensor:
#      x y z
#    x 1.915980 0.018760 0.021770 
#    y 0.018760 1.910380 0.013560 
#    z 0.021770 0.013560 1.929890 
# 
# From -- ./inp_files/215193.got.cif
#   From: 2010.05.17/outbox.cif.g08.bks.cpg/sg2_108_cif.got.tgz:215193.got - 2010.06.03 11:33:40.
