data_PCOD9097027
_publ_section_title
;
Structure prediction by ZEFSAII (Michael W. Deem and Ramdas Pophale) SiO2 
 PCOD9097027
Probable space group: P -1
;
_chemical_formula_sum "Si O2"
_cell_formula_units_Z 16
_cell_length_a 19.340568
_cell_length_b 15.795645
_cell_length_c 9.826568
_cell_angle_alpha 135.712147
_cell_angle_beta 42.529398
_cell_angle_gamma 160.168232
_cell_volume 685.085560
_symmetry_space_group_name_H-M "P -1"
_symmetry_group_IT_number 2
_symmetry_cell_setting 'triclinic'
loop_
_space_group_symop_operation_xyz
x,y,z
-x,-y,-z
loop_
_atom_site_type_symbol
_atom_site_label
_atom_site_fract_x
_atom_site_fract_y
_atom_site_fract_z
Si Si1 0.699621 0.030414 0.986258
Si Si2 0.370085 0.441478 0.397037
Si Si3 0.682037 0.354378 0.225870
Si Si4 0.457362 0.647786 0.213812
Si Si5 0.774756 0.360029 0.381172
Si Si6 0.103753 0.954851 0.110222
Si Si7 0.237814 0.801698 0.214440
Si Si8 0.676932 0.552228 0.103855
O O1 0.889427 0.145723 0.904327
O O2 0.684720 0.133735 0.220996
O O3 0.492085 0.730655 0.946204
O O4 0.742429 0.120869 0.876667
O O5 0.318795 0.503681 0.635511
O O6 0.427786 0.556631 0.298235
O O7 0.560110 0.557456 0.313640
O O8 0.177769 0.151666 0.309814
O O9 0.814033 0.458075 0.287115
O O10 0.442146 0.070149 0.297254
O O11 0.729937 0.308376 0.984341
O O12 0.378668 0.704790 0.398801
O O13 0.696890 0.875365 0.079587
O O14 0.312588 0.436489 0.063491
O O15 0.010669 0.592310 0.367386
O O16 0.898132 0.761451 0.096112
#
# Coordination Sequence:
#
# PCOD9097027 Si02
#       8
#     2   2   2   2   2   2   2   2
#     4   9  20  37  54  80 116 144 182 229 268 330
#     4   9  19  36  56  83 113 138 182 235 271 323
#     4   9  19  34  56  86 109 133 182 229 272 328
#     4   9  20  36  56  85 111 137 186 235 269 325
#     4  10  20  36  59  84 111 144 180 229 283 322
#     4  10  21  36  55  80 113 153 183 218 275 326
#     4  10  20  36  61  85 109 143 180 228 283 326
#     4  10  21  36  56  80 112 153 183 219 276 326
#
# _framework density 23.354745999999999
#
# number of rings (size 3 to 8) (size 9 to 14) (size 15 to 20)
#    0.000    2.750    0.000    3.000    0.000   12.000 
#    0.000    3.750    0.000   28.500    0.000    0.000 
#    0.000    0.000    0.000    0.000    0.000    0.000 
#
# Total GULP energy -89442.150016 kJ/mol
# GULP energy per Si atom -5590.134376 kJ/mol
# Density = 2.330159 g / cm^3
# Si number density = 23.354746 Si / 1000 Ang^3
#
#
#
# Elastic Constant Matrix: (Units=GPa)
#
#
# Indices 1 2 3 4 5 6 
#
# 1 112.2647 46.2630 43.6240 -8.3059 -23.5477 20.2670
# 2 46.2630 110.7080 51.4373 -5.6869 -26.1052 37.6897
# 3 43.6240 51.4373 136.2539 2.4466 -44.8794 7.2532
# 4 -8.3059 -5.6869 2.4466 29.7614 -8.9531 -4.0432
# 5 -23.5477 -26.1052 -44.8794 -8.9531 47.8398 -4.8517
# 6 20.2670 37.6897 7.2532 -4.0432 -4.8517 55.3222
#
#
#
# Elastic Compliance Matrix: (Units=1/GPa)
#
#
# Indices 1 2 3 4 5 6 
#
# 1 0.011955 -0.002594 -0.001702 0.003754 0.003390 -0.001818
# 2 -0.002594 0.015706 -0.003495 0.002446 0.003581 -0.008799
# 3 -0.001702 -0.003495 0.012000 0.000858 0.008903 0.002275
# 4 0.003754 0.002446 0.000858 0.038521 0.011262 0.000649
# 5 0.003390 0.003581 0.008903 0.011262 0.034888 -0.000966
# 6 -0.001818 -0.008799 0.002275 0.000649 -0.000966 0.024401
#
#
# Mechanical properties :
#
#
# Convention : Reuss Voigt Hill
#
# Bulk Modulus (GPa) = 41.53064 71.31947 56.42506
# Shear Modulus (GPa) = 31.04072 41.11148 36.07610
#
# Velocity S-wave (km/s) = 3.64963 4.20015 3.93453
# Velocity P-wave (km/s) = 5.96497 7.35700 6.69725
#
# Compressibility (1/GPa) = 0.02407861
#
# Stress axis : x y z
#
# Youngs Moduli (GPa) = 83.64829 63.67019 83.33495
#
# Poissons Ratio (x) = 0.16514 0.14187
# Poissons Ratio (y) = 0.21696 0.29125
# Poissons Ratio (z) = 0.14240 0.22252
#
# Static dielectric constant tensor:
#      x y z
#    x 1.888420 -0.023010 -0.013320 
#    y -0.023010 1.923570 -0.023190 
#    z -0.013320 -0.023190 1.885480 
# 
# From -- ./inp_files/472294.got.cif
#   From: 2010.05.17/outbox.cif.g08.bks.cpg/sg2_237_cif.got.tgz:472294.got - 2010.06.03 11:33:40.
