data_PCOD9097374
_publ_section_title
;
Structure prediction by ZEFSAII (Michael W. Deem and Ramdas Pophale) SiO2 
 PCOD9097374
Probable space group: P -1
;
_chemical_formula_sum "Si O2"
_cell_formula_units_Z 16
_cell_length_a 17.507618
_cell_length_b 5.755565
_cell_length_c 8.957008
_cell_angle_alpha 100.834302
_cell_angle_beta 53.904968
_cell_angle_gamma 100.005989
_cell_volume 714.047247
_symmetry_space_group_name_H-M "P -1"
_symmetry_group_IT_number 2
_symmetry_cell_setting 'triclinic'
loop_
_space_group_symop_operation_xyz
x,y,z
-x,-y,-z
loop_
_atom_site_type_symbol
_atom_site_label
_atom_site_fract_x
_atom_site_fract_y
_atom_site_fract_z
Si Si1 0.507267 0.962982 0.312706
Si Si2 0.905202 0.609088 0.682288
Si Si3 0.920704 0.863283 0.405448
Si Si4 0.777918 0.475930 0.351606
Si Si5 0.926987 0.409022 0.943436
Si Si6 0.779720 0.229671 0.616731
Si Si7 0.413697 0.424409 0.346514
Si Si8 0.604086 0.916898 0.920834
O O1 0.458285 0.693442 0.317855
O O2 0.500000 0.000000 0.500000
O O3 0.470310 0.210161 0.321285
O O4 0.602519 0.937255 0.103344
O O5 0.906548 0.831310 0.596030
O O6 0.913168 0.599277 0.850282
O O7 0.813684 0.442770 0.713955
O O8 0.000000 0.500000 0.500000
O O9 0.850392 0.668006 0.376026
O O10 0.023287 0.806088 0.219159
O O11 0.877415 0.108077 0.454025
O O12 0.748506 0.295258 0.495786
O O13 0.680505 0.587265 0.444379
O O14 0.829154 0.365172 0.140163
O O15 0.000000 0.500000 0.000000
O O16 0.694156 0.069732 0.768625
O O17 0.390577 0.338976 0.192552
O O18 0.500000 0.000000 0.000000
#
# Coordination Sequence:
#
# PCOD9097374 Si02
#       8
#     2   2   2   2   2   2   2   2
#     4  11  25  44  66 100 139 178 224 290 352 412
#     4   9  20  38  59  86 124 168 213 274 336 405
#     4   9  19  37  59  86 121 162 214 266 333 394
#     4  10  20  36  60  89 122 161 217 273 327 395
#     4   9  19  37  58  86 123 166 212 274 331 402
#     4  11  21  38  62  91 126 167 225 277 333 410
#     4  11  22  43  69  95 135 182 227 282 344 418
#     4  10  22  42  68  98 127 177 229 279 342 408
#
# _framework density 22.40748
#
# number of rings (size 3 to 8) (size 9 to 14) (size 15 to 20)
#    0.000    2.000    1.250    3.000    0.000    4.500 
#    2.250    2.500    0.000    0.000    0.000    0.000 
#    0.000    0.000    0.000    0.000    0.000    0.000 
#
# Total GULP energy -89101.106122 kJ/mol
# GULP energy per Si atom -5568.819133 kJ/mol
# Density = 2.235648 g / cm^3
# Si number density = 22.407480 Si / 1000 Ang^3
#
#
#
# Elastic Constant Matrix: (Units=GPa)
#
#
# Indices 1 2 3 4 5 6 
#
# 1 17.3118 21.0913 16.0929 -1.8478 11.0261 -1.0994
# 2 21.0913 95.3167 37.6934 2.9638 0.0937 15.7721
# 3 16.0929 37.6934 167.3867 -0.2749 5.0803 13.7625
# 4 -1.8478 2.9638 -0.2749 24.5417 -4.8071 -2.9952
# 5 11.0261 0.0937 5.0803 -4.8071 43.2737 -3.1362
# 6 -1.0994 15.7721 13.7625 -2.9952 -3.1362 31.9614
#
#
#
# Elastic Compliance Matrix: (Units=1/GPa)
#
#
# Indices 1 2 3 4 5 6 
#
# 1 0.113102 -0.025904 -0.005670 0.008634 -0.025877 0.017385
# 2 -0.025904 0.018304 -0.001039 -0.004227 0.005537 -0.009329
# 3 -0.005670 -0.001039 0.006962 -0.000477 0.000382 -0.002687
# 4 0.008634 -0.004227 -0.000477 0.043377 0.003189 0.006966
# 5 -0.025877 0.005537 0.000382 0.003189 0.029960 -0.000549
# 6 0.017385 -0.009329 -0.002687 0.006966 -0.000549 0.038245
#
#
# Mechanical properties :
#
#
# Convention : Reuss Voigt Hill
#
# Bulk Modulus (GPa) = 13.67237 47.75226 30.71232
# Shear Modulus (GPa) = 14.72503 33.63121 24.17812
#
# Velocity S-wave (km/s) = 2.56627 3.87834 3.28841
# Velocity P-wave (km/s) = 3.85953 6.43525 5.30605
#
# Compressibility (1/GPa) = 0.07314021
#
# Stress axis : x y z
#
# Youngs Moduli (GPa) = 8.84157 54.63303 143.63776
#
# Poissons Ratio (x) = 1.41522 0.81449
# Poissons Ratio (y) = 0.22903 0.14929
# Poissons Ratio (z) = 0.05014 0.05678
#
# Static dielectric constant tensor:
#      x y z
#    x 1.974140 -0.054870 0.038330 
#    y -0.054870 1.924070 -0.021500 
#    z 0.038330 -0.021500 1.844180 
# 
# From -- ./inp_files/323827.got.cif
#   From: 2010.05.17/outbox.cif.g08.bks.cpg/sg2_162_cif.got.tgz:323827.got - 2010.06.03 11:33:40.
