data_PCOD9097330
_publ_section_title
;
Structure prediction by ZEFSAII (Michael W. Deem and Ramdas Pophale) SiO2 
 PCOD9097330
Probable space group: P -1
;
_chemical_formula_sum "Si O2"
_cell_formula_units_Z 16
_cell_length_a 23.090473
_cell_length_b 9.441238
_cell_length_c 18.705277
_cell_angle_alpha 30.766512
_cell_angle_beta 23.404815
_cell_angle_gamma 33.227241
_cell_volume 805.201227
_symmetry_space_group_name_H-M "P -1"
_symmetry_group_IT_number 2
_symmetry_cell_setting 'triclinic'
loop_
_space_group_symop_operation_xyz
x,y,z
-x,-y,-z
loop_
_atom_site_type_symbol
_atom_site_label
_atom_site_fract_x
_atom_site_fract_y
_atom_site_fract_z
Si Si1 0.701429 0.515812 0.414840
Si Si2 0.036086 0.167526 0.180594
Si Si3 0.650066 0.964994 0.171070
Si Si4 0.376677 0.976092 0.370127
Si Si5 0.470401 0.418318 0.987434
Si Si6 0.619031 0.198806 0.777548
Si Si7 0.955589 0.687878 0.395672
Si Si8 0.045111 0.137916 0.459987
O O1 0.651005 0.834871 0.304909
O O2 0.619639 0.435686 0.612933
O O3 0.884310 0.414471 0.256000
O O4 0.655786 0.319716 0.489084
O O5 0.200060 0.215608 0.959752
O O6 0.009344 0.973738 0.227741
O O7 0.042273 0.975475 0.327572
O O8 0.502508 0.946720 0.300969
O O9 0.648841 0.301449 0.026265
O O10 0.425235 0.122400 0.180550
O O11 0.221235 0.199192 0.466836
O O12 0.500000 0.500000 0.000000
O O13 0.600675 0.352482 0.809472
O O14 0.779510 0.989625 0.674181
O O15 0.500000 0.000000 0.000000
O O16 0.000000 0.500000 0.500000
O O17 0.017383 0.476076 0.353195
O O18 0.000000 0.000000 0.500000
#
# Coordination Sequence:
#
# PCOD9097330 Si02
#       8
#     2   2   2   2   2   2   2   2
#     4  10  21  40  57  89 117 157 195 241 294 348
#     4   9  20  36  57  83 116 155 193 233 289 352
#     4  11  22  34  63  87 120 152 199 241 291 345
#     4  10  20  36  60  87 119 152 200 237 286 348
#     4  10  22  35  58  87 115 148 196 239 292 338
#     4  11  23  38  60  85 119 153 193 246 291 345
#     4   9  18  35  56  81 118 150 192 236 286 343
#     4  10  22  33  55  87 118 148 191 242 295 338
#
# _framework density 19.870809000000001
#
# number of rings (size 3 to 8) (size 9 to 14) (size 15 to 20)
#    0.000    2.000    1.250    3.000    8.750    0.500 
#    0.000    0.000    0.000    0.000    0.000    4.375 
#    0.000    0.000    0.000    0.000    0.000    0.000 
#
# Total GULP energy -89107.823363 kJ/mol
# GULP energy per Si atom -5569.238960 kJ/mol
# Density = 1.982558 g / cm^3
# Si number density = 19.870809 Si / 1000 Ang^3
#
#
#
# Elastic Constant Matrix: (Units=GPa)
#
#
# Indices 1 2 3 4 5 6 
#
# 1 81.9640 25.0634 33.1810 7.9061 1.8695 -2.8862
# 2 25.0634 53.5316 27.2267 -3.4338 20.0030 -5.4126
# 3 33.1810 27.2267 95.1522 8.5635 12.5722 -15.5240
# 4 7.9061 -3.4338 8.5635 30.4843 -3.4130 8.2824
# 5 1.8695 20.0030 12.5722 -3.4130 30.2599 6.0196
# 6 -2.8862 -5.4126 -15.5240 8.2824 6.0196 34.2366
#
#
#
# Elastic Compliance Matrix: (Units=1/GPa)
#
#
# Indices 1 2 3 4 5 6 
#
# 1 0.016559 -0.008365 -0.004408 -0.002603 0.006531 -0.002444
# 2 -0.008365 0.032629 -0.002916 0.002673 -0.020760 0.006134
# 3 -0.004408 -0.002916 0.015974 -0.007007 -0.007087 0.009352
# 4 -0.002603 0.002673 -0.007007 0.040622 0.008739 -0.014338
# 5 0.006531 -0.020760 -0.007087 0.008739 0.053781 -0.017515
# 6 -0.002444 0.006134 0.009352 -0.014338 -0.017515 0.040761
#
#
# Mechanical properties :
#
#
# Convention : Reuss Voigt Hill
#
# Bulk Modulus (GPa) = 29.60070 44.62110 37.11090
# Shear Modulus (GPa) = 20.57895 28.67460 24.62678
#
# Velocity S-wave (km/s) = 3.22162 3.80287 3.52425
# Velocity P-wave (km/s) = 5.36352 6.46427 5.93945
#
# Compressibility (1/GPa) = 0.03378299
#
# Stress axis : x y z
#
# Youngs Moduli (GPa) = 60.38987 30.64721 62.60261
#
# Poissons Ratio (x) = 0.25638 0.27595
# Poissons Ratio (y) = 0.50518 0.18256
# Poissons Ratio (z) = 0.26620 0.08937
#
# Static dielectric constant tensor:
#      x y z
#    x 1.750000 0.015090 -0.050740 
#    y 0.015090 1.740810 -0.032570 
#    z -0.050740 -0.032570 1.849030 
# 
# From -- ./inp_files/540384.got.cif
#   From: 2010.05.17/outbox.cif.g08.bks.cpg/sg2_271_cif.got.tgz:540384.got - 2010.06.03 11:33:40.
