data_PCOD9097423
_publ_section_title
;
Structure prediction by ZEFSAII (Michael W. Deem and Ramdas Pophale) SiO2 
 PCOD9097423
Probable space group: P -1
;
_chemical_formula_sum "Si O2"
_cell_formula_units_Z 16
_cell_length_a 16.631402
_cell_length_b 17.455178
_cell_length_c 10.832698
_cell_angle_alpha 29.550777
_cell_angle_beta 148.653223
_cell_angle_gamma 149.182473
_cell_volume 719.893089
_symmetry_space_group_name_H-M "P -1"
_symmetry_group_IT_number 2
_symmetry_cell_setting 'triclinic'
loop_
_space_group_symop_operation_xyz
x,y,z
-x,-y,-z
loop_
_atom_site_type_symbol
_atom_site_label
_atom_site_fract_x
_atom_site_fract_y
_atom_site_fract_z
Si Si1 0.224088 0.719773 0.702711
Si Si2 0.539453 0.617618 0.263548
Si Si3 0.172746 0.178055 0.482113
Si Si4 0.035436 0.618227 0.091182
Si Si5 0.662918 0.040220 0.073010
Si Si6 0.417934 0.408638 0.150845
Si Si7 0.454058 0.101316 0.513129
Si Si8 0.236685 0.621587 0.597785
O O1 0.156711 0.665177 0.551274
O O2 0.081575 0.588029 0.796285
O O3 0.286427 0.923177 0.515700
O O4 0.395169 0.687119 0.975566
O O5 0.500000 0.500000 0.500000
O O6 0.732701 0.764841 0.341723
O O7 0.524038 0.508079 0.272714
O O8 0.000000 0.000000 0.500000
O O9 0.110891 0.318323 0.161473
O O10 0.294031 0.122578 0.636982
O O11 0.171289 0.767313 0.968394
O O12 0.147115 0.623611 0.349593
O O13 0.588109 0.045428 0.832820
O O14 0.500000 0.000000 0.000000
O O15 0.407853 0.220960 0.377475
O O16 0.500000 0.500000 0.000000
O O17 0.249640 0.442594 0.887748
O O18 0.564224 0.223157 0.373734
#
# Coordination Sequence:
#
# PCOD9097423 Si02
#       8
#     2   2   2   2   2   2   2   2
#     4  11  20  35  63  96 128 165 228 277 326 397
#     4  11  21  37  67  98 126 172 231 271 330 401
#     4  10  21  40  65  98 130 165 228 278 330 397
#     4  10  21  39  62  95 135 171 224 275 335 394
#     4  10  22  38  63  90 132 174 209 270 345 400
#     4   9  21  40  63  91 132 177 223 272 335 399
#     4  10  20  36  60  91 126 168 222 269 332 395
#     4   9  20  38  62  90 126 179 222 269 330 398
#
# _framework density 22.225522999999999
#
# number of rings (size 3 to 8) (size 9 to 14) (size 15 to 20)
#    0.000    2.000    2.500    0.750    1.750    0.000 
#    0.000    1.250   13.750    0.000    0.000    0.000 
#    0.000    0.000    0.000    0.000    0.000    0.000 
#
# Total GULP energy -89113.661018 kJ/mol
# GULP energy per Si atom -5569.603814 kJ/mol
# Density = 2.217494 g / cm^3
# Si number density = 22.225523 Si / 1000 Ang^3
#
#
#
# Elastic Constant Matrix: (Units=GPa)
#
#
# Indices 1 2 3 4 5 6 
#
# 1 94.8236 49.2953 12.6457 -10.9478 2.0786 1.5150
# 2 49.2953 140.9047 22.1780 -15.9075 13.1314 3.8107
# 3 12.6457 22.1780 74.0518 1.7003 10.7563 -3.1557
# 4 -10.9478 -15.9075 1.7003 36.8101 -3.8788 -4.1014
# 5 2.0786 13.1314 10.7563 -3.8788 28.9219 -0.8722
# 6 1.5150 3.8107 -3.1557 -4.1014 -0.8722 34.5740
#
#
#
# Elastic Compliance Matrix: (Units=1/GPa)
#
#
# Indices 1 2 3 4 5 6 
#
# 1 0.013189 -0.004324 -0.001267 0.002314 0.001800 0.000103
# 2 -0.004324 0.009469 -0.001748 0.002479 -0.003030 -0.000796
# 3 -0.001267 -0.001748 0.015071 -0.002216 -0.004980 0.001235
# 4 0.002314 0.002479 -0.002216 0.029748 0.003614 0.003043
# 5 0.001800 -0.003030 -0.004980 0.003614 0.038195 0.001193
# 6 0.000103 -0.000796 0.001235 0.003043 0.001193 0.029511
#
#
# Mechanical properties :
#
#
# Convention : Reuss Voigt Hill
#
# Bulk Modulus (GPa) = 43.38533 53.11313 48.24923
# Shear Modulus (GPa) = 31.73720 35.10527 33.42123
#
# Velocity S-wave (km/s) = 3.78294 3.97861 3.88201
# Velocity P-wave (km/s) = 6.21641 6.71230 6.46911
#
# Compressibility (1/GPa) = 0.02304927
#
# Stress axis : x y z
#
# Youngs Moduli (GPa) = 75.82197 105.61251 66.35278
#
# Poissons Ratio (x) = 0.45666 0.08410
# Poissons Ratio (y) = 0.32785 0.11599
# Poissons Ratio (z) = 0.09610 0.18463
#
# Static dielectric constant tensor:
#      x y z
#    x 1.900690 0.035870 -0.006790 
#    y 0.035870 1.957500 -0.018090 
#    z -0.006790 -0.018090 1.866100 
# 
# From -- ./inp_files/466555.got.cif
#   From: 2010.05.17/outbox.cif.g08.bks.cpg/sg2_234_cif.got.tgz:466555.got - 2010.06.03 11:33:40.
