data_PCOD9097952
_publ_section_title
;
Structure prediction by ZEFSAII (Michael W. Deem and Ramdas Pophale) SiO2 
 PCOD9097952
Probable space group: P -1
;
_chemical_formula_sum "Si O2"
_cell_formula_units_Z 16
_cell_length_a 12.387678
_cell_length_b 8.173285
_cell_length_c 13.943970
_cell_angle_alpha 54.324379
_cell_angle_beta 71.426717
_cell_angle_gamma 38.970089
_cell_volume 695.670780
_symmetry_space_group_name_H-M "P -1"
_symmetry_group_IT_number 2
_symmetry_cell_setting 'triclinic'
loop_
_space_group_symop_operation_xyz
x,y,z
-x,-y,-z
loop_
_atom_site_type_symbol
_atom_site_label
_atom_site_fract_x
_atom_site_fract_y
_atom_site_fract_z
Si Si1 0.726566 0.127113 0.668234
Si Si2 0.787610 0.016786 0.390502
Si Si3 0.734223 0.482746 0.141419
Si Si4 0.370613 0.014526 0.722485
Si Si5 0.904672 0.846396 0.915489
Si Si6 0.605959 0.102207 0.032994
Si Si7 0.035189 0.717115 0.582485
Si Si8 0.490182 0.795003 0.445490
O O1 0.667285 0.433890 0.551032
O O2 0.570513 0.199945 0.644312
O O3 0.772922 0.050667 0.792012
O O4 0.900810 0.818564 0.666887
O O5 0.759855 0.290758 0.285890
O O6 0.651860 0.103277 0.475004
O O7 0.738336 0.986534 0.313660
O O8 0.975538 0.732668 0.487129
O O9 0.675866 0.782458 0.093226
O O10 0.925484 0.237612 0.116335
O O11 0.573267 0.626707 0.070288
O O12 0.436840 0.831271 0.864947
O O13 0.228017 0.378366 0.667071
O O14 0.505988 0.968608 0.638847
O O15 0.769950 0.024512 0.982563
O O16 0.000000 0.500000 0.000000
O O17 0.000000 0.000000 0.500000
#
# Coordination Sequence:
#
# PCOD9097952 Si02
#       8
#     2   2   2   2   2   2   2   2
#     4  10  20  36  62  95 116 153 218 263 308 361
#     4  11  24  41  60  93 129 165 206 250 321 391
#     4  10  22  40  66  90 124 163 215 267 310 366
#     4  12  24  40  60  90 132 168 201 255 322 379
#     4  10  20  37  62  93 125 153 207 272 311 356
#     4  10  23  39  65  92 122 164 219 261 309 368
#     4  11  20  38  63  90 119 156 207 258 307 366
#     4  10  23  36  63  89 126 164 205 258 316 375
#
# _framework density 22.999383999999999
#
# number of rings (size 3 to 8) (size 9 to 14) (size 15 to 20)
#    0.000    1.500    1.250    4.500    8.750    0.500 
#    0.000    0.625    0.000    0.000    0.000    0.000 
#    0.000    0.000    0.000    0.000    0.000    0.000 
#
# Total GULP energy -89359.409789 kJ/mol
# GULP energy per Si atom -5584.963112 kJ/mol
# Density = 2.294704 g / cm^3
# Si number density = 22.999384 Si / 1000 Ang^3
#
#
#
# Elastic Constant Matrix: (Units=GPa)
#
#
# Indices 1 2 3 4 5 6 
#
# 1 69.0118 17.5670 20.1154 9.1403 0.6912 -10.0402
# 2 17.5670 36.6699 17.8186 6.1464 -3.4144 -20.4983
# 3 20.1154 17.8186 106.6498 3.3378 8.2889 -19.5307
# 4 9.1403 6.1464 3.3378 25.7391 -6.5737 -2.5044
# 5 0.6912 -3.4144 8.2889 -6.5737 30.8819 3.3256
# 6 -10.0402 -20.4983 -19.5307 -2.5044 3.3256 35.7999
#
#
#
# Elastic Compliance Matrix: (Units=1/GPa)
#
#
# Indices 1 2 3 4 5 6 
#
# 1 0.017411 -0.006951 -0.001907 -0.004719 -0.001617 -0.000318
# 2 -0.006951 0.045120 -0.002184 -0.005304 0.002220 0.022117
# 3 -0.001907 -0.002184 0.011286 -0.000807 -0.003904 0.004678
# 4 -0.004719 -0.005304 -0.000807 0.044045 0.009390 -0.002592
# 5 -0.001617 0.002220 -0.003904 0.009390 0.036142 -0.004013
# 6 -0.000318 0.022117 0.004678 -0.002592 -0.004013 0.043251
#
#
# Mechanical properties :
#
#
# Convention : Reuss Voigt Hill
#
# Bulk Modulus (GPa) = 19.32981 35.92594 27.62787
# Shear Modulus (GPa) = 21.13416 28.93955 25.03685
#
# Velocity S-wave (km/s) = 3.03463 3.55107 3.30296
# Velocity P-wave (km/s) = 4.54987 5.69805 5.15602
#
# Compressibility (1/GPa) = 0.05173357
#
# Stress axis : x y z
#
# Youngs Moduli (GPa) = 57.43617 22.16289 88.60196
#
# Poissons Ratio (x) = 0.15405 0.16899
# Poissons Ratio (y) = 0.39924 0.19348
# Poissons Ratio (z) = 0.10955 0.04840
#
# Static dielectric constant tensor:
#      x y z
#    x 1.953220 -0.033110 -0.059880 
#    y -0.033110 1.910580 0.057360 
#    z -0.059880 0.057360 1.867910 
# 
# From -- ./inp_files/298630.got.cif
#   From: 2010.05.17/outbox.cif.g08.bks.cpg/sg2_150_cif.got.tgz:298630.got - 2010.06.03 11:33:40.
