data_PCOD9097803
_publ_section_title
;
Structure prediction by ZEFSAII (Michael W. Deem and Ramdas Pophale) SiO2 
 PCOD9097803
Probable space group: P -1
;
_chemical_formula_sum "Si O2"
_cell_formula_units_Z 14
_cell_length_a 10.505868
_cell_length_b 15.999896
_cell_length_c 15.445844
_cell_angle_alpha 27.233995
_cell_angle_beta 35.665465
_cell_angle_gamma 55.176885
_cell_volume 570.558696
_symmetry_space_group_name_H-M "P -1"
_symmetry_group_IT_number 2
_symmetry_cell_setting 'triclinic'
loop_
_space_group_symop_operation_xyz
x,y,z
-x,-y,-z
loop_
_atom_site_type_symbol
_atom_site_label
_atom_site_fract_x
_atom_site_fract_y
_atom_site_fract_z
Si Si1 0.676061 0.975970 0.270895
Si Si2 0.430483 0.874916 0.969379
Si Si3 0.005531 0.485629 0.114756
Si Si4 0.891880 0.116609 0.210116
Si Si5 0.409488 0.240240 0.718266
Si Si6 0.745911 0.622937 0.483948
Si Si7 0.003240 0.912864 0.483809
O O1 0.723810 0.038759 0.287196
O O2 0.669293 0.752444 0.471610
O O3 0.486737 0.986455 0.294791
O O4 0.950948 0.187870 0.882377
O O5 0.302752 0.616313 0.256566
O O6 0.677100 0.948372 0.829265
O O7 0.289633 0.981993 0.996481
O O8 0.722419 0.351569 0.446066
O O9 0.120979 0.343849 0.200793
O O10 0.154521 0.720066 0.862285
O O11 0.000000 0.500000 0.000000
O O12 0.855251 0.941809 0.461756
O O13 0.202628 0.231216 0.906808
O O14 0.410707 0.387788 0.504315
O O15 0.000000 0.000000 0.500000
#
# Coordination Sequence:
#
# PCOD9097803 Si02
#       7
#     2   2   2   2   2   2   2
#     4   9  20  35  56  93 122 156 194 248 297 362
#     4  10  20  36  62  88 123 161 197 241 304 361
#     4  11  22  38  62  85 122 166 199 242 308 360
#     4  11  22  39  62  90 126 149 200 263 296 352
#     4   9  21  36  58  97 120 154 203 252 297 354
#     4   9  17  34  60  86 128 159 189 239 311 358
#     4  11  24  41  61  87 118 163 209 245 302 363
#
# _framework density 24.537351999999998
#
# number of rings (size 3 to 8) (size 9 to 14) (size 15 to 20)
#    0.000    2.000    1.429    2.571    0.000    6.857 
#    0.000    0.714    0.000    1.714    0.000    0.000 
#    0.000    0.000    0.000    0.000    0.000    0.000 
#
# Total GULP energy -78000.852781 kJ/mol
# GULP energy per Si atom -5571.489484 kJ/mol
# Density = 2.448150 g / cm^3
# Si number density = 24.537352 Si / 1000 Ang^3
#
#
#
# Elastic Constant Matrix: (Units=GPa)
#
#
# Indices 1 2 3 4 5 6 
#
# 1 83.3607 18.5394 11.7662 -33.2921 23.4114 7.4665
# 2 18.5394 162.5464 53.9916 -43.0527 36.5089 11.7374
# 3 11.7662 53.9916 101.7447 -40.4237 8.9444 -6.1356
# 4 -33.2921 -43.0527 -40.4237 57.0921 -18.9052 2.6724
# 5 23.4114 36.5089 8.9444 -18.9052 40.0298 -1.8494
# 6 7.4665 11.7374 -6.1356 2.6724 -1.8494 32.1403
#
#
#
# Elastic Compliance Matrix: (Units=1/GPa)
#
#
# Indices 1 2 3 4 5 6 
#
# 1 0.018827 0.002973 0.001154 0.011403 -0.008905 -0.006700
# 2 0.002973 0.010702 -0.003857 0.004441 -0.008827 -0.006212
# 3 0.001154 -0.003857 0.015565 0.010033 0.004266 0.003523
# 4 0.011403 0.004441 0.010033 0.036139 0.003870 -0.005138
# 5 -0.008905 -0.008827 0.004266 0.003870 0.039487 0.008057
# 6 -0.006700 -0.006212 0.003523 -0.005138 0.008057 0.036502
#
#
# Mechanical properties :
#
#
# Convention : Reuss Voigt Hill
#
# Bulk Modulus (GPa) = 21.91311 57.36066 39.63689
# Shear Modulus (GPa) = 29.08794 43.40940 36.24867
#
# Velocity S-wave (km/s) = 3.44678 4.21065 3.84772
# Velocity P-wave (km/s) = 4.97898 6.86054 5.99405
#
# Compressibility (1/GPa) = 0.04563478
#
# Stress axis : x y z
#
# Youngs Moduli (GPa) = 53.11574 93.44463 64.24472
#
# Poissons Ratio (x) = -0.27785 -0.07415
# Poissons Ratio (y) = -0.15793 0.24779
# Poissons Ratio (z) = -0.06130 0.36042
#
# Static dielectric constant tensor:
#      x y z
#    x 2.102110 -0.158450 -0.237550 
#    y -0.158450 2.143650 0.200430 
#    z -0.237550 0.200430 2.192420 
# 
# From -- ./inp_files/455812.got.cif
#   From: 2010.05.17/outbox.cif.g08.bks.cpg/sg2_228_cif.got.tgz:455812.got - 2010.06.03 11:33:40.
