data_PCOD9097470
_publ_section_title
;
Structure prediction by ZEFSAII (Michael W. Deem and Ramdas Pophale) SiO2 
 PCOD9097470
Probable space group: P -1
;
_chemical_formula_sum "Si O2"
_cell_formula_units_Z 16
_cell_length_a 8.472127
_cell_length_b 10.317604
_cell_length_c 10.095833
_cell_angle_alpha 126.360827
_cell_angle_beta 55.758001
_cell_angle_gamma 101.276920
_cell_volume 574.721584
_symmetry_space_group_name_H-M "P -1"
_symmetry_group_IT_number 2
_symmetry_cell_setting 'triclinic'
loop_
_space_group_symop_operation_xyz
x,y,z
-x,-y,-z
loop_
_atom_site_type_symbol
_atom_site_label
_atom_site_fract_x
_atom_site_fract_y
_atom_site_fract_z
Si Si1 0.668504 0.549044 0.134329
Si Si2 0.746411 0.109599 0.753325
Si Si3 0.248229 0.688905 0.518099
Si Si4 0.344089 0.320661 0.066626
Si Si5 0.183486 0.023871 0.845477
Si Si6 0.844294 0.850792 0.343191
Si Si7 0.164074 0.233337 0.366564
Si Si8 0.272897 0.503214 0.644675
O O1 0.433438 0.582250 0.289529
O O2 0.713458 0.559327 0.961745
O O3 0.733795 0.712879 0.260740
O O4 0.764183 0.439074 0.151080
O O5 0.578157 0.271044 0.944850
O O6 0.949856 0.171115 0.689047
O O7 0.719042 0.011187 0.572367
O O8 0.751351 0.961863 0.769469
O O9 0.315305 0.848009 0.641424
O O10 0.167119 0.617701 0.646992
O O11 0.064953 0.734778 0.536119
O O12 0.294173 0.148643 0.936245
O O13 0.248553 0.324695 0.259909
O O14 0.092635 0.091941 0.792753
O O15 0.000000 0.000000 0.000000
O O16 0.220289 0.327938 0.526949
O O17 0.500000 0.500000 0.500000
#
# Coordination Sequence:
#
# PCOD9097470 Si02
#       8
#     2   2   2   2   2   2   2   2
#     4  10  22  42  64  93 126 165 213 256 307 378
#     4  11  21  36  60  97 133 163 205 255 322 376
#     4  11  22  41  68  90 123 175 214 253 303 380
#     4  11  24  37  65  99 132 161 196 269 330 363
#     4  11  20  37  60  95 132 159 199 258 325 374
#     4  10  20  36  60  94 130 161 209 252 310 377
#     4  12  23  43  62  97 130 162 213 261 312 376
#     4  10  24  45  65  87 119 177 222 254 298 374
#
# _framework density 27.839566000000001
#
# number of rings (size 3 to 8) (size 9 to 14) (size 15 to 20)
#    0.000    1.250    3.750    2.250    3.500    2.000 
#    0.000    3.125    0.000    0.000    0.000    0.000 
#    0.000    0.000    0.000    0.000    0.000    0.000 
#
# Total GULP energy -89471.382272 kJ/mol
# GULP energy per Si atom -5591.961392 kJ/mol
# Density = 2.777620 g / cm^3
# Si number density = 27.839566 Si / 1000 Ang^3
#
#
#
# Elastic Constant Matrix: (Units=GPa)
#
#
# Indices 1 2 3 4 5 6 
#
# 1 80.7964 8.5334 31.1901 -16.9474 10.5626 -8.6357
# 2 8.5334 96.1745 15.7295 -31.2386 -3.5393 -17.5738
# 3 31.1901 15.7295 115.1506 -26.5292 22.3242 -30.1030
# 4 -16.9474 -31.2386 -26.5292 52.3656 -11.4115 6.0490
# 5 10.5626 -3.5393 22.3242 -11.4115 59.1845 -10.1783
# 6 -8.6357 -17.5738 -30.1030 6.0490 -10.1783 51.9602
#
#
#
# Elastic Compliance Matrix: (Units=1/GPa)
#
#
# Indices 1 2 3 4 5 6 
#
# 1 0.014270 0.000219 -0.002989 0.003040 -0.000785 0.000207
# 2 0.000219 0.014184 0.000742 0.009026 0.003098 0.004820
# 3 -0.002989 0.000742 0.012449 0.004610 -0.002197 0.005999
# 4 0.003040 0.009026 0.004610 0.028315 0.004369 0.003789
# 5 -0.000785 0.003098 -0.002197 0.004369 0.019398 0.002936
# 6 0.000207 0.004820 0.005999 0.003789 0.002936 0.024520
#
#
# Mechanical properties :
#
#
# Convention : Reuss Voigt Hill
#
# Bulk Modulus (GPa) = 27.13923 44.78083 35.96003
# Shear Modulus (GPa) = 38.61831 48.47996 43.54913
#
# Velocity S-wave (km/s) = 3.72852 4.17754 3.95940
# Velocity P-wave (km/s) = 5.32028 6.27610 5.81785
#
# Compressibility (1/GPa) = 0.03684703
#
# Stress axis : x y z
#
# Youngs Moduli (GPa) = 70.07888 70.50416 80.32805
#
# Poissons Ratio (x) = -0.01544 0.24006
# Poissons Ratio (y) = -0.01534 -0.05961
# Poissons Ratio (z) = 0.20943 -0.05232
#
# Static dielectric constant tensor:
#      x y z
#    x 2.200130 0.009240 -0.001740 
#    y 0.009240 2.389310 0.016590 
#    z -0.001740 0.016590 2.201490 
# 
# From -- ./inp_files/189770.got.cif
#   From: 2010.05.17/outbox.cif.g08.bks.cpg/sg2_95_cif.got.tgz:189770.got - 2010.06.03 11:33:40.
