data_PCOD9097500
_publ_section_title
;
Structure prediction by ZEFSAII (Michael W. Deem and Ramdas Pophale) SiO2 
 PCOD9097500
Probable space group: P -1
;
_chemical_formula_sum "Si O2"
_cell_formula_units_Z 16
_cell_length_a 14.514612
_cell_length_b 11.068769
_cell_length_c 8.796559
_cell_angle_alpha 67.453301
_cell_angle_beta 41.830694
_cell_angle_gamma 48.870828
_cell_volume 693.756143
_symmetry_space_group_name_H-M "P -1"
_symmetry_group_IT_number 2
_symmetry_cell_setting 'triclinic'
loop_
_space_group_symop_operation_xyz
x,y,z
-x,-y,-z
loop_
_atom_site_type_symbol
_atom_site_label
_atom_site_fract_x
_atom_site_fract_y
_atom_site_fract_z
Si Si1 0.614544 0.316267 0.009492
Si Si2 0.613047 0.683293 0.925356
Si Si3 0.012080 0.092691 0.582335
Si Si4 0.030282 0.162363 0.844783
Si Si5 0.221497 0.209869 0.135094
Si Si6 0.102867 0.412986 0.618008
Si Si7 0.633525 0.413933 0.240225
Si Si8 0.301842 0.127409 0.729250
O O1 0.811189 0.244565 0.776095
O O2 0.500000 0.500000 0.000000
O O3 0.553040 0.232463 0.021100
O O4 0.583252 0.329734 0.221258
O O5 0.630953 0.804046 0.941494
O O6 0.776342 0.590823 0.654640
O O7 0.619814 0.558169 0.093722
O O8 0.057900 0.044585 0.729369
O O9 0.142626 0.128304 0.349681
O O10 0.000000 0.000000 0.500000
O O11 0.047064 0.299744 0.685928
O O12 0.180047 0.083188 0.826101
O O13 0.835694 0.274113 0.096853
O O14 0.062103 0.405582 0.228837
O O15 0.281783 0.144391 0.924228
O O16 0.219203 0.306973 0.671435
O O17 0.500000 0.500000 0.500000
O O18 0.500000 0.000000 0.500000
#
# Coordination Sequence:
#
# PCOD9097500 Si02
#       8
#     2   2   2   2   2   2   2   2
#     4   9  21  38  59  92 133 169 216 267 328 385
#     4  11  20  36  64  99 128 170 217 281 324 388
#     4  11  24  43  65  94 132 181 222 269 338 413
#     4   9  20  42  66  92 136 172 219 273 342 387
#     4  12  21  39  70  99 126 174 232 274 331 396
#     4  10  20  40  70  96 132 165 226 283 330 385
#     4  10  20  36  61 101 139 172 213 271 339 400
#     4  10  24  40  60 100 138 169 211 284 346 389
#
# _framework density 23.062860000000001
#
# number of rings (size 3 to 8) (size 9 to 14) (size 15 to 20)
#    0.750    1.000    2.500    3.000    0.000    6.000 
#    0.000    3.750    0.000    0.000    0.000    0.875 
#    0.000    0.000    0.000    0.000    0.000    0.000 
#
# Total GULP energy -89355.804560 kJ/mol
# GULP energy per Si atom -5584.737785 kJ/mol
# Density = 2.301037 g / cm^3
# Si number density = 23.062860 Si / 1000 Ang^3
#
#
#
# Elastic Constant Matrix: (Units=GPa)
#
#
# Indices 1 2 3 4 5 6 
#
# 1 218.3679 23.3236 86.3078 12.2082 0.6818 16.5623
# 2 23.3236 60.8944 30.3869 -0.4882 -0.6422 12.6668
# 3 86.3078 30.3869 172.3318 6.1559 22.2715 0.8662
# 4 12.2082 -0.4882 6.1559 25.7719 9.6860 -5.7706
# 5 0.6818 -0.6422 22.2715 9.6860 38.8592 7.1059
# 6 16.5623 12.6668 0.8662 -5.7706 7.1059 23.2264
#
#
#
# Elastic Compliance Matrix: (Units=1/GPa)
#
#
# Indices 1 2 3 4 5 6 
#
# 1 0.007139 0.001240 -0.004238 -0.006428 0.005555 -0.008905
# 2 0.001240 0.022001 -0.005217 -0.005493 0.007701 -0.016409
# 3 -0.004238 -0.005217 0.009723 0.004866 -0.008501 0.009314
# 4 -0.006428 -0.005493 0.004866 0.054832 -0.021480 0.027592
# 5 0.005555 0.007701 -0.008501 -0.021480 0.040676 -0.025625
# 6 -0.008905 -0.016409 0.009314 0.027592 -0.025625 0.072701
#
#
# Mechanical properties :
#
#
# Convention : Reuss Voigt Hill
#
# Bulk Modulus (GPa) = 44.57663 81.29229 62.93446
# Shear Modulus (GPa) = 21.64704 38.34322 29.99513
#
# Velocity S-wave (km/s) = 3.06700 4.08186 3.61027
# Velocity P-wave (km/s) = 5.64909 7.58552 6.68777
#
# Compressibility (1/GPa) = 0.02243328
#
# Stress axis : x y z
#
# Youngs Moduli (GPa) = 140.06871 45.45317 102.85050
#
# Poissons Ratio (x) = -0.05634 0.43584
# Poissons Ratio (y) = -0.17363 0.53655
# Poissons Ratio (z) = 0.59356 0.23712
#
# Static dielectric constant tensor:
#      x y z
#    x 1.959560 0.028980 -0.000690 
#    y 0.028980 1.912600 -0.026630 
#    z -0.000690 -0.026630 1.813000 
# 
# From -- ./inp_files/306889.got.cif
#   From: 2010.05.17/outbox.cif.g08.bks.cpg/sg2_154_cif.got.tgz:306889.got - 2010.06.03 11:33:40.
