data_PCOD9097756
_publ_section_title
;
Structure prediction by ZEFSAII (Michael W. Deem and Ramdas Pophale) SiO2 
 PCOD9097756
Probable space group: P -1
;
_chemical_formula_sum "Si O2"
_cell_formula_units_Z 12
_cell_length_a 8.746265
_cell_length_b 8.183458
_cell_length_c 10.640314
_cell_angle_alpha 60.841268
_cell_angle_beta 121.965822
_cell_angle_gamma 125.979987
_cell_volume 505.320574
_symmetry_space_group_name_H-M "P -1"
_symmetry_group_IT_number 2
_symmetry_cell_setting 'triclinic'
loop_
_space_group_symop_operation_xyz
x,y,z
-x,-y,-z
loop_
_atom_site_type_symbol
_atom_site_label
_atom_site_fract_x
_atom_site_fract_y
_atom_site_fract_z
Si Si1 0.261913 0.059690 0.259439
Si Si2 0.383659 0.507857 0.071474
Si Si3 0.911978 0.318249 0.223319
Si Si4 0.393498 0.107486 0.823037
Si Si5 0.270881 0.698602 0.301399
Si Si6 0.731114 0.225086 0.445776
O O1 0.254890 0.272657 0.151843
O O2 0.502465 0.129792 0.335694
O O3 0.176496 0.867672 0.194926
O O4 0.202918 0.949207 0.410059
O O5 0.563371 0.676022 0.171837
O O6 0.500000 0.500000 0.000000
O O7 0.225422 0.597717 0.941775
O O8 0.862561 0.334600 0.342877
O O9 0.141831 0.486037 0.251331
O O10 0.825756 0.077321 0.234273
O O11 0.516818 0.186259 0.718013
O O12 0.500000 0.000000 0.000000
O O13 0.273665 0.663022 0.466227
#
# Coordination Sequence:
#
# PCOD9097756 Si02
#       6
#     2   2   2   2   2   2
#     4   9  17  34  59  82 111 147 190 226 278 328
#     4  11  21  36  59  84 113 147 191 237 286 326
#     4  11  20  37  63  84 114 153 184 233 279 335
#     4  10  21  37  57  82 118 150 185 234 281 335
#     4  10  20  36  62  85 111 151 195 222 277 345
#     4   9  17  36  61  82 113 150 188 225 276 342
#
# _framework density 23.747302999999999
#
# number of rings (size 3 to 8) (size 9 to 14) (size 15 to 20)
#    1.000    1.000    3.333    1.500    0.000    3.333 
#    0.000    5.000    0.000    2.000    0.000    0.000 
#    0.000    0.000    0.000    0.000    0.000    0.000 
#
# Total GULP energy -66844.430895 kJ/mol
# GULP energy per Si atom -5570.369241 kJ/mol
# Density = 2.369325 g / cm^3
# Si number density = 23.747303 Si / 1000 Ang^3
#
#
#
# Elastic Constant Matrix: (Units=GPa)
#
#
# Indices 1 2 3 4 5 6 
#
# 1 17.6762 12.9413 10.0058 7.4408 -4.7046 -6.5045
# 2 12.9413 173.9180 26.9072 16.6815 -9.2255 -0.2792
# 3 10.0058 26.9072 72.3505 -9.1281 -15.0274 -6.7329
# 4 7.4408 16.6815 -9.1281 33.8717 -7.8808 -7.7605
# 5 -4.7046 -9.2255 -15.0274 -7.8808 14.9988 8.4932
# 6 -6.5045 -0.2792 -6.7329 -7.7605 8.4932 33.9309
#
#
#
# Elastic Compliance Matrix: (Units=1/GPa)
#
#
# Indices 1 2 3 4 5 6 
#
# 1 0.074274 -0.002287 -0.011515 -0.017104 -0.003701 0.008949
# 2 -0.002287 0.006756 -0.003085 -0.004267 -0.000908 -0.001744
# 3 -0.011515 -0.003085 0.024588 0.017170 0.028458 -0.000550
# 4 -0.017104 -0.004267 0.017170 0.048345 0.032975 0.002896
# 5 -0.003701 -0.000908 0.028458 0.032975 0.120860 -0.017780
# 6 0.008949 -0.001744 -0.000550 0.002896 -0.017780 0.036177
#
#
# Mechanical properties :
#
#
# Convention : Reuss Voigt Hill
#
# Bulk Modulus (GPa) = 13.91938 40.40594 27.16266
# Shear Modulus (GPa) = 13.56043 30.83296 22.19670
#
# Velocity S-wave (km/s) = 2.39222 3.60721 3.06061
# Velocity P-wave (km/s) = 3.67484 5.86525 4.89416
#
# Compressibility (1/GPa) = 0.07184227
#
# Stress axis : x y z
#
# Youngs Moduli (GPa) = 13.46374 148.02451 40.67107
#
# Poissons Ratio (x) = 0.33846 0.46834
# Poissons Ratio (y) = 0.03079 0.12549
# Poissons Ratio (z) = 0.15504 0.45671
#
# Static dielectric constant tensor:
#      x y z
#    x 1.971570 0.033250 -0.033360 
#    y 0.033250 2.073310 -0.052480 
#    z -0.033360 -0.052480 1.939410 
# 
# From -- ./inp_files/150807.got.cif
#   From: 2010.05.17/outbox.cif.g08.bks.cpg/sg2_76_cif.got.tgz:150807.got - 2010.06.03 11:33:40.
