data_PCOD9097359
_publ_section_title
;
Structure prediction by ZEFSAII (Michael W. Deem and Ramdas Pophale) SiO2 
 PCOD9097359
Probable space group: P -1
;
_chemical_formula_sum "Si O2"
_cell_formula_units_Z 14
_cell_length_a 13.986060
_cell_length_b 10.609792
_cell_length_c 11.845896
_cell_angle_alpha 143.766019
_cell_angle_beta 134.980896
_cell_angle_gamma 30.954858
_cell_volume 533.764148
_symmetry_space_group_name_H-M "P -1"
_symmetry_group_IT_number 2
_symmetry_cell_setting 'triclinic'
loop_
_space_group_symop_operation_xyz
x,y,z
-x,-y,-z
loop_
_atom_site_type_symbol
_atom_site_label
_atom_site_fract_x
_atom_site_fract_y
_atom_site_fract_z
Si Si1 0.328552 0.433786 0.859213
Si Si2 0.242410 0.878574 0.408530
Si Si3 0.513730 0.243876 0.099333
Si Si4 0.869644 0.096668 0.242858
Si Si5 0.829259 0.855174 0.230983
Si Si6 0.048934 0.306575 0.177043
Si Si7 0.629860 0.112113 0.707038
O O1 0.122460 0.571115 0.798423
O O2 0.427968 0.286971 0.717446
O O3 0.452903 0.208018 0.904300
O O4 0.329569 0.684271 0.074330
O O5 0.332004 0.548929 0.222005
O O6 0.017888 0.124602 0.383737
O O7 0.327267 0.938208 0.425906
O O8 0.275795 0.906140 0.584508
O O9 0.660825 0.946974 0.080025
O O10 0.649470 0.306376 0.233853
O O11 0.939414 0.885328 0.257757
O O12 0.895898 0.953799 0.042536
O O13 0.969051 0.551186 0.192382
O O14 0.222752 0.179955 0.306684
#
# Coordination Sequence:
#
# PCOD9097359 Si02
#       7
#     2   2   2   2   2   2   2
#     4  10  20  36  60  89 108 150 194 240 278 327
#     4  11  21  41  60  83 115 158 188 234 281 333
#     4   9  20  37  60  83 113 144 203 228 274 336
#     4  10  21  37  62  86 109 153 193 234 281 336
#     4  10  24  38  57  87 124 145 188 234 288 351
#     4  12  21  39  58  90 118 148 182 245 292 324
#     4  10  21  35  61  83 116 146 200 229 274 347
#
# _framework density 26.228812000000001
#
# number of rings (size 3 to 8) (size 9 to 14) (size 15 to 20)
#    0.857    0.857    4.286    1.714    0.000    1.143 
#    2.571    0.714    0.000    0.000    0.000    0.000 
#    0.000    0.000    0.000    0.000    0.000    0.000 
#
# Total GULP energy -78218.920852 kJ/mol
# GULP energy per Si atom -5587.065775 kJ/mol
# Density = 2.616911 g / cm^3
# Si number density = 26.228812 Si / 1000 Ang^3
#
#
#
# Elastic Constant Matrix: (Units=GPa)
#
#
# Indices 1 2 3 4 5 6 
#
# 1 111.5213 24.6839 31.7441 -0.2308 -35.5992 -13.0399
# 2 24.6839 97.4535 23.1059 -6.6556 -13.6623 4.9229
# 3 31.7441 23.1059 69.5724 -11.1499 -23.9009 -5.4999
# 4 -0.2308 -6.6556 -11.1499 27.3188 2.6368 -8.8569
# 5 -35.5992 -13.6623 -23.9009 2.6368 37.4594 2.5696
# 6 -13.0399 4.9229 -5.4999 -8.8569 2.5696 53.7820
#
#
#
# Elastic Compliance Matrix: (Units=1/GPa)
#
#
# Indices 1 2 3 4 5 6 
#
# 1 0.013730 -0.001686 -0.001885 -0.001316 0.011149 0.002541
# 2 -0.001686 0.011621 -0.002722 0.001092 0.000933 -0.001616
# 3 -0.001885 -0.002722 0.021004 0.007835 0.009877 0.002759
# 4 -0.001316 0.001092 0.007835 0.042369 0.000661 0.007328
# 5 0.011149 0.000933 0.009877 0.000661 0.043774 0.001645
# 6 0.002541 -0.001616 0.002759 0.007328 0.001645 0.020768
#
#
# Mechanical properties :
#
#
# Convention : Reuss Voigt Hill
#
# Bulk Modulus (GPa) = 29.61274 48.62389 39.11832
# Shear Modulus (GPa) = 28.23130 36.97958 32.60544
#
# Velocity S-wave (km/s) = 3.28433 3.75892 3.52961
# Velocity P-wave (km/s) = 5.06923 6.11701 5.61761
#
# Compressibility (1/GPa) = 0.03376925
#
# Stress axis : x y z
#
# Youngs Moduli (GPa) = 72.83412 86.05251 47.60905
#
# Poissons Ratio (x) = 0.14509 0.08972
# Poissons Ratio (y) = 0.12280 0.12961
# Poissons Ratio (z) = 0.13726 0.23426
#
# Static dielectric constant tensor:
#      x y z
#    x 2.169670 0.091690 0.076170 
#    y 0.091690 2.061380 0.022420 
#    z 0.076170 0.022420 2.035700 
# 
# From -- ./inp_files/251705.got.cif
#   From: 2010.05.17/outbox.cif.g08.bks.cpg/sg2_126_cif.got.tgz:251705.got - 2010.06.03 11:33:40.
