data_PCOD9097990
_publ_section_title
;
Structure prediction by ZEFSAII (Michael W. Deem and Ramdas Pophale) SiO2 
 PCOD9097990
Probable space group: P -1
;
_chemical_formula_sum "Si O2"
_cell_formula_units_Z 12
_cell_length_a 10.122253
_cell_length_b 7.501349
_cell_length_c 12.554269
_cell_angle_alpha 138.281336
_cell_angle_beta 125.017031
_cell_angle_gamma 81.189362
_cell_volume 448.467866
_symmetry_space_group_name_H-M "P -1"
_symmetry_group_IT_number 2
_symmetry_cell_setting 'triclinic'
loop_
_space_group_symop_operation_xyz
x,y,z
-x,-y,-z
loop_
_atom_site_type_symbol
_atom_site_label
_atom_site_fract_x
_atom_site_fract_y
_atom_site_fract_z
Si Si1 0.177816 0.867339 0.610999
Si Si2 0.072617 0.823018 0.771339
Si Si3 0.837785 0.161349 0.637767
Si Si4 0.239196 0.756125 0.139810
Si Si5 0.661663 0.523845 0.763370
Si Si6 0.568784 0.988080 0.876683
O O1 0.064250 0.880193 0.666949
O O2 0.164600 0.990163 0.543408
O O3 0.394159 0.034607 0.817191
O O4 0.093152 0.493307 0.401728
O O5 0.139828 0.148373 0.005072
O O6 0.262513 0.804069 0.870929
O O7 0.780884 0.050624 0.684757
O O8 0.689087 0.281637 0.600023
O O9 0.040529 0.466064 0.884416
O O10 0.336494 0.938336 0.161768
O O11 0.350593 0.605143 0.180949
O O12 0.518648 0.637038 0.722651
#
# Coordination Sequence:
#
# PCOD9097990 Si02
#       6
#     2   2   2   2   2   2
#     4  11  20  35  61  87 106 151 190 222 284 329
#     4   9  21  38  57  81 116 147 185 227 278 334
#     4   9  18  36  59  81 114 147 185 228 276 330
#     4   9  18  37  58  83 113 148 184 226 283 325
#     4   8  19  37  57  82 112 150 183 223 284 323
#     4  10  20  36  63  78 117 147 179 237 277 323
#
# _framework density 26.757771000000002
#
# number of rings (size 3 to 8) (size 9 to 14) (size 15 to 20)
#    2.000    0.667    1.667    0.500    0.000    4.000 
#    0.000    3.333    0.000    0.000    0.000    0.000 
#    0.000    0.000    0.000    0.000    0.000    0.000 
#
# Total GULP energy -66907.330790 kJ/mol
# GULP energy per Si atom -5575.610899 kJ/mol
# Density = 2.669687 g / cm^3
# Si number density = 26.757771 Si / 1000 Ang^3
#
#
#
# Elastic Constant Matrix: (Units=GPa)
#
#
# Indices 1 2 3 4 5 6 
#
# 1 65.3470 22.9735 3.3708 -23.6137 -12.5603 14.1017
# 2 22.9735 108.8226 29.0079 -26.1151 -1.6852 28.3660
# 3 3.3708 29.0079 72.7388 -7.8075 13.3636 17.1246
# 4 -23.6137 -26.1151 -7.8075 49.8047 5.1185 -18.5056
# 5 -12.5603 -1.6852 13.3636 5.1185 26.5386 -11.6007
# 6 14.1017 28.3660 17.1246 -18.5056 -11.6007 38.6286
#
#
#
# Elastic Compliance Matrix: (Units=1/GPa)
#
#
# Indices 1 2 3 4 5 6 
#
# 1 0.020508 -0.002320 -0.001162 0.007845 0.009176 0.001246
# 2 -0.002320 0.012805 -0.002656 0.002962 -0.002445 -0.006694
# 3 -0.001162 -0.002656 0.020575 -0.001664 -0.016180 -0.012402
# 4 0.007845 0.002962 -0.001664 0.028620 0.003835 0.010561
# 5 0.009176 -0.002445 -0.016180 0.003835 0.060474 0.025617
# 6 0.001246 -0.006694 -0.012402 0.010561 0.025617 0.048599
#
#
# Mechanical properties :
#
#
# Convention : Reuss Voigt Hill
#
# Bulk Modulus (GPa) = 24.03187 39.73475 31.88331
# Shear Modulus (GPa) = 22.96459 35.76479 29.36469
#
# Velocity S-wave (km/s) = 2.93275 3.65994 3.31634
# Velocity P-wave (km/s) = 4.52425 5.72208 5.15805
#
# Compressibility (1/GPa) = 0.04161141
#
# Stress axis : x y z
#
# Youngs Moduli (GPa) = 48.76164 78.09608 48.60336
#
# Poissons Ratio (x) = 0.18116 0.05649
# Poissons Ratio (y) = 0.11311 0.12909
# Poissons Ratio (z) = 0.05667 0.20743
#
# Static dielectric constant tensor:
#      x y z
#    x 2.124520 -0.068300 0.012920 
#    y -0.068300 2.062070 -0.018580 
#    z 0.012920 -0.018580 2.119620 
# 
# From -- ./inp_files/151398.got.cif
#   From: 2010.05.17/outbox.cif.g08.bks.cpg/sg2_76_cif.got.tgz:151398.got - 2010.06.03 11:33:40.
