data_PCOD9097285
_publ_section_title
;
Structure prediction by ZEFSAII (Michael W. Deem and Ramdas Pophale) SiO2 
 PCOD9097285
Probable space group: P -1
;
_chemical_formula_sum "Si O2"
_cell_formula_units_Z 14
_cell_length_a 14.326121
_cell_length_b 7.267069
_cell_length_c 8.035906
_cell_angle_alpha 112.617506
_cell_angle_beta 72.337787
_cell_angle_gamma 134.161167
_cell_volume 553.216320
_symmetry_space_group_name_H-M "P -1"
_symmetry_group_IT_number 2
_symmetry_cell_setting 'triclinic'
loop_
_space_group_symop_operation_xyz
x,y,z
-x,-y,-z
loop_
_atom_site_type_symbol
_atom_site_label
_atom_site_fract_x
_atom_site_fract_y
_atom_site_fract_z
Si Si1 0.939432 0.048614 0.698831
Si Si2 0.346314 0.850054 0.161719
Si Si3 0.375288 0.251475 0.693473
Si Si4 0.722465 0.900866 0.950018
Si Si5 0.426529 0.716098 0.612651
Si Si6 0.800835 0.429941 0.162516
Si Si7 0.143053 0.745097 0.449189
O O1 0.886487 0.165138 0.666171
O O2 0.064578 0.276501 0.817280
O O3 0.000000 0.000000 0.500000
O O4 0.812958 0.844533 0.811900
O O5 0.236616 0.701686 0.310932
O O6 0.483193 0.012122 0.233840
O O7 0.290935 0.644179 0.971402
O O8 0.354625 0.083756 0.149528
O O9 0.363687 0.266714 0.902012
O O10 0.401892 0.481680 0.649018
O O11 0.486588 0.240484 0.574697
O O12 0.234044 0.986022 0.611588
O O13 0.814945 0.210216 0.069774
O O14 0.283858 0.623404 0.648134
O O15 0.000000 0.500000 0.500000
#
# Coordination Sequence:
#
# PCOD9097285 Si02
#       7
#     2   2   2   2   2   2   2
#     4  11  22  39  58  85 119 151 187 240 292 338
#     4   8  20  36  59  81 113 150 191 232 277 337
#     4  10  21  37  60  86 118 151 185 244 284 336
#     4   9  21  38  60  84 114 150 196 231 287 336
#     4  10  20  38  58  85 119 150 191 232 291 332
#     4  10  20  37  63  81 114 154 192 232 279 345
#     4  10  20  36  60  85 115 149 191 233 288 336
#
# _framework density 25.306557000000002
#
# number of rings (size 3 to 8) (size 9 to 14) (size 15 to 20)
#    0.857    1.429    0.000    2.571    2.000    2.286 
#    2.571    1.429    0.000    0.000    0.000    0.000 
#    0.000    0.000    0.000    0.000    0.000    0.000 
#
# Total GULP energy -78101.661007 kJ/mol
# GULP energy per Si atom -5578.690072 kJ/mol
# Density = 2.524896 g / cm^3
# Si number density = 25.306557 Si / 1000 Ang^3
#
#
#
# Elastic Constant Matrix: (Units=GPa)
#
#
# Indices 1 2 3 4 5 6 
#
# 1 54.0892 30.7542 31.1410 -7.9550 -8.5579 11.5382
# 2 30.7542 76.8115 46.4004 -13.4961 10.1583 21.0274
# 3 31.1410 46.4004 127.6993 -32.5700 -9.9866 12.3338
# 4 -7.9550 -13.4961 -32.5700 42.1512 0.8533 -8.0374
# 5 -8.5579 10.1583 -9.9866 0.8533 32.6460 -10.8479
# 6 11.5382 21.0274 12.3338 -8.0374 -10.8479 34.8854
#
#
#
# Elastic Compliance Matrix: (Units=1/GPa)
#
#
# Indices 1 2 3 4 5 6 
#
# 1 0.027686 -0.012242 -0.001562 0.000323 0.011373 0.002385
# 2 -0.012242 0.030665 -0.008620 -0.002263 -0.021508 -0.018597
# 3 -0.001562 -0.008620 0.013566 0.008277 0.007968 0.005301
# 4 0.000323 -0.002263 0.008277 0.030673 0.004810 0.006894
# 5 0.011373 -0.021508 0.007968 0.004810 0.050305 0.023137
# 6 0.002385 -0.018597 0.005301 0.006894 0.023137 0.045994
#
#
# Mechanical properties :
#
#
# Convention : Reuss Voigt Hill
#
# Bulk Modulus (GPa) = 36.94178 52.79904 44.87041
# Shear Modulus (GPa) = 19.78148 31.95682 25.86915
#
# Velocity S-wave (km/s) = 2.79888 3.55743 3.20070
# Velocity P-wave (km/s) = 5.00743 6.14677 5.60612
#
# Compressibility (1/GPa) = 0.02706962
#
# Stress axis : x y z
#
# Youngs Moduli (GPa) = 36.11957 32.61010 73.71191
#
# Poissons Ratio (x) = 0.39920 0.11514
# Poissons Ratio (y) = 0.44216 0.63542
# Poissons Ratio (z) = 0.05642 0.28111
#
# Static dielectric constant tensor:
#      x y z
#    x 2.035350 -0.010510 -0.073990 
#    y -0.010510 2.043590 -0.056050 
#    z -0.073990 -0.056050 2.103410 
# 
# From -- ./inp_files/299132.got.cif
#   From: 2010.05.17/outbox.cif.g08.bks.cpg/sg2_150_cif.got.tgz:299132.got - 2010.06.03 11:33:40.
