data_PCOD9097209
_publ_section_title
;
Structure prediction by ZEFSAII (Michael W. Deem and Ramdas Pophale) SiO2 
 PCOD9097209
Probable space group: P -1
;
_chemical_formula_sum "Si O2"
_cell_formula_units_Z 14
_cell_length_a 5.373042
_cell_length_b 10.397698
_cell_length_c 11.882752
_cell_angle_alpha 88.322446
_cell_angle_beta 74.613845
_cell_angle_gamma 81.118092
_cell_volume 632.341114
_symmetry_space_group_name_H-M "P -1"
_symmetry_group_IT_number 2
_symmetry_cell_setting 'triclinic'
loop_
_space_group_symop_operation_xyz
x,y,z
-x,-y,-z
loop_
_atom_site_type_symbol
_atom_site_label
_atom_site_fract_x
_atom_site_fract_y
_atom_site_fract_z
Si Si1 0.555425 0.786601 0.311156
Si Si2 0.781428 0.031078 0.929969
Si Si3 0.005588 0.829415 0.712693
Si Si4 0.845392 0.297270 0.806959
Si Si5 0.461128 0.067676 0.381917
Si Si6 0.124800 0.446800 0.291890
Si Si7 0.320015 0.393655 0.503580
O O1 0.308860 0.734056 0.287305
O O2 0.577102 0.737543 0.438822
O O3 0.838982 0.732559 0.227486
O O4 0.519209 0.940125 0.298592
O O5 0.759501 0.185767 0.900082
O O6 0.880064 0.932028 0.818870
O O7 0.500000 0.000000 0.000000
O O8 0.000000 0.000000 0.000000
O O9 0.832144 0.867981 0.619010
O O10 0.987313 0.677239 0.741644
O O11 0.302308 0.852229 0.666731
O O12 0.780900 0.455459 0.813286
O O13 0.500000 0.000000 0.500000
O O14 0.312050 0.384491 0.370793
O O15 0.933137 0.544599 0.394635
O O16 0.500000 0.500000 0.500000
#
# Coordination Sequence:
#
# PCOD9097209 Si02
#       7
#     2   2   2   2   2   2   2
#     4  11  20  37  61  91 130 176 217 255 305 396
#     4  12  25  48  73  95 122 173 234 292 348 392
#     4  12  26  44  65 101 136 175 224 281 337 389
#     4  11  22  42  66  92 124 165 216 273 335 389
#     4  12  24  38  63  97 144 176 216 264 327 399
#     4  10  24  38  62  95 140 175 214 269 324 394
#     4  10  20  36  59  93 135 186 221 241 311 405
#
# _framework density 22.139949999999999
#
# number of rings (size 3 to 8) (size 9 to 14) (size 15 to 20)
#    0.000    0.857    4.286    3.000    4.000    0.000 
#    0.000    1.429    0.000    0.000    0.000    0.000 
#    0.000    0.000    0.000    0.000    0.000    0.000 
#
# Total GULP energy -78015.720491 kJ/mol
# GULP energy per Si atom -5572.551464 kJ/mol
# Density = 2.208956 g / cm^3
# Si number density = 22.139950 Si / 1000 Ang^3
#
#
#
# Elastic Constant Matrix: (Units=GPa)
#
#
# Indices 1 2 3 4 5 6 
#
# 1 118.1003 49.4306 26.0044 -5.8543 7.9362 9.6548
# 2 49.4306 189.5746 28.9538 -35.9039 10.3164 20.5351
# 3 26.0044 28.9538 57.2607 -18.2547 3.4921 1.8766
# 4 -5.8543 -35.9039 -18.2547 39.0921 0.7640 0.0914
# 5 7.9362 10.3164 3.4921 0.7640 31.6605 -4.5039
# 6 9.6548 20.5351 1.8766 0.0914 -4.5039 45.5235
#
#
#
# Elastic Compliance Matrix: (Units=1/GPa)
#
#
# Indices 1 2 3 4 5 6 
#
# 1 0.010453 -0.002359 -0.004240 -0.002550 -0.001482 -0.001120
# 2 -0.002359 0.007682 -0.000473 0.006537 -0.002473 -0.003203
# 3 -0.004240 -0.000473 0.022782 0.009599 -0.001527 0.000003
# 4 -0.002550 0.006537 0.009599 0.035768 -0.003876 -0.003259
# 5 -0.001482 -0.002473 -0.001527 -0.003876 0.033712 0.004836
# 6 -0.001120 -0.003203 0.000003 -0.003259 0.004836 0.024134
#
#
# Mechanical properties :
#
#
# Convention : Reuss Voigt Hill
#
# Bulk Modulus (GPa) = 37.35212 63.74592 50.54902
# Shear Modulus (GPa) = 31.72588 40.62500 36.17544
#
# Velocity S-wave (km/s) = 3.78957 4.28824 4.04659
# Velocity P-wave (km/s) = 6.00461 7.30571 6.68688
#
# Compressibility (1/GPa) = 0.02677224
#
# Stress axis : x y z
#
# Youngs Moduli (GPa) = 95.66594 130.17528 43.89444
#
# Poissons Ratio (x) = 0.30708 0.18612
# Poissons Ratio (y) = 0.22567 0.02077
# Poissons Ratio (z) = 0.40563 0.06161
#
# Static dielectric constant tensor:
#      x y z
#    x 1.848850 -0.079910 0.007550 
#    y -0.079910 1.947840 0.033700 
#    z 0.007550 0.033700 1.898500 
# 
# From -- ./inp_files/76850.got.cif
#   From: 2010.05.17/outbox.cif.g08.bks.cpg/sg2_39_cif.got.tgz:76850.got - 2010.06.03 11:33:40.
