data_PCOD9097922
_publ_section_title
;
Structure prediction by ZEFSAII (Michael W. Deem and Ramdas Pophale) SiO2 
 PCOD9097922
Probable space group: P -1
;
_chemical_formula_sum "Si O2"
_cell_formula_units_Z 16
_cell_length_a 11.458684
_cell_length_b 9.785258
_cell_length_c 20.251481
_cell_angle_alpha 108.650371
_cell_angle_beta 22.398545
_cell_angle_gamma 106.655719
_cell_volume 819.557517
_symmetry_space_group_name_H-M "P -1"
_symmetry_group_IT_number 2
_symmetry_cell_setting 'triclinic'
loop_
_space_group_symop_operation_xyz
x,y,z
-x,-y,-z
loop_
_atom_site_type_symbol
_atom_site_label
_atom_site_fract_x
_atom_site_fract_y
_atom_site_fract_z
Si Si1 0.729850 0.758058 0.606769
Si Si2 0.792281 0.564838 0.297871
Si Si3 0.743403 0.237066 0.561363
Si Si4 0.310876 0.483157 0.797021
Si Si5 0.125028 0.620113 0.264401
Si Si6 0.345585 0.050288 0.834228
Si Si7 0.799176 0.717793 0.941609
Si Si8 0.870343 0.313614 0.359847
O O1 0.480914 0.631578 0.715903
O O2 0.947749 0.758406 0.556922
O O3 0.950114 0.726306 0.423603
O O4 0.555909 0.911324 0.719515
O O5 0.792244 0.606295 0.227389
O O6 0.433792 0.609935 0.502657
O O7 0.979088 0.636030 0.270139
O O8 0.949057 0.403616 0.186071
O O9 0.562116 0.388501 0.689655
O O10 0.513513 0.121204 0.694352
O O11 0.809500 0.231333 0.447170
O O12 0.000000 0.500000 0.000000
O O13 0.061958 0.457163 0.296711
O O14 0.484026 0.642119 0.077297
O O15 0.304252 0.168450 0.931797
O O16 0.000000 0.000000 0.000000
O O17 0.951311 0.776323 0.803754
#
# Coordination Sequence:
#
# PCOD9097922 Si02
#       8
#     2   2   2   2   2   2   2   2
#     4  12  24  41  65  95 129 173 211 257 323 386
#     4  10  20  36  62  93 129 158 209 263 317 368
#     4  11  23  43  64  95 130 165 213 269 324 368
#     4  11  23  38  67  97 129 163 212 272 317 367
#     4  11  21  36  65  96 127 163 213 260 317 375
#     4  12  27  43  66  90 130 173 220 255 314 401
#     4  11  22  39  62  96 128 169 216 257 316 385
#     4  10  22  38  67  97 128 163 207 275 323 363
#
# _framework density 19.522729999999999
#
# number of rings (size 3 to 8) (size 9 to 14) (size 15 to 20)
#    0.000    1.000    3.750    6.000    1.750    1.000 
#    0.000    1.250    2.750    0.000    0.000    0.000 
#    0.000    0.000    0.000    0.000    0.000    0.000 
#
# Total GULP energy -89139.736708 kJ/mol
# GULP energy per Si atom -5571.233544 kJ/mol
# Density = 1.947830 g / cm^3
# Si number density = 19.522730 Si / 1000 Ang^3
#
#
#
# Elastic Constant Matrix: (Units=GPa)
#
#
# Indices 1 2 3 4 5 6 
#
# 1 120.9007 46.7017 58.9235 -10.7471 -8.6125 -15.1196
# 2 46.7017 60.2604 39.7432 4.3056 -7.8991 -12.0890
# 3 58.9235 39.7432 141.9067 -7.0653 4.5473 -16.9225
# 4 -10.7471 4.3056 -7.0653 38.1289 2.6758 -6.6701
# 5 -8.6125 -7.8991 4.5473 2.6758 22.4701 -1.4561
# 6 -15.1196 -12.0890 -16.9225 -6.6701 -1.4561 19.5715
#
#
#
# Elastic Compliance Matrix: (Units=1/GPa)
#
#
# Indices 1 2 3 4 5 6 
#
# 1 0.014039 -0.007915 -0.002798 0.005088 0.002914 0.005488
# 2 -0.007915 0.028596 -0.004552 -0.005837 0.009043 0.006297
# 3 -0.002798 -0.004552 0.010315 0.002766 -0.004796 0.004532
# 4 0.005088 -0.005837 0.002766 0.031382 -0.003547 0.013148
# 5 0.002914 0.009043 -0.004796 -0.003547 0.050597 0.006246
# 6 0.005488 0.006297 0.004532 0.013148 0.006246 0.068088
#
#
# Mechanical properties :
#
#
# Convention : Reuss Voigt Hill
#
# Bulk Modulus (GPa) = 44.60225 68.20052 56.40138
# Shear Modulus (GPa) = 20.74513 27.88072 24.31293
#
# Velocity S-wave (km/s) = 3.26331 3.78314 3.53280
# Velocity P-wave (km/s) = 6.09056 7.35477 6.75231
#
# Compressibility (1/GPa) = 0.02242039
#
# Stress axis : x y z
#
# Youngs Moduli (GPa) = 71.23250 34.96935 96.94248
#
# Poissons Ratio (x) = 0.27678 0.27126
# Poissons Ratio (y) = 0.56381 0.44127
# Poissons Ratio (z) = 0.19932 0.15918
#
# Static dielectric constant tensor:
#      x y z
#    x 1.702870 0.000040 0.027140 
#    y 0.000040 1.699430 -0.020130 
#    z 0.027140 -0.020130 1.724020 
# 
# From -- ./inp_files/594141.got.cif
#   From: 2010.05.17/outbox.cif.g08.bks.cpg/sg2_298_cif.got.tgz:594141.got - 2010.06.03 11:33:40.
