data_PCOD9097598
_publ_section_title
;
Structure prediction by ZEFSAII (Michael W. Deem and Ramdas Pophale) SiO2 
 PCOD9097598
Probable space group: P -1
;
_chemical_formula_sum "Si O2"
_cell_formula_units_Z 14
_cell_length_a 8.249776
_cell_length_b 11.798863
_cell_length_c 11.491860
_cell_angle_alpha 85.682327
_cell_angle_beta 124.343041
_cell_angle_gamma 126.418947
_cell_volume 684.118487
_symmetry_space_group_name_H-M "P -1"
_symmetry_group_IT_number 2
_symmetry_cell_setting 'triclinic'
loop_
_space_group_symop_operation_xyz
x,y,z
-x,-y,-z
loop_
_atom_site_type_symbol
_atom_site_label
_atom_site_fract_x
_atom_site_fract_y
_atom_site_fract_z
Si Si1 0.286935 0.484990 0.840109
Si Si2 0.006369 0.184414 0.623513
Si Si3 0.080829 0.625424 0.881482
Si Si4 0.579770 0.303993 0.779840
Si Si5 0.297686 0.573906 0.591961
Si Si6 0.062587 0.277245 0.390751
Si Si7 0.633877 0.835811 0.536774
O O1 0.060692 0.310618 0.719804
O O2 0.170779 0.544042 0.860981
O O3 0.407780 0.579026 0.760810
O O4 0.500000 0.500000 0.000000
O O5 0.297633 0.241693 0.714366
O O6 0.913420 0.190486 0.457641
O O7 0.811073 0.015191 0.606995
O O8 0.785664 0.486069 0.820752
O O9 0.083678 0.722745 0.777074
O O10 0.277017 0.715161 0.062496
O O11 0.528201 0.220076 0.644780
O O12 0.271989 0.454769 0.505527
O O13 0.453891 0.733707 0.580039
O O14 0.000000 0.500000 0.500000
O O15 0.187897 0.207850 0.406536
#
# Coordination Sequence:
#
# PCOD9097598 Si02
#       7
#     2   2   2   2   2   2   2
#     4  11  22  40  64  86 120 160 203 245 298 360
#     4  10  23  39  62  88 125 164 190 248 309 361
#     4  11  21  35  63  97 114 151 213 255 285 342
#     4  10  20  36  61  89 124 151 198 254 294 350
#     4  11  21  37  64  91 118 157 208 250 283 357
#     4  10  20  36  62  91 118 156 207 246 286 357
#     4  11  22  41  60  93 124 157 202 240 311 358
#
# _framework density 20.464292
#
# number of rings (size 3 to 8) (size 9 to 14) (size 15 to 20)
#    0.000    1.429    4.286    2.143    4.000    0.000 
#    0.000   11.429    0.000    0.000    0.000    0.000 
#    0.000    0.000    0.000    0.000    0.000    0.000 
#
# Total GULP energy -78251.969849 kJ/mol
# GULP energy per Si atom -5589.426418 kJ/mol
# Density = 2.041771 g / cm^3
# Si number density = 20.464292 Si / 1000 Ang^3
#
#
#
# Elastic Constant Matrix: (Units=GPa)
#
#
# Indices 1 2 3 4 5 6 
#
# 1 67.6932 41.9226 32.1003 -7.2180 -5.1402 3.2828
# 2 41.9226 161.3852 65.8328 -14.8734 -5.2547 16.7676
# 3 32.1003 65.8328 144.1962 -41.7146 -11.9848 -1.7542
# 4 -7.2180 -14.8734 -41.7146 31.6510 0.5741 -3.7390
# 5 -5.1402 -5.2547 -11.9848 0.5741 17.5718 -4.4950
# 6 3.2828 16.7676 -1.7542 -3.7390 -4.4950 11.6953
#
#
#
# Elastic Compliance Matrix: (Units=1/GPa)
#
#
# Indices 1 2 3 4 5 6 
#
# 1 0.018369 -0.003985 -0.002096 -0.000345 0.003103 0.001326
# 2 -0.003985 0.011793 -0.007908 -0.008346 -0.008634 -0.022962
# 3 -0.002096 -0.007908 0.020316 0.025808 0.017719 0.030034
# 4 -0.000345 -0.008346 0.025808 0.066685 0.024794 0.046782
# 5 0.003103 -0.008634 0.017719 0.024794 0.080030 0.052851
# 6 0.001326 -0.022962 0.030034 0.046782 0.052851 0.157827
#
#
# Mechanical properties :
#
#
# Convention : Reuss Voigt Hill
#
# Bulk Modulus (GPa) = 44.44474 72.55401 58.49938
# Shear Modulus (GPa) = 12.80417 27.74487 20.27452
#
# Velocity S-wave (km/s) = 2.50408 3.68607 3.15100
# Velocity P-wave (km/s) = 5.48871 7.32442 6.47198
#
# Compressibility (1/GPa) = 0.02249985
#
# Stress axis : x y z
#
# Youngs Moduli (GPa) = 54.43987 84.79657 49.22198
#
# Poissons Ratio (x) = 0.33794 0.10315
# Poissons Ratio (y) = 0.21696 0.38925
# Poissons Ratio (z) = 0.11408 0.67058
#
# Static dielectric constant tensor:
#      x y z
#    x 1.773190 0.011030 0.015140 
#    y 0.011030 1.716320 -0.021290 
#    z 0.015140 -0.021290 1.742560 
# 
# From -- ./inp_files/205245.got.cif
#   From: 2010.05.17/outbox.cif.g08.bks.cpg/sg2_103_cif.got.tgz:205245.got - 2010.06.03 11:33:40.
