data_PCOD9097433
_publ_section_title
;
Structure prediction by ZEFSAII (Michael W. Deem and Ramdas Pophale) SiO2 
 PCOD9097433
Probable space group: P -1
;
_chemical_formula_sum "Si O2"
_cell_formula_units_Z 16
_cell_length_a 19.031311
_cell_length_b 5.298520
_cell_length_c 25.134498
_cell_angle_alpha 61.143539
_cell_angle_beta 161.208621
_cell_angle_gamma 109.522514
_cell_volume 643.864055
_symmetry_space_group_name_H-M "P -1"
_symmetry_group_IT_number 2
_symmetry_cell_setting 'triclinic'
loop_
_space_group_symop_operation_xyz
x,y,z
-x,-y,-z
loop_
_atom_site_type_symbol
_atom_site_label
_atom_site_fract_x
_atom_site_fract_y
_atom_site_fract_z
Si Si1 0.562456 0.934222 0.915560
Si Si2 0.689305 0.109267 0.734107
Si Si3 0.855584 0.176077 0.960932
Si Si4 0.759307 0.215082 0.229693
Si Si5 0.913622 0.759804 0.284634
Si Si6 0.195208 0.382864 0.974657
Si Si7 0.548301 0.428371 0.297150
Si Si8 0.288913 0.256732 0.360054
O O1 0.314360 0.923952 0.757072
O O2 0.731949 0.620556 0.034062
O O3 0.494095 0.249394 0.798899
O O4 0.723880 0.928036 0.083480
O O5 0.419889 0.181752 0.519032
O O6 0.722690 0.417268 0.705777
O O7 0.761178 0.080766 0.849229
O O8 0.890422 0.827246 0.871818
O O9 0.900071 0.888884 0.062499
O O10 0.641945 0.486233 0.799760
O O11 0.923118 0.405185 0.333176
O O12 0.832209 0.956083 0.261341
O O13 0.500000 0.500000 0.000000
O O14 0.182307 0.728736 0.471825
O O15 0.451314 0.256628 0.202044
O O16 0.987399 0.673544 0.829399
O O17 0.500000 0.000000 0.500000
#
# Coordination Sequence:
#
# PCOD9097433 Si02
#       8
#     2   2   2   2   2   2   2   2
#     4  10  24  44  67  92 136 175 216 284 339 395
#     4   9  19  37  62  82 121 168 215 269 328 391
#     4   9  20  40  58  85 126 167 212 277 329 387
#     4  10  23  46  73 102 134 178 232 281 334 408
#     4  11  26  44  74 101 135 181 232 273 344 412
#     4  10  23  40  61  91 133 168 217 277 337 394
#     4  11  25  41  63  98 137 170 223 276 339 406
#     4  10  20  36  60  92 121 165 223 265 330 399
#
# _framework density 24.849966999999999
#
# number of rings (size 3 to 8) (size 9 to 14) (size 15 to 20)
#    0.000    2.000    0.000    2.250   10.500    3.000 
#    2.250    3.750    0.000    0.000    0.000    0.000 
#    0.000    0.000    0.000    0.000    0.000    0.000 
#
# Total GULP energy -89308.693425 kJ/mol
# GULP energy per Si atom -5581.793339 kJ/mol
# Density = 2.479341 g / cm^3
# Si number density = 24.849967 Si / 1000 Ang^3
#
#
#
# Elastic Constant Matrix: (Units=GPa)
#
#
# Indices 1 2 3 4 5 6 
#
# 1 84.1581 23.9204 13.9544 -2.5817 20.1899 -16.0907
# 2 23.9204 93.2316 16.0369 3.4708 8.6439 -16.7331
# 3 13.9544 16.0369 108.4860 20.0766 7.2030 -13.4947
# 4 -2.5817 3.4708 20.0766 36.0306 -0.4478 0.6082
# 5 20.1899 8.6439 7.2030 -0.4478 31.5773 -15.3088
# 6 -16.0907 -16.7331 -13.4947 0.6082 -15.3088 40.1871
#
#
#
# Elastic Compliance Matrix: (Units=1/GPa)
#
#
# Indices 1 2 3 4 5 6 
#
# 1 0.015088 -0.002744 -0.001176 0.001878 -0.007888 0.001471
# 2 -0.002744 0.012269 -0.000822 -0.000981 0.000474 0.003930
# 3 -0.001176 -0.000822 0.011011 -0.006192 -0.000219 0.002895
# 4 0.001878 -0.000981 -0.006192 0.031470 -0.000179 -0.002280
# 5 -0.007888 0.000474 -0.000219 -0.000179 0.043124 0.013396
# 6 0.001471 0.003930 0.002895 -0.002280 0.013396 0.033218
#
#
# Mechanical properties :
#
#
# Convention : Reuss Voigt Hill
#
# Bulk Modulus (GPa) = 34.61937 43.74435 39.18186
# Shear Modulus (GPa) = 30.24949 37.02327 33.63638
#
# Velocity S-wave (km/s) = 3.49275 3.86407 3.68309
# Velocity P-wave (km/s) = 5.49794 6.12778 5.82138
#
# Compressibility (1/GPa) = 0.02888556
#
# Stress axis : x y z
#
# Youngs Moduli (GPa) = 66.27587 81.50557 90.81745
#
# Poissons Ratio (x) = 0.22361 0.10681
# Poissons Ratio (y) = 0.18183 0.07465
# Poissons Ratio (z) = 0.07795 0.06699
#
# Static dielectric constant tensor:
#      x y z
#    x 2.051520 0.032210 0.029400 
#    y 0.032210 2.079810 -0.028840 
#    z 0.029400 -0.028840 1.991880 
# 
# From -- ./inp_files/104514.got.cif
#   From: 2010.05.17/outbox.cif.g08.bks.cpg/sg2_53_cif.got.tgz:104514.got - 2010.06.03 11:33:40.
