data_PCOD9097801
_publ_section_title
;
Structure prediction by ZEFSAII (Michael W. Deem and Ramdas Pophale) SiO2 
 PCOD9097801
Probable space group: P -1
;
_chemical_formula_sum "Si O2"
_cell_formula_units_Z 14
_cell_length_a 8.362594
_cell_length_b 14.830213
_cell_length_c 24.923471
_cell_angle_alpha 20.330993
_cell_angle_beta 141.889787
_cell_angle_gamma 140.663401
_cell_volume 653.597664
_symmetry_space_group_name_H-M "P -1"
_symmetry_group_IT_number 2
_symmetry_cell_setting 'triclinic'
loop_
_space_group_symop_operation_xyz
x,y,z
-x,-y,-z
loop_
_atom_site_type_symbol
_atom_site_label
_atom_site_fract_x
_atom_site_fract_y
_atom_site_fract_z
Si Si1 0.720305 0.575399 0.866321
Si Si2 0.185075 0.941577 0.034240
Si Si3 0.974456 0.123756 0.612271
Si Si4 0.897156 0.766198 0.957882
Si Si5 0.368948 0.489152 0.722429
Si Si6 0.726632 0.777086 0.263327
Si Si7 0.622649 0.235985 0.123810
O O1 0.626629 0.543802 0.797546
O O2 0.535869 0.379713 0.966487
O O3 0.761146 0.886788 0.712818
O O4 0.000000 0.500000 0.000000
O O5 0.465320 0.874011 0.161859
O O6 0.054147 0.731189 0.073327
O O7 0.233273 0.208655 0.864178
O O8 0.000000 0.000000 0.000000
O O9 0.117468 0.295006 0.603359
O O10 0.815628 0.293667 0.438450
O O11 0.190960 0.976327 0.722787
O O12 0.634929 0.874284 0.848292
O O13 0.788468 0.485101 0.059745
O O14 0.085727 0.971083 0.855288
O O15 0.373581 0.440195 0.687061
#
# Coordination Sequence:
#
# PCOD9097801 Si02
#       7
#     2   2   2   2   2   2   2
#     4  10  20  36  62  88 121 165 209 245 297 363
#     4  11  23  40  65  87 120 156 214 248 306 365
#     4  11  22  38  59  91 128 161 201 249 317 357
#     4  10  20  37  62  94 113 163 213 254 287 358
#     4  11  23  38  61  93 124 160 199 261 308 359
#     4  11  23  40  64  89 122 162 208 249 303 370
#     4  10  21  37  65  87 125 159 214 246 299 362
#
# _framework density 21.419903999999999
#
# number of rings (size 3 to 8) (size 9 to 14) (size 15 to 20)
#    0.000    1.429    1.429    6.000    6.000    0.000 
#    0.000    7.857    0.000    4.286    0.000    0.000 
#    0.000    0.000    0.000    0.000    0.000    0.000 
#
# Total GULP energy -78070.748418 kJ/mol
# GULP energy per Si atom -5576.482030 kJ/mol
# Density = 2.137115 g / cm^3
# Si number density = 21.419904 Si / 1000 Ang^3
#
#
#
# Elastic Constant Matrix: (Units=GPa)
#
#
# Indices 1 2 3 4 5 6 
#
# 1 80.3309 27.4979 -11.3709 20.0073 22.4190 10.1687
# 2 27.4979 139.9614 18.7597 24.9549 6.7837 -17.0863
# 3 -11.3709 18.7597 57.8953 27.7413 28.1246 0.6901
# 4 20.0073 24.9549 27.7413 27.1796 -0.9154 1.6415
# 5 22.4190 6.7837 28.1246 -0.9154 19.4845 1.6211
# 6 10.1687 -17.0863 0.6901 1.6415 1.6211 38.8571
#
#
#
# Elastic Compliance Matrix: (Units=1/GPa)
#
#
# Indices 1 2 3 4 5 6 
#
# 1 0.003668 -0.002653 -0.013311 0.014081 0.016842 -0.003188
# 2 -0.002653 0.009477 -0.000979 -0.006043 0.000457 0.005115
# 3 -0.013311 -0.000979 -0.007540 0.019240 0.027342 0.001233
# 4 0.014081 -0.006043 0.019240 0.011290 -0.040885 -0.005455
# 5 0.016842 0.000457 0.027342 -0.040885 -0.009388 -0.002574
# 6 -0.003188 0.005115 0.001233 -0.005455 -0.002574 0.029134
#
#
# Mechanical properties :
#
#
# Convention : Reuss Voigt Hill
#
# Bulk Modulus (GPa) = -35.36049 38.66234 1.65093
# Shear Modulus (GPa) = 81.83245 33.32430 57.57838
#
# Velocity S-wave (km/s) = 6.18764 3.94860 5.19029
# Velocity P-wave (km/s) = 5.87410 6.23518 6.05733
#
# Compressibility (1/GPa) = -0.02828015
#
# Stress axis : x y z
#
# Youngs Moduli (GPa) = 272.59191 105.51971 -132.62146
#
# Poissons Ratio (x) = 0.27991 -1.76529
# Poissons Ratio (y) = 0.72309 -0.12987
# Poissons Ratio (z) = 3.62839 0.10333
#
# Static dielectric constant tensor:
#      x y z
#    x 1.914530 -0.028810 -0.024900 
#    y -0.028810 1.898130 0.001110 
#    z -0.024900 0.001110 1.758780 
# 
# From -- ./inp_files/608056.got.cif
#   From: 2010.05.17/outbox.cif.g08.bks.cpg/sg2_305_cif.got.tgz:608056.got - 2010.06.03 11:33:40.
