data_PCOD9097640
_publ_section_title
;
Structure prediction by ZEFSAII (Michael W. Deem and Ramdas Pophale) SiO2 
 PCOD9097640
Probable space group: P -1
;
_chemical_formula_sum "Si O2"
_cell_formula_units_Z 13
_cell_length_a 13.794411
_cell_length_b 10.261584
_cell_length_c 8.286396
_cell_angle_alpha 113.724441
_cell_angle_beta 42.689407
_cell_angle_gamma 139.373461
_cell_volume 484.636217
_symmetry_space_group_name_H-M "P -1"
_symmetry_group_IT_number 2
_symmetry_cell_setting 'triclinic'
loop_
_space_group_symop_operation_xyz
x,y,z
-x,-y,-z
loop_
_atom_site_type_symbol
_atom_site_label
_atom_site_fract_x
_atom_site_fract_y
_atom_site_fract_z
Si Si1 0.511032 0.575682 0.342523
Si Si2 0.306286 0.659734 0.266063
Si Si3 0.088604 0.781706 0.093268
Si Si4 0.689982 0.299664 0.346413
Si Si5 0.500000 0.500000 0.000000
Si Si6 0.046479 0.064148 0.160000
Si Si7 0.862244 0.198916 0.579364
O O1 0.500000 0.500000 0.500000
O O2 0.509967 0.744255 0.457329
O O3 0.345484 0.414071 0.320326
O O4 0.707668 0.691401 0.025432
O O5 0.265616 0.671426 0.505570
O O6 0.479983 0.663224 0.058829
O O7 0.323225 0.826469 0.246041
O O8 0.086831 0.428562 0.347081
O O9 0.111582 0.785428 0.255593
O O10 0.883050 0.540831 0.156090
O O11 0.293232 0.847634 0.807472
O O12 0.061081 0.923015 0.151123
O O13 0.873674 0.045376 0.428787
O O14 0.000000 0.000000 0.000000
#
# Coordination Sequence:
#
# PCOD9097640 Si02
#       7
#     2   2   2   2   1   2   2
#     4  11  24  40  66  95 129 173 218 271 328 391
#     4   9  18  34  62  89 121 162 216 260 317 378
#     4  10  21  38  64  93 127 169 217 266 324 396
#     4   9  20  39  63  92 123 170 215 266 321 391
#     4  10  20  40  64  94 130 164 216 274 316 388
#     4  12  24  40  61  93 134 170 217 272 326 390
#     4  10  20  36  61  91 125 169 209 266 318 387
#
# _framework density 26.824245000000001
#
# number of rings (size 3 to 8) (size 9 to 14) (size 15 to 20)
#    0.000    1.846    1.538    2.308    2.154    3.077 
#    2.769    0.000    0.000    2.769    0.000    0.000 
#    0.000    0.000    0.000    0.000    0.000    0.000 
#
# Total GULP energy -72401.252572 kJ/mol
# GULP energy per Si atom -5569.327121 kJ/mol
# Density = 2.676319 g / cm^3
# Si number density = 26.824245 Si / 1000 Ang^3
#
#
#
# Elastic Constant Matrix: (Units=GPa)
#
#
# Indices 1 2 3 4 5 6 
#
# 1 168.2520 56.2096 64.7629 25.4746 -10.5688 -57.9711
# 2 56.2096 99.9297 56.5540 22.0927 -17.0684 -37.3381
# 3 64.7629 56.5540 152.0790 54.1139 -8.0172 -37.5767
# 4 25.4746 22.0927 54.1139 59.8584 -11.8057 -20.8663
# 5 -10.5688 -17.0684 -8.0172 -11.8057 36.9199 4.0678
# 6 -57.9711 -37.3381 -37.5767 -20.8663 4.0678 61.6861
#
#
#
# Elastic Compliance Matrix: (Units=1/GPa)
#
#
# Indices 1 2 3 4 5 6 
#
# 1 0.009640 -0.001655 -0.002055 0.001056 0.001105 0.007090
# 2 -0.001655 0.016110 -0.004133 0.001719 0.005980 0.005865
# 3 -0.002055 -0.004133 0.012070 -0.009044 -0.002775 0.000043
# 4 0.001056 0.001719 -0.009044 0.027029 0.007204 0.005191
# 5 0.001105 0.005980 -0.002775 0.007204 0.031501 0.003327
# 6 0.007090 0.005865 0.000043 0.005191 0.003327 0.027987
#
#
# Mechanical properties :
#
#
# Convention : Reuss Voigt Hill
#
# Bulk Modulus (GPa) = 45.18101 86.14597 65.66349
# Shear Modulus (GPa) = 33.92093 47.87514 40.89803
#
# Velocity S-wave (km/s) = 3.55993 4.22924 3.90893
# Velocity P-wave (km/s) = 5.81183 7.48554 6.70114
#
# Compressibility (1/GPa) = 0.02213319
#
# Stress axis : x y z
#
# Youngs Moduli (GPa) = 103.73686 62.07342 82.84783
#
# Poissons Ratio (x) = 0.10272 0.17028
# Poissons Ratio (y) = 0.17166 0.34244
# Poissons Ratio (z) = 0.21322 0.25657
#
# Static dielectric constant tensor:
#      x y z
#    x 1.778750 -0.207450 -0.010130 
#    y -0.207450 2.052860 -0.052200 
#    z -0.010130 -0.052200 2.227500 
# 
# From -- ./inp_files/153158.got.cif
#   From: 2010.05.17/outbox.cif.g08.bks.cpg/sg2_77_cif.got.tgz:153158.got - 2010.06.03 11:33:40.
