data_PCOD9097314
_publ_section_title
;
Structure prediction by ZEFSAII (Michael W. Deem and Ramdas Pophale) SiO2 
 PCOD9097314
Probable space group: P -1
;
_chemical_formula_sum "Si O2"
_cell_formula_units_Z 14
_cell_length_a 9.685310
_cell_length_b 24.658854
_cell_length_c 22.316209
_cell_angle_alpha 15.922168
_cell_angle_beta 152.907441
_cell_angle_gamma 146.127147
_cell_volume 651.493059
_symmetry_space_group_name_H-M "P -1"
_symmetry_group_IT_number 2
_symmetry_cell_setting 'triclinic'
loop_
_space_group_symop_operation_xyz
x,y,z
-x,-y,-z
loop_
_atom_site_type_symbol
_atom_site_label
_atom_site_fract_x
_atom_site_fract_y
_atom_site_fract_z
Si Si1 0.654979 0.545477 0.844035
Si Si2 0.247800 0.022568 0.431722
Si Si3 0.849257 0.358712 0.547766
Si Si4 0.193809 0.486236 0.932470
Si Si5 0.689589 0.026329 0.692502
Si Si6 0.856943 0.869177 0.348458
Si Si7 0.781194 0.031689 0.958309
O O1 0.402269 0.512549 0.731916
O O2 0.507126 0.778210 0.557752
O O3 0.718726 0.446776 0.039205
O O4 0.000000 0.500000 0.000000
O O5 0.439495 0.929363 0.663434
O O6 0.500000 0.000000 0.500000
O O7 0.145432 0.259400 0.155706
O O8 0.970661 0.949273 0.370302
O O9 0.000000 0.500000 0.500000
O O10 0.689231 0.204069 0.689288
O O11 0.105791 0.193174 0.786425
O O12 0.919508 0.630254 0.638310
O O13 0.500000 0.500000 0.000000
O O14 0.918875 0.088723 0.663348
O O15 0.924258 0.912922 0.952587
O O16 0.495783 0.961521 0.109227
#
# Coordination Sequence:
#
# PCOD9097314 Si02
#       7
#     2   2   2   2   2   2   2
#     4  10  20  36  60  87 115 152 199 241 292 349
#     4   9  18  33  55  86 115 148 192 237 291 342
#     4  10  23  43  59  83 117 161 198 243 286 355
#     4  11  19  35  59  86 118 154 190 244 298 337
#     4   9  19  36  56  84 121 152 191 239 295 346
#     4  11  20  35  59  90 117 151 191 246 291 351
#     4  10  22  39  60  81 118 158 196 235 299 345
#
# _framework density 21.489101999999999
#
# number of rings (size 3 to 8) (size 9 to 14) (size 15 to 20)
#    0.000    2.000    4.286    1.286    0.000    4.571 
#    0.000    0.000    0.000   18.857    0.000    0.000 
#    0.000    0.000    0.000    0.000    0.000    0.000 
#
# Total GULP energy -77961.488570 kJ/mol
# GULP energy per Si atom -5568.677755 kJ/mol
# Density = 2.144019 g / cm^3
# Si number density = 21.489102 Si / 1000 Ang^3
#
#
#
# Elastic Constant Matrix: (Units=GPa)
#
#
# Indices 1 2 3 4 5 6 
#
# 1 112.1036 18.0728 32.6548 9.1513 16.1629 -9.2510
# 2 18.0728 88.7236 20.2889 2.5454 11.6498 -25.8026
# 3 32.6548 20.2889 65.5112 2.4554 10.4568 -0.0685
# 4 9.1513 2.5454 2.4554 25.3516 0.4022 -2.3376
# 5 16.1629 11.6498 10.4568 0.4022 39.4398 10.8478
# 6 -9.2510 -25.8026 -0.0685 -2.3376 10.8478 28.1955
#
#
#
# Elastic Compliance Matrix: (Units=1/GPa)
#
#
# Indices 1 2 3 4 5 6 
#
# 1 0.011996 0.002004 -0.005485 -0.003176 -0.006187 0.007874
# 2 0.002004 0.020817 -0.005473 0.000162 -0.012236 0.024416
# 3 -0.005485 -0.005473 0.019593 -0.000022 0.000593 -0.006991
# 4 -0.003176 0.000162 -0.000022 0.040798 0.000178 0.002420
# 5 -0.006187 -0.012236 0.000593 0.000178 0.039119 -0.028262
# 6 0.007874 0.024416 -0.006991 0.002420 -0.028262 0.071450
#
#
# Mechanical properties :
#
#
# Convention : Reuss Voigt Hill
#
# Bulk Modulus (GPa) = 28.98856 45.37462 37.18159
# Shear Modulus (GPa) = 21.44248 31.61884 26.53066
#
# Velocity S-wave (km/s) = 3.16227 3.84003 3.51751
# Velocity P-wave (km/s) = 5.18194 6.38922 5.81698
#
# Compressibility (1/GPa) = 0.03449637
#
# Stress axis : x y z
#
# Youngs Moduli (GPa) = 83.36005 48.03783 51.03909
#
# Poissons Ratio (x) = -0.09627 0.27997
# Poissons Ratio (y) = -0.16707 0.27936
# Poissons Ratio (z) = 0.45727 0.26293
#
# Static dielectric constant tensor:
#      x y z
#    x 1.781710 -0.034020 -0.032280 
#    y -0.034020 1.785350 0.001990 
#    z -0.032280 0.001990 1.829910 
# 
# From -- ./inp_files/591955.got.cif
#   From: 2010.05.17/outbox.cif.g08.bks.cpg/sg2_296_cif.got.tgz:591955.got - 2010.06.03 11:33:40.
