data_PCOD9097488
_publ_section_title
;
Structure prediction by ZEFSAII (Michael W. Deem and Ramdas Pophale) SiO2 
 PCOD9097488
Probable space group: P -1
;
_chemical_formula_sum "Si O2"
_cell_formula_units_Z 14
_cell_length_a 9.800490
_cell_length_b 14.747707
_cell_length_c 11.528195
_cell_angle_alpha 148.867190
_cell_angle_beta 87.994281
_cell_angle_gamma 69.368821
_cell_volume 579.179167
_symmetry_space_group_name_H-M "P -1"
_symmetry_group_IT_number 2
_symmetry_cell_setting 'triclinic'
loop_
_space_group_symop_operation_xyz
x,y,z
-x,-y,-z
loop_
_atom_site_type_symbol
_atom_site_label
_atom_site_fract_x
_atom_site_fract_y
_atom_site_fract_z
Si Si1 0.902162 0.489141 0.161828
Si Si2 0.304453 0.739668 0.843056
Si Si3 0.082971 0.072372 0.869931
Si Si4 0.720389 0.778321 0.038245
Si Si5 0.526463 0.515488 0.831503
Si Si6 0.411961 0.299724 0.762836
Si Si7 0.405106 0.015437 0.135054
O O1 0.805296 0.570266 0.127427
O O2 0.716938 0.717171 0.501735
O O3 0.075868 0.463237 0.163679
O O4 0.995956 0.214596 0.901170
O O5 0.500000 0.500000 0.500000
O O6 0.374830 0.668613 0.896761
O O7 0.266689 0.978452 0.075570
O O8 0.106145 0.806612 0.914284
O O9 0.251684 0.762594 0.518961
O O10 0.199408 0.144530 0.969490
O O11 0.585641 0.787584 0.969132
O O12 0.581247 0.006207 0.388411
O O13 0.441867 0.444679 0.841543
O O14 0.552563 0.666331 0.071676
O O15 0.500000 0.000000 0.000000
#
# Coordination Sequence:
#
# PCOD9097488 Si02
#       7
#     2   2   2   2   2   2   2
#     4   9  18  37  60  87 119 154 204 237 299 358
#     4  12  26  41  60  89 128 157 200 262 297 353
#     4   9  20  38  64  88 123 154 205 248 295 356
#     4   8  19  38  63  90 119 159 199 246 295 364
#     4  10  20  36  60  97 124 153 203 247 312 341
#     4   9  17  34  66  93 122 157 194 255 294 369
#     4  11  24  40  62  84 120 167 206 244 304 361
#
# _framework density 24.172139999999999
#
# number of rings (size 3 to 8) (size 9 to 14) (size 15 to 20)
#    0.857    1.429    1.429    0.857    4.000    4.000 
#    0.000    2.857    0.000    5.143    0.000    0.000 
#    0.000    0.000    0.000    0.000    0.000    0.000 
#
# Total GULP energy -78147.880274 kJ/mol
# GULP energy per Si atom -5581.991448 kJ/mol
# Density = 2.411712 g / cm^3
# Si number density = 24.172140 Si / 1000 Ang^3
#
#
#
# Elastic Constant Matrix: (Units=GPa)
#
#
# Indices 1 2 3 4 5 6 
#
# 1 109.7188 -5.3427 11.4190 -0.9923 -11.7172 2.3414
# 2 -5.3427 82.8877 0.7786 -7.0461 -8.4720 0.1968
# 3 11.4190 0.7786 30.3328 7.3935 -2.1931 0.9352
# 4 -0.9923 -7.0461 7.3935 24.1594 -2.6868 -2.6333
# 5 -11.7172 -8.4720 -2.1931 -2.6868 36.8272 6.4690
# 6 2.3414 0.1968 0.9352 -2.6333 6.4690 39.9579
#
#
#
# Elastic Compliance Matrix: (Units=1/GPa)
#
#
# Indices 1 2 3 4 5 6 
#
# 1 0.010021 0.001248 -0.004084 0.002321 0.003564 -0.000922
# 2 0.001248 0.012938 -0.001670 0.004704 0.003685 -0.000384
# 3 -0.004084 -0.001670 0.037589 -0.012325 -0.000093 -0.001429
# 4 0.002321 0.004704 -0.012325 0.047367 0.004088 0.002589
# 5 0.003564 0.003685 -0.000093 0.004088 0.030281 -0.004858
# 6 -0.000922 -0.000384 -0.001429 0.002589 -0.004858 0.026073
#
#
# Mechanical properties :
#
#
# Convention : Reuss Voigt Hill
#
# Bulk Modulus (GPa) = 19.40398 26.29432 22.84915
# Shear Modulus (GPa) = 26.25199 34.59453 30.42326
#
# Velocity S-wave (km/s) = 3.29909 3.78719 3.55154
# Velocity P-wave (km/s) = 4.74941 5.47953 5.12748
#
# Compressibility (1/GPa) = 0.05153581
#
# Stress axis : x y z
#
# Youngs Moduli (GPa) = 99.78745 77.29149 26.60323
#
# Poissons Ratio (x) = -0.09647 0.10866
# Poissons Ratio (y) = -0.12454 0.04443
# Poissons Ratio (z) = 0.40757 0.12909
#
# Static dielectric constant tensor:
#      x y z
#    x 2.001990 0.031140 -0.005900 
#    y 0.031140 1.979770 0.026810 
#    z -0.005900 0.026810 1.884810 
# 
# From -- ./inp_files/397962.got.cif
#   From: 2010.05.17/outbox.cif.g08.bks.cpg/sg2_199_cif.got.tgz:397962.got - 2010.06.03 11:33:40.
