data_PCOD9097415
_publ_section_title
;
Structure prediction by ZEFSAII (Michael W. Deem and Ramdas Pophale) SiO2 
 PCOD9097415
Probable space group: P -1
;
_chemical_formula_sum "Si O2"
_cell_formula_units_Z 16
_cell_length_a 5.106411
_cell_length_b 20.250980
_cell_length_c 9.337440
_cell_angle_alpha 120.876296
_cell_angle_beta 59.988706
_cell_angle_gamma 84.799438
_cell_volume 634.440871
_symmetry_space_group_name_H-M "P -1"
_symmetry_group_IT_number 2
_symmetry_cell_setting 'triclinic'
loop_
_space_group_symop_operation_xyz
x,y,z
-x,-y,-z
loop_
_atom_site_type_symbol
_atom_site_label
_atom_site_fract_x
_atom_site_fract_y
_atom_site_fract_z
Si Si1 0.653530 0.744543 0.100362
Si Si2 0.845069 0.841884 0.953982
Si Si3 0.533533 0.392520 0.025141
Si Si4 0.038014 0.947479 0.242564
Si Si5 0.980752 0.441282 0.804561
Si Si6 0.824043 0.914577 0.755997
Si Si7 0.160684 0.149737 0.608811
Si Si8 0.341428 0.438540 0.430015
O O1 0.706294 0.797262 0.272810
O O2 0.249150 0.790852 0.225884
O O3 0.868501 0.754904 0.921193
O O4 0.698903 0.649825 0.013850
O O5 0.967719 0.843999 0.762891
O O6 0.433278 0.903958 0.135101
O O7 0.011946 0.887159 0.057685
O O8 0.316878 0.493029 0.148747
O O9 0.565969 0.376810 0.169547
O O10 0.882132 0.370741 0.821693
O O11 0.813736 0.936329 0.416191
O O12 0.941442 0.043638 0.321054
O O13 0.280886 0.402877 0.559143
O O14 0.000000 0.500000 0.000000
O O15 0.705427 0.876102 0.615464
O O16 0.500000 0.000000 0.000000
O O17 0.500000 0.500000 0.500000
O O18 0.000000 0.500000 0.500000
#
# Coordination Sequence:
#
# PCOD9097415 Si02
#       8
#     2   2   2   2   2   2   2   2
#     4  10  23  41  57  79 119 166 191 231 303 365
#     4   9  19  35  54  80 114 142 188 236 282 351
#     4  10  22  39  62  88 125 166 200 253 310 363
#     4   9  18  34  56  82 105 147 188 236 290 336
#     4  10  20  37  65  95 122 152 212 262 295 355
#     4  10  20  36  61  87 114 149 196 255 300 334
#     4  10  22  38  58  83 119 152 202 240 288 374
#     4  10  20  36  60  91 122 149 193 252 300 345
#
# _framework density 25.219054
#
# number of rings (size 3 to 8) (size 9 to 14) (size 15 to 20)
#    0.000    2.250    1.250    0.750    1.750    4.000 
#    2.250    7.500    0.000    0.000    0.000    0.000 
#    0.000    0.000    0.000    0.000    0.000    0.000 
#
# Total GULP energy -89346.780531 kJ/mol
# GULP energy per Si atom -5584.173783 kJ/mol
# Density = 2.516165 g / cm^3
# Si number density = 25.219054 Si / 1000 Ang^3
#
#
#
# Elastic Constant Matrix: (Units=GPa)
#
#
# Indices 1 2 3 4 5 6 
#
# 1 100.6514 19.1959 24.0638 1.7713 23.0620 20.8082
# 2 19.1959 159.9685 60.0252 -36.1059 17.5540 30.2911
# 3 24.0638 60.0252 121.1782 -43.9558 28.2534 18.6986
# 4 1.7713 -36.1059 -43.9558 41.2724 -9.3331 5.5883
# 5 23.0620 17.5540 28.2534 -9.3331 35.9013 10.0300
# 6 20.8082 30.2911 18.6986 5.5883 10.0300 45.4030
#
#
#
# Elastic Compliance Matrix: (Units=1/GPa)
#
#
# Indices 1 2 3 4 5 6 
#
# 1 0.012631 -0.000501 -0.001665 -0.003914 -0.006798 -0.002786
# 2 -0.000501 0.009962 -0.000281 0.009512 0.000248 -0.007526
# 3 -0.001665 -0.000281 0.018076 0.018714 -0.006070 -0.007456
# 4 -0.003914 0.009512 0.018714 0.056081 0.003270 -0.019884
# 5 -0.006798 0.000248 -0.006070 0.003270 0.038706 -0.003503
# 6 -0.002786 -0.007526 -0.007456 -0.019884 -0.003503 0.034615
#
#
# Mechanical properties :
#
#
# Convention : Reuss Voigt Hill
#
# Bulk Modulus (GPa) = 27.95239 65.37423 46.66331
# Shear Modulus (GPa) = 26.75376 43.08288 34.91832
#
# Velocity S-wave (km/s) = 3.26061 4.13770 3.72506
# Velocity P-wave (km/s) = 5.02825 6.98615 6.08644
#
# Compressibility (1/GPa) = 0.03577512
#
# Stress axis : x y z
#
# Youngs Moduli (GPa) = 79.16890 100.38511 55.32093
#
# Poissons Ratio (x) = 0.05028 0.09211
# Poissons Ratio (y) = 0.03965 0.01555
# Poissons Ratio (z) = 0.13182 0.02822
#
# Static dielectric constant tensor:
#      x y z
#    x 2.107860 -0.029260 -0.096190 
#    y -0.029260 2.110820 -0.033940 
#    z -0.096190 -0.033940 2.053660 
# 
# From -- ./inp_files/52711.got.cif
#   From: 2010.05.17/outbox.cif.g08.bks.cpg/sg2_27_cif.got.tgz:52711.got - 2010.06.03 11:33:40.
