data_PCOD9097514
_publ_section_title
;
Structure prediction by ZEFSAII (Michael W. Deem and Ramdas Pophale) SiO2 
 PCOD9097514
Probable space group: P -1
;
_chemical_formula_sum "Si O2"
_cell_formula_units_Z 10
_cell_length_a 8.632604
_cell_length_b 11.962921
_cell_length_c 10.204961
_cell_angle_alpha 37.992967
_cell_angle_beta 61.943161
_cell_angle_gamma 41.311802
_cell_volume 408.637917
_symmetry_space_group_name_H-M "P -1"
_symmetry_group_IT_number 2
_symmetry_cell_setting 'triclinic'
loop_
_space_group_symop_operation_xyz
x,y,z
-x,-y,-z
loop_
_atom_site_type_symbol
_atom_site_label
_atom_site_fract_x
_atom_site_fract_y
_atom_site_fract_z
Si Si1 0.196444 0.516631 0.421977
Si Si2 0.547005 0.357682 0.893176
Si Si3 0.534518 0.960438 0.868801
Si Si4 0.018070 0.744963 0.830581
Si Si5 0.145378 0.758017 0.488125
O O1 0.244441 0.640789 0.181084
O O2 0.443623 0.214371 0.609209
O O3 0.122471 0.667921 0.446970
O O4 0.000000 0.500000 0.500000
O O5 0.413730 0.516985 0.662914
O O6 0.313755 0.522318 0.932748
O O7 0.611801 0.102198 0.077775
O O8 0.828156 0.720660 0.955923
O O9 0.500000 0.000000 0.000000
O O10 0.979602 0.818936 0.622781
O O11 0.917937 0.984755 0.735427
#
# Coordination Sequence:
#
# PCOD9097514 Si02
#       5
#     2   2   2   2   2
#     4  12  24  38  55  88 125 152 181 236 296 339
#     4  10  20  36  61  84 112 147 202 229 276 338
#     4  12  20  35  64  88 110 150 198 240 277 336
#     4   9  18  34  63  90 106 143 204 242 272 323
#     4   9  17  36  61  82 113 148 195 231 276 337
#
# _framework density 24.471540999999998
#
# number of rings (size 3 to 8) (size 9 to 14) (size 15 to 20)
#    1.200    0.400    4.000    2.400    0.000    0.800 
#    0.000    4.000    0.000    3.600    0.000    0.000 
#    0.000    0.000    0.000    0.000    0.000    0.000 
#
# Total GULP energy -55760.633992 kJ/mol
# GULP energy per Si atom -5576.063399 kJ/mol
# Density = 2.441584 g / cm^3
# Si number density = 24.471541 Si / 1000 Ang^3
#
#
#
# Elastic Constant Matrix: (Units=GPa)
#
#
# Indices 1 2 3 4 5 6 
#
# 1 102.6830 59.4505 33.8279 -1.4450 -39.9473 -10.9861
# 2 59.4505 123.1724 19.3969 -0.9982 -18.2069 -5.3392
# 3 33.8279 19.3969 77.2574 -12.3183 -34.2999 9.2579
# 4 -1.4450 -0.9982 -12.3183 35.7922 2.9110 -20.9275
# 5 -39.9473 -18.2069 -34.2999 2.9110 46.9108 2.4709
# 6 -10.9861 -5.3392 9.2579 -20.9275 2.4709 37.4058
#
#
#
# Elastic Compliance Matrix: (Units=1/GPa)
#
#
# Indices 1 2 3 4 5 6 
#
# 1 0.020049 -0.007286 -0.001684 0.002375 0.012563 0.005764
# 2 -0.007286 0.011393 -0.000656 -0.000208 -0.002232 -0.000320
# 3 -0.001684 -0.000656 0.021055 0.003146 0.013771 -0.004949
# 4 0.002375 -0.000208 0.003146 0.043114 0.000304 0.023991
# 5 0.012563 -0.002232 0.013771 0.000304 0.041336 -0.002598
# 6 0.005764 -0.000320 -0.004949 0.023991 -0.002598 0.043200
#
#
# Mechanical properties :
#
#
# Convention : Reuss Voigt Hill
#
# Bulk Modulus (GPa) = 30.07958 58.71817 44.39888
# Shear Modulus (GPa) = 23.75516 36.71758 30.23637
#
# Velocity S-wave (km/s) = 3.11903 3.87773 3.51888
# Velocity P-wave (km/s) = 5.02886 6.64045 5.89004
#
# Compressibility (1/GPa) = 0.03324514
#
# Stress axis : x y z
#
# Youngs Moduli (GPa) = 49.87674 87.77298 47.49578
#
# Poissons Ratio (x) = 0.63949 0.07998
# Poissons Ratio (y) = 0.36339 0.03117
# Poissons Ratio (z) = 0.08399 0.05760
#
# Static dielectric constant tensor:
#      x y z
#    x 2.119650 -0.133870 -0.029030 
#    y -0.133870 1.987960 -0.015280 
#    z -0.029030 -0.015280 1.958240 
# 
# From -- ./inp_files/146659.got.cif
#   From: 2010.05.17/outbox.cif.g08.bks.cpg/sg2_74_cif.got.tgz:146659.got - 2010.06.03 11:33:40.
