data_PCOD9097345
_publ_section_title
;
Structure prediction by ZEFSAII (Michael W. Deem and Ramdas Pophale) SiO2 
 PCOD9097345
Probable space group: P -1
;
_chemical_formula_sum "Si O2"
_cell_formula_units_Z 14
_cell_length_a 27.797329
_cell_length_b 15.179218
_cell_length_c 5.319023
_cell_angle_alpha 122.536427
_cell_angle_beta 118.386378
_cell_angle_gamma 18.756218
_cell_volume 603.616344
_symmetry_space_group_name_H-M "P -1"
_symmetry_group_IT_number 2
_symmetry_cell_setting 'triclinic'
loop_
_space_group_symop_operation_xyz
x,y,z
-x,-y,-z
loop_
_atom_site_type_symbol
_atom_site_label
_atom_site_fract_x
_atom_site_fract_y
_atom_site_fract_z
Si Si1 0.932466 0.279277 0.633999
Si Si2 0.843839 0.060114 0.709041
Si Si3 0.902320 0.740200 0.433226
Si Si4 0.832057 0.667688 0.895954
Si Si5 0.770342 0.354699 0.353922
Si Si6 0.464881 0.794309 0.279279
Si Si7 0.461832 0.454281 0.437333
O O1 0.864585 0.510262 0.912556
O O2 0.812783 0.400038 0.534148
O O3 0.990904 0.204771 0.386226
O O4 0.089062 0.956395 0.641975
O O5 0.717482 0.241282 0.481004
O O6 0.846320 0.951482 0.725676
O O7 0.785476 0.274200 0.996043
O O8 0.000000 0.500000 0.500000
O O9 0.012665 0.580954 0.240068
O O10 0.791621 0.849380 0.211689
O O11 0.702092 0.868820 0.684241
O O12 0.600222 0.632170 0.443008
O O13 0.457963 0.723275 0.379081
O O14 0.512749 0.661431 0.924852
O O15 0.500000 0.500000 0.500000
#
# Coordination Sequence:
#
# PCOD9097345 Si02
#       7
#     2   2   2   2   2   2   2
#     4  10  20  40  61  86 120 160 215 258 310 366
#     4  10  20  36  60  88 117 160 209 255 307 370
#     4  10  21  37  59  85 124 160 202 249 312 378
#     4  10  23  37  59  89 122 162 206 252 314 374
#     4  10  21  38  64  86 119 162 211 263 308 364
#     4  11  24  41  62  92 129 163 210 260 313 376
#     4  11  23  39  62  91 129 166 207 256 315 373
#
# _framework density 23.193542000000001
#
# number of rings (size 3 to 8) (size 9 to 14) (size 15 to 20)
#    0.000    1.714    1.429    2.571    4.000    0.571 
#    0.000    0.000    0.000    2.571    0.000    0.000 
#    0.000    0.000    0.000    0.000    0.000    0.000 
#
# Total GULP energy -77958.150168 kJ/mol
# GULP energy per Si atom -5568.439298 kJ/mol
# Density = 2.314075 g / cm^3
# Si number density = 23.193542 Si / 1000 Ang^3
#
#
#
# Elastic Constant Matrix: (Units=GPa)
#
#
# Indices 1 2 3 4 5 6 
#
# 1 135.8247 54.3873 30.4601 -14.1168 34.7292 -4.3316
# 2 54.3873 109.7273 17.4387 -26.3615 16.7189 -5.6385
# 3 30.4601 17.4387 41.5374 -6.9854 9.9038 -2.3369
# 4 -14.1168 -26.3615 -6.9854 34.6430 -4.0050 0.6315
# 5 34.7292 16.7189 9.9038 -4.0050 40.3757 -6.3388
# 6 -4.3316 -5.6385 -2.3369 0.6315 -6.3388 42.1427
#
#
#
# Elastic Compliance Matrix: (Units=1/GPa)
#
#
# Indices 1 2 3 4 5 6 
#
# 1 0.012088 -0.004045 -0.005433 -0.000103 -0.007514 -0.000729
# 2 -0.004045 0.013452 -0.001028 0.008262 -0.000850 0.001075
# 3 -0.005433 -0.001028 0.029399 0.002719 -0.001744 0.000631
# 4 -0.000103 0.008262 0.002719 0.035605 -0.000364 0.000657
# 5 -0.007514 -0.000850 -0.001744 -0.000364 0.032591 0.003925
# 6 -0.000729 0.001075 0.000631 0.000657 0.003925 0.024413
#
#
# Mechanical properties :
#
#
# Convention : Reuss Voigt Hill
#
# Bulk Modulus (GPa) = 29.47607 54.62905 42.05256
# Shear Modulus (GPa) = 27.79800 35.75252 31.77526
#
# Velocity S-wave (km/s) = 3.46573 3.93044 3.70537
# Velocity P-wave (km/s) = 5.36203 6.64849 6.03961
#
# Compressibility (1/GPa) = 0.03392582
#
# Stress axis : x y z
#
# Youngs Moduli (GPa) = 82.72630 74.33914 34.01510
#
# Poissons Ratio (x) = 0.30074 0.18479
# Poissons Ratio (y) = 0.33467 0.03498
# Poissons Ratio (z) = 0.44942 0.07644
#
# Static dielectric constant tensor:
#      x y z
#    x 1.879300 0.008250 -0.040040 
#    y 0.008250 2.033460 0.037550 
#    z -0.040040 0.037550 1.986810 
# 
# From -- ./inp_files/65553.got.cif
#   From: 2010.05.17/outbox.cif.g08.bks.cpg/sg2_33_cif.got.tgz:65553.got - 2010.06.03 11:33:40.
