data_PCOD9097042
_publ_section_title
;
Structure prediction by ZEFSAII (Michael W. Deem and Ramdas Pophale) SiO2 
 PCOD9097042
Probable space group: P -1
;
_chemical_formula_sum "Si O2"
_cell_formula_units_Z 16
_cell_length_a 20.011145
_cell_length_b 8.788116
_cell_length_c 11.512900
_cell_angle_alpha 95.269789
_cell_angle_beta 41.533977
_cell_angle_gamma 126.421001
_cell_volume 810.776256
_symmetry_space_group_name_H-M "P -1"
_symmetry_group_IT_number 2
_symmetry_cell_setting 'triclinic'
loop_
_space_group_symop_operation_xyz
x,y,z
-x,-y,-z
loop_
_atom_site_type_symbol
_atom_site_label
_atom_site_fract_x
_atom_site_fract_y
_atom_site_fract_z
Si Si1 0.236825 0.393358 0.950361
Si Si2 0.401608 0.278380 0.437135
Si Si3 0.458758 0.370321 0.921773
Si Si4 0.916612 0.022107 0.026109
Si Si5 0.816261 0.717987 0.739371
Si Si6 0.781599 0.237656 0.400469
Si Si7 0.125001 0.507022 0.918336
Si Si8 0.606384 0.251007 0.805028
O O1 0.196081 0.393674 0.133611
O O2 0.207169 0.488398 0.899547
O O3 0.424834 0.558835 0.719357
O O4 0.113611 0.102753 0.061992
O O5 0.422768 0.435861 0.324790
O O6 0.263761 0.156337 0.701135
O O7 0.331487 0.045931 0.445124
O O8 0.479253 0.215485 0.904967
O O9 0.500000 0.500000 0.000000
O O10 0.288938 0.252242 0.103068
O O11 0.033825 0.306762 0.916117
O O12 0.000000 0.000000 0.000000
O O13 0.727296 0.505774 0.742936
O O14 0.000000 0.000000 0.500000
O O15 0.718377 0.294957 0.569610
O O16 0.973605 0.412866 0.171687
O O17 0.755569 0.243452 0.296664
O O18 0.500000 0.000000 0.000000
#
# Coordination Sequence:
#
# PCOD9097042 Si02
#       8
#     2   2   2   2   2   2   2   2
#     4  10  20  36  59  84 123 147 201 245 304 349
#     4  10  20  37  57  89 117 154 193 252 297 352
#     4   9  20  37  60  84 116 157 201 236 296 361
#     4   9  19  32  57  84 113 152 199 237 290 354
#     4  10  23  40  61  92 121 159 199 254 302 350
#     4  10  21  39  60  85 121 153 208 242 295 363
#     4   9  21  37  58  88 116 162 194 247 304 353
#     4  11  23  40  65  88 120 163 207 245 296 371
#
# _framework density 19.734175
#
# number of rings (size 3 to 8) (size 9 to 14) (size 15 to 20)
#    0.000    2.250    0.000    2.625    5.250    6.500 
#    0.000    3.750    2.750    0.000    0.000    0.000 
#    0.000    0.000    0.000    0.000    0.000    0.000 
#
# Total GULP energy -89110.323203 kJ/mol
# GULP energy per Si atom -5569.395200 kJ/mol
# Density = 1.968926 g / cm^3
# Si number density = 19.734175 Si / 1000 Ang^3
#
#
#
# Elastic Constant Matrix: (Units=GPa)
#
#
# Indices 1 2 3 4 5 6 
#
# 1 126.5275 26.2121 33.3097 -2.4637 3.7297 -18.1418
# 2 26.2121 74.4390 23.8031 10.9186 -7.2438 -13.4935
# 3 33.3097 23.8031 64.6676 0.6816 -0.7260 -6.1371
# 4 -2.4637 10.9186 0.6816 32.8023 -3.3698 2.3229
# 5 3.7297 -7.2438 -0.7260 -3.3698 21.3511 -2.2818
# 6 -18.1418 -13.4935 -6.1371 2.3229 -2.2818 34.7959
#
#
#
# Elastic Compliance Matrix: (Units=1/GPa)
#
#
# Indices 1 2 3 4 5 6 
#
# 1 0.009969 -0.001887 -0.004138 0.001008 -0.001985 0.003539
# 2 -0.001887 0.018257 -0.005049 -0.005916 0.006059 0.005998
# 3 -0.004138 -0.005049 0.019366 0.000996 -0.000258 -0.000783
# 4 0.001008 -0.005916 0.000996 0.033042 0.002678 -0.003623
# 5 -0.001985 0.006059 -0.000258 0.002678 0.050120 0.004377
# 6 0.003539 0.005998 -0.000783 -0.003623 0.004377 0.033301
#
#
# Mechanical properties :
#
#
# Convention : Reuss Voigt Hill
#
# Bulk Modulus (GPa) = 39.29938 48.03156 43.66547
# Shear Modulus (GPa) = 25.68275 29.94380 27.81328
#
# Velocity S-wave (km/s) = 3.61145 3.89955 3.75827
# Velocity P-wave (km/s) = 6.11128 6.68337 6.40372
#
# Compressibility (1/GPa) = 0.02544570
#
# Stress axis : x y z
#
# Youngs Moduli (GPa) = 100.30977 54.77231 51.63811
#
# Poissons Ratio (x) = 0.10335 0.21365
# Poissons Ratio (y) = 0.18928 0.26070
# Poissons Ratio (z) = 0.41503 0.27653
#
# Static dielectric constant tensor:
#      x y z
#    x 1.694050 -0.016390 0.012650 
#    y -0.016390 1.769250 -0.019370 
#    z 0.012650 -0.019370 1.716040 
# 
# From -- ./inp_files/270075.got.cif
#   From: 2010.05.17/outbox.cif.g08.bks.cpg/sg2_136_cif.got.tgz:270075.got - 2010.06.03 11:33:40.
