data_PCOD9097578
_publ_section_title
;
Structure prediction by ZEFSAII (Michael W. Deem and Ramdas Pophale) SiO2 
 PCOD9097578
Probable space group: P -1
;
_chemical_formula_sum "Si O2"
_cell_formula_units_Z 12
_cell_length_a 13.995890
_cell_length_b 10.509850
_cell_length_c 4.969173
_cell_angle_alpha 89.482514
_cell_angle_beta 107.386678
_cell_angle_gamma 63.239797
_cell_volume 613.929424
_symmetry_space_group_name_H-M "P -1"
_symmetry_group_IT_number 2
_symmetry_cell_setting 'triclinic'
loop_
_space_group_symop_operation_xyz
x,y,z
-x,-y,-z
loop_
_atom_site_type_symbol
_atom_site_label
_atom_site_fract_x
_atom_site_fract_y
_atom_site_fract_z
Si Si1 0.537070 0.363106 0.229041
Si Si2 0.113853 0.988409 0.230061
Si Si3 0.884959 0.463364 0.607415
Si Si4 0.753179 0.181561 0.148785
Si Si5 0.964929 0.684478 0.760365
Si Si6 0.317173 0.549062 0.261474
O O1 0.626866 0.222625 0.148433
O O2 0.584779 0.605843 0.759545
O O3 0.500000 0.500000 0.000000
O O4 0.744138 0.331104 0.023809
O O5 0.203907 0.927323 0.063300
O O6 0.014556 0.639200 0.102134
O O7 0.088774 0.144768 0.309340
O O8 0.000000 0.000000 0.000000
O O9 0.839355 0.118540 0.473270
O O10 0.880474 0.618948 0.626419
O O11 0.771931 0.465149 0.620256
O O12 0.929890 0.399767 0.353271
O O13 0.612846 0.384312 0.521505
#
# Coordination Sequence:
#
# PCOD9097578 Si02
#       6
#     2   2   2   2   2   2
#     4   9  20  35  57  90 115 144 191 244 296 340
#     4  12  24  35  57  84 122 159 193 230 287 355
#     4  10  22  39  62  79 118 151 195 247 272 343
#     4  11  22  37  55  86 122 151 182 244 289 345
#     4  10  23  40  55  87 114 158 198 227 286 338
#     4  10  20  36  61  89 112 150 194 241 300 328
#
# _framework density 19.546222
#
# number of rings (size 3 to 8) (size 9 to 14) (size 15 to 20)
#    0.000    1.667    1.667    2.500    7.000    0.000 
#    0.000    0.000    0.000    2.000    0.000    0.000 
#    0.000    0.000    0.000    0.000    0.000    0.000 
#
# Total GULP energy -66979.226561 kJ/mol
# GULP energy per Si atom -5581.602213 kJ/mol
# Density = 1.950173 g / cm^3
# Si number density = 19.546222 Si / 1000 Ang^3
#
#
#
# Elastic Constant Matrix: (Units=GPa)
#
#
# Indices 1 2 3 4 5 6 
#
# 1 63.4853 53.0194 14.2800 -11.4540 -15.1441 -2.3648
# 2 53.0194 98.1675 22.7349 0.3471 -6.5436 -7.7361
# 3 14.2800 22.7349 96.2804 -10.6320 13.4800 2.5908
# 4 -11.4540 0.3471 -10.6320 27.4805 -9.8871 -1.2494
# 5 -15.1441 -6.5436 13.4800 -9.8871 39.3393 1.0233
# 6 -2.3648 -7.7361 2.5908 -1.2494 1.0233 16.7337
#
#
#
# Elastic Compliance Matrix: (Units=1/GPa)
#
#
# Indices 1 2 3 4 5 6 
#
# 1 0.044044 -0.022544 -0.001134 0.025257 0.020029 -0.003362
# 2 -0.022544 0.023133 -0.002728 -0.013060 -0.007371 0.007407
# 3 -0.001134 -0.002728 0.012167 0.002579 -0.004337 -0.002847
# 4 0.025257 -0.013060 0.002579 0.055497 0.020615 0.000016
# 5 0.020029 -0.007371 -0.004337 0.020615 0.038590 -0.000726
# 6 -0.003362 0.007407 -0.002847 0.000016 -0.000726 0.063195
#
#
# Mechanical properties :
#
#
# Convention : Reuss Voigt Hill
#
# Bulk Modulus (GPa) = 37.69041 48.66687 43.17864
# Shear Modulus (GPa) = 16.76255 27.90395 22.33325
#
# Velocity S-wave (km/s) = 2.93163 3.78244 3.38388
# Velocity P-wave (km/s) = 5.54832 6.63538 6.11605
#
# Compressibility (1/GPa) = 0.02653195
#
# Stress axis : x y z
#
# Youngs Moduli (GPa) = 22.70454 43.22820 82.18687
#
# Poissons Ratio (x) = 0.97455 0.09317
# Poissons Ratio (y) = 0.51186 0.22422
# Poissons Ratio (z) = 0.02574 0.11794
#
# Static dielectric constant tensor:
#      x y z
#    x 1.745050 -0.028940 -0.008330 
#    y -0.028940 1.707530 0.029930 
#    z -0.008330 0.029930 1.755470 
# 
# From -- ./inp_files/103130.got.cif
#   From: 2010.05.17/outbox.cif.g08.bks.cpg/sg2_52_cif.got.tgz:103130.got - 2010.06.03 11:33:40.
