data_PCOD9097516
_publ_section_title
;
Structure prediction by ZEFSAII (Michael W. Deem and Ramdas Pophale) SiO2 
 PCOD9097516
Probable space group: P -1
;
_chemical_formula_sum "Si O2"
_cell_formula_units_Z 14
_cell_length_a 11.396872
_cell_length_b 8.380176
_cell_length_c 9.616932
_cell_angle_alpha 45.488628
_cell_angle_beta 107.609491
_cell_angle_gamma 88.230203
_cell_volume 583.043994
_symmetry_space_group_name_H-M "P -1"
_symmetry_group_IT_number 2
_symmetry_cell_setting 'triclinic'
loop_
_space_group_symop_operation_xyz
x,y,z
-x,-y,-z
loop_
_atom_site_type_symbol
_atom_site_label
_atom_site_fract_x
_atom_site_fract_y
_atom_site_fract_z
Si Si1 0.991363 0.284961 0.219392
Si Si2 0.342590 0.568618 0.404723
Si Si3 0.780070 0.663563 0.279077
Si Si4 0.365287 0.344818 0.275605
Si Si5 0.971087 0.819827 0.397792
Si Si6 0.336094 0.904699 0.422686
Si Si7 0.700090 0.452679 0.141927
O O1 0.842249 0.348496 0.182929
O O2 0.067960 0.230760 0.427697
O O3 0.017165 0.045329 0.286258
O O4 0.000000 0.500000 0.000000
O O5 0.500000 0.500000 0.500000
O O6 0.307879 0.377518 0.603911
O O7 0.297838 0.536767 0.252922
O O8 0.286132 0.819045 0.315934
O O9 0.848880 0.848338 0.235305
O O10 0.700247 0.677458 0.099749
O O11 0.904994 0.412829 0.460364
O O12 0.505366 0.173575 0.491031
O O13 0.289145 0.174777 0.296781
O O14 0.393206 0.471005 0.070846
O O15 0.316783 0.738232 0.641006
#
# Coordination Sequence:
#
# PCOD9097516 Si02
#       7
#     2   2   2   2   2   2   2
#     4  10  22  36  57  88 113 147 202 243 291 354
#     4   9  19  35  58  88 116 149 195 238 286 355
#     4   9  19  38  60  82 118 159 193 239 303 347
#     4  10  20  36  61  84 116 154 194 240 285 348
#     4   9  20  40  59  79 117 160 189 243 299 349
#     4   9  20  39  57  83 118 158 190 231 300 345
#     4  10  21  36  56  87 114 148 191 244 288 343
#
# _framework density 24.01191
#
# number of rings (size 3 to 8) (size 9 to 14) (size 15 to 20)
#    0.000    2.571    0.000    0.429    4.000    3.429 
#    2.571    6.429    0.000    9.429    0.000    0.000 
#    0.000    0.000    0.000    0.000    0.000    0.000 
#
# Total GULP energy -78157.079156 kJ/mol
# GULP energy per Si atom -5582.648511 kJ/mol
# Density = 2.395726 g / cm^3
# Si number density = 24.011910 Si / 1000 Ang^3
#
#
#
# Elastic Constant Matrix: (Units=GPa)
#
#
# Indices 1 2 3 4 5 6 
#
# 1 57.3999 28.5485 4.9887 2.7894 -12.2153 -2.7503
# 2 28.5485 187.3441 70.7423 22.8218 -20.9593 8.7883
# 3 4.9887 70.7423 84.0797 13.4204 -20.4716 1.0171
# 4 2.7894 22.8218 13.4204 41.1059 2.0446 -4.6589
# 5 -12.2153 -20.9593 -20.4716 2.0446 31.3950 -0.7512
# 6 -2.7503 8.7883 1.0171 -4.6589 -0.7512 22.2063
#
#
#
# Elastic Compliance Matrix: (Units=1/GPa)
#
#
# Indices 1 2 3 4 5 6 
#
# 1 0.021046 -0.003975 0.004172 -0.000529 0.008390 0.004161
# 2 -0.003975 0.009138 -0.006867 -0.003072 0.000170 -0.004433
# 3 0.004172 -0.006867 0.020571 -0.003503 0.010727 0.001920
# 4 -0.000529 -0.003072 -0.003503 0.028320 -0.006217 0.007042
# 5 0.008390 0.000170 0.010727 -0.006217 0.042644 0.000619
# 6 0.004161 -0.004433 0.001920 0.007042 0.000619 0.048712
#
#
# Mechanical properties :
#
#
# Convention : Reuss Voigt Hill
#
# Bulk Modulus (GPa) = 26.72595 59.70920 43.21757
# Shear Modulus (GPa) = 25.47862 33.91108 29.69485
#
# Velocity S-wave (km/s) = 3.26096 3.76208 3.52045
# Velocity P-wave (km/s) = 5.03318 6.61751 5.87896
#
# Compressibility (1/GPa) = 0.03741682
#
# Stress axis : x y z
#
# Youngs Moduli (GPa) = 47.51387 109.43630 48.61176
#
# Poissons Ratio (x) = 0.43499 -0.20283
# Poissons Ratio (y) = 0.18886 0.33381
# Poissons Ratio (z) = -0.19825 0.75149
#
# Static dielectric constant tensor:
#      x y z
#    x 1.961720 0.025950 0.046950 
#    y 0.025950 1.993410 0.027620 
#    z 0.046950 0.027620 1.950330 
# 
# From -- ./inp_files/84931.got.cif
#   From: 2010.05.17/outbox.cif.g08.bks.cpg/sg2_43_cif.got.tgz:84931.got - 2010.06.03 11:33:40.
