data_PCOD9097885
_publ_section_title
;
Structure prediction by ZEFSAII (Michael W. Deem and Ramdas Pophale) SiO2 
 PCOD9097885
Probable space group: P -1
;
_chemical_formula_sum "Si O2"
_cell_formula_units_Z 13
_cell_length_a 18.674225
_cell_length_b 9.023178
_cell_length_c 7.331114
_cell_angle_alpha 87.982795
_cell_angle_beta 81.455839
_cell_angle_gamma 151.812088
_cell_volume 539.299754
_symmetry_space_group_name_H-M "P -1"
_symmetry_group_IT_number 2
_symmetry_cell_setting 'triclinic'
loop_
_space_group_symop_operation_xyz
x,y,z
-x,-y,-z
loop_
_atom_site_type_symbol
_atom_site_label
_atom_site_fract_x
_atom_site_fract_y
_atom_site_fract_z
Si Si1 0.714023 0.609385 0.601951
Si Si2 0.000000 0.500000 0.000000
Si Si3 0.687134 0.261514 0.834798
Si Si4 0.497138 0.781278 0.622333
Si Si5 0.764084 0.263727 0.184995
Si Si6 0.450334 0.374168 0.819467
Si Si7 0.993101 0.636466 0.610285
O O1 0.720067 0.488345 0.748814
O O2 0.654395 0.439943 0.433536
O O3 0.573550 0.471162 0.708787
O O4 0.878602 0.003602 0.511972
O O5 0.952738 0.577646 0.132640
O O6 0.973409 0.352220 0.198442
O O7 0.525158 0.912924 0.799799
O O8 0.817050 0.388511 0.690707
O O9 0.707364 0.265870 0.041933
O O10 0.468144 0.554614 0.687929
O O11 0.653611 0.081340 0.412763
O O12 0.729328 0.031861 0.115805
O O13 0.500000 0.500000 0.000000
O O14 0.000000 0.500000 0.500000
#
# Coordination Sequence:
#
# PCOD9097885 Si02
#       7
#     2   1   2   2   2   2   2
#     4  11  24  41  63  92 130 161 205 259 306 369
#     4  10  20  36  62  92 114 154 204 260 294 358
#     4  11  23  41  63  93 128 165 200 253 316 367
#     4  11  22  42  63  90 126 164 207 254 308 363
#     4  10  21  37  62  90 126 155 211 251 305 365
#     4  11  21  38  62  88 119 161 211 250 298 360
#     4  11  23  42  67  90 122 164 208 253 309 366
#
# _framework density 24.105331
#
# number of rings (size 3 to 8) (size 9 to 14) (size 15 to 20)
#    0.000    1.231    1.538    6.462    2.154    2.462 
#    2.769    0.000    0.000    5.538    0.000    0.000 
#    0.000    0.000    0.000    0.000    0.000    0.000 
#
# Total GULP energy -72493.484599 kJ/mol
# GULP energy per Si atom -5576.421892 kJ/mol
# Density = 2.405047 g / cm^3
# Si number density = 24.105331 Si / 1000 Ang^3
#
#
#
# Elastic Constant Matrix: (Units=GPa)
#
#
# Indices 1 2 3 4 5 6 
#
# 1 139.9417 13.9331 54.4391 -9.9092 36.9485 -8.3780
# 2 13.9331 48.4385 21.5912 2.3671 22.3253 -5.1133
# 3 54.4391 21.5912 125.8988 -1.7632 59.2022 -9.9922
# 4 -9.9092 2.3671 -1.7632 27.9703 1.0760 18.1265
# 5 36.9485 22.3253 59.2022 1.0760 60.9319 -8.8521
# 6 -8.3780 -5.1133 -9.9922 18.1265 -8.8521 30.1363
#
#
#
# Elastic Compliance Matrix: (Units=1/GPa)
#
#
# Indices 1 2 3 4 5 6 
#
# 1 0.009248 -0.000427 -0.002359 0.004695 -0.003555 -0.002152
# 2 -0.000427 0.025318 0.000041 -0.005106 -0.008266 0.004834
# 3 -0.002359 0.000041 0.015290 0.000545 -0.013428 0.000149
# 4 0.004695 -0.005106 0.000545 0.064638 -0.008571 -0.040777
# 5 -0.003555 -0.008266 -0.013428 -0.008571 0.036090 0.008913
# 6 -0.002152 0.004834 0.000149 -0.040777 0.008913 0.060598
#
#
# Mechanical properties :
#
#
# Convention : Reuss Voigt Hill
#
# Bulk Modulus (GPa) = 22.53882 54.91178 38.72530
# Shear Modulus (GPa) = 21.60195 38.76205 30.18200
#
# Velocity S-wave (km/s) = 2.99682 4.01437 3.54232
# Velocity P-wave (km/s) = 4.62007 6.65705 5.72980
#
# Compressibility (1/GPa) = 0.04436789
#
# Stress axis : x y z
#
# Youngs Moduli (GPa) = 108.12754 39.49687 65.40281
#
# Poissons Ratio (x) = 0.01685 0.15429
# Poissons Ratio (y) = 0.04614 -0.00271
# Poissons Ratio (z) = 0.25508 -0.00164
#
# Static dielectric constant tensor:
#      x y z
#    x 1.745940 -0.226170 -0.033210 
#    y -0.226170 1.767510 0.093670 
#    z -0.033210 0.093670 1.954690 
# 
# From -- ./inp_files/324650.got.cif
#   From: 2010.05.17/outbox.cif.g08.bks.cpg/sg2_163_cif.got.tgz:324650.got - 2010.06.03 11:33:40.
