data_PCOD9097733
_publ_section_title
;
Structure prediction by ZEFSAII (Michael W. Deem and Ramdas Pophale) SiO2 
 PCOD9097733
Probable space group: P -1
;
_chemical_formula_sum "Si O2"
_cell_formula_units_Z 16
_cell_length_a 10.762223
_cell_length_b 9.207742
_cell_length_c 17.232304
_cell_angle_alpha 28.686670
_cell_angle_beta 128.539902
_cell_angle_gamma 117.176377
_cell_volume 622.521358
_symmetry_space_group_name_H-M "P -1"
_symmetry_group_IT_number 2
_symmetry_cell_setting 'triclinic'
loop_
_space_group_symop_operation_xyz
x,y,z
-x,-y,-z
loop_
_atom_site_type_symbol
_atom_site_label
_atom_site_fract_x
_atom_site_fract_y
_atom_site_fract_z
Si Si1 0.342438 0.733770 0.870695
Si Si2 0.299950 0.115835 0.166867
Si Si3 0.678278 0.978137 0.418393
Si Si4 0.597519 0.789011 0.204881
Si Si5 0.305826 0.507637 0.234220
Si Si6 0.877287 0.832306 0.782480
Si Si7 0.873925 0.880247 0.061376
Si Si8 0.146806 0.643354 0.587984
O O1 0.240974 0.938076 0.667627
O O2 0.390318 0.973188 0.834772
O O3 0.500000 0.500000 0.000000
O O4 0.258310 0.487600 0.991933
O O5 0.184694 0.998440 0.239172
O O6 0.490001 0.984313 0.322938
O O7 0.265538 0.100021 0.069074
O O8 0.751239 0.645919 0.639425
O O9 0.705270 0.240908 0.365353
O O10 0.488948 0.544820 0.296289
O O11 0.772014 0.605542 0.328391
O O12 0.500000 0.000000 0.000000
O O13 0.278846 0.273786 0.266704
O O14 0.194528 0.855388 0.024932
O O15 0.936883 0.052864 0.638608
O O16 0.000000 0.500000 0.000000
O O17 0.919883 0.551493 0.279215
O O18 0.000000 0.000000 0.000000
#
# Coordination Sequence:
#
# PCOD9097733 Si02
#       8
#     2   2   2   2   2   2   2   2
#     4  10  20  36  62 100 139 174 212 269 348 420
#     4  11  22  41  70  98 138 173 228 282 353 414
#     4  10  21  40  68 104 134 176 217 293 361 413
#     4  12  21  35  69 106 138 174 219 293 357 407
#     4  11  23  41  67 102 138 170 231 286 357 414
#     4  11  25  47  68  96 136 191 238 283 338 420
#     4  12  26  46  67  96 142 191 229 281 334 419
#     4  11  24  45  71 102 140 180 235 290 356 409
#
# _framework density 25.701931999999999
#
# number of rings (size 3 to 8) (size 9 to 14) (size 15 to 20)
#    0.000    1.000    2.500    6.000    0.000    5.000 
#    2.250    4.375    0.000    0.000    0.000    0.000 
#    0.000    0.000    0.000    0.000    0.000    0.000 
#
# Total GULP energy -89382.349763 kJ/mol
# GULP energy per Si atom -5586.396860 kJ/mol
# Density = 2.564343 g / cm^3
# Si number density = 25.701932 Si / 1000 Ang^3
#
#
#
# Elastic Constant Matrix: (Units=GPa)
#
#
# Indices 1 2 3 4 5 6 
#
# 1 89.1442 9.1936 29.7764 -8.5805 -29.1722 -1.2454
# 2 9.1936 114.8950 11.0277 -14.7879 -6.4051 -12.0348
# 3 29.7764 11.0277 150.4620 -6.9178 -39.8644 -5.6848
# 4 -8.5805 -14.7879 -6.9178 23.7389 -4.0995 -6.5415
# 5 -29.1722 -6.4051 -39.8644 -4.0995 52.1648 -0.7336
# 6 -1.2454 -12.0348 -5.6848 -6.5415 -0.7336 37.0158
#
#
#
# Elastic Compliance Matrix: (Units=1/GPa)
#
#
# Indices 1 2 3 4 5 6 
#
# 1 0.014928 0.000563 -0.000187 0.007844 0.008922 0.002220
# 2 0.000563 0.010411 0.000422 0.008665 0.002667 0.005053
# 3 -0.000187 0.000422 0.008843 0.004676 0.007107 0.002456
# 4 0.007844 0.008665 0.004676 0.058051 0.013788 0.014331
# 5 0.008922 0.002667 0.007107 0.013788 0.031076 0.005311
# 6 0.002220 0.005053 0.002456 0.014331 0.005311 0.031748
#
#
# Mechanical properties :
#
#
# Convention : Reuss Voigt Hill
#
# Bulk Modulus (GPa) = 27.95089 50.49964 39.22527
# Shear Modulus (GPa) = 30.23181 42.88414 36.55797
#
# Velocity S-wave (km/s) = 3.43337 4.08918 3.77554
# Velocity P-wave (km/s) = 5.15907 6.47966 5.85671
#
# Compressibility (1/GPa) = 0.03577704
#
# Stress axis : x y z
#
# Youngs Moduli (GPa) = 66.98837 96.04949 113.08248
#
# Poissons Ratio (x) = -0.05407 0.02116
# Poissons Ratio (y) = -0.03771 -0.04767
# Poissons Ratio (z) = 0.01254 -0.04049
#
# Static dielectric constant tensor:
#      x y z
#    x 2.109130 0.039450 -0.072300 
#    y 0.039450 2.215300 0.016380 
#    z -0.072300 0.016380 2.162170 
# 
# From -- ./inp_files/566379.got.cif
#   From: 2010.05.17/outbox.cif.g08.bks.cpg/sg2_284_cif.got.tgz:566379.got - 2010.06.03 11:33:40.
