data_PCOD9097251
_publ_section_title
;
Structure prediction by ZEFSAII (Michael W. Deem and Ramdas Pophale) SiO2 
 PCOD9097251
Probable space group: P -1
;
_chemical_formula_sum "Si O2"
_cell_formula_units_Z 15
_cell_length_a 21.761709
_cell_length_b 15.432718
_cell_length_c 8.062714
_cell_angle_alpha 133.421845
_cell_angle_beta 140.338846
_cell_angle_gamma 20.241166
_cell_volume 590.397476
_symmetry_space_group_name_H-M "P -1"
_symmetry_group_IT_number 2
_symmetry_cell_setting 'triclinic'
loop_
_space_group_symop_operation_xyz
x,y,z
-x,-y,-z
loop_
_atom_site_type_symbol
_atom_site_label
_atom_site_fract_x
_atom_site_fract_y
_atom_site_fract_z
Si Si1 0.293086 0.195534 0.222930
Si Si2 0.737761 0.298979 0.041812
Si Si3 0.468537 0.925194 0.655120
Si Si4 0.500000 0.500000 0.500000
Si Si5 0.105648 0.456843 0.513939
Si Si6 0.817600 0.100286 0.467273
Si Si7 0.662645 0.159265 0.907764
Si Si8 0.284570 0.001797 0.682968
O O1 0.310163 0.278744 0.222787
O O2 0.123885 0.392846 0.274918
O O3 0.500000 0.000000 0.500000
O O4 0.296496 0.068200 0.962268
O O5 0.563700 0.556143 0.125917
O O6 0.959459 0.110185 0.293254
O O7 0.674869 0.376983 0.824763
O O8 0.737807 0.162156 0.921547
O O9 0.356982 0.954479 0.338147
O O10 0.334922 0.193726 0.716652
O O11 0.431404 0.900037 0.718479
O O12 0.358510 0.609468 0.524302
O O13 0.000000 0.500000 0.500000
O O14 0.947984 0.737671 0.528685
O O15 0.684138 0.169970 0.423388
O O16 0.813557 0.026682 0.197768
#
# Coordination Sequence:
#
# PCOD9097251 Si02
#       8
#     2   2   2   1   2   2   2   2
#     4  10  20  36  60  83 122 167 205 256 319 377
#     4  10  22  41  67  92 129 169 217 273 333 400
#     4  10  21  39  60  87 128 168 213 268 323 387
#     4  10  22  40  62  94 128 160 214 274 322 396
#     4   9  20  37  58  86 123 159 208 260 310 382
#     4  11  22  39  67  93 129 170 217 269 342 391
#     4  10  22  41  63  93 129 168 223 272 328 393
#     4  11  22  38  61  92 126 164 216 267 323 390
#
# _framework density 25.406614000000001
#
# number of rings (size 3 to 8) (size 9 to 14) (size 15 to 20)
#    0.000    1.867    0.000    4.000    1.867    0.000 
#    2.400    0.000    5.867    0.000    0.000    0.000 
#    0.000    0.000    0.000    0.000    0.000    0.000 
#
# Total GULP energy -83502.213783 kJ/mol
# GULP energy per Si atom -5566.814252 kJ/mol
# Density = 2.534879 g / cm^3
# Si number density = 25.406614 Si / 1000 Ang^3
#
#
#
# Elastic Constant Matrix: (Units=GPa)
#
#
# Indices 1 2 3 4 5 6 
#
# 1 150.6564 43.8217 38.3132 2.1544 -4.8206 -13.5606
# 2 43.8217 94.8193 54.8958 -2.9251 9.2576 -2.3674
# 3 38.3132 54.8958 166.6674 -13.6497 3.3879 -4.3469
# 4 2.1544 -2.9251 -13.6497 36.9295 -11.4333 -3.5902
# 5 -4.8206 9.2576 3.3879 -11.4333 30.3599 5.3044
# 6 -13.5606 -2.3674 -4.3469 -3.5902 5.3044 48.3037
#
#
#
# Elastic Compliance Matrix: (Units=1/GPa)
#
#
# Indices 1 2 3 4 5 6 
#
# 1 0.008058 -0.003465 -0.000723 -0.000211 0.002025 0.001789
# 2 -0.003465 0.015041 -0.004203 -0.001825 -0.005326 -0.000165
# 3 -0.000723 -0.004203 0.007782 0.003049 0.001383 0.000366
# 4 -0.000211 -0.001825 0.003049 0.031900 0.011990 0.001180
# 5 0.002025 -0.005326 0.001383 0.011990 0.039777 -0.003045
# 6 0.001789 -0.000165 0.000366 0.001180 -0.003045 0.021652
#
#
# Mechanical properties :
#
#
# Convention : Reuss Voigt Hill
#
# Bulk Modulus (GPa) = 70.92875 76.24495 73.58685
# Shear Modulus (GPa) = 34.31923 41.45942 37.88932
#
# Velocity S-wave (km/s) = 3.67931 4.04398 3.86595
# Velocity P-wave (km/s) = 6.78438 7.20278 6.99671
#
# Compressibility (1/GPa) = 0.01409866
#
# Stress axis : x y z
#
# Youngs Moduli (GPa) = 124.09657 66.48601 128.50769
#
# Poissons Ratio (x) = 0.23039 0.09289
# Poissons Ratio (y) = 0.43002 0.54011
# Poissons Ratio (z) = 0.08970 0.27944
#
# Static dielectric constant tensor:
#      x y z
#    x 2.114190 -0.033920 -0.049900 
#    y -0.033920 2.196790 0.005010 
#    z -0.049900 0.005010 2.027670 
# 
# From -- ./inp_files/354877.got.cif
#   From: 2010.05.17/outbox.cif.g08.bks.cpg/sg2_178_cif.got.tgz:354877.got - 2010.06.03 11:33:40.
