data_PCOD9097105
_publ_section_title
;
Structure prediction by ZEFSAII (Michael W. Deem and Ramdas Pophale) SiO2 
 PCOD9097105
Probable space group: P -1
;
_chemical_formula_sum "Si O2"
_cell_formula_units_Z 14
_cell_length_a 8.395583
_cell_length_b 7.275694
_cell_length_c 12.783513
_cell_angle_alpha 91.569501
_cell_angle_beta 132.157532
_cell_angle_gamma 70.296077
_cell_volume 522.361523
_symmetry_space_group_name_H-M "P -1"
_symmetry_group_IT_number 2
_symmetry_cell_setting 'triclinic'
loop_
_space_group_symop_operation_xyz
x,y,z
-x,-y,-z
loop_
_atom_site_type_symbol
_atom_site_label
_atom_site_fract_x
_atom_site_fract_y
_atom_site_fract_z
Si Si1 0.749993 0.258458 0.299233
Si Si2 0.249430 0.456862 0.163508
Si Si3 0.091403 0.585026 0.312301
Si Si4 0.778705 0.778776 0.492938
Si Si5 0.075833 0.007260 0.269397
Si Si6 0.692170 0.128990 0.835078
Si Si7 0.578801 0.649290 0.105023
O O1 0.499075 0.279874 0.231494
O O2 0.695865 0.490048 0.249459
O O3 0.002513 0.194771 0.469014
O O4 0.825096 0.129780 0.222200
O O5 0.223844 0.434761 0.273996
O O6 0.267479 0.668849 0.158644
O O7 0.000000 0.500000 0.000000
O O8 0.163635 0.449073 0.445668
O O9 0.156621 0.773910 0.334572
O O10 0.808794 0.669142 0.163206
O O11 0.541677 0.858826 0.325443
O O12 0.770409 0.902321 0.596945
O O13 0.103209 0.025922 0.156033
O O14 0.615164 0.146608 0.923628
O O15 0.500000 0.500000 0.000000
#
# Coordination Sequence:
#
# PCOD9097105 Si02
#       7
#     2   2   2   2   2   2   2
#     4   8  19  37  60  84 130 151 191 259 301 339
#     4  10  20  36  59  87 118 166 205 243 297 355
#     4  10  20  37  63  86 122 164 204 242 304 363
#     4   9  20  39  64  90 126 154 201 249 306 360
#     4   9  20  39  59  96 125 151 196 256 305 354
#     4  10  20  38  65  84 126 165 192 251 315 350
#     4  10  20  38  61  87 116 163 208 244 295 364
#
# _framework density 26.801359999999999
#
# number of rings (size 3 to 8) (size 9 to 14) (size 15 to 20)
#    0.857    1.714    0.000    2.143    0.000    7.429 
#    2.571    7.857    0.000    0.000    0.000    0.000 
#    0.000    0.000    0.000    0.000    0.000    0.000 
#
# Total GULP energy -78034.962828 kJ/mol
# GULP energy per Si atom -5573.925916 kJ/mol
# Density = 2.674036 g / cm^3
# Si number density = 26.801360 Si / 1000 Ang^3
#
#
#
# Elastic Constant Matrix: (Units=GPa)
#
#
# Indices 1 2 3 4 5 6 
#
# 1 153.9874 50.5447 52.2806 -2.6950 6.6523 -56.6406
# 2 50.5447 104.4972 32.2300 18.2512 0.4615 -10.3835
# 3 52.2806 32.2300 52.8937 -0.4158 24.8454 -15.6168
# 4 -2.6950 18.2512 -0.4158 36.3652 -16.0659 0.7759
# 5 6.6523 0.4615 24.8454 -16.0659 41.4073 0.6920
# 6 -56.6406 -10.3835 -15.6168 0.7759 0.6920 78.4762
#
#
#
# Elastic Compliance Matrix: (Units=1/GPa)
#
#
# Indices 1 2 3 4 5 6 
#
# 1 0.014954 -0.003044 -0.014884 0.006222 0.008855 0.007289
# 2 -0.003044 0.014223 -0.007257 -0.006430 0.002219 -0.001715
# 3 -0.014884 -0.007257 0.054087 -0.012157 -0.034690 -0.000513
# 4 0.006222 -0.006430 -0.012157 0.040844 0.022204 0.000621
# 5 0.008855 0.002219 -0.034690 0.022204 0.052148 -0.000898
# 6 0.007289 -0.001715 -0.000513 0.000621 -0.000898 0.017676
#
#
# Mechanical properties :
#
#
# Convention : Reuss Voigt Hill
#
# Bulk Modulus (GPa) = 30.40130 64.60988 47.50559
# Shear Modulus (GPa) = 19.58738 43.00459 31.29599
#
# Velocity S-wave (km/s) = 2.70633 4.01005 3.42087
# Velocity P-wave (km/s) = 4.59711 6.75277 5.77639
#
# Compressibility (1/GPa) = 0.03289333
#
# Stress axis : x y z
#
# Youngs Moduli (GPa) = 66.87233 70.30783 18.48884
#
# Poissons Ratio (x) = 0.21402 0.27519
# Poissons Ratio (y) = 0.20356 0.13418
# Poissons Ratio (z) = 0.99533 0.51023
#
# Static dielectric constant tensor:
#      x y z
#    x 2.217550 -0.113420 0.002440 
#    y -0.113420 2.133660 -0.074900 
#    z 0.002440 -0.074900 2.136470 
# 
# From -- ./inp_files/495522.got.cif
#   From: 2010.05.17/outbox.cif.g08.bks.cpg/sg2_248_cif.got.tgz:495522.got - 2010.06.03 11:33:40.
