data_PCOD9097782
_publ_section_title
;
Structure prediction by ZEFSAII (Michael W. Deem and Ramdas Pophale) SiO2 
 PCOD9097782
Probable space group: P -1
;
_chemical_formula_sum "Si O2"
_cell_formula_units_Z 16
_cell_length_a 14.201657
_cell_length_b 10.982890
_cell_length_c 13.435273
_cell_angle_alpha 38.882739
_cell_angle_beta 130.556544
_cell_angle_gamma 150.805090
_cell_volume 638.698728
_symmetry_space_group_name_H-M "P -1"
_symmetry_group_IT_number 2
_symmetry_cell_setting 'triclinic'
loop_
_space_group_symop_operation_xyz
x,y,z
-x,-y,-z
loop_
_atom_site_type_symbol
_atom_site_label
_atom_site_fract_x
_atom_site_fract_y
_atom_site_fract_z
Si Si1 0.558106 0.865771 0.238924
Si Si2 0.265392 0.523068 0.547227
Si Si3 0.085489 0.677168 0.551808
Si Si4 0.574309 0.187087 0.315106
Si Si5 0.573630 0.869042 0.018509
Si Si6 0.771666 0.755137 0.495697
Si Si7 0.898068 0.160605 0.898323
Si Si8 0.745557 0.677190 0.954592
O O1 0.624002 0.949984 0.116493
O O2 0.705515 0.897356 0.373954
O O3 0.347516 0.515493 0.334674
O O4 0.530686 0.053910 0.132183
O O5 0.362018 0.630882 0.654117
O O6 0.301298 0.409418 0.558525
O O7 0.030677 0.261029 0.560058
O O8 0.357876 0.843539 0.373997
O O9 0.306197 0.873232 0.569700
O O10 0.000000 0.500000 0.500000
O O11 0.017600 0.477309 0.729828
O O12 0.644134 0.421861 0.131710
O O13 0.410198 0.508116 0.121530
O O14 0.756924 0.046396 0.962997
O O15 0.000000 0.000000 0.500000
O O16 0.053439 0.183800 0.024106
O O17 0.787012 0.927353 0.877816
#
# Coordination Sequence:
#
# PCOD9097782 Si02
#       8
#     2   2   2   2   2   2   2   2
#     4  10  26  46  65  99 124 179 235 269 324 394
#     4  10  20  36  62  87 121 165 207 257 327 385
#     4   9  18  34  53  89 125 162 200 250 314 394
#     4   9  19  35  58  92 126 161 201 255 325 394
#     4  11  23  44  69  90 137 176 222 270 327 398
#     4  11  25  46  67  95 131 171 229 286 330 376
#     4  10  21  36  60  94 132 167 212 263 332 391
#     4  10  21  37  61  96 130 166 210 268 326 394
#
# _framework density 25.050933000000001
#
# number of rings (size 3 to 8) (size 9 to 14) (size 15 to 20)
#    0.000    2.000    0.000    2.625    1.750    6.000 
#   11.250    2.500    0.000    0.000    0.000    0.000 
#    0.000    0.000    0.000    0.000    0.000    0.000 
#
# Total GULP energy -89465.820647 kJ/mol
# GULP energy per Si atom -5591.613790 kJ/mol
# Density = 2.499392 g / cm^3
# Si number density = 25.050933 Si / 1000 Ang^3
#
#
#
# Elastic Constant Matrix: (Units=GPa)
#
#
# Indices 1 2 3 4 5 6 
#
# 1 178.7704 39.6383 31.4484 -2.6922 -9.2596 7.6919
# 2 39.6383 85.7954 17.1274 -13.3031 0.4830 11.6552
# 3 31.4484 17.1274 44.9912 -5.2684 12.1945 -4.2610
# 4 -2.6922 -13.3031 -5.2684 15.1282 -1.3074 2.3310
# 5 -9.2596 0.4830 12.1945 -1.3074 36.3340 4.0258
# 6 7.6919 11.6552 -4.2610 2.3310 4.0258 47.8089
#
#
#
# Elastic Compliance Matrix: (Units=1/GPa)
#
#
# Indices 1 2 3 4 5 6 
#
# 1 0.007355 -0.002475 -0.005637 -0.002297 0.003860 -0.001296
# 2 -0.002475 0.016240 -0.003704 0.013389 0.001395 -0.004661
# 3 -0.005637 -0.003704 0.032091 0.004982 -0.012587 0.005487
# 4 -0.002297 0.013389 0.004982 0.080299 0.001170 -0.006464
# 5 0.003860 0.001395 -0.012587 0.001170 0.033302 -0.004944
# 6 -0.001296 -0.004661 0.005487 -0.006464 -0.004944 0.023482
#
#
# Mechanical properties :
#
#
# Convention : Reuss Voigt Hill
#
# Bulk Modulus (GPa) = 31.19667 53.99836 42.59752
# Shear Modulus (GPa) = 22.01806 34.61041 28.31424
#
# Velocity S-wave (km/s) = 2.96789 3.72102 3.36559
# Velocity P-wave (km/s) = 4.92188 6.32958 5.66959
#
# Compressibility (1/GPa) = 0.03205470
#
# Stress axis : x y z
#
# Youngs Moduli (GPa) = 135.95766 61.57667 31.16092
#
# Poissons Ratio (x) = 0.15239 0.17566
# Poissons Ratio (y) = 0.33647 0.11542
# Poissons Ratio (z) = 0.76640 0.22809
#
# Static dielectric constant tensor:
#      x y z
#    x 1.982780 0.002430 0.022620 
#    y 0.002430 2.016010 0.038030 
#    z 0.022620 0.038030 2.009690 
# 
# From -- ./inp_files/532348.got.cif
#   From: 2010.05.17/outbox.cif.g08.bks.cpg/sg2_267_cif.got.tgz:532348.got - 2010.06.03 11:33:40.
