data_PCOD9097698
_publ_section_title
;
Structure prediction by ZEFSAII (Michael W. Deem and Ramdas Pophale) SiO2 
 PCOD9097698
Probable space group: P -1
;
_chemical_formula_sum "Si O2"
_cell_formula_units_Z 15
_cell_length_a 15.310048
_cell_length_b 13.037274
_cell_length_c 10.887084
_cell_angle_alpha 139.665477
_cell_angle_beta 25.624172
_cell_angle_gamma 129.485732
_cell_volume 597.920731
_symmetry_space_group_name_H-M "P -1"
_symmetry_group_IT_number 2
_symmetry_cell_setting 'triclinic'
loop_
_space_group_symop_operation_xyz
x,y,z
-x,-y,-z
loop_
_atom_site_type_symbol
_atom_site_label
_atom_site_fract_x
_atom_site_fract_y
_atom_site_fract_z
Si Si1 0.407502 0.350525 0.432675
Si Si2 0.641362 0.355569 0.886437
Si Si3 0.772687 0.594334 0.675808
Si Si4 0.728613 0.080676 0.858322
Si Si5 0.724109 0.913773 0.185877
Si Si6 0.000000 0.500000 0.500000
Si Si7 0.909287 0.742370 0.395280
Si Si8 0.863018 0.007886 0.338938
O O1 0.500000 0.500000 0.500000
O O2 0.169296 0.352658 0.705687
O O3 0.510544 0.335523 0.154883
O O4 0.505146 0.188675 0.232797
O O5 0.798068 0.474995 0.814671
O O6 0.779097 0.181170 0.540839
O O7 0.460236 0.401138 0.060469
O O8 0.884507 0.441089 0.468151
O O9 0.888048 0.649044 0.462365
O O10 0.784858 0.729928 0.889749
O O11 0.807544 0.025564 0.569709
O O12 0.873446 0.200732 0.835860
O O13 0.755486 0.917753 0.753567
O O14 0.500000 0.000000 0.500000
O O15 0.758765 0.902213 0.278467
O O16 0.892286 0.009533 0.002332
#
# Coordination Sequence:
#
# PCOD9097698 Si02
#       8
#     2   2   2   2   2   1   2   2
#     4  10  22  41  64  95 128 165 208 259 314 370
#     4  10  21  39  63  85 124 166 208 247 309 377
#     4  11  21  39  62  90 117 168 203 256 312 370
#     4  10  20  39  67  96 122 167 209 253 315 376
#     4  11  20  35  61  89 128 153 198 257 307 360
#     4  12  22  40  62  84 120 162 218 248 306 382
#     4  10  21  40  68  88 125 163 212 257 308 376
#     4  10  20  36  61  95 123 162 198 248 317 371
#
# _framework density 25.086939000000001
#
# number of rings (size 3 to 8) (size 9 to 14) (size 15 to 20)
#    0.000    1.600    4.000    1.600    0.000    0.533 
#    2.400    0.000    8.800    0.000    0.000    0.000 
#    0.000    0.000    0.000    0.000    0.000    0.000 
#
# Total GULP energy -83592.831039 kJ/mol
# GULP energy per Si atom -5572.855403 kJ/mol
# Density = 2.502984 g / cm^3
# Si number density = 25.086939 Si / 1000 Ang^3
#
#
#
# Elastic Constant Matrix: (Units=GPa)
#
#
# Indices 1 2 3 4 5 6 
#
# 1 116.1632 26.8162 38.6986 -5.9896 -28.1972 19.2214
# 2 26.8162 83.2069 26.9121 -21.4514 -9.4582 13.7563
# 3 38.6986 26.9121 55.8659 -8.8062 -11.1514 13.9401
# 4 -5.9896 -21.4514 -8.8062 33.2009 16.2188 -14.7637
# 5 -28.1972 -9.4582 -11.1514 16.2188 36.7478 -2.5454
# 6 19.2214 13.7563 13.9401 -14.7637 -2.5454 60.9713
#
#
#
# Elastic Compliance Matrix: (Units=1/GPa)
#
#
# Indices 1 2 3 4 5 6 
#
# 1 0.014614 -0.002691 -0.006784 -0.008522 0.011946 -0.004014
# 2 -0.002691 0.017044 -0.005633 0.011615 -0.004450 0.000917
# 3 -0.006784 -0.005633 0.026176 0.000595 0.000859 -0.002395
# 4 -0.008522 0.011615 0.000595 0.054613 -0.026639 0.012042
# 5 0.011946 -0.004450 0.000859 -0.026639 0.046735 -0.007458
# 6 -0.004014 0.000917 -0.002395 0.012042 -0.007458 0.020612
#
#
# Mechanical properties :
#
#
# Convention : Reuss Voigt Hill
#
# Bulk Modulus (GPa) = 36.20849 48.89886 42.55367
# Shear Modulus (GPa) = 22.80851 37.03794 29.92322
#
# Velocity S-wave (km/s) = 3.01853 3.84654 3.45741
# Velocity P-wave (km/s) = 5.15880 6.26593 5.73913
#
# Compressibility (1/GPa) = 0.02761783
#
# Stress axis : x y z
#
# Youngs Moduli (GPa) = 68.42550 58.67062 38.20297
#
# Poissons Ratio (x) = 0.15790 0.25918
# Poissons Ratio (y) = 0.18416 0.21519
# Poissons Ratio (z) = 0.46422 0.33048
#
# Static dielectric constant tensor:
#      x y z
#    x 1.960330 0.136090 0.169470 
#    y 0.136090 2.013630 -0.158120 
#    z 0.169470 -0.158120 2.023830 
# 
# From -- ./inp_files/455032.got.cif
#   From: 2010.05.17/outbox.cif.g08.bks.cpg/sg2_228_cif.got.tgz:455032.got - 2010.06.03 11:33:40.
