data_PCOD9097694
_publ_section_title
;
Structure prediction by ZEFSAII (Michael W. Deem and Ramdas Pophale) SiO2 
 PCOD9097694
Probable space group: P -1
;
_chemical_formula_sum "Si O2"
_cell_formula_units_Z 16
_cell_length_a 17.263240
_cell_length_b 10.845581
_cell_length_c 5.507188
_cell_angle_alpha 112.105165
_cell_angle_beta 57.947822
_cell_angle_gamma 130.508857
_cell_volume 663.657292
_symmetry_space_group_name_H-M "P -1"
_symmetry_group_IT_number 2
_symmetry_cell_setting 'triclinic'
loop_
_space_group_symop_operation_xyz
x,y,z
-x,-y,-z
loop_
_atom_site_type_symbol
_atom_site_label
_atom_site_fract_x
_atom_site_fract_y
_atom_site_fract_z
Si Si1 0.138224 0.269080 0.515377
Si Si2 0.066169 0.966063 0.621514
Si Si3 0.762042 0.492332 0.845289
Si Si4 0.006392 0.304833 0.119942
Si Si5 0.535570 0.685554 0.063810
Si Si6 0.446542 0.604466 0.650422
Si Si7 0.740657 0.027705 0.892810
Si Si8 0.764460 0.200789 0.478083
O O1 0.140042 0.160368 0.641644
O O2 0.242200 0.407041 0.295589
O O3 0.057176 0.128017 0.353072
O O4 0.071539 0.339260 0.786338
O O5 0.051201 0.882856 0.842046
O O6 0.133782 0.920322 0.304805
O O7 0.727613 0.319485 0.681180
O O8 0.890417 0.585371 0.788088
O O9 0.686398 0.489840 0.183218
O O10 0.900857 0.312554 0.318603
O O11 0.493085 0.707135 0.405447
O O12 0.500000 0.500000 0.000000
O O13 0.482555 0.697684 0.915002
O O14 0.663436 0.834888 0.929128
O O15 0.500000 0.500000 0.500000
O O16 0.724335 0.082240 0.694273
O O17 0.728221 0.112379 0.210666
#
# Coordination Sequence:
#
# PCOD9097694 Si02
#       8
#     2   2   2   2   2   2   2   2
#     4  10  20  36  61  94 136 169 222 266 335 394
#     4   9  20  36  58  99 131 169 218 273 335 401
#     4  11  26  40  66  99 133 184 224 276 328 396
#     4  10  21  40  63 100 138 182 219 272 327 406
#     4  10  23  44  70 101 126 168 226 284 339 397
#     4  10  24  44  67  99 134 163 230 285 338 390
#     4  11  23  44  70  96 135 181 217 283 339 390
#     4  11  25  44  67 101 140 180 227 259 331 416
#
# _framework density 24.108830000000001
#
# number of rings (size 3 to 8) (size 9 to 14) (size 15 to 20)
#    0.000    1.750    1.250    1.500    7.000    1.500 
#    0.000    3.750    0.000    0.000    0.000    0.000 
#    0.000    0.000    0.000    0.000    0.000    0.000 
#
# Total GULP energy -89233.728213 kJ/mol
# GULP energy per Si atom -5577.108013 kJ/mol
# Density = 2.405396 g / cm^3
# Si number density = 24.108830 Si / 1000 Ang^3
#
#
#
# Elastic Constant Matrix: (Units=GPa)
#
#
# Indices 1 2 3 4 5 6 
#
# 1 30.3761 0.7356 28.6770 2.8851 3.9102 6.0952
# 2 0.7356 71.4978 37.3216 -5.5206 -2.8991 -1.9030
# 3 28.6770 37.3216 168.6936 -19.1227 17.0927 -7.2443
# 4 2.8851 -5.5206 -19.1227 38.3899 -0.4845 -0.0057
# 5 3.9102 -2.8991 17.0927 -0.4845 48.1366 2.9652
# 6 6.0952 -1.9030 -7.2443 -0.0057 2.9652 25.0223
#
#
#
# Elastic Compliance Matrix: (Units=1/GPa)
#
#
# Indices 1 2 3 4 5 6 
#
# 1 0.045994 0.003949 -0.010296 -0.008008 0.000939 -0.013997
# 2 0.003949 0.016405 -0.004624 -0.000211 0.002389 -0.001336
# 3 -0.010296 -0.004624 0.009820 0.004961 -0.003211 0.005381
# 4 -0.008008 -0.000211 0.004961 0.029078 -0.001047 0.003501
# 5 0.000939 0.002389 -0.003211 -0.001047 0.022193 -0.003607
# 6 -0.013997 -0.001336 0.005381 0.003501 -0.003607 0.045258
#
#
# Mechanical properties :
#
#
# Convention : Reuss Voigt Hill
#
# Bulk Modulus (GPa) = 19.89065 44.89288 32.39177
# Shear Modulus (GPa) = 24.10222 35.89865 30.00043
#
# Velocity S-wave (km/s) = 3.16527 3.86297 3.53140
# Velocity P-wave (km/s) = 4.65047 6.20952 5.48566
#
# Compressibility (1/GPa) = 0.05027487
#
# Stress axis : x y z
#
# Youngs Moduli (GPa) = 21.74214 60.95874 101.83372
#
# Poissons Ratio (x) = -0.24070 1.04851
# Poissons Ratio (y) = -0.08585 0.47088
# Poissons Ratio (z) = 0.22386 0.28187
#
# Static dielectric constant tensor:
#      x y z
#    x 2.077580 0.065610 0.055390 
#    y 0.065610 2.100780 0.129530 
#    z 0.055390 0.129530 2.081670 
# 
# From -- ./inp_files/81110.got.cif
#   From: 2010.05.17/outbox.cif.g08.bks.cpg/sg2_41_cif.got.tgz:81110.got - 2010.06.03 11:33:40.
