data_PCOD9097161
_publ_section_title
;
Structure prediction by ZEFSAII (Michael W. Deem and Ramdas Pophale) SiO2 
 PCOD9097161
Probable space group: P -1
;
_chemical_formula_sum "Si O2"
_cell_formula_units_Z 12
_cell_length_a 8.839099
_cell_length_b 11.396230
_cell_length_c 6.344820
_cell_angle_alpha 100.306878
_cell_angle_beta 119.291560
_cell_angle_gamma 78.402058
_cell_volume 543.596921
_symmetry_space_group_name_H-M "P -1"
_symmetry_group_IT_number 2
_symmetry_cell_setting 'triclinic'
loop_
_space_group_symop_operation_xyz
x,y,z
-x,-y,-z
loop_
_atom_site_type_symbol
_atom_site_label
_atom_site_fract_x
_atom_site_fract_y
_atom_site_fract_z
Si Si1 0.832225 0.297659 0.765053
Si Si2 0.976251 0.866574 0.854924
Si Si3 0.615299 0.920665 0.380188
Si Si4 0.479026 0.676489 0.109450
Si Si5 0.180688 0.910850 0.632157
Si Si6 0.640676 0.466248 0.400644
O O1 0.685483 0.332960 0.852358
O O2 0.784825 0.184168 0.562131
O O3 0.816368 0.406009 0.620204
O O4 0.003155 0.236841 0.986654
O O5 0.794806 0.872393 0.610823
O O6 0.137339 0.844117 0.792898
O O7 0.000000 0.000000 0.000000
O O8 0.527824 0.809646 0.199600
O O9 0.500000 0.000000 0.500000
O O10 0.670652 0.003921 0.255681
O O11 0.637212 0.583234 0.288781
O O12 0.433677 0.630404 0.834158
O O13 0.000000 0.000000 0.500000
O O14 0.500000 0.500000 0.500000
#
# Coordination Sequence:
#
# PCOD9097161 Si02
#       6
#     2   2   2   2   2   2
#     4  11  19  38  63  89 123 171 211 247 316 384
#     4  11  21  38  59  87 132 174 203 246 316 388
#     4  11  21  39  63  99 129 160 212 265 315 370
#     4  10  20  41  64  94 124 162 215 267 307 373
#     4  10  20  36  59  89 128 170 201 244 318 380
#     4   9  21  39  65  88 122 169 215 257 320 371
#
# _framework density 22.075182999999999
#
# number of rings (size 3 to 8) (size 9 to 14) (size 15 to 20)
#    0.000    1.667    5.000    1.000    0.000    0.000 
#    6.000    3.333    0.000   21.000    0.000    0.000 
#    0.000    0.000    0.000    0.000    0.000    0.000 
#
# Total GULP energy -66952.460995 kJ/mol
# GULP energy per Si atom -5579.371750 kJ/mol
# Density = 2.202494 g / cm^3
# Si number density = 22.075183 Si / 1000 Ang^3
#
#
#
# Elastic Constant Matrix: (Units=GPa)
#
#
# Indices 1 2 3 4 5 6 
#
# 1 60.2780 20.0476 31.9292 7.9011 -5.9217 -4.1003
# 2 20.0476 88.9376 41.3577 -11.8985 -4.7788 -16.8643
# 3 31.9292 41.3577 112.5921 -7.0914 -13.3858 -14.0439
# 4 7.9011 -11.8985 -7.0914 68.2784 -15.4925 1.5622
# 5 -5.9217 -4.7788 -13.3858 -15.4925 28.5842 0.3714
# 6 -4.1003 -16.8643 -14.0439 1.5622 0.3714 22.8646
#
#
#
# Elastic Compliance Matrix: (Units=1/GPa)
#
#
# Indices 1 2 3 4 5 6 
#
# 1 0.020673 -0.003014 -0.005233 -0.003559 -0.000582 -0.001477
# 2 -0.003014 0.015646 -0.003400 0.002952 0.001886 0.008679
# 3 -0.005233 -0.003400 0.012995 0.002575 0.005773 0.004266
# 4 -0.003559 0.002952 0.002575 0.018260 0.010837 0.001697
# 5 -0.000582 0.001886 0.005773 0.010837 0.043712 0.003383
# 6 -0.001477 0.008679 0.004266 0.001697 0.003383 0.052322
#
#
# Mechanical properties :
#
#
# Convention : Reuss Voigt Hill
#
# Bulk Modulus (GPa) = 38.43079 49.83075 44.13077
# Shear Modulus (GPa) = 25.56562 35.17699 30.37131
#
# Velocity S-wave (km/s) = 3.40680 3.99621 3.71322
# Velocity P-wave (km/s) = 5.73776 6.62685 6.19827
#
# Compressibility (1/GPa) = 0.02602080
#
# Stress axis : x y z
#
# Youngs Moduli (GPa) = 48.37223 63.91333 76.95211
#
# Poissons Ratio (x) = 0.19264 0.40269
# Poissons Ratio (y) = 0.14580 0.26162
# Poissons Ratio (z) = 0.25313 0.21729
#
# Static dielectric constant tensor:
#      x y z
#    x 1.800630 -0.034090 -0.011120 
#    y -0.034090 1.878360 -0.100960 
#    z -0.011120 -0.100960 1.876600 
# 
# From -- ./inp_files/25322.got.cif
#   From: 2010.05.17/outbox.cif.g08.bks.cpg/sg2_13_cif.got.tgz:25322.got - 2010.06.03 11:33:40.
