data_PCOD9097195
_publ_section_title
;
Structure prediction by ZEFSAII (Michael W. Deem and Ramdas Pophale) SiO2 
 PCOD9097195
Probable space group: P -1
;
_chemical_formula_sum "Si O2"
_cell_formula_units_Z 16
_cell_length_a 17.925629
_cell_length_b 5.513029
_cell_length_c 8.751521
_cell_angle_alpha 83.582100
_cell_angle_beta 119.528420
_cell_angle_gamma 117.459795
_cell_volume 660.232196
_symmetry_space_group_name_H-M "P -1"
_symmetry_group_IT_number 2
_symmetry_cell_setting 'triclinic'
loop_
_space_group_symop_operation_xyz
x,y,z
-x,-y,-z
loop_
_atom_site_type_symbol
_atom_site_label
_atom_site_fract_x
_atom_site_fract_y
_atom_site_fract_z
Si Si1 0.093872 0.886220 0.937154
Si Si2 0.018636 0.204295 0.644545
Si Si3 0.693409 0.310257 0.524583
Si Si4 0.401076 0.326015 0.504328
Si Si5 0.630912 0.297501 0.106586
Si Si6 0.105447 0.679182 0.280389
Si Si7 0.199095 0.755126 0.793540
Si Si8 0.389555 0.231055 0.853863
O O1 0.174097 0.868206 0.912514
O O2 0.993312 0.604803 0.826191
O O3 0.070244 0.125357 0.840158
O O4 0.121472 0.878433 0.139016
O O5 0.096083 0.512674 0.652684
O O6 0.919802 0.178329 0.614785
O O7 0.000000 0.000000 0.500000
O O8 0.665532 0.516972 0.575907
O O9 0.654116 0.299637 0.311795
O O10 0.646219 0.997893 0.566300
O O11 0.728559 0.974358 0.250007
O O12 0.500000 0.500000 0.500000
O O13 0.418927 0.311726 0.704510
O O14 0.732252 0.391936 0.113788
O O15 0.591871 0.515009 0.038096
O O16 0.575270 0.977188 0.024735
O O17 0.193779 0.609180 0.385934
#
# Coordination Sequence:
#
# PCOD9097195 Si02
#       8
#     2   2   2   2   2   2   2   2
#     4  10  22  40  56  79 124 168 219 250 299 352
#     4  11  24  33  58  84 120 164 210 267 297 353
#     4  10  21  35  59  85 120 161 194 249 309 374
#     4  10  20  36  59  92 124 150 192 254 324 380
#     4   8  16  28  51  76 111 139 187 235 291 341
#     4  10  24  40  55  83 121 174 209 255 301 365
#     4   9  19  33  53  79 114 151 206 244 303 345
#     4   8  16  30  52  80 114 147 177 239 298 356
#
# _framework density 24.233895
#
# number of rings (size 3 to 8) (size 9 to 14) (size 15 to 20)
#    0.750    1.750    0.000    1.500    5.250    2.000 
#    0.000    0.000    0.000    0.000    0.000    1.750 
#    0.000    0.000    0.000    0.000    0.000    0.000 
#
# Total GULP energy -89333.427284 kJ/mol
# GULP energy per Si atom -5583.339205 kJ/mol
# Density = 2.417874 g / cm^3
# Si number density = 24.233895 Si / 1000 Ang^3
#
#
#
# Elastic Constant Matrix: (Units=GPa)
#
#
# Indices 1 2 3 4 5 6 
#
# 1 155.5557 59.1698 47.9599 -3.1946 -32.7943 -21.3664
# 2 59.1698 116.7725 37.8789 -2.8163 -10.5485 -20.8765
# 3 47.9599 37.8789 74.4049 -18.1681 -15.5909 -1.2410
# 4 -3.1946 -2.8163 -18.1681 27.3063 1.4425 -0.7726
# 5 -32.7943 -10.5485 -15.5909 1.4425 39.1989 -3.5295
# 6 -21.3664 -20.8765 -1.2410 -0.7726 -3.5295 58.9860
#
#
#
# Elastic Compliance Matrix: (Units=1/GPa)
#
#
# Indices 1 2 3 4 5 6 
#
# 1 0.010729 -0.002832 -0.004578 -0.002351 0.006765 0.003162
# 2 -0.002832 0.012031 -0.004957 -0.002263 -0.000745 0.003054
# 3 -0.004578 -0.004957 0.022963 0.013989 0.003225 -0.002553
# 4 -0.002351 -0.002263 0.013989 0.045335 0.001258 -0.000689
# 5 0.006765 -0.000745 0.003225 0.001258 0.032586 0.004221
# 6 0.003162 0.003054 -0.002553 -0.000689 0.004221 0.019369
#
#
# Mechanical properties :
#
#
# Convention : Reuss Voigt Hill
#
# Bulk Modulus (GPa) = 47.64294 70.75002 59.19648
# Shear Modulus (GPa) = 28.61329 38.54652 33.57991
#
# Velocity S-wave (km/s) = 3.43988 3.99256 3.72648
# Velocity P-wave (km/s) = 5.95645 7.10719 6.55711
#
# Compressibility (1/GPa) = 0.02098947
#
# Stress axis : x y z
#
# Youngs Moduli (GPa) = 93.20194 83.12093 43.54752
#
# Poissons Ratio (x) = 0.23540 0.19936
# Poissons Ratio (y) = 0.26395 0.21587
# Poissons Ratio (z) = 0.42667 0.41203
#
# Static dielectric constant tensor:
#      x y z
#    x 2.002170 0.002770 0.034900 
#    y 0.002770 2.019570 -0.000890 
#    z 0.034900 -0.000890 1.907330 
# 
# From -- ./inp_files/54465.got.cif
#   From: 2010.05.17/outbox.cif.g08.bks.cpg/sg2_28_cif.got.tgz:54465.got - 2010.06.03 11:33:40.
