data_PCOD9097765
_publ_section_title
;
Structure prediction by ZEFSAII (Michael W. Deem and Ramdas Pophale) SiO2 
 PCOD9097765
Probable space group: P -1
;
_chemical_formula_sum "Si O2"
_cell_formula_units_Z 16
_cell_length_a 14.166477
_cell_length_b 11.979105
_cell_length_c 12.979370
_cell_angle_alpha 107.596398
_cell_angle_beta 128.707177
_cell_angle_gamma 31.166668
_cell_volume 726.918469
_symmetry_space_group_name_H-M "P -1"
_symmetry_group_IT_number 2
_symmetry_cell_setting 'triclinic'
loop_
_space_group_symop_operation_xyz
x,y,z
-x,-y,-z
loop_
_atom_site_type_symbol
_atom_site_label
_atom_site_fract_x
_atom_site_fract_y
_atom_site_fract_z
Si Si1 0.115941 0.388839 0.788338
Si Si2 0.943489 0.204314 0.927301
Si Si3 0.673992 0.953671 0.655395
Si Si4 0.167079 0.458958 0.554055
Si Si5 0.860313 0.267905 0.404420
Si Si6 0.654264 0.203392 0.237994
Si Si7 0.717960 0.162752 0.738869
Si Si8 0.694482 0.965956 0.028954
O O1 0.182802 0.256908 0.897950
O O2 0.956798 0.644619 0.780966
O O3 0.942720 0.452795 0.614358
O O4 0.386042 0.194607 0.857612
O O5 0.653057 0.508240 0.851256
O O6 0.869415 0.147776 0.800107
O O7 0.113048 0.145934 0.956940
O O8 0.121305 0.011031 0.094129
O O9 0.500000 0.000000 0.500000
O O10 0.484670 0.153932 0.677886
O O11 0.710193 0.044109 0.643684
O O12 0.113851 0.632931 0.611769
O O13 0.000000 0.500000 0.500000
O O14 0.766747 0.229270 0.276198
O O15 0.594998 0.528042 0.367363
O O16 0.134589 0.007830 0.583854
O O17 0.665129 0.090014 0.132282
#
# Coordination Sequence:
#
# PCOD9097765 Si02
#       8
#     2   2   2   2   2   2   2   2
#     4  10  22  40  55  88 121 152 205 245 291 366
#     4  10  22  39  65  88 118 162 197 245 307 355
#     4   9  19  37  60  81 120 154 186 253 298 341
#     4  10  20  36  62  86 115 157 195 245 303 353
#     4   9  19  37  63  82 120 155 191 254 300 341
#     4  10  20  41  62  88 120 154 200 249 296 362
#     4   9  19  40  61  90 121 150 203 251 294 363
#     4  11  23  40  61  85 124 159 197 251 299 356
#
# _framework density 22.010722999999999
#
# number of rings (size 3 to 8) (size 9 to 14) (size 15 to 20)
#    0.000    2.250    1.250    0.750    3.500    1.000 
#    4.500   13.750    0.000    0.000    0.000    0.000 
#    0.000    0.000    0.000    0.000    0.000    0.000 
#
# Total GULP energy -89205.177573 kJ/mol
# GULP energy per Si atom -5575.323598 kJ/mol
# Density = 2.196063 g / cm^3
# Si number density = 22.010723 Si / 1000 Ang^3
#
#
#
# Elastic Constant Matrix: (Units=GPa)
#
#
# Indices 1 2 3 4 5 6 
#
# 1 83.9238 14.8538 24.8023 -18.7392 19.6213 3.2061
# 2 14.8538 81.3801 28.7694 -19.7164 2.8976 13.4446
# 3 24.8023 28.7694 93.3964 -18.9386 26.3223 -6.9792
# 4 -18.7392 -19.7164 -18.9386 38.7280 5.6530 11.7069
# 5 19.6213 2.8976 26.3223 5.6530 26.3090 5.4590
# 6 3.2061 13.4446 -6.9792 11.7069 5.4590 39.6573
#
#
#
# Elastic Compliance Matrix: (Units=1/GPa)
#
#
# Indices 1 2 3 4 5 6 
#
# 1 0.018959 -0.000038 0.003423 0.014505 -0.020174 -0.002422
# 2 -0.000038 0.017985 -0.005546 0.008967 0.003794 -0.010239
# 3 0.003423 -0.005546 0.022294 0.012068 -0.028050 0.005826
# 4 0.014505 0.008967 0.012068 0.051949 -0.032351 -0.012971
# 5 -0.020174 0.003794 -0.028050 -0.032351 0.089171 -0.007317
# 6 -0.002422 -0.010239 0.005826 -0.012971 -0.007317 0.034745
#
#
# Mechanical properties :
#
#
# Convention : Reuss Voigt Hill
#
# Bulk Modulus (GPa) = 18.20963 43.95013 31.07988
# Shear Modulus (GPa) = 19.40017 33.62385 26.51201
#
# Velocity S-wave (km/s) = 2.97205 3.91271 3.47436
# Velocity P-wave (km/s) = 4.47979 6.35793 5.49963
#
# Compressibility (1/GPa) = 0.05491600
#
# Stress axis : x y z
#
# Youngs Moduli (GPa) = 52.74615 55.60323 44.85461
#
# Poissons Ratio (x) = 0.00210 -0.15354
# Poissons Ratio (y) = 0.00199 0.24877
# Poissons Ratio (z) = -0.18055 0.30838
#
# Static dielectric constant tensor:
#      x y z
#    x 1.354450 0.365610 0.393530 
#    y 0.365610 1.590890 -0.253510 
#    z 0.393530 -0.253510 1.537270 
# 
# From -- ./inp_files/532560.got.cif
#   From: 2010.05.17/outbox.cif.g08.bks.cpg/sg2_267_cif.got.tgz:532560.got - 2010.06.03 11:33:40.
