data_PCOD9097354
_publ_section_title
;
Structure prediction by ZEFSAII (Michael W. Deem and Ramdas Pophale) SiO2 
 PCOD9097354
Probable space group: P -1
;
_chemical_formula_sum "Si O2"
_cell_formula_units_Z 16
_cell_length_a 8.680162
_cell_length_b 5.520317
_cell_length_c 20.266802
_cell_angle_alpha 128.644047
_cell_angle_beta 59.810822
_cell_angle_gamma 121.405949
_cell_volume 624.014635
_symmetry_space_group_name_H-M "P -1"
_symmetry_group_IT_number 2
_symmetry_cell_setting 'triclinic'
loop_
_space_group_symop_operation_xyz
x,y,z
-x,-y,-z
loop_
_atom_site_type_symbol
_atom_site_label
_atom_site_fract_x
_atom_site_fract_y
_atom_site_fract_z
Si Si1 0.843764 0.765939 0.539370
Si Si2 0.943867 0.666151 0.635230
Si Si3 0.459311 0.344889 0.575916
Si Si4 0.505283 0.441034 0.103180
Si Si5 0.826058 0.055729 0.125014
Si Si6 0.541660 0.351242 0.709376
Si Si7 0.203962 0.703284 0.697173
Si Si8 0.810134 0.085346 0.981110
O O1 0.871427 0.859259 0.627225
O O2 0.622137 0.630242 0.554048
O O3 0.898878 0.435421 0.456864
O O4 0.000000 0.000000 0.500000
O O5 0.757956 0.380573 0.651076
O O6 0.050709 0.793180 0.700923
O O7 0.475637 0.426572 0.664498
O O8 0.260246 0.388711 0.608308
O O9 0.500000 0.000000 0.500000
O O10 0.614123 0.817309 0.131376
O O11 0.457697 0.418695 0.188201
O O12 0.321500 0.280267 0.071818
O O13 0.668999 0.280837 0.022411
O O14 0.855160 0.331224 0.220136
O O15 0.850998 0.160471 0.062218
O O16 0.981281 0.879334 0.083041
O O17 0.391228 0.009424 0.702144
#
# Coordination Sequence:
#
# PCOD9097354 Si02
#       8
#     2   2   2   2   2   2   2   2
#     4  10  22  41  62  87 122 162 208 262 316 375
#     4  10  22  38  60  87 117 158 209 258 308 366
#     4  11  24  42  64  91 124 166 214 266 324 380
#     4  10  20  36  60  88 124 163 200 248 305 366
#     4  10  21  37  59  90 124 159 202 252 304 365
#     4  10  22  40  60  90 126 162 208 259 312 374
#     4  11  23  40  63  89 123 164 209 262 316 372
#     4  10  20  36  60  90 122 159 202 246 303 369
#
# _framework density 25.640422999999998
#
# number of rings (size 3 to 8) (size 9 to 14) (size 15 to 20)
#    0.000    1.750    0.000    3.750    0.000    6.000 
#    0.000    3.125    0.000   19.500    0.000    0.000 
#    0.000    0.000    0.000    0.000    0.000    0.000 
#
# Total GULP energy -89220.737823 kJ/mol
# GULP energy per Si atom -5576.296114 kJ/mol
# Density = 2.558206 g / cm^3
# Si number density = 25.640423 Si / 1000 Ang^3
#
#
#
# Elastic Constant Matrix: (Units=GPa)
#
#
# Indices 1 2 3 4 5 6 
#
# 1 125.4702 27.1603 32.5919 0.7126 16.9881 26.1593
# 2 27.1603 84.9806 8.0601 -5.5097 6.7834 21.3450
# 3 32.5919 8.0601 95.5295 -14.3909 25.9245 -1.9647
# 4 0.7126 -5.5097 -14.3909 20.0857 -0.1801 1.1540
# 5 16.9881 6.7834 25.9245 -0.1801 30.7869 -7.5535
# 6 26.1593 21.3450 -1.9647 1.1540 -7.5535 41.1552
#
#
#
# Elastic Compliance Matrix: (Units=1/GPa)
#
#
# Indices 1 2 3 4 5 6 
#
# 1 0.011298 -0.001122 -0.002751 -0.002288 -0.005570 -0.007688
# 2 -0.001122 0.014859 0.001354 0.005502 -0.005759 -0.008140
# 3 -0.002751 0.001354 0.016642 0.012327 -0.012938 -0.000879
# 4 -0.002288 0.005502 0.012327 0.060371 -0.011090 -0.004539
# 5 -0.005570 -0.005759 -0.012938 -0.011090 0.051498 0.015672
# 6 -0.007688 -0.008140 -0.000879 -0.004539 0.015672 0.036368
#
#
# Mechanical properties :
#
#
# Convention : Reuss Voigt Hill
#
# Bulk Modulus (GPa) = 26.48401 49.06721 37.77561
# Shear Modulus (GPa) = 23.96221 34.28342 29.12281
#
# Velocity S-wave (km/s) = 3.06035 3.66058 3.37384
# Velocity P-wave (km/s) = 4.77903 6.08644 5.47192
#
# Compressibility (1/GPa) = 0.03775864
#
# Stress axis : x y z
#
# Youngs Moduli (GPa) = 88.51376 67.30101 60.08819
#
# Poissons Ratio (x) = 0.07554 0.16530
# Poissons Ratio (y) = 0.09936 -0.08133
# Poissons Ratio (z) = 0.24350 -0.09109
#
# Static dielectric constant tensor:
#      x y z
#    x 2.121100 -0.102190 -0.018900 
#    y -0.102190 2.100640 0.086740 
#    z -0.018900 0.086740 2.098570 
# 
# From -- ./inp_files/585924.got.cif
#   From: 2010.05.17/outbox.cif.g08.bks.cpg/sg2_293_cif.got.tgz:585924.got - 2010.06.03 11:33:40.
