data_PCOD9097398
_publ_section_title
;
Structure prediction by ZEFSAII (Michael W. Deem and Ramdas Pophale) SiO2 
 PCOD9097398
Probable space group: P -1
;
_chemical_formula_sum "Si O2"
_cell_formula_units_Z 16
_cell_length_a 12.671308
_cell_length_b 14.308122
_cell_length_c 11.359595
_cell_angle_alpha 150.775460
_cell_angle_beta 132.407593
_cell_angle_gamma 40.712513
_cell_volume 655.332612
_symmetry_space_group_name_H-M "P -1"
_symmetry_group_IT_number 2
_symmetry_cell_setting 'triclinic'
loop_
_space_group_symop_operation_xyz
x,y,z
-x,-y,-z
loop_
_atom_site_type_symbol
_atom_site_label
_atom_site_fract_x
_atom_site_fract_y
_atom_site_fract_z
Si Si1 0.772402 0.858685 0.996375
Si Si2 0.128096 0.650062 0.741159
Si Si3 0.815919 0.162851 0.543439
Si Si4 0.569443 0.706611 0.545819
Si Si5 0.782696 0.978609 0.862890
Si Si6 0.855554 0.439048 0.069967
Si Si7 0.426949 0.117446 0.752259
Si Si8 0.415531 0.456409 0.282224
O O1 0.740653 0.027970 0.266205
O O2 0.778794 0.961698 0.985195
O O3 0.630877 0.790942 0.797427
O O4 0.953500 0.654356 0.922529
O O5 0.256264 0.432424 0.536510
O O6 0.176454 0.831582 0.934335
O O7 0.151240 0.605439 0.847385
O O8 0.935329 0.756371 0.688665
O O9 0.771454 0.371946 0.657616
O O10 0.801097 0.278730 0.785768
O O11 0.000000 0.000000 0.500000
O O12 0.489767 0.553949 0.346290
O O13 0.447068 0.890774 0.566676
O O14 0.604953 0.042614 0.747594
O O15 0.729819 0.690558 0.217489
O O16 0.434579 0.235301 0.008421
O O17 0.500000 0.500000 0.500000
#
# Coordination Sequence:
#
# PCOD9097398 Si02
#       8
#     2   2   2   2   2   2   2   2
#     4   9  19  37  64  89 121 159 205 250 302 352
#     4  10  20  36  60  90 124 159 206 243 301 362
#     4   9  19  38  61  86 117 158 198 242 300 360
#     4  11  23  38  62  93 122 154 203 255 297 358
#     4   9  18  35  59  90 117 158 205 246 296 349
#     4   9  20  37  60  89 125 167 199 243 300 363
#     4  10  21  38  59  88 124 157 200 245 306 351
#     4  11  22  39  63  90 118 158 205 251 302 350
#
# _framework density 24.415085000000001
#
# number of rings (size 3 to 8) (size 9 to 14) (size 15 to 20)
#    0.000    2.250    1.250    1.500    0.000    7.500 
#    0.000    1.250    5.500    4.500    0.000    0.000 
#    0.000    0.000    0.000    0.000    0.000    0.000 
#
# Total GULP energy -89136.037516 kJ/mol
# GULP energy per Si atom -5571.002345 kJ/mol
# Density = 2.435951 g / cm^3
# Si number density = 24.415085 Si / 1000 Ang^3
#
#
#
# Elastic Constant Matrix: (Units=GPa)
#
#
# Indices 1 2 3 4 5 6 
#
# 1 60.7388 33.4133 9.4454 7.1787 9.2342 -3.6297
# 2 33.4133 158.9419 24.9710 22.5696 -14.2426 -36.3833
# 3 9.4454 24.9710 82.8139 3.1514 -10.4484 -2.5952
# 4 7.1787 22.5696 3.1514 44.8546 -10.3229 -2.6994
# 5 9.2342 -14.2426 -10.4484 -10.3229 32.3679 3.3669
# 6 -3.6297 -36.3833 -2.5952 -2.6994 3.3669 39.1003
#
#
#
# Elastic Compliance Matrix: (Units=1/GPa)
#
#
# Indices 1 2 3 4 5 6 
#
# 1 0.021306 -0.005115 -0.002071 -0.003070 -0.009738 -0.002293
# 2 -0.005115 0.010317 -0.001691 -0.002904 0.003643 0.008499
# 3 -0.002071 -0.001691 0.013326 0.001249 0.004671 -0.001197
# 4 -0.003070 -0.002904 0.001249 0.026001 0.008485 -0.001840
# 5 -0.009738 0.003643 0.004671 0.008485 0.039492 -0.000019
# 6 -0.002293 0.008499 -0.001197 -0.001840 -0.000019 0.033066
#
#
# Mechanical properties :
#
#
# Convention : Reuss Voigt Hill
#
# Bulk Modulus (GPa) = 36.77324 48.68375 42.72850
# Shear Modulus (GPa) = 29.35526 38.90890 34.13208
#
# Velocity S-wave (km/s) = 3.47124 3.99638 3.74303
# Velocity P-wave (km/s) = 5.58215 6.42480 6.01824
#
# Compressibility (1/GPa) = 0.02719369
#
# Stress axis : x y z
#
# Youngs Moduli (GPa) = 46.93429 96.92904 75.04285
#
# Poissons Ratio (x) = 0.49582 0.15544
# Poissons Ratio (y) = 0.24008 0.12690
# Poissons Ratio (z) = 0.09722 0.16390
#
# Static dielectric constant tensor:
#      x y z
#    x 0.378490 0.103350 1.191240 
#    y 0.103350 2.059770 -0.080510 
#    z 1.191240 -0.080510 1.054340 
# 
# From -- ./inp_files/415364.got.cif
#   From: 2010.05.17/outbox.cif.g08.bks.cpg/sg2_208_cif.got.tgz:415364.got - 2010.06.03 11:33:40.
