data_PCOD9097731
_publ_section_title
;
Structure prediction by ZEFSAII (Michael W. Deem and Ramdas Pophale) SiO2 
 PCOD9097731
Probable space group: P -1
;
_chemical_formula_sum "Si O2"
_cell_formula_units_Z 11
_cell_length_a 8.928067
_cell_length_b 11.343983
_cell_length_c 14.090291
_cell_angle_alpha 43.950048
_cell_angle_beta 149.099107
_cell_angle_gamma 139.933375
_cell_volume 463.011742
_symmetry_space_group_name_H-M "P -1"
_symmetry_group_IT_number 2
_symmetry_cell_setting 'triclinic'
loop_
_space_group_symop_operation_xyz
x,y,z
-x,-y,-z
loop_
_atom_site_type_symbol
_atom_site_label
_atom_site_fract_x
_atom_site_fract_y
_atom_site_fract_z
Si Si1 0.245803 0.365965 0.291145
Si Si2 0.232470 0.539663 0.925345
Si Si3 0.000000 0.000000 0.500000
Si Si4 0.365249 0.789873 0.510186
Si Si5 0.076682 0.313227 0.495208
Si Si6 0.063258 0.214088 0.891836
O O1 0.369847 0.294329 0.307666
O O2 0.551372 0.550846 0.379943
O O3 0.936822 0.412948 0.105249
O O4 0.167157 0.202935 0.420748
O O5 0.112384 0.324460 0.953982
O O6 0.112549 0.615732 0.723505
O O7 0.609975 0.665135 0.057311
O O8 0.976939 0.892257 0.447392
O O9 0.083732 0.683861 0.492851
O O10 0.219731 0.784566 0.329101
O O11 0.500000 0.000000 0.500000
O O12 0.000000 0.000000 0.000000
#
# Coordination Sequence:
#
# PCOD9097731 Si02
#       6
#     2   2   1   2   2   2
#     4  11  23  39  69 100 128 171 226 277 317 390
#     4  10  23  43  68  97 124 180 220 268 333 396
#     4  10  20  36  62 100 128 158 218 266 326 376
#     4  12  24  43  69 102 130 176 225 279 327 386
#     4  11  22  40  71  98 130 167 228 275 324 384
#     4  11  25  43  66  94 139 175 214 269 342 397
#
# _framework density 23.757497000000001
#
# number of rings (size 3 to 8) (size 9 to 14) (size 15 to 20)
#    0.000    1.091    3.636    3.818    2.545    0.000 
#    0.000    1.818    0.000    0.000    0.000    0.000 
#    0.000    0.000    0.000    0.000    0.000    0.000 
#
# Total GULP energy -61257.676485 kJ/mol
# GULP energy per Si atom -5568.879680 kJ/mol
# Density = 2.370342 g / cm^3
# Si number density = 23.757497 Si / 1000 Ang^3
#
#
#
# Elastic Constant Matrix: (Units=GPa)
#
#
# Indices 1 2 3 4 5 6 
#
# 1 159.3982 58.4835 31.3528 -7.3120 23.1300 -23.0063
# 2 58.4835 171.3204 23.0243 5.1658 19.6806 -34.5314
# 3 31.3528 23.0243 65.3016 7.3752 7.9587 -14.3414
# 4 -7.3120 5.1658 7.3752 18.6873 1.8578 -2.7997
# 5 23.1300 19.6806 7.9587 1.8578 48.2163 -12.7430
# 6 -23.0063 -34.5314 -14.3414 -2.7997 -12.7430 47.7575
#
#
#
# Elastic Compliance Matrix: (Units=1/GPa)
#
#
# Indices 1 2 3 4 5 6 
#
# 1 0.008520 -0.002079 -0.003419 0.005696 -0.002570 0.001222
# 2 -0.002079 0.007574 -0.000459 -0.002041 -0.000888 0.003981
# 3 -0.003419 -0.000459 0.018739 -0.008124 -0.000123 0.003139
# 4 0.005696 -0.002041 -0.008124 0.060007 -0.002421 0.001700
# 5 -0.002570 -0.000888 -0.000123 -0.002421 0.023567 0.004229
# 6 0.001222 0.003981 0.003139 0.001700 0.004229 0.026577
#
#
# Mechanical properties :
#
#
# Convention : Reuss Voigt Hill
#
# Bulk Modulus (GPa) = 43.63393 69.08236 56.35814
# Shear Modulus (GPa) = 30.38816 41.80953 36.09885
#
# Velocity S-wave (km/s) = 3.58033 4.19960 3.90227
# Velocity P-wave (km/s) = 5.95801 7.25650 6.63908
#
# Compressibility (1/GPa) = 0.02291794
#
# Stress axis : x y z
#
# Youngs Moduli (GPa) = 117.37649 132.02482 53.36467
#
# Poissons Ratio (x) = 0.27447 0.18246
# Poissons Ratio (y) = 0.24402 0.02452
# Poissons Ratio (z) = 0.40132 0.06066
#
# Static dielectric constant tensor:
#      x y z
#    x 1.965330 -0.002620 0.035570 
#    y -0.002620 1.881730 -0.034470 
#    z 0.035570 -0.034470 1.919720 
# 
# From -- ./inp_files/164079.got.cif
#   From: 2010.05.17/outbox.cif.g08.bks.cpg/sg2_83_cif.got.tgz:164079.got - 2010.06.03 11:33:40.
