data_PCOD9097474
_publ_section_title
;
Structure prediction by ZEFSAII (Michael W. Deem and Ramdas Pophale) SiO2 
 PCOD9097474
Probable space group: P -1
;
_chemical_formula_sum "Si O2"
_cell_formula_units_Z 16
_cell_length_a 7.788169
_cell_length_b 16.788767
_cell_length_c 8.039579
_cell_angle_alpha 122.148098
_cell_angle_beta 80.256850
_cell_angle_gamma 125.534827
_cell_volume 709.156716
_symmetry_space_group_name_H-M "P -1"
_symmetry_group_IT_number 2
_symmetry_cell_setting 'triclinic'
loop_
_space_group_symop_operation_xyz
x,y,z
-x,-y,-z
loop_
_atom_site_type_symbol
_atom_site_label
_atom_site_fract_x
_atom_site_fract_y
_atom_site_fract_z
Si Si1 0.395638 0.943017 0.270315
Si Si2 0.926469 0.872218 0.322780
Si Si3 0.718199 0.552260 0.914171
Si Si4 0.754833 0.408148 0.497525
Si Si5 0.887521 0.691208 0.343927
Si Si6 0.337452 0.806750 0.563742
Si Si7 0.564922 0.434447 0.243182
Si Si8 0.484732 0.768212 0.145815
O O1 0.434334 0.844811 0.131120
O O2 0.144522 0.888645 0.252945
O O3 0.500000 0.000000 0.500000
O O4 0.518370 0.057841 0.264743
O O5 0.828885 0.776994 0.383784
O O6 0.738633 0.825135 0.167624
O O7 0.000000 0.000000 0.500000
O O8 0.738689 0.456354 0.729670
O O9 0.668985 0.604215 0.823056
O O10 0.500000 0.500000 0.000000
O O11 0.904407 0.640256 0.107915
O O12 0.696452 0.281416 0.388510
O O13 0.595331 0.406973 0.392584
O O14 0.000000 0.500000 0.500000
O O15 0.724626 0.573341 0.341681
O O16 0.105795 0.767269 0.493485
O O17 0.434481 0.783901 0.360350
O O18 0.627519 0.363358 0.041807
#
# Coordination Sequence:
#
# PCOD9097474 Si02
#       8
#     2   2   2   2   2   2   2   2
#     4  10  20  36  60  95 125 165 220 278 321 378
#     4  12  20  36  62  97 128 160 221 283 324 378
#     4  10  23  42  64  91 127 171 221 269 320 387
#     4  12  26  41  61  95 138 179 209 262 338 401
#     4  11  21  37  64  97 125 165 220 270 324 389
#     4  11  21  39  62  94 130 170 219 267 326 390
#     4  11  24  41  60  93 133 174 211 264 333 400
#     4  11  22  39  66  96 128 168 223 278 329 383
#
# _framework density 22.562007999999999
#
# number of rings (size 3 to 8) (size 9 to 14) (size 15 to 20)
#    0.000    1.000    7.500    1.875    3.500    1.000 
#    0.000    0.625    0.000    0.750    0.000    0.000 
#    0.000    0.000    0.000    0.000    0.000    0.000 
#
# Total GULP energy -89336.556258 kJ/mol
# GULP energy per Si atom -5583.534766 kJ/mol
# Density = 2.251066 g / cm^3
# Si number density = 22.562008 Si / 1000 Ang^3
#
#
#
# Elastic Constant Matrix: (Units=GPa)
#
#
# Indices 1 2 3 4 5 6 
#
# 1 115.8983 50.0750 12.1140 8.0605 -11.6011 -15.2301
# 2 50.0750 156.1975 22.6459 32.6231 -10.9780 -35.4049
# 3 12.1140 22.6459 48.0974 4.3444 -11.0730 -6.4923
# 4 8.0605 32.6231 4.3444 29.6762 -14.8741 -2.6606
# 5 -11.6011 -10.9780 -11.0730 -14.8741 24.2367 4.0609
# 6 -15.2301 -35.4049 -6.4923 -2.6606 4.0609 46.1478
#
#
#
# Elastic Compliance Matrix: (Units=1/GPa)
#
#
# Indices 1 2 3 4 5 6 
#
# 1 0.010615 -0.003854 0.000180 0.004394 0.006065 0.000291
# 2 -0.003854 0.012885 -0.004767 -0.016561 -0.009663 0.007839
# 3 0.000180 -0.004767 0.025586 0.009042 0.015304 -0.000824
# 4 0.004394 -0.016561 0.009042 0.070327 0.043528 -0.009759
# 5 0.006065 -0.009663 0.015304 0.043528 0.074718 -0.007324
# 6 0.000291 0.007839 -0.000824 -0.009759 -0.007324 0.027745
#
#
# Mechanical properties :
#
#
# Convention : Reuss Voigt Hill
#
# Bulk Modulus (GPa) = 31.05305 54.42922 42.74114
# Shear Modulus (GPa) = 20.04066 35.70269 27.87167
#
# Velocity S-wave (km/s) = 2.98358 3.98229 3.51855
# Velocity P-wave (km/s) = 5.06580 6.73212 5.95751
#
# Compressibility (1/GPa) = 0.03220295
#
# Stress axis : x y z
#
# Youngs Moduli (GPa) = 94.21067 77.60732 39.08462
#
# Poissons Ratio (x) = 0.29913 -0.00704
# Poissons Ratio (y) = 0.36313 0.18631
# Poissons Ratio (z) = -0.01696 0.36994
#
# Static dielectric constant tensor:
#      x y z
#    x 1.880890 -0.002920 0.000110 
#    y -0.002920 1.915010 -0.024260 
#    z 0.000110 -0.024260 1.870150 
# 
# From -- ./inp_files/215493.got.cif
#   From: 2010.05.17/outbox.cif.g08.bks.cpg/sg2_108_cif.got.tgz:215493.got - 2010.06.03 11:33:40.
