data_PCOD9097636
_publ_section_title
;
Structure prediction by ZEFSAII (Michael W. Deem and Ramdas Pophale) SiO2 
 PCOD9097636
Probable space group: P -1
;
_chemical_formula_sum "Si O2"
_cell_formula_units_Z 16
_cell_length_a 18.729245
_cell_length_b 18.436127
_cell_length_c 8.119736
_cell_angle_alpha 141.399395
_cell_angle_beta 47.155873
_cell_angle_gamma 157.569731
_cell_volume 656.757947
_symmetry_space_group_name_H-M "P -1"
_symmetry_group_IT_number 2
_symmetry_cell_setting 'triclinic'
loop_
_space_group_symop_operation_xyz
x,y,z
-x,-y,-z
loop_
_atom_site_type_symbol
_atom_site_label
_atom_site_fract_x
_atom_site_fract_y
_atom_site_fract_z
Si Si1 0.223634 0.032351 0.415810
Si Si2 0.903988 0.446209 0.323501
Si Si3 0.106001 0.451913 0.814286
Si Si4 0.596972 0.426833 0.386638
Si Si5 0.512862 0.702669 0.017779
Si Si6 0.831726 0.885126 0.956034
Si Si7 0.879324 0.814682 0.214598
Si Si8 0.208803 0.860501 0.821129
O O1 0.447014 0.236543 0.422942
O O2 0.209387 0.156916 0.672404
O O3 0.081268 0.822939 0.392076
O O4 0.162399 0.912993 0.123297
O O5 0.828740 0.444707 0.286996
O O6 0.757859 0.217726 0.251822
O O7 0.028808 0.644994 0.609804
O O8 0.043958 0.498105 0.102110
O O9 0.267710 0.542460 0.808520
O O10 0.486166 0.354463 0.268868
O O11 0.727274 0.664196 0.659790
O O12 0.651841 0.786389 0.082929
O O13 0.294053 0.452222 0.961534
O O14 0.615300 0.926898 0.197488
O O15 0.960888 0.078781 0.959547
O O16 0.000000 0.000000 0.000000
O O17 0.000000 0.000000 0.500000
#
# Coordination Sequence:
#
# PCOD9097636 Si02
#       8
#     2   2   2   2   2   2   2   2
#     4  10  20  36  61  91 121 167 208 255 308 384
#     4   9  20  41  63  92 125 166 215 276 320 372
#     4  10  20  39  68  90 123 170 212 259 328 377
#     4  11  21  40  64  93 128 170 214 255 316 393
#     4  11  23  41  66  95 133 174 215 258 316 392
#     4  12  26  40  62  98 135 173 210 263 319 379
#     4  12  21  39  66  91 129 178 215 246 314 398
#     4   9  20  37  64  90 123 165 208 267 323 361
#
# _framework density 24.362096000000001
#
# number of rings (size 3 to 8) (size 9 to 14) (size 15 to 20)
#    0.000    1.500    3.750    1.875    1.750    1.500 
#    2.250   12.500    0.000    3.000    0.000    0.000 
#    0.000    0.000    0.000    0.000    0.000    0.000 
#
# Total GULP energy -89183.063345 kJ/mol
# GULP energy per Si atom -5573.941459 kJ/mol
# Density = 2.430665 g / cm^3
# Si number density = 24.362096 Si / 1000 Ang^3
#
#
#
# Elastic Constant Matrix: (Units=GPa)
#
#
# Indices 1 2 3 4 5 6 
#
# 1 102.7906 25.5983 17.4026 18.6918 2.4246 -8.9100
# 2 25.5983 115.5483 20.7923 22.3313 -3.6125 1.7910
# 3 17.4026 20.7923 62.9514 21.0393 -2.3719 -6.0557
# 4 18.6918 22.3313 21.0393 32.5249 -0.6055 -2.9106
# 5 2.4246 -3.6125 -2.3719 -0.6055 32.5594 7.9572
# 6 -8.9100 1.7910 -6.0557 -2.9106 7.9572 30.4633
#
#
#
# Elastic Compliance Matrix: (Units=1/GPa)
#
#
# Indices 1 2 3 4 5 6 
#
# 1 0.011457 -0.001598 -0.000824 -0.004691 -0.001998 0.003355
# 2 -0.001598 0.010403 -0.001295 -0.005562 0.001636 -0.002295
# 3 -0.000824 -0.001295 0.020772 -0.011823 0.000554 0.002690
# 4 -0.004691 -0.005562 -0.011823 0.044992 -0.000548 0.001046
# 5 -0.001998 0.001636 0.000554 -0.000548 0.033355 -0.009335
# 6 0.003355 -0.002295 0.002690 0.001046 -0.009335 0.037016
#
#
# Mechanical properties :
#
#
# Convention : Reuss Voigt Hill
#
# Bulk Modulus (GPa) = 28.41026 45.43077 36.92051
# Shear Modulus (GPa) = 28.22313 33.60933 30.91623
#
# Velocity S-wave (km/s) = 3.40735 3.71829 3.56621
# Velocity P-wave (km/s) = 5.21220 6.09285 5.66965
#
# Compressibility (1/GPa) = 0.03519855
#
# Stress axis : x y z
#
# Youngs Moduli (GPa) = 87.28400 96.12678 48.14223
#
# Poissons Ratio (x) = 0.15358 0.03968
# Poissons Ratio (y) = 0.13945 0.06232
# Poissons Ratio (z) = 0.07194 0.12445
#
# Static dielectric constant tensor:
#      x y z
#    x 2.033110 -0.099470 0.056630 
#    y -0.099470 2.008090 -0.062390 
#    z 0.056630 -0.062390 1.988480 
# 
# From -- ./inp_files/349593.got.cif
#   From: 2010.05.17/outbox.cif.g08.bks.cpg/sg2_175_cif.got.tgz:349593.got - 2010.06.03 11:33:40.
