data_PCOD9097429
_publ_section_title
;
Structure prediction by ZEFSAII (Michael W. Deem and Ramdas Pophale) SiO2 
 PCOD9097429
Probable space group: P -1
;
_chemical_formula_sum "Si O2"
_cell_formula_units_Z 14
_cell_length_a 11.974219
_cell_length_b 11.992122
_cell_length_c 16.065178
_cell_angle_alpha 32.541664
_cell_angle_beta 25.765145
_cell_angle_gamma 38.181078
_cell_volume 535.830142
_symmetry_space_group_name_H-M "P -1"
_symmetry_group_IT_number 2
_symmetry_cell_setting 'triclinic'
loop_
_space_group_symop_operation_xyz
x,y,z
-x,-y,-z
loop_
_atom_site_type_symbol
_atom_site_label
_atom_site_fract_x
_atom_site_fract_y
_atom_site_fract_z
Si Si1 0.352676 0.288079 0.846908
Si Si2 0.101515 0.986388 0.309558
Si Si3 0.814892 0.765755 0.751210
Si Si4 0.342446 0.072572 0.832839
Si Si5 0.567906 0.372632 0.157892
Si Si6 0.540612 0.688234 0.550543
Si Si7 0.132450 0.694076 0.169745
O O1 0.321811 0.278679 0.774089
O O2 0.380906 0.505740 0.736509
O O3 0.623157 0.152812 0.776106
O O4 0.133189 0.145366 0.114418
O O5 0.026484 0.147160 0.335479
O O6 0.913786 0.812271 0.563624
O O7 0.539077 0.902432 0.855449
O O8 0.773837 0.532548 0.941262
O O9 0.471529 0.131769 0.623124
O O10 0.103981 0.935336 0.069716
O O11 0.534562 0.252419 0.341440
O O12 0.300690 0.520694 0.222449
O O13 0.688464 0.285352 0.045297
O O14 0.852356 0.625842 0.383131
#
# Coordination Sequence:
#
# PCOD9097429 Si02
#       7
#     2   2   2   2   2   2   2
#     4  10  20  36  60  92 116 151 202 243 290 354
#     4   9  17  32  61  84 114 154 193 245 294 333
#     4   9  17  36  57  85 117 149 196 248 284 343
#     4  10  23  40  56  88 127 153 193 238 299 362
#     4  10  21  40  63  90 114 150 211 246 285 348
#     4  12  22  40  64  87 122 161 190 245 300 350
#     4  10  23  42  61  86 120 156 201 247 288 350
#
# _framework density 26.127682
#
# number of rings (size 3 to 8) (size 9 to 14) (size 15 to 20)
#    0.000    2.000    1.429    2.143    2.000    0.571 
#   10.286    0.714    0.000    0.000    0.000    0.000 
#    0.000    0.000    0.000    0.000    0.000    0.000 
#
# Total GULP energy -78082.917003 kJ/mol
# GULP energy per Si atom -5577.351215 kJ/mol
# Density = 2.606821 g / cm^3
# Si number density = 26.127682 Si / 1000 Ang^3
#
#
#
# Elastic Constant Matrix: (Units=GPa)
#
#
# Indices 1 2 3 4 5 6 
#
# 1 77.8075 23.6256 17.5076 2.9998 21.8858 6.1325
# 2 23.6256 54.6728 6.1426 -6.4551 -7.4137 6.0963
# 3 17.5076 6.1426 88.0280 4.7022 23.7134 12.2627
# 4 2.9998 -6.4551 4.7022 27.8095 5.2997 -10.2404
# 5 21.8858 -7.4137 23.7134 5.2997 37.8233 8.7752
# 6 6.1325 6.0963 12.2627 -10.2404 8.7752 32.3431
#
#
#
# Elastic Compliance Matrix: (Units=1/GPa)
#
#
# Indices 1 2 3 4 5 6 
#
# 1 0.019991 -0.010952 0.000478 -0.001560 -0.014127 0.001432
# 2 -0.010952 0.026131 -0.002949 0.003498 0.013833 -0.004377
# 3 0.000478 -0.002949 0.014461 -0.002832 -0.008699 -0.003554
# 4 -0.001560 0.003498 -0.002832 0.044894 -0.006819 0.016775
# 5 -0.014127 0.013833 -0.008699 -0.006819 0.046372 -0.011371
# 6 0.001432 -0.004377 -0.003554 0.016775 -0.011371 0.041216
#
#
# Mechanical properties :
#
#
# Convention : Reuss Voigt Hill
#
# Bulk Modulus (GPa) = 29.64093 35.00666 32.32379
# Shear Modulus (GPa) = 21.63031 31.14401 26.38716
#
# Velocity S-wave (km/s) = 2.88039 3.45627 3.18139
# Velocity P-wave (km/s) = 4.73619 5.41804 5.08855
#
# Compressibility (1/GPa) = 0.03373714
#
# Stress axis : x y z
#
# Youngs Moduli (GPa) = 50.02182 38.26821 69.15368
#
# Poissons Ratio (x) = 0.41911 -0.03304
# Poissons Ratio (y) = 0.54784 0.20392
# Poissons Ratio (z) = -0.02390 0.11285
#
# Static dielectric constant tensor:
#      x y z
#    x 2.164720 0.054030 -0.035910 
#    y 0.054030 2.112490 0.016590 
#    z -0.035910 0.016590 2.103620 
# 
# From -- ./inp_files/179712.got.cif
#   From: 2010.05.17/outbox.cif.g08.bks.cpg/sg2_90_cif.got.tgz:179712.got - 2010.06.03 11:33:40.
