data_PCOD9097094
_publ_section_title
;
Structure prediction by ZEFSAII (Michael W. Deem and Ramdas Pophale) SiO2 
 PCOD9097094
Probable space group: P -1
;
_chemical_formula_sum "Si O2"
_cell_formula_units_Z 14
_cell_length_a 17.528583
_cell_length_b 9.226756
_cell_length_c 5.345762
_cell_angle_alpha 61.825790
_cell_angle_beta 47.180903
_cell_angle_gamma 57.687464
_cell_volume 527.642976
_symmetry_space_group_name_H-M "P -1"
_symmetry_group_IT_number 2
_symmetry_cell_setting 'triclinic'
loop_
_space_group_symop_operation_xyz
x,y,z
-x,-y,-z
loop_
_atom_site_type_symbol
_atom_site_label
_atom_site_fract_x
_atom_site_fract_y
_atom_site_fract_z
Si Si1 0.527168 0.671268 0.717991
Si Si2 0.212557 0.522612 0.256108
Si Si3 0.528832 0.794531 0.102087
Si Si4 0.117824 0.025321 0.273151
Si Si5 0.109908 0.717721 0.815551
Si Si6 0.908753 0.691468 0.504025
Si Si7 0.674115 0.207383 0.215361
O O1 0.584565 0.682313 0.314281
O O2 0.408856 0.815158 0.797454
O O3 0.500000 0.500000 0.000000
O O4 0.587773 0.726125 0.766428
O O5 0.140493 0.587931 0.616466
O O6 0.195362 0.340708 0.367659
O O7 0.163184 0.633695 0.023874
O O8 0.306646 0.610120 0.023126
O O9 0.408752 0.768149 0.388097
O O10 0.500000 0.000000 0.000000
O O11 0.112442 0.202287 0.277517
O O12 0.155641 0.873350 0.525667
O O13 0.000000 0.000000 0.500000
O O14 0.212857 0.949573 0.918875
O O15 0.978186 0.777532 0.101627
O O16 0.000000 0.500000 0.500000
#
# Coordination Sequence:
#
# PCOD9097094 Si02
#       7
#     2   2   2   2   2   2   2
#     4  10  22  43  75 101 137 174 223 280 357 411
#     4  10  21  38  61  89 125 166 215 279 329 383
#     4  10  22  43  75 102 139 173 224 286 351 414
#     4  11  22  41  64  94 131 187 222 271 328 396
#     4  10  21  38  60  83 124 175 224 266 326 381
#     4  10  20  36  59  86 125 172 226 275 318 373
#     4   9  24  39  70  97 137 175 228 269 341 413
#
# _framework density 26.533093999999998
#
# number of rings (size 3 to 8) (size 9 to 14) (size 15 to 20)
#    0.857    1.143    0.000    5.143    4.000    1.143 
#    0.000    2.857    0.000    0.000    0.000    0.000 
#    0.000    0.000    0.000    0.000    0.000    0.000 
#
# Total GULP energy -78062.270763 kJ/mol
# GULP energy per Si atom -5575.876483 kJ/mol
# Density = 2.647270 g / cm^3
# Si number density = 26.533094 Si / 1000 Ang^3
#
#
#
# Elastic Constant Matrix: (Units=GPa)
#
#
# Indices 1 2 3 4 5 6 
#
# 1 90.4465 17.5973 23.8882 13.5249 6.1091 18.0022
# 2 17.5973 136.0085 6.8046 13.7429 11.6284 20.5821
# 3 23.8882 6.8046 90.2017 6.7295 11.8987 6.3647
# 4 13.5249 13.7429 6.7295 42.9575 7.3355 7.1585
# 5 6.1091 11.6284 11.8987 7.3355 63.2235 7.4220
# 6 18.0022 20.5821 6.3647 7.1585 7.4220 42.9709
#
#
#
# Elastic Compliance Matrix: (Units=1/GPa)
#
#
# Indices 1 2 3 4 5 6 
#
# 1 0.013240 -0.000639 -0.002971 -0.002810 0.000237 -0.004373
# 2 -0.000639 0.008169 0.000023 -0.001733 -0.000867 -0.003210
# 3 -0.002971 0.000023 0.012181 -0.000630 -0.001921 -0.000134
# 4 -0.002810 -0.001733 -0.000630 0.025462 -0.002035 -0.001790
# 5 0.000237 -0.000867 -0.001921 -0.002035 0.016781 -0.001959
# 6 -0.004373 -0.003210 -0.000134 -0.001790 -0.001959 0.027298
#
#
# Mechanical properties :
#
#
# Convention : Reuss Voigt Hill
#
# Bulk Modulus (GPa) = 37.85521 45.91522 41.88522
# Shear Modulus (GPa) = 41.97780 47.72150 44.84965
#
# Velocity S-wave (km/s) = 3.98187 4.24555 4.11582
# Velocity P-wave (km/s) = 5.95302 6.43237 6.19733
#
# Compressibility (1/GPa) = 0.02641644
#
# Stress axis : x y z
#
# Youngs Moduli (GPa) = 75.52871 122.41393 82.09375
#
# Poissons Ratio (x) = 0.07820 0.24391
# Poissons Ratio (y) = 0.04825 -0.00190
# Poissons Ratio (z) = 0.22441 -0.00283
#
# Static dielectric constant tensor:
#      x y z
#    x 2.402320 -0.093600 0.060470 
#    y -0.093600 2.159500 -0.040630 
#    z 0.060470 -0.040630 2.251310 
# 
# From -- ./inp_files/115038.got.cif
#   From: 2010.05.17/outbox.cif.g08.bks.cpg/sg2_58_cif.got.tgz:115038.got - 2010.06.03 11:33:40.
