data_PCOD9097206
_publ_section_title
;
Structure prediction by ZEFSAII (Michael W. Deem and Ramdas Pophale) SiO2 
 PCOD9097206
Probable space group: P -1
;
_chemical_formula_sum "Si O2"
_cell_formula_units_Z 16
_cell_length_a 9.816690
_cell_length_b 12.682879
_cell_length_c 10.043234
_cell_angle_alpha 102.242545
_cell_angle_beta 100.916823
_cell_angle_gamma 32.937867
_cell_volume 664.275834
_symmetry_space_group_name_H-M "P -1"
_symmetry_group_IT_number 2
_symmetry_cell_setting 'triclinic'
loop_
_space_group_symop_operation_xyz
x,y,z
-x,-y,-z
loop_
_atom_site_type_symbol
_atom_site_label
_atom_site_fract_x
_atom_site_fract_y
_atom_site_fract_z
Si Si1 0.299680 0.914120 0.859748
Si Si2 0.266915 0.352705 0.949341
Si Si3 0.907087 0.021100 0.675164
Si Si4 0.001126 0.624788 0.398439
Si Si5 0.057752 0.587881 0.714447
Si Si6 0.116439 0.119997 0.153206
Si Si7 0.451066 0.022519 0.755091
Si Si8 0.764850 0.312219 0.567954
O O1 0.144703 0.921906 0.764167
O O2 0.372037 0.959503 0.779766
O O3 0.547955 0.715542 0.928023
O O4 0.138011 0.073091 0.993539
O O5 0.232529 0.440650 0.833827
O O6 0.384846 0.158847 0.885213
O O7 0.000000 0.500000 0.000000
O O8 0.012074 0.875926 0.539595
O O9 0.772970 0.037909 0.768540
O O10 0.751395 0.221786 0.643860
O O11 0.059675 0.465871 0.323653
O O12 0.705501 0.842628 0.368074
O O13 0.074947 0.584361 0.555107
O O14 0.142619 0.630394 0.350216
O O15 0.135515 0.673229 0.780084
O O16 0.242523 0.159004 0.230990
O O17 0.500000 0.500000 0.500000
#
# Coordination Sequence:
#
# PCOD9097206 Si02
#       8
#     2   2   2   2   2   2   2   2
#     4  11  22  41  67  95 134 182 217 270 338 404
#     4  10  20  36  59  93 130 167 215 274 325 390
#     4  11  25  46  68  98 139 179 227 272 339 403
#     4  10  21  42  62  95 127 167 227 283 324 398
#     4  10  21  37  64  91 131 161 216 279 334 380
#     4  11  22  41  64 100 136 172 216 281 334 402
#     4  10  21  37  65  92 125 170 222 268 335 386
#     4  11  25  46  70  94 135 183 227 278 331 405
#
# _framework density 24.086379000000001
#
# number of rings (size 3 to 8) (size 9 to 14) (size 15 to 20)
#    0.000    1.500    2.500    3.375    0.000    7.500 
#    2.250    0.625    0.000    0.000    0.000    0.000 
#    0.000    0.000    0.000    0.000    0.000    0.000 
#
# Total GULP energy -89122.706515 kJ/mol
# GULP energy per Si atom -5570.169157 kJ/mol
# Density = 2.403156 g / cm^3
# Si number density = 24.086379 Si / 1000 Ang^3
#
#
#
# Elastic Constant Matrix: (Units=GPa)
#
#
# Indices 1 2 3 4 5 6 
#
# 1 89.9282 38.8480 18.4023 -7.3967 -0.9781 37.1610
# 2 38.8480 121.6167 34.7048 -18.9969 -4.6659 15.1323
# 3 18.4023 34.7048 69.0392 -13.7156 -0.1530 9.0688
# 4 -7.3967 -18.9969 -13.7156 42.5221 -1.0705 3.1877
# 5 -0.9781 -4.6659 -0.1530 -1.0705 33.4989 -8.9056
# 6 37.1610 15.1323 9.0688 3.1877 -8.9056 43.9446
#
#
#
# Elastic Compliance Matrix: (Units=1/GPa)
#
#
# Indices 1 2 3 4 5 6 
#
# 1 0.019867 -0.003864 -0.000690 0.002628 -0.004231 -0.016376
# 2 -0.003864 0.011078 -0.003989 0.003002 0.001610 0.000384
# 3 -0.000690 -0.003989 0.017746 0.003962 -0.000949 -0.002185
# 4 0.002628 0.003002 0.003962 0.027043 -0.000240 -0.006084
# 5 -0.004231 0.001610 -0.000949 -0.000240 0.032555 0.009834
# 6 -0.016376 0.000384 -0.002185 -0.006084 0.009834 0.039357
#
#
# Mechanical properties :
#
#
# Convention : Reuss Voigt Hill
#
# Bulk Modulus (GPa) = 31.63977 51.61049 41.62513
# Shear Modulus (GPa) = 28.52807 36.56839 32.54823
#
# Velocity S-wave (km/s) = 3.44525 3.90066 3.68001
# Velocity P-wave (km/s) = 5.38432 6.46225 5.94775
#
# Compressibility (1/GPa) = 0.03160579
#
# Stress axis : x y z
#
# Youngs Moduli (GPa) = 50.33419 90.26901 56.35182
#
# Poissons Ratio (x) = 0.34876 0.03886
# Poissons Ratio (y) = 0.19447 0.22481
# Poissons Ratio (z) = 0.03471 0.36012
#
# Static dielectric constant tensor:
#      x y z
#    x 2.159900 -0.049890 -0.007720 
#    y -0.049890 2.003250 0.020980 
#    z -0.007720 0.020980 1.899500 
# 
# From -- ./inp_files/390441.got.cif
#   From: 2010.05.17/outbox.cif.g08.bks.cpg/sg2_196_cif.got.tgz:390441.got - 2010.06.03 11:33:40.
