data_PCOD9097924
_publ_section_title
;
Structure prediction by ZEFSAII (Michael W. Deem and Ramdas Pophale) SiO2 
 PCOD9097924
Probable space group: P -1
;
_chemical_formula_sum "Si O2"
_cell_formula_units_Z 14
_cell_length_a 27.215145
_cell_length_b 9.700511
_cell_length_c 13.418175
_cell_angle_alpha 34.366361
_cell_angle_beta 158.985385
_cell_angle_gamma 144.341954
_cell_volume 701.499159
_symmetry_space_group_name_H-M "P -1"
_symmetry_group_IT_number 2
_symmetry_cell_setting 'triclinic'
loop_
_space_group_symop_operation_xyz
x,y,z
-x,-y,-z
loop_
_atom_site_type_symbol
_atom_site_label
_atom_site_fract_x
_atom_site_fract_y
_atom_site_fract_z
Si Si1 0.078998 0.422680 0.422019
Si Si2 0.597669 0.044918 0.806222
Si Si3 0.369956 0.754248 0.836805
Si Si4 0.425818 0.588464 0.636591
Si Si5 0.484034 0.756956 0.262456
Si Si6 0.099667 0.388163 0.176626
Si Si7 0.091564 0.986502 0.546399
O O1 0.230176 0.592354 0.621833
O O2 0.026421 0.259931 0.516592
O O3 0.075532 0.206442 0.461781
O O4 0.969321 0.580118 0.079124
O O5 0.565955 0.249890 0.546051
O O6 0.552114 0.090409 0.803212
O O7 0.519353 0.774346 0.780963
O O8 0.762952 0.072559 0.108213
O O9 0.389398 0.045498 0.669388
O O10 0.500830 0.642090 0.109881
O O11 0.374216 0.715867 0.987445
O O12 0.264150 0.519632 0.407355
O O13 0.500000 0.500000 0.500000
O O14 0.094456 0.108927 0.370866
O O15 0.000000 0.500000 0.000000
#
# Coordination Sequence:
#
# PCOD9097924 Si02
#       7
#     2   2   2   2   2   2   2
#     4  10  21  39  60  95 132 162 208 262 320 381
#     4  11  22  38  68  97 131 165 217 274 315 377
#     4  11  24  43  69  94 129 174 217 261 323 384
#     4  11  22  39  68 101 124 168 219 264 327 380
#     4  11  25  43  63  94 133 171 218 267 316 379
#     4  10  22  35  58  95 132 160 203 260 326 380
#     4  10  20  36  62  93 133 162 201 269 324 372
#
# _framework density 19.957259000000001
#
# number of rings (size 3 to 8) (size 9 to 14) (size 15 to 20)
#    0.000    1.429    4.286    0.857    4.000    2.286 
#    0.000    0.714    0.000    8.571    0.000    0.000 
#    0.000    0.000    0.000    0.000    0.000    0.000 
#
# Total GULP energy -78031.802790 kJ/mol
# GULP energy per Si atom -5573.700199 kJ/mol
# Density = 1.991184 g / cm^3
# Si number density = 19.957259 Si / 1000 Ang^3
#
#
#
# Elastic Constant Matrix: (Units=GPa)
#
#
# Indices 1 2 3 4 5 6 
#
# 1 68.1429 29.4094 17.7643 -1.7370 -13.1229 7.8480
# 2 29.4094 95.6607 50.6268 -5.1714 -9.2201 27.5530
# 3 17.7643 50.6268 84.7749 -8.0527 16.9106 18.6284
# 4 -1.7370 -5.1714 -8.0527 30.6964 6.6689 -5.4930
# 5 -13.1229 -9.2201 16.9106 6.6689 63.7055 11.6116
# 6 7.8480 27.5530 18.6284 -5.4930 11.6116 37.0370
#
#
#
# Elastic Compliance Matrix: (Units=1/GPa)
#
#
# Indices 1 2 3 4 5 6 
#
# 1 0.017709 -0.003481 -0.002254 -0.001355 0.004164 -0.001536
# 2 -0.003481 0.021944 -0.011528 -0.003628 0.008253 -0.012914
# 3 -0.002254 -0.011528 0.020968 0.005685 -0.008671 0.002069
# 4 -0.001355 -0.003628 0.005685 0.036439 -0.007569 0.007904
# 5 0.004164 0.008253 -0.008671 -0.007569 0.022838 -0.010943
# 6 -0.001536 -0.012914 0.002069 0.007904 -0.010943 0.040495
#
#
# Mechanical properties :
#
#
# Convention : Reuss Voigt Hill
#
# Bulk Modulus (GPa) = 38.32287 49.35330 43.83808
# Shear Modulus (GPa) = 24.55570 36.33965 30.44768
#
# Velocity S-wave (km/s) = 3.51153 4.27180 3.91019
# Velocity P-wave (km/s) = 5.97372 7.00815 6.51151
#
# Compressibility (1/GPa) = 0.02609408
#
# Stress axis : x y z
#
# Youngs Moduli (GPa) = 56.46746 45.57050 47.69209
#
# Poissons Ratio (x) = 0.15864 0.10750
# Poissons Ratio (y) = 0.19657 0.54981
# Poissons Ratio (z) = 0.12728 0.52536
#
# Static dielectric constant tensor:
#      x y z
#    x 1.670040 0.035900 -0.093910 
#    y 0.035900 1.715790 -0.037710 
#    z -0.093910 -0.037710 1.631360 
# 
# From -- ./inp_files/222672.got.cif
#   From: 2010.05.17/outbox.cif.g08.bks.cpg/sg2_112_cif.got.tgz:222672.got - 2010.06.03 11:33:40.
