data_PCOD9097018
_publ_section_title
;
Structure prediction by ZEFSAII (Michael W. Deem and Ramdas Pophale) SiO2 
 PCOD9097018
Probable space group: P -1
;
_chemical_formula_sum "Si O2"
_cell_formula_units_Z 16
_cell_length_a 9.139807
_cell_length_b 10.501648
_cell_length_c 11.627090
_cell_angle_alpha 122.113272
_cell_angle_beta 111.887416
_cell_angle_gamma 44.186624
_cell_volume 658.772732
_symmetry_space_group_name_H-M "P -1"
_symmetry_group_IT_number 2
_symmetry_cell_setting 'triclinic'
loop_
_space_group_symop_operation_xyz
x,y,z
-x,-y,-z
loop_
_atom_site_type_symbol
_atom_site_label
_atom_site_fract_x
_atom_site_fract_y
_atom_site_fract_z
Si Si1 0.403546 0.458721 0.772014
Si Si2 0.939957 0.893212 0.855576
Si Si3 0.616755 0.564737 0.501478
Si Si4 0.992916 0.879715 0.609185
Si Si5 0.726251 0.508340 0.870242
Si Si6 0.791791 0.633840 0.173529
Si Si7 0.254152 0.279974 0.213198
Si Si8 0.885618 0.893873 0.327030
O O1 0.165147 0.668769 0.803985
O O2 0.463979 0.368167 0.618883
O O3 0.547305 0.510992 0.864281
O O4 0.394552 0.328043 0.794955
O O5 0.879197 0.965435 0.739518
O O6 0.776187 0.879501 0.858791
O O7 0.000000 0.000000 0.000000
O O8 0.500000 0.500000 0.500000
O O9 0.856170 0.358524 0.459809
O O10 0.625545 0.713030 0.645111
O O11 0.875356 0.938505 0.480893
O O12 0.139325 0.935933 0.666654
O O13 0.655407 0.695492 0.862660
O O14 0.881432 0.308919 0.742380
O O15 0.837287 0.506669 0.013254
O O16 0.009377 0.491871 0.240655
O O17 0.749692 0.833651 0.229221
#
# Coordination Sequence:
#
# PCOD9097018 Si02
#       8
#     2   2   2   2   2   2   2   2
#     4  10  22  36  60  86 114 151 193 232 292 330
#     4  10  24  38  57  85 119 149 191 238 285 341
#     4  11  19  38  62  86 116 145 195 244 278 340
#     4  10  21  35  58  83 113 150 185 231 289 334
#     4  11  20  38  60  86 114 151 191 239 285 338
#     4  10  21  34  59  85 114 151 194 236 273 347
#     4  10  20  36  62  85 108 152 196 231 288 334
#     4  10  20  36  59  83 112 147 193 230 282 342
#
# _framework density 24.287586999999998
#
# number of rings (size 3 to 8) (size 9 to 14) (size 15 to 20)
#    0.000    1.750    3.750    1.875    7.000    1.500 
#    0.000    1.875    0.000    2.250    0.000    0.000 
#    0.000    0.000    0.000    0.000    0.000    0.000 
#
# Total GULP energy -89372.160451 kJ/mol
# GULP energy per Si atom -5585.760028 kJ/mol
# Density = 2.423231 g / cm^3
# Si number density = 24.287587 Si / 1000 Ang^3
#
#
#
# Elastic Constant Matrix: (Units=GPa)
#
#
# Indices 1 2 3 4 5 6 
#
# 1 125.5599 -4.8044 13.9227 -4.4944 29.9105 22.5592
# 2 -4.8044 19.5450 -4.2428 7.1268 0.8427 3.9826
# 3 13.9227 -4.2428 107.5372 -10.5563 22.9986 2.0257
# 4 -4.4944 7.1268 -10.5563 14.1043 5.7172 1.0075
# 5 29.9105 0.8427 22.9986 5.7172 40.5518 8.4978
# 6 22.5592 3.9826 2.0257 1.0075 8.4978 37.0605
#
#
#
# Elastic Compliance Matrix: (Units=1/GPa)
#
#
# Indices 1 2 3 4 5 6 
#
# 1 0.011284 0.001652 0.001452 0.007954 -0.009206 -0.005231
# 2 0.001652 0.065610 -0.002145 -0.035836 0.005406 -0.008204
# 3 0.001452 -0.002145 0.012784 0.015356 -0.010580 0.000656
# 4 0.007954 -0.035836 0.015356 0.115256 -0.030506 0.002032
# 5 -0.009206 0.005406 -0.010580 -0.030506 0.042325 -0.003274
# 6 -0.005231 -0.008204 0.000656 0.002032 -0.003274 0.031708
#
#
# Mechanical properties :
#
#
# Convention : Reuss Voigt Hill
#
# Bulk Modulus (GPa) = 10.91734 29.15479 20.03607
# Shear Modulus (GPa) = 16.25582 34.86108 25.55845
#
# Velocity S-wave (km/s) = 2.58990 3.79271 3.24748
# Velocity P-wave (km/s) = 3.66718 5.58655 4.72535
#
# Compressibility (1/GPa) = 0.09159741
#
# Stress axis : x y z
#
# Youngs Moduli (GPa) = 88.62027 15.24150 78.22187
#
# Poissons Ratio (x) = -0.02517 -0.11361
# Poissons Ratio (y) = -0.14638 0.16777
# Poissons Ratio (z) = -0.12871 0.03269
#
# Static dielectric constant tensor:
#      x y z
#    x 1.962180 0.003430 -0.021750 
#    y 0.003430 2.014460 0.004100 
#    z -0.021750 0.004100 1.904440 
# 
# From -- ./inp_files/256692.got.cif
#   From: 2010.05.17/outbox.cif.g08.bks.cpg/sg2_129_cif.got.tgz:256692.got - 2010.06.03 11:33:40.
