data_PCOD9097313
_publ_section_title
;
Structure prediction by ZEFSAII (Michael W. Deem and Ramdas Pophale) SiO2 
 PCOD9097313
Probable space group: P -1
;
_chemical_formula_sum "Si O2"
_cell_formula_units_Z 16
_cell_length_a 8.326977
_cell_length_b 30.376325
_cell_length_c 14.500503
_cell_angle_alpha 18.552059
_cell_angle_beta 40.641246
_cell_angle_gamma 32.453048
_cell_volume 607.718322
_symmetry_space_group_name_H-M "P -1"
_symmetry_group_IT_number 2
_symmetry_cell_setting 'triclinic'
loop_
_space_group_symop_operation_xyz
x,y,z
-x,-y,-z
loop_
_atom_site_type_symbol
_atom_site_label
_atom_site_fract_x
_atom_site_fract_y
_atom_site_fract_z
Si Si1 0.622766 0.464473 0.294299
Si Si2 0.793998 0.391895 0.167474
Si Si3 0.510727 0.226830 0.904088
Si Si4 0.387738 0.714343 0.061923
Si Si5 0.481529 0.098325 0.489575
Si Si6 0.029022 0.499153 0.297403
Si Si7 0.582369 0.155797 0.723350
Si Si8 0.678052 0.831695 0.385745
O O1 0.603061 0.511334 0.101708
O O2 0.563237 0.320132 0.616395
O O3 0.990094 0.353310 0.379452
O O4 0.379912 0.617998 0.165519
O O5 0.761797 0.237685 0.485387
O O6 0.153863 0.285458 0.246696
O O7 0.777639 0.471156 0.917561
O O8 0.147772 0.358429 0.830061
O O9 0.711692 0.218214 0.922058
O O10 0.558060 0.050494 0.214571
O O11 0.327114 0.884932 0.703517
O O12 0.731614 0.546571 0.277267
O O13 0.544556 0.106683 0.551856
O O14 0.244291 0.301271 0.625134
O O15 0.496487 0.151317 0.664252
O O16 0.737527 0.976198 0.062766
#
# Coordination Sequence:
#
# PCOD9097313 Si02
#       8
#     2   2   2   2   2   2   2   2
#     4  11  20  38  60  93 108 143 196 243 281 324
#     4  10  22  34  62  85 114 144 190 242 277 335
#     4  10  20  36  60  87 115 148 188 236 285 338
#     4   9  20  33  60  84 113 144 183 237 283 331
#     4  10  20  38  58  88 111 147 191 240 284 323
#     4   9  21  36  58  81 115 153 185 227 283 344
#     4  11  20  38  53  88 114 157 183 228 289 342
#     4  10  22  34  61  82 120 144 189 241 280 333
#
# _framework density 26.327988000000001
#
# number of rings (size 3 to 8) (size 9 to 14) (size 15 to 20)
#    0.750    1.250    1.250    2.625    1.750    3.500 
#    0.000    2.500    0.000    0.750    0.000    0.000 
#    0.000    0.000    0.000    0.000    0.000    0.000 
#
# Total GULP energy -89223.295059 kJ/mol
# GULP energy per Si atom -5576.455941 kJ/mol
# Density = 2.626806 g / cm^3
# Si number density = 26.327988 Si / 1000 Ang^3
#
#
#
# Elastic Constant Matrix: (Units=GPa)
#
#
# Indices 1 2 3 4 5 6 
#
# 1 59.2282 17.1749 12.3683 -0.1224 0.9291 27.5390
# 2 17.1749 106.1019 22.7216 0.1311 11.9747 21.3146
# 3 12.3683 22.7216 106.1783 -9.4673 -18.5462 11.8042
# 4 -0.1224 0.1311 -9.4673 34.0163 7.2739 -1.1623
# 5 0.9291 11.9747 -18.5462 7.2739 25.1422 -0.2605
# 6 27.5390 21.3146 11.8042 -1.1623 -0.2605 34.6053
#
#
#
# Elastic Compliance Matrix: (Units=1/GPa)
#
#
# Indices 1 2 3 4 5 6 
#
# 1 0.026982 0.000454 -0.001306 -0.000517 -0.002248 -0.021340
# 2 0.000454 0.012456 -0.003417 0.000632 -0.008724 -0.006912
# 3 -0.001306 -0.003417 0.012332 0.001180 0.010422 -0.000944
# 4 -0.000517 0.000632 0.001180 0.031569 -0.008538 0.000616
# 5 -0.002248 -0.008724 0.010422 -0.008538 0.054208 0.003729
# 6 -0.021340 -0.006912 -0.000944 0.000616 0.003729 0.050508
#
#
# Mechanical properties :
#
#
# Convention : Reuss Voigt Hill
#
# Bulk Modulus (GPa) = 23.13264 41.78201 32.45733
# Shear Modulus (GPa) = 23.69620 33.36902 28.53261
#
# Velocity S-wave (km/s) = 3.00332 3.56397 3.29559
# Velocity P-wave (km/s) = 4.56420 5.73063 5.18035
#
# Compressibility (1/GPa) = 0.04322896
#
# Stress axis : x y z
#
# Youngs Moduli (GPa) = 37.06203 80.28492 81.08922
#
# Poissons Ratio (x) = -0.03642 0.10594
# Poissons Ratio (y) = -0.01681 0.27712
# Poissons Ratio (z) = 0.04842 0.27437
#
# Static dielectric constant tensor:
#      x y z
#    x 2.195210 -0.024490 -0.023460 
#    y -0.024490 2.172460 0.046420 
#    z -0.023460 0.046420 2.063900 
# 
# From -- ./inp_files/509129.got.cif
#   From: 2010.05.17/outbox.cif.g08.bks.cpg/sg2_255_cif.got.tgz:509129.got - 2010.06.03 11:33:40.
