data_PCOD9097475
_publ_section_title
;
Structure prediction by ZEFSAII (Michael W. Deem and Ramdas Pophale) SiO2 
 PCOD9097475
Probable space group: P -1
;
_chemical_formula_sum "Si O2"
_cell_formula_units_Z 16
_cell_length_a 13.800273
_cell_length_b 17.637299
_cell_length_c 14.566687
_cell_angle_alpha 49.442582
_cell_angle_beta 20.016451
_cell_angle_gamma 40.641360
_cell_volume 758.480648
_symmetry_space_group_name_H-M "P -1"
_symmetry_group_IT_number 2
_symmetry_cell_setting 'triclinic'
loop_
_space_group_symop_operation_xyz
x,y,z
-x,-y,-z
loop_
_atom_site_type_symbol
_atom_site_label
_atom_site_fract_x
_atom_site_fract_y
_atom_site_fract_z
Si Si1 0.310839 0.121564 0.748780
Si Si2 0.432491 0.708108 0.972885
Si Si3 0.587203 0.334451 0.255191
Si Si4 0.337156 0.463871 0.931884
Si Si5 0.985750 0.985332 0.134461
Si Si6 0.427692 0.292651 0.615885
Si Si7 0.046294 0.373290 0.578144
Si Si8 0.410357 0.417958 0.698791
O O1 0.415513 0.179124 0.689655
O O2 0.602108 0.069167 0.452405
O O3 0.923049 0.234565 0.979195
O O4 0.233779 0.023023 0.923008
O O5 0.616817 0.634087 0.959959
O O6 0.130924 0.848633 0.140825
O O7 0.269720 0.638883 0.130023
O O8 0.701010 0.706730 0.666761
O O9 0.503374 0.467735 0.220385
O O10 0.659087 0.296428 0.327872
O O11 0.267228 0.334195 0.505568
O O12 0.510502 0.403232 0.727819
O O13 0.944325 0.579145 0.172568
O O14 0.000000 0.000000 0.000000
O O15 0.532157 0.302200 0.617713
O O16 0.000000 0.500000 0.500000
O O17 0.500000 0.500000 0.500000
O O18 0.000000 0.500000 0.000000
#
# Coordination Sequence:
#
# PCOD9097475 Si02
#       8
#     2   2   2   2   2   2   2   2
#     4  11  24  41  63  88 118 161 211 262 297 348
#     4  12  27  42  60  88 126 169 203 250 307 360
#     4  11  21  36  65  91 125 159 203 251 307 365
#     4  10  22  38  62  95 129 160 198 250 318 376
#     4  12  26  44  61  85 120 167 221 258 293 352
#     4  10  21  38  66  95 124 157 201 256 311 368
#     4  12  25  39  58  91 128 161 198 237 305 381
#     4  10  20  36  60  95 128 157 193 248 313 376
#
# _framework density 21.094802000000001
#
# number of rings (size 3 to 8) (size 9 to 14) (size 15 to 20)
#    0.000    1.000    3.750    3.000    5.250    0.000 
#    0.000    0.000    0.000    1.500    0.000    0.000 
#    0.000    0.000    0.000    0.000    0.000    0.000 
#
# Total GULP energy -89364.311588 kJ/mol
# GULP energy per Si atom -5585.269474 kJ/mol
# Density = 2.104679 g / cm^3
# Si number density = 21.094802 Si / 1000 Ang^3
#
#
#
# Elastic Constant Matrix: (Units=GPa)
#
#
# Indices 1 2 3 4 5 6 
#
# 1 85.6209 31.5765 23.2636 7.0744 22.9048 12.4292
# 2 31.5765 112.3446 15.6045 -2.2776 3.0746 18.0525
# 3 23.2636 15.6045 114.4134 -8.2886 12.8848 8.4974
# 4 7.0744 -2.2776 -8.2886 32.8701 7.4289 -0.0330
# 5 22.9048 3.0746 12.8848 7.4289 28.6227 -0.8112
# 6 12.4292 18.0525 8.4974 -0.0330 -0.8112 25.2716
#
#
#
# Elastic Compliance Matrix: (Units=1/GPa)
#
#
# Indices 1 2 3 4 5 6 
#
# 1 0.017873 -0.003504 -0.001318 -0.001460 -0.013132 -0.006268
# 2 -0.003504 0.010869 -0.000411 0.001087 0.001373 -0.005857
# 3 -0.001318 -0.000411 0.010034 0.003794 -0.004476 -0.002571
# 4 -0.001460 0.001087 0.003794 0.033916 -0.009504 -0.001595
# 5 -0.013132 0.001373 -0.004476 -0.009504 0.050023 0.008576
# 6 -0.006268 -0.005857 -0.002571 -0.001595 0.008576 0.047974
#
#
# Mechanical properties :
#
#
# Convention : Reuss Voigt Hill
#
# Bulk Modulus (GPa) = 35.32116 50.36312 42.84214
# Shear Modulus (GPa) = 26.23436 33.48186 29.85811
#
# Velocity S-wave (km/s) = 3.53036 3.98830 3.76630
# Velocity P-wave (km/s) = 5.77912 6.71828 6.26632
#
# Compressibility (1/GPa) = 0.02831164
#
# Stress axis : x y z
#
# Youngs Moduli (GPa) = 55.95055 92.00807 99.66034
#
# Poissons Ratio (x) = 0.32235 0.13132
# Poissons Ratio (y) = 0.19602 0.04094
# Poissons Ratio (z) = 0.07372 0.03780
#
# Static dielectric constant tensor:
#      x y z
#    x 1.818820 0.034640 0.003250 
#    y 0.034640 1.805180 0.017510 
#    z 0.003250 0.017510 1.818310 
# 
# From -- ./inp_files/535088.got.cif
#   From: 2010.05.17/outbox.cif.g08.bks.cpg/sg2_268_cif.got.tgz:535088.got - 2010.06.03 11:33:40.
