data_PCOD9097402
_publ_section_title
;
Structure prediction by ZEFSAII (Michael W. Deem and Ramdas Pophale) SiO2 
 PCOD9097402
Probable space group: P -1
;
_chemical_formula_sum "Si O2"
_cell_formula_units_Z 12
_cell_length_a 19.675928
_cell_length_b 14.840880
_cell_length_c 5.231118
_cell_angle_alpha 135.240853
_cell_angle_beta 69.438769
_cell_angle_gamma 145.395330
_cell_volume 496.157641
_symmetry_space_group_name_H-M "P -1"
_symmetry_group_IT_number 2
_symmetry_cell_setting 'triclinic'
loop_
_space_group_symop_operation_xyz
x,y,z
-x,-y,-z
loop_
_atom_site_type_symbol
_atom_site_label
_atom_site_fract_x
_atom_site_fract_y
_atom_site_fract_z
Si Si1 0.450972 0.174269 0.509493
Si Si2 0.947232 0.564337 0.134378
Si Si3 0.345363 0.781531 0.117106
Si Si4 0.067309 0.744538 0.839763
Si Si5 0.356354 0.519145 0.619441
Si Si6 0.670512 0.796106 0.938292
O O1 0.515003 0.296182 0.392517
O O2 0.381034 0.925826 0.118301
O O3 0.579003 0.371540 0.956782
O O4 0.342491 0.117904 0.648044
O O5 0.967478 0.654643 0.570232
O O6 0.778828 0.324545 0.792317
O O7 0.000000 0.500000 0.000000
O O8 0.046721 0.774355 0.203116
O O9 0.500000 0.000000 0.500000
O O10 0.285655 0.546445 0.695796
O O11 0.000000 0.500000 0.500000
O O12 0.228108 0.994615 0.002481
O O13 0.269764 0.254055 0.180847
O O14 0.500000 0.500000 0.500000
#
# Coordination Sequence:
#
# PCOD9097402 Si02
#       6
#     2   2   2   2   2   2
#     4  10  20  36  60  90 126 164 209 263 317 375
#     4  10  22  39  63  92 126 169 217 266 322 386
#     4  10  22  41  66  97 132 174 221 271 323 391
#     4  10  22  40  62  92 127 170 216 266 323 387
#     4  10  22  36  56  92 125 160 208 270 322 366
#     4  10  22  40  65  95 129 171 220 270 320 387
#
# _framework density 24.185863000000001
#
# number of rings (size 3 to 8) (size 9 to 14) (size 15 to 20)
#    0.000    2.000    0.000    3.000    0.000   16.000 
#    0.000    1.667    0.000    0.000    0.000    0.000 
#    0.000    0.000    0.000    0.000    0.000    0.000 
#
# Total GULP energy -66881.597541 kJ/mol
# GULP energy per Si atom -5573.466462 kJ/mol
# Density = 2.413081 g / cm^3
# Si number density = 24.185863 Si / 1000 Ang^3
#
#
#
# Elastic Constant Matrix: (Units=GPa)
#
#
# Indices 1 2 3 4 5 6 
#
# 1 132.2216 44.9697 48.1767 5.9805 -21.2420 8.0752
# 2 44.9697 161.0314 32.9624 13.9437 13.9296 -15.3402
# 3 48.1767 32.9624 76.2524 13.6310 -3.4053 -5.3476
# 4 5.9805 13.9437 13.6310 40.6769 -4.2461 5.7603
# 5 -21.2420 13.9296 -3.4053 -4.2461 54.2088 5.4887
# 6 8.0752 -15.3402 -5.3476 5.7603 5.4887 40.4373
#
#
#
# Elastic Compliance Matrix: (Units=1/GPa)
#
#
# Indices 1 2 3 4 5 6 
#
# 1 0.012577 -0.003440 -0.007188 0.003250 0.006231 -0.006076
# 2 -0.003440 0.008440 -0.000743 -0.003274 -0.004310 0.004842
# 3 -0.007188 -0.000743 0.019304 -0.006101 -0.002387 0.004900
# 4 0.003250 -0.003274 -0.006101 0.028823 0.004743 -0.007447
# 5 0.006231 -0.004310 -0.002387 0.004743 0.022925 -0.006982
# 6 -0.006076 0.004842 0.004900 -0.007447 -0.006982 0.030436
#
#
# Mechanical properties :
#
#
# Convention : Reuss Voigt Hill
#
# Bulk Modulus (GPa) = 56.88205 69.08035 62.98120
# Shear Modulus (GPa) = 33.08902 43.29105 38.19003
#
# Velocity S-wave (km/s) = 3.70282 4.23535 3.97800
# Velocity P-wave (km/s) = 6.46923 7.24858 6.86996
#
# Compressibility (1/GPa) = 0.01758024
#
# Stress axis : x y z
#
# Youngs Moduli (GPa) = 79.50904 118.47892 51.80173
#
# Poissons Ratio (x) = 0.40758 0.37235
# Poissons Ratio (y) = 0.27352 0.03847
# Poissons Ratio (z) = 0.57151 0.08800
#
# Static dielectric constant tensor:
#      x y z
#    x 2.014280 0.090810 -0.021250 
#    y 0.090810 2.040130 -0.103040 
#    z -0.021250 -0.103040 2.160640 
# 
# From -- ./inp_files/64587.got.cif
#   From: 2010.05.17/outbox.cif.g08.bks.cpg/sg2_33_cif.got.tgz:64587.got - 2010.06.03 11:33:40.
