data_PCOD9097784
_publ_section_title
;
Structure prediction by ZEFSAII (Michael W. Deem and Ramdas Pophale) SiO2 
 PCOD9097784
Probable space group: P -1
;
_chemical_formula_sum "Si O2"
_cell_formula_units_Z 16
_cell_length_a 23.046299
_cell_length_b 9.785338
_cell_length_c 8.695732
_cell_angle_alpha 95.599909
_cell_angle_beta 127.871501
_cell_angle_gamma 128.824417
_cell_volume 747.900732
_symmetry_space_group_name_H-M "P -1"
_symmetry_group_IT_number 2
_symmetry_cell_setting 'triclinic'
loop_
_space_group_symop_operation_xyz
x,y,z
-x,-y,-z
loop_
_atom_site_type_symbol
_atom_site_label
_atom_site_fract_x
_atom_site_fract_y
_atom_site_fract_z
Si Si1 0.130020 0.803247 0.821881
Si Si2 0.144589 0.219544 0.647421
Si Si3 0.070250 0.345934 0.336892
Si Si4 0.548471 0.351828 0.644468
Si Si5 0.733879 0.190504 0.732170
Si Si6 0.032899 0.807996 0.192718
Si Si7 0.565811 0.677496 0.821515
Si Si8 0.252980 0.905451 0.583784
O O1 0.000000 0.500000 0.500000
O O2 0.063600 0.833933 0.783254
O O3 0.187176 0.809332 0.058390
O O4 0.268979 0.052032 0.961840
O O5 0.158255 0.369656 0.568704
O O6 0.122128 0.054456 0.477403
O O7 0.292044 0.441185 0.016168
O O8 0.000000 0.000000 0.500000
O O9 0.171348 0.648792 0.516045
O O10 0.002052 0.203114 0.041008
O O11 0.511375 0.432777 0.688140
O O12 0.536043 0.385885 0.453017
O O13 0.414873 0.027327 0.433056
O O14 0.694549 0.080653 0.484959
O O15 0.867603 0.518592 0.969856
O O16 0.126623 0.817576 0.339467
O O17 0.604748 0.796454 0.064855
#
# Coordination Sequence:
#
# PCOD9097784 Si02
#       8
#     2   2   2   2   2   2   2   2
#     4  11  18  32  64  97 118 159 203 262 298 359
#     4  12  27  43  63  89 129 170 208 253 315 376
#     4  11  22  37  63  97 126 159 211 254 311 365
#     4  10  23  41  56  93 128 161 204 262 307 369
#     4  10  21  37  66  94 122 155 209 261 309 358
#     4  11  21  43  64  94 126 163 213 255 303 373
#     4  10  20  36  62  87 131 154 210 253 315 346
#     4  11  19  39  68  99 120 162 210 258 306 370
#
# _framework density 21.393211999999998
#
# number of rings (size 3 to 8) (size 9 to 14) (size 15 to 20)
#    0.000    1.250    5.000    1.875    1.750    0.500 
#    0.000    6.250    0.000    0.000    0.000    0.000 
#    0.000    0.000    0.000    0.000    0.000    0.000 
#
# Total GULP energy -89401.434122 kJ/mol
# GULP energy per Si atom -5587.589633 kJ/mol
# Density = 2.134452 g / cm^3
# Si number density = 21.393212 Si / 1000 Ang^3
#
#
#
# Elastic Constant Matrix: (Units=GPa)
#
#
# Indices 1 2 3 4 5 6 
#
# 1 23.5383 6.8873 4.8153 -4.9941 4.2315 -6.1995
# 2 6.8873 77.7821 26.4205 -18.8932 12.9249 -0.3912
# 3 4.8153 26.4205 132.0655 -19.8334 8.0562 -6.1477
# 4 -4.9941 -18.8932 -19.8334 30.8554 -3.4676 2.3140
# 5 4.2315 12.9249 8.0562 -3.4676 29.5116 0.1776
# 6 -6.1995 -0.3912 -6.1477 2.3140 0.1776 9.2065
#
#
#
# Elastic Compliance Matrix: (Units=1/GPa)
#
#
# Indices 1 2 3 4 5 6 
#
# 1 0.054891 -0.002956 0.001376 0.004454 -0.006649 0.036765
# 2 -0.002956 0.016618 -0.001863 0.008235 -0.005351 -0.004495
# 3 0.001376 -0.001863 0.008875 0.004205 -0.001345 0.005743
# 4 0.004454 0.008235 0.004205 0.041128 -0.000536 -0.004170
# 5 -0.006649 -0.005351 -0.001345 -0.000536 0.037523 -0.006192
# 6 0.036765 -0.004495 0.005743 -0.004170 -0.006192 0.138187
#
#
# Mechanical properties :
#
#
# Convention : Reuss Voigt Hill
#
# Bulk Modulus (GPa) = 13.60572 34.40354 24.00463
# Shear Modulus (GPa) = 15.21570 26.93222 21.07396
#
# Velocity S-wave (km/s) = 2.66980 3.55197 3.14200
# Velocity P-wave (km/s) = 3.98465 5.73920 4.94044
#
# Compressibility (1/GPa) = 0.07349852
#
# Stress axis : x y z
#
# Youngs Moduli (GPa) = 18.21793 60.17652 112.67105
#
# Poissons Ratio (x) = 0.17788 -0.15503
# Poissons Ratio (y) = 0.05385 0.20988
# Poissons Ratio (z) = -0.02507 0.11210
#
# Static dielectric constant tensor:
#      x y z
#    x 1.847240 0.024830 -0.012150 
#    y 0.024830 1.811140 0.016920 
#    z -0.012150 0.016920 1.790620 
# 
# From -- ./inp_files/343696.got.cif
#   From: 2010.05.17/outbox.cif.g08.bks.cpg/sg2_172_cif.got.tgz:343696.got - 2010.06.03 11:33:40.
