data_PCOD9097128
_publ_section_title
;
Structure prediction by ZEFSAII (Michael W. Deem and Ramdas Pophale) SiO2 
 PCOD9097128
Probable space group: P -1
;
_chemical_formula_sum "Si O2"
_cell_formula_units_Z 14
_cell_length_a 8.246607
_cell_length_b 9.483260
_cell_length_c 17.560484
_cell_angle_alpha 146.429807
_cell_angle_beta 76.113859
_cell_angle_gamma 119.399911
_cell_volume 619.525311
_symmetry_space_group_name_H-M "P -1"
_symmetry_group_IT_number 2
_symmetry_cell_setting 'triclinic'
loop_
_space_group_symop_operation_xyz
x,y,z
-x,-y,-z
loop_
_atom_site_type_symbol
_atom_site_label
_atom_site_fract_x
_atom_site_fract_y
_atom_site_fract_z
Si Si1 0.300391 0.726116 0.864174
Si Si2 0.775894 0.922360 0.419149
Si Si3 0.621294 0.753558 0.681548
Si Si4 0.072083 0.914231 0.875001
Si Si5 0.836881 0.424631 0.549752
Si Si6 0.939775 0.279517 0.978217
Si Si7 0.766358 0.843565 0.548012
O O1 0.319251 0.436060 0.728469
O O2 0.242095 0.861524 0.860902
O O3 0.114636 0.609706 0.890751
O O4 0.500000 0.000000 0.000000
O O5 0.747546 0.992315 0.540388
O O6 0.715005 0.074223 0.431273
O O7 0.009991 0.075226 0.443935
O O8 0.708575 0.930681 0.672193
O O9 0.386552 0.522458 0.602646
O O10 0.698757 0.528374 0.578463
O O11 0.729753 0.982393 0.840989
O O12 0.930498 0.617366 0.704574
O O13 0.092191 0.176812 0.934748
O O14 0.000000 0.000000 0.000000
O O15 0.000000 0.500000 0.500000
O O16 0.000000 0.500000 0.000000
#
# Coordination Sequence:
#
# PCOD9097128 Si02
#       7
#     2   2   2   2   2   2   2
#     4  11  23  41  63  90 124 164 211 265 314 380
#     4  11  22  38  63  90 123 165 212 257 329 376
#     4  10  21  38  58  90 125 159 206 262 315 369
#     4   9  21  41  63  87 126 171 209 259 319 377
#     4  11  22  38  64  94 131 164 209 269 322 379
#     4  10  21  38  62  86 121 169 209 247 312 388
#     4  10  20  36  59  88 120 158 206 258 308 381
#
# _framework density 22.597947000000001
#
# number of rings (size 3 to 8) (size 9 to 14) (size 15 to 20)
#    0.000    1.714    1.429    3.429    2.000    1.714 
#    0.000    7.857    0.000    0.000    0.000    0.000 
#    0.000    0.000    0.000    0.000    0.000    0.000 
#
# Total GULP energy -78042.552855 kJ/mol
# GULP energy per Si atom -5574.468061 kJ/mol
# Density = 2.254651 g / cm^3
# Si number density = 22.597947 Si / 1000 Ang^3
#
#
#
# Elastic Constant Matrix: (Units=GPa)
#
#
# Indices 1 2 3 4 5 6 
#
# 1 64.6666 26.9296 43.1249 14.2504 4.6597 -20.6987
# 2 26.9296 137.8537 31.9595 4.9061 -11.5032 -21.5584
# 3 43.1249 31.9595 86.3828 -1.8283 -5.2560 -10.8958
# 4 14.2504 4.9061 -1.8283 35.0326 0.8814 -7.8385
# 5 4.6597 -11.5032 -5.2560 0.8814 39.5245 6.6035
# 6 -20.6987 -21.5584 -10.8958 -7.8385 6.6035 46.7160
#
#
#
# Elastic Compliance Matrix: (Units=1/GPa)
#
#
# Indices 1 2 3 4 5 6 
#
# 1 0.032088 -0.001588 -0.014976 -0.011377 -0.007511 0.009144
# 2 -0.001588 0.008579 -0.001948 -0.000150 0.002012 0.002491
# 3 -0.014976 -0.001948 0.019870 0.006775 0.004081 -0.002340
# 4 -0.011377 -0.000150 0.006775 0.033970 0.001104 0.002014
# 5 -0.007511 0.002012 0.004081 0.001104 0.028166 -0.005244
# 6 0.009144 0.002491 -0.002340 0.002014 -0.005244 0.027141
#
#
# Mechanical properties :
#
#
# Convention : Reuss Voigt Hill
#
# Bulk Modulus (GPa) = 42.52972 54.77013 48.64992
# Shear Modulus (GPa) = 25.68402 36.71390 31.19896
#
# Velocity S-wave (km/s) = 3.37495 4.03508 3.71969
# Velocity P-wave (km/s) = 5.83508 6.78222 6.32640
#
# Compressibility (1/GPa) = 0.02351297
#
# Stress axis : x y z
#
# Youngs Moduli (GPa) = 31.16474 116.56806 50.32732
#
# Poissons Ratio (x) = 0.18513 0.75370
# Poissons Ratio (y) = 0.04949 0.09802
# Poissons Ratio (z) = 0.46672 0.22702
#
# Static dielectric constant tensor:
#      x y z
#    x 1.848910 0.029920 -0.015770 
#    y 0.029920 1.888770 -0.046830 
#    z -0.015770 -0.046830 1.922210 
# 
# From -- ./inp_files/189019.got.cif
#   From: 2010.05.17/outbox.cif.g08.bks.cpg/sg2_95_cif.got.tgz:189019.got - 2010.06.03 11:33:40.
