data_PCOD9097744
_publ_section_title
;
Structure prediction by ZEFSAII (Michael W. Deem and Ramdas Pophale) SiO2 
 PCOD9097744
Probable space group: P -1
;
_chemical_formula_sum "Si O2"
_cell_formula_units_Z 16
_cell_length_a 12.185695
_cell_length_b 11.922456
_cell_length_c 7.485337
_cell_angle_alpha 74.675393
_cell_angle_beta 42.722196
_cell_angle_gamma 56.743133
_cell_volume 598.275379
_symmetry_space_group_name_H-M "P -1"
_symmetry_group_IT_number 2
_symmetry_cell_setting 'triclinic'
loop_
_space_group_symop_operation_xyz
x,y,z
-x,-y,-z
loop_
_atom_site_type_symbol
_atom_site_label
_atom_site_fract_x
_atom_site_fract_y
_atom_site_fract_z
Si Si1 0.511890 0.549930 0.192984
Si Si2 0.251332 0.123250 0.043412
Si Si3 0.356951 0.264224 0.588227
Si Si4 0.886595 0.342252 0.531527
Si Si5 0.126659 0.476853 0.087369
Si Si6 0.691914 0.260456 0.317300
Si Si7 0.046901 0.211640 0.775467
Si Si8 0.402204 0.158952 0.212084
O O1 0.342106 0.573922 0.252527
O O2 0.593505 0.404842 0.259281
O O3 0.375259 0.681020 0.430093
O O4 0.704995 0.555444 0.957972
O O5 0.298941 0.161577 0.781223
O O6 0.375432 0.960779 0.995017
O O7 0.332750 0.178670 0.081312
O O8 0.023293 0.209516 0.298799
O O9 0.577279 0.195267 0.413295
O O10 0.365060 0.271108 0.360270
O O11 0.232587 0.401015 0.806079
O O12 0.939722 0.271207 0.689244
O O13 0.984631 0.430637 0.343133
O O14 0.003161 0.642223 0.137178
O O15 0.918677 0.170713 0.051817
O O16 0.264025 0.114374 0.487972
#
# Coordination Sequence:
#
# PCOD9097744 Si02
#       8
#     2   2   2   2   2   2   2   2
#     4   9  19  37  55  80 124 158 183 247 286 347
#     4   9  21  41  59  90 112 149 211 241 284 358
#     4  10  20  38  60  85 114 159 189 239 299 346
#     4  10  20  36  62  83 115 161 196 239 303 339
#     4   9  20  35  56  91 119 146 203 229 287 371
#     4   9  20  36  51  85 122 146 198 230 293 363
#     4  10  21  36  54  91 116 152 195 239 292 358
#     4  10  21  38  66  81 118 153 195 254 287 339
#
# _framework density 26.743538000000001
#
# number of rings (size 3 to 8) (size 9 to 14) (size 15 to 20)
#    0.000    2.500    0.000    1.500    5.250    2.500 
#    9.000    0.625    5.500    2.250    0.000    0.000 
#    0.000    0.000    0.000    0.000    0.000    0.000 
#
# Total GULP energy -89259.024964 kJ/mol
# GULP energy per Si atom -5578.689060 kJ/mol
# Density = 2.668267 g / cm^3
# Si number density = 26.743538 Si / 1000 Ang^3
#
#
#
# Elastic Constant Matrix: (Units=GPa)
#
#
# Indices 1 2 3 4 5 6 
#
# 1 131.3781 21.1841 15.6229 4.9854 2.6775 -6.6633
# 2 21.1841 36.9479 17.9816 17.6747 -1.8759 -7.6888
# 3 15.6229 17.9816 151.2749 12.0332 -33.7031 2.6869
# 4 4.9854 17.6747 12.0332 21.7495 -11.3793 1.4234
# 5 2.6775 -1.8759 -33.7031 -11.3793 50.6731 7.3100
# 6 -6.6633 -7.6888 2.6869 1.4234 7.3100 23.1062
#
#
#
# Elastic Compliance Matrix: (Units=1/GPa)
#
#
# Indices 1 2 3 4 5 6 
#
# 1 0.008559 -0.005973 -0.000510 0.002917 -0.000429 0.000496
# 2 -0.005973 0.072915 -0.008368 -0.067424 -0.022720 0.034856
# 3 -0.000510 -0.008368 0.009096 0.006676 0.008279 -0.007020
# 4 0.002917 -0.067424 0.006676 0.116733 0.033812 -0.040259
# 5 -0.000429 -0.022720 0.008279 0.033812 0.035168 -0.021856
# 6 0.000496 0.034856 -0.007020 -0.040259 -0.021856 0.065231
#
#
# Mechanical properties :
#
#
# Convention : Reuss Voigt Hill
#
# Bulk Modulus (GPa) = 16.42917 47.68645 32.05781
# Shear Modulus (GPa) = 13.97845 36.75990 25.36918
#
# Velocity S-wave (km/s) = 2.28871 3.71149 3.08329
# Velocity P-wave (km/s) = 3.62503 6.01969 4.96878
#
# Compressibility (1/GPa) = 0.06086734
#
# Stress axis : x y z
#
# Youngs Moduli (GPa) = 116.84157 13.71454 109.93792
#
# Poissons Ratio (x) = 0.08191 0.05612
# Poissons Ratio (y) = 0.69786 0.91998
# Poissons Ratio (z) = 0.05964 0.11477
#
# Static dielectric constant tensor:
#      x y z
#    x 2.277910 0.062600 -0.048100 
#    y 0.062600 2.093410 -0.010770 
#    z -0.048100 -0.010770 2.116150 
# 
# From -- ./inp_files/258823.got.cif
#   From: 2010.05.17/outbox.cif.g08.bks.cpg/sg2_130_cif.got.tgz:258823.got - 2010.06.03 11:33:40.
