data_PCOD9097720
_publ_section_title
;
Structure prediction by ZEFSAII (Michael W. Deem and Ramdas Pophale) SiO2 
 PCOD9097720
Probable space group: P -1
;
_chemical_formula_sum "Si O2"
_cell_formula_units_Z 16
_cell_length_a 12.141682
_cell_length_b 17.431215
_cell_length_c 11.417490
_cell_angle_alpha 139.867485
_cell_angle_beta 110.402386
_cell_angle_gamma 40.074091
_cell_volume 824.014319
_symmetry_space_group_name_H-M "P -1"
_symmetry_group_IT_number 2
_symmetry_cell_setting 'triclinic'
loop_
_space_group_symop_operation_xyz
x,y,z
-x,-y,-z
loop_
_atom_site_type_symbol
_atom_site_label
_atom_site_fract_x
_atom_site_fract_y
_atom_site_fract_z
Si Si1 0.855428 0.991644 0.671767
Si Si2 0.683971 0.203898 0.092528
Si Si3 0.087894 0.738712 0.795030
Si Si4 0.810876 0.466819 0.162215
Si Si5 0.655027 0.058990 0.438382
Si Si6 0.882440 0.629726 0.986210
Si Si7 0.223425 0.523952 0.358754
Si Si8 0.004806 0.905593 0.283535
O O1 0.746657 0.030282 0.561880
O O2 0.939887 0.054440 0.755242
O O3 0.056520 0.745990 0.489313
O O4 0.699441 0.129379 0.883463
O O5 0.754154 0.282224 0.192160
O O6 0.455622 0.380559 0.265763
O O7 0.861238 0.987043 0.979488
O O8 0.104763 0.659252 0.832624
O O9 0.145295 0.596497 0.548305
O O10 0.953623 0.445996 0.130014
O O11 0.584007 0.707543 0.380931
O O12 0.821744 0.342721 0.934647
O O13 0.786627 0.018527 0.339773
O O14 0.709209 0.875055 0.233629
O O15 0.790015 0.592289 0.844185
O O16 0.000000 0.500000 0.000000
O O17 0.000000 0.000000 0.500000
#
# Coordination Sequence:
#
# PCOD9097720 Si02
#       8
#     2   2   2   2   2   2   2   2
#     4  10  20  36  61  98 127 162 215 264 327 398
#     4  10  22  40  67  94 132 170 210 271 324 384
#     4  10  23  44  62  99 127 170 224 263 317 393
#     4  11  24  42  66  93 135 173 211 272 323 382
#     4  10  23  38  64  94 127 178 208 268 332 378
#     4  11  25  46  63  95 135 168 225 273 312 390
#     4  11  24  40  68  92 128 179 213 268 323 376
#     4   9  20  36  56  93 133 159 209 262 321 390
#
# _framework density 19.417138000000001
#
# number of rings (size 3 to 8) (size 9 to 14) (size 15 to 20)
#    0.000    1.750    2.500    0.375    3.500    7.000 
#    0.000    1.250    0.000    0.000    0.000    0.000 
#    0.000    0.000    0.000    0.000    0.000    0.000 
#
# Total GULP energy -89299.118756 kJ/mol
# GULP energy per Si atom -5581.194922 kJ/mol
# Density = 1.937294 g / cm^3
# Si number density = 19.417138 Si / 1000 Ang^3
#
#
#
# Elastic Constant Matrix: (Units=GPa)
#
#
# Indices 1 2 3 4 5 6 
#
# 1 77.2496 35.7592 29.4384 4.8503 3.2633 13.9714
# 2 35.7592 71.3945 24.7282 -8.6927 -9.8886 15.3631
# 3 29.4384 24.7282 93.7736 5.9327 1.8580 3.4587
# 4 4.8503 -8.6927 5.9327 24.5552 -6.6492 5.7281
# 5 3.2633 -9.8886 1.8580 -6.6492 34.1595 -7.0976
# 6 13.9714 15.3631 3.4587 5.7281 -7.0976 19.9574
#
#
#
# Elastic Compliance Matrix: (Units=1/GPa)
#
#
# Indices 1 2 3 4 5 6 
#
# 1 0.020619 -0.009631 -0.003075 -0.007100 -0.007448 -0.007099
# 2 -0.009631 0.027666 -0.005099 0.019222 0.009676 -0.015747
# 3 -0.003075 -0.005099 0.013223 -0.006075 -0.002090 0.004786
# 4 -0.007100 0.019222 -0.006075 0.058973 0.013727 -0.020818
# 5 -0.007448 0.009676 -0.002090 0.013727 0.037107 0.007384
# 6 -0.007099 -0.015747 0.004786 -0.020818 0.007384 0.074970
#
#
# Mechanical properties :
#
#
# Convention : Reuss Voigt Hill
#
# Bulk Modulus (GPa) = 38.61235 46.91882 42.76558
# Shear Modulus (GPa) = 18.06362 25.90054 21.98208
#
# Velocity S-wave (km/s) = 3.05338 3.65622 3.36831
# Velocity P-wave (km/s) = 5.68856 6.48383 6.09917
#
# Compressibility (1/GPa) = 0.02589845
#
# Stress axis : x y z
#
# Youngs Moduli (GPa) = 48.49815 36.14594 75.62578
#
# Poissons Ratio (x) = 0.34813 0.23253
# Poissons Ratio (y) = 0.46709 0.38561
# Poissons Ratio (z) = 0.14912 0.18431
#
# Static dielectric constant tensor:
#      x y z
#    x 1.679580 0.012750 0.001850 
#    y 0.012750 1.676700 -0.042970 
#    z 0.001850 -0.042970 1.696930 
# 
# From -- ./inp_files/437393.got.cif
#   From: 2010.05.17/outbox.cif.g08.bks.cpg/sg2_219_cif.got.tgz:437393.got - 2010.06.03 11:33:40.
