data_PCOD9097621
_publ_section_title
;
Structure prediction by ZEFSAII (Michael W. Deem and Ramdas Pophale) SiO2 
 PCOD9097621
Probable space group: P -1
;
_chemical_formula_sum "Si O2"
_cell_formula_units_Z 16
_cell_length_a 6.092303
_cell_length_b 16.732984
_cell_length_c 7.791012
_cell_angle_alpha 102.083550
_cell_angle_beta 94.430861
_cell_angle_gamma 53.050488
_cell_volume 619.461061
_symmetry_space_group_name_H-M "P -1"
_symmetry_group_IT_number 2
_symmetry_cell_setting 'triclinic'
loop_
_space_group_symop_operation_xyz
x,y,z
-x,-y,-z
loop_
_atom_site_type_symbol
_atom_site_label
_atom_site_fract_x
_atom_site_fract_y
_atom_site_fract_z
Si Si1 0.307681 0.745268 0.541634
Si Si2 0.374933 0.161278 0.777239
Si Si3 0.190480 0.064880 0.936593
Si Si4 0.038470 0.045361 0.283243
Si Si5 0.352573 0.295719 0.123729
Si Si6 0.162541 0.610515 0.650685
Si Si7 0.643555 0.515477 0.862501
Si Si8 0.818956 0.647595 0.341344
O O1 0.087763 0.864983 0.545668
O O2 0.496996 0.744131 0.701463
O O3 0.180224 0.694497 0.598738
O O4 0.518735 0.676943 0.370717
O O5 0.158773 0.150372 0.853273
O O6 0.250208 0.242446 0.653930
O O7 0.456589 0.209281 0.949702
O O8 0.649420 0.050182 0.697985
O O9 0.130572 0.998810 0.789059
O O10 0.031437 0.093876 0.119934
O O11 0.500000 0.000000 0.000000
O O12 0.396255 0.378151 0.097935
O O13 0.036158 0.346569 0.176176
O O14 0.467475 0.522024 0.691695
O O15 0.002262 0.591114 0.495601
O O16 0.969359 0.427460 0.825378
O O17 0.500000 0.500000 0.000000
#
# Coordination Sequence:
#
# PCOD9097621 Si02
#       8
#     2   2   2   2   2   2   2   2
#     4  10  22  41  63  90 126 168 208 251 310 372
#     4  11  23  38  61  94 129 163 210 260 304 365
#     4   9  18  34  60  91 122 160 210 261 307 353
#     4  10  20  36  61  90 125 168 209 254 309 365
#     4  10  22  41  66  96 123 157 210 261 308 372
#     4  10  23  43  67  90 127 168 203 255 320 376
#     4  11  25  44  69  95 121 159 209 265 321 371
#     4  11  26  42  60  92 128 166 209 256 312 382
#
# _framework density 25.828904000000001
#
# number of rings (size 3 to 8) (size 9 to 14) (size 15 to 20)
#    0.000    1.750    0.000    4.125    0.000   16.000 
#    0.000    1.250    0.000    0.000    0.000    0.000 
#    0.000    0.000    0.000    0.000    0.000    0.000 
#
# Total GULP energy -89549.050084 kJ/mol
# GULP energy per Si atom -5596.815630 kJ/mol
# Density = 2.577012 g / cm^3
# Si number density = 25.828904 Si / 1000 Ang^3
#
#
#
# Elastic Constant Matrix: (Units=GPa)
#
#
# Indices 1 2 3 4 5 6 
#
# 1 88.6378 41.0979 36.1249 -0.5597 -27.0038 20.7786
# 2 41.0979 122.2074 38.6535 8.6205 -21.0156 4.1688
# 3 36.1249 38.6535 91.3815 -5.0872 -17.3394 -1.7488
# 4 -0.5597 8.6205 -5.0872 45.3961 -11.0011 -7.5924
# 5 -27.0038 -21.0156 -17.3394 -11.0011 37.9085 -12.5546
# 6 20.7786 4.1688 -1.7488 -7.5924 -12.5546 46.1132
#
#
#
# Elastic Compliance Matrix: (Units=1/GPa)
#
#
# Indices 1 2 3 4 5 6 
#
# 1 0.018335 -0.003343 -0.004437 0.001224 0.007592 -0.005859
# 2 -0.003343 0.010661 -0.002922 -0.001832 0.001872 0.000640
# 3 -0.004437 -0.002922 0.015221 0.004249 0.005041 0.004913
# 4 0.001224 -0.001832 0.004249 0.027074 0.012154 0.007542
# 5 0.007592 0.001872 0.005041 0.012154 0.041980 0.010032
# 6 -0.005859 0.000640 0.004913 0.007542 0.010032 0.028427
#
#
# Mechanical properties :
#
#
# Convention : Reuss Voigt Hill
#
# Bulk Modulus (GPa) = 43.84001 59.33103 51.58552
# Shear Modulus (GPa) = 29.28988 38.30693 33.79841
#
# Velocity S-wave (km/s) = 3.37114 3.85529 3.62131
# Velocity P-wave (km/s) = 5.67123 6.54510 6.12377
#
# Compressibility (1/GPa) = 0.02281022
#
# Stress axis : x y z
#
# Youngs Moduli (GPa) = 54.54145 93.80164 65.70078
#
# Poissons Ratio (x) = 0.31360 0.29154
# Poissons Ratio (y) = 0.18234 0.19200
# Poissons Ratio (z) = 0.24202 0.27412
#
# Static dielectric constant tensor:
#      x y z
#    x 2.033830 -0.042160 -0.016420 
#    y -0.042160 2.012350 0.030630 
#    z -0.016420 0.030630 2.107410 
# 
# From -- ./inp_files/139041.got.cif
#   From: 2010.05.17/outbox.cif.g08.bks.cpg/sg2_70_cif.got.tgz:139041.got - 2010.06.03 11:33:40.
