data_PCOD9097675
_publ_section_title
;
Structure prediction by ZEFSAII (Michael W. Deem and Ramdas Pophale) SiO2 
 PCOD9097675
Probable space group: P -1
;
_chemical_formula_sum "Si O2"
_cell_formula_units_Z 16
_cell_length_a 15.984927
_cell_length_b 14.694946
_cell_length_c 14.365443
_cell_angle_alpha 151.483761
_cell_angle_beta 27.604279
_cell_angle_gamma 141.556171
_cell_volume 746.303766
_symmetry_space_group_name_H-M "P -1"
_symmetry_group_IT_number 2
_symmetry_cell_setting 'triclinic'
loop_
_space_group_symop_operation_xyz
x,y,z
-x,-y,-z
loop_
_atom_site_type_symbol
_atom_site_label
_atom_site_fract_x
_atom_site_fract_y
_atom_site_fract_z
Si Si1 0.356234 0.033641 0.556998
Si Si2 0.242822 0.485231 0.457421
Si Si3 0.030293 0.228018 0.950643
Si Si4 0.580227 0.311161 0.705911
Si Si5 0.698724 0.961141 0.807921
Si Si6 0.356537 0.467180 0.528992
Si Si7 0.056618 0.714386 0.108024
Si Si8 0.704856 0.941669 0.007206
O O1 0.306437 0.824057 0.458851
O O2 0.420924 0.169897 0.700106
O O3 0.522894 0.993280 0.286611
O O4 0.202766 0.150771 0.762902
O O5 0.051374 0.565337 0.755758
O O6 0.312846 0.623639 0.432419
O O7 0.384672 0.469178 0.390833
O O8 0.235803 0.275280 0.232220
O O9 0.066630 0.218455 0.794934
O O10 0.866288 0.082394 0.003423
O O11 0.500000 0.500000 0.000000
O O12 0.740842 0.740490 0.542661
O O13 0.685648 0.959048 0.930377
O O14 0.500000 0.000000 0.000000
O O15 0.852107 0.118327 0.768499
O O16 0.500000 0.500000 0.500000
O O17 0.239673 0.652762 0.819440
O O18 0.000000 0.500000 0.000000
#
# Coordination Sequence:
#
# PCOD9097675 Si02
#       8
#     2   2   2   2   2   2   2   2
#     4  11  24  42  68  95 124 171 217 264 334 391
#     4  10  21  41  64  91 135 170 208 277 321 383
#     4  10  23  43  64  94 130 172 216 266 334 387
#     4  11  23  42  66  98 130 162 220 272 323 397
#     4  10  20  36  61  93 123 171 220 261 325 392
#     4  10  20  36  64  91 121 176 222 254 325 395
#     4  10  22  39  58  91 135 164 216 280 323 388
#     4  10  21  42  65  90 132 169 214 272 322 391
#
# _framework density 21.438991999999999
#
# number of rings (size 3 to 8) (size 9 to 14) (size 15 to 20)
#    0.000    1.750    3.750    0.000    0.000    4.000 
#    0.000    3.750    0.000    0.000    0.000    0.000 
#    0.000    0.000    0.000    0.000    0.000    0.000 
#
# Total GULP energy -89092.862564 kJ/mol
# GULP energy per Si atom -5568.303910 kJ/mol
# Density = 2.139020 g / cm^3
# Si number density = 21.438992 Si / 1000 Ang^3
#
#
#
# Elastic Constant Matrix: (Units=GPa)
#
#
# Indices 1 2 3 4 5 6 
#
# 1 83.6346 26.2595 36.2555 8.5703 -19.5118 1.0527
# 2 26.2595 114.0614 24.6584 29.7089 -1.9762 -2.9746
# 3 36.2555 24.6584 121.0248 31.8786 -2.3632 14.0494
# 4 8.5703 29.7089 31.8786 34.8093 -1.8058 6.2021
# 5 -19.5118 -1.9762 -2.3632 -1.8058 39.9968 5.4095
# 6 1.0527 -2.9746 14.0494 6.2021 5.4095 30.6111
#
#
#
# Elastic Compliance Matrix: (Units=1/GPa)
#
#
# Indices 1 2 3 4 5 6 
#
# 1 0.016818 -0.003783 -0.005165 0.004392 0.008030 -0.000885
# 2 -0.003783 0.012431 0.001179 -0.011495 -0.002155 0.003507
# 3 -0.005165 0.001179 0.012782 -0.010994 -0.001793 -0.003030
# 4 0.004392 -0.011495 -0.010994 0.048959 0.004063 -0.006860
# 5 0.008030 -0.002155 -0.001793 0.004063 0.029665 -0.005728
# 6 -0.000885 0.003507 -0.003030 -0.006860 -0.005728 0.036832
#
#
# Mechanical properties :
#
#
# Convention : Reuss Voigt Hill
#
# Bulk Modulus (GPa) = 37.74458 54.78528 46.26493
# Shear Modulus (GPa) = 27.49410 36.51993 32.00701
#
# Velocity S-wave (km/s) = 3.58499 4.13175 3.86804
# Velocity P-wave (km/s) = 5.89746 6.95495 6.44792
#
# Compressibility (1/GPa) = 0.02649387
#
# Stress axis : x y z
#
# Youngs Moduli (GPa) = 59.45974 80.44129 78.23244
#
# Poissons Ratio (x) = 0.30434 0.40406
# Poissons Ratio (y) = 0.22496 -0.09225
# Poissons Ratio (z) = 0.30710 -0.09486
#
# Static dielectric constant tensor:
#      x y z
#    x 1.913310 -0.007020 0.039560 
#    y -0.007020 1.898960 -0.044470 
#    z 0.039560 -0.044470 1.888730 
# 
# From -- ./inp_files/533887.got.cif
#   From: 2010.05.17/outbox.cif.g08.bks.cpg/sg2_267_cif.got.tgz:533887.got - 2010.06.03 11:33:40.
