data_PCOD9097536
_publ_section_title
;
Structure prediction by ZEFSAII (Michael W. Deem and Ramdas Pophale) SiO2 
 PCOD9097536
Probable space group: P -1
;
_chemical_formula_sum "Si O2"
_cell_formula_units_Z 16
_cell_length_a 22.754498
_cell_length_b 7.829350
_cell_length_c 10.633544
_cell_angle_alpha 39.075104
_cell_angle_beta 139.243861
_cell_angle_gamma 134.137760
_cell_volume 752.069350
_symmetry_space_group_name_H-M "P -1"
_symmetry_group_IT_number 2
_symmetry_cell_setting 'triclinic'
loop_
_space_group_symop_operation_xyz
x,y,z
-x,-y,-z
loop_
_atom_site_type_symbol
_atom_site_label
_atom_site_fract_x
_atom_site_fract_y
_atom_site_fract_z
Si Si1 0.450443 0.185432 0.640815
Si Si2 0.287621 0.392199 0.959118
Si Si3 0.912928 0.054867 0.487441
Si Si4 0.889317 0.985352 0.192245
Si Si5 0.790026 0.460653 0.727328
Si Si6 0.396325 0.954224 0.414509
Si Si7 0.214622 0.598366 0.949695
Si Si8 0.624046 0.025781 0.129485
O O1 0.500000 0.500000 0.500000
O O2 0.403089 0.019758 0.536738
O O3 0.393433 0.217277 0.657396
O O4 0.531215 0.044009 0.898478
O O5 0.353718 0.196028 0.149338
O O6 0.194938 0.296225 0.783091
O O7 0.248698 0.370885 0.052598
O O8 0.344874 0.712677 0.870925
O O9 0.911189 0.063456 0.327945
O O10 0.843866 0.763429 0.588801
O O11 0.874492 0.324697 0.301410
O O12 0.017246 0.055655 0.695390
O O13 0.848164 0.228241 0.925261
O O14 0.684231 0.330646 0.581349
O O15 0.791129 0.475076 0.872664
O O16 0.500000 0.000000 0.500000
O O17 0.294576 0.892309 0.887592
#
# Coordination Sequence:
#
# PCOD9097536 Si02
#       8
#     2   2   2   2   2   2   2   2
#     4  11  20  38  60  80 111 149 198 227 281 341
#     4   9  20  41  58  79 120 148 186 244 280 332
#     4  10  20  36  61  87 111 157 187 231 290 342
#     4   9  20  38  60  84 119 147 191 236 283 340
#     4  10  21  38  58  86 120 148 190 237 282 334
#     4  11  23  36  59  87 112 154 190 233 282 341
#     4   9  20  38  56  82 116 148 188 233 286 329
#     4   9  21  36  57  80 110 150 181 237 285 318
#
# _framework density 21.274632
#
# number of rings (size 3 to 8) (size 9 to 14) (size 15 to 20)
#    0.750    1.500    1.250    1.125    1.750    3.500 
#    0.000    1.250    0.000    0.000    0.000    0.000 
#    0.000    0.000    0.000    0.000    0.000    0.000 
#
# Total GULP energy -89083.657970 kJ/mol
# GULP energy per Si atom -5567.728623 kJ/mol
# Density = 2.122621 g / cm^3
# Si number density = 21.274632 Si / 1000 Ang^3
#
#
#
# Elastic Constant Matrix: (Units=GPa)
#
#
# Indices 1 2 3 4 5 6 
#
# 1 65.4548 3.8159 32.4683 -2.2946 21.7288 11.1690
# 2 3.8159 55.5867 26.2937 6.7673 20.9308 9.1430
# 3 32.4683 26.2937 66.8469 8.6918 16.5287 12.2726
# 4 -2.2946 6.7673 8.6918 29.6102 12.2428 -2.3537
# 5 21.7288 20.9308 16.5287 12.2428 35.4494 3.2328
# 6 11.1690 9.1430 12.2726 -2.3537 3.2328 29.0368
#
#
#
# Elastic Compliance Matrix: (Units=1/GPa)
#
#
# Indices 1 2 3 4 5 6 
#
# 1 0.031756 0.013683 -0.015368 0.013465 -0.024462 -0.006213
# 2 0.013683 0.032266 -0.013293 0.006511 -0.022876 -0.006730
# 3 -0.015368 -0.013293 0.027516 -0.009852 0.008136 -0.003237
# 4 0.013465 0.006511 -0.009852 0.046329 -0.023810 0.003340
# 5 -0.024462 -0.022876 0.008136 -0.023810 0.060731 0.004482
# 6 -0.006213 -0.006730 -0.003237 0.003340 0.004482 0.040088
#
#
# Mechanical properties :
#
#
# Convention : Reuss Voigt Hill
#
# Bulk Modulus (GPa) = 16.23805 34.78270 25.51037
# Shear Modulus (GPa) = 17.29089 27.17329 22.23209
#
# Velocity S-wave (km/s) = 2.85396 3.57776 3.23616
# Velocity P-wave (km/s) = 4.30224 5.78377 5.09712
#
# Compressibility (1/GPa) = 0.06158376
#
# Stress axis : x y z
#
# Youngs Moduli (GPa) = 31.48994 30.99215 36.34238
#
# Poissons Ratio (x) = -0.42407 0.55851
# Poissons Ratio (y) = -0.43088 0.48308
# Poissons Ratio (z) = 0.48394 0.41196
#
# Static dielectric constant tensor:
#      x y z
#    x 1.806760 -0.019690 0.042970 
#    y -0.019690 1.754680 -0.018350 
#    z 0.042970 -0.018350 1.805330 
# 
# From -- ./inp_files/474094.got.cif
#   From: 2010.05.17/outbox.cif.g08.bks.cpg/sg2_238_cif.got.tgz:474094.got - 2010.06.03 11:33:40.
