data_PCOD9097644
_publ_section_title
;
Structure prediction by ZEFSAII (Michael W. Deem and Ramdas Pophale) SiO2 
 PCOD9097644
Probable space group: P -1
;
_chemical_formula_sum "Si O2"
_cell_formula_units_Z 16
_cell_length_a 12.344781
_cell_length_b 13.982562
_cell_length_c 8.048180
_cell_angle_alpha 102.140843
_cell_angle_beta 89.003183
_cell_angle_gamma 147.944801
_cell_volume 685.300786
_symmetry_space_group_name_H-M "P -1"
_symmetry_group_IT_number 2
_symmetry_cell_setting 'triclinic'
loop_
_space_group_symop_operation_xyz
x,y,z
-x,-y,-z
loop_
_atom_site_type_symbol
_atom_site_label
_atom_site_fract_x
_atom_site_fract_y
_atom_site_fract_z
Si Si1 0.033670 0.772917 0.002757
Si Si2 0.771039 0.866173 0.903961
Si Si3 0.770863 0.089087 0.597712
Si Si4 0.357136 0.755262 0.151696
Si Si5 0.234379 0.145731 0.494144
Si Si6 0.060950 0.576492 0.795280
Si Si7 0.325433 0.838725 0.610182
Si Si8 0.536043 0.386530 0.874698
O O1 0.098907 0.793588 0.195201
O O2 0.784890 0.613019 0.949046
O O3 0.188987 0.984566 0.030814
O O4 0.054939 0.689357 0.868965
O O5 0.724905 0.806279 0.687783
O O6 0.593548 0.693334 0.980085
O O7 0.000000 0.000000 0.000000
O O8 0.836470 0.210264 0.490895
O O9 0.775981 0.978983 0.526191
O O10 0.524379 0.932691 0.562941
O O11 0.448926 0.720219 0.166693
O O12 0.185441 0.646418 0.262129
O O13 0.532722 0.975520 0.211855
O O14 0.203908 0.636978 0.953660
O O15 0.407873 0.319163 0.687767
O O16 0.000000 0.000000 0.500000
O O17 0.187268 0.657739 0.654922
#
# Coordination Sequence:
#
# PCOD9097644 Si02
#       8
#     2   2   2   2   2   2   2   2
#     4  10  23  42  63  95 129 161 217 258 317 390
#     4  11  24  44  70  94 122 170 213 263 331 375
#     4  10  23  39  60  95 128 164 213 267 314 378
#     4  10  20  36  61  91 128 164 212 250 315 384
#     4  11  23  44  67  95 127 165 219 268 316 384
#     4  10  21  35  62  92 123 171 205 254 311 383
#     4  11  20  38  62  88 130 168 206 257 321 375
#     4  11  23  44  67  92 132 172 203 271 317 377
#
# _framework density 23.347414000000001
#
# number of rings (size 3 to 8) (size 9 to 14) (size 15 to 20)
#    0.000    1.500    3.750    1.125    3.500    0.500 
#    4.500    3.125    0.000    0.000    0.000    0.000 
#    0.000    0.000    0.000    0.000    0.000    0.000 
#
# Total GULP energy -89391.801158 kJ/mol
# GULP energy per Si atom -5586.987572 kJ/mol
# Density = 2.329427 g / cm^3
# Si number density = 23.347414 Si / 1000 Ang^3
#
#
#
# Elastic Constant Matrix: (Units=GPa)
#
#
# Indices 1 2 3 4 5 6 
#
# 1 81.9055 -8.0324 25.3111 2.3317 12.2188 11.6632
# 2 -8.0324 87.1730 31.7321 1.8815 5.3979 7.9713
# 3 25.3111 31.7321 111.5662 8.4910 29.6644 8.7646
# 4 2.3317 1.8815 8.4910 39.5124 2.2015 1.2194
# 5 12.2188 5.3979 29.6644 2.2015 38.4817 6.9234
# 6 11.6632 7.9713 8.7646 1.2194 6.9234 28.3750
#
#
#
# Elastic Compliance Matrix: (Units=1/GPa)
#
#
# Indices 1 2 3 4 5 6 
#
# 1 0.014564 0.003164 -0.003379 -0.000033 -0.001477 -0.005470
# 2 0.003164 0.013754 -0.004702 0.000216 0.001409 -0.004066
# 3 -0.003379 -0.004702 0.013466 -0.002011 -0.008668 0.000752
# 4 -0.000033 0.000216 -0.002011 0.025741 0.000160 -0.000571
# 5 -0.001477 0.001409 -0.008668 0.000160 0.033900 -0.005390
# 6 -0.005470 -0.004066 0.000752 -0.000571 -0.005390 0.039740
#
#
# Mechanical properties :
#
#
# Convention : Reuss Voigt Hill
#
# Bulk Modulus (GPa) = 31.29763 42.07404 36.68583
# Shear Modulus (GPa) = 30.93119 36.71608 33.82363
#
# Velocity S-wave (km/s) = 3.64376 3.96990 3.81032
# Velocity P-wave (km/s) = 5.58005 6.25088 5.92496
#
# Compressibility (1/GPa) = 0.03195130
#
# Stress axis : x y z
#
# Youngs Moduli (GPa) = 68.66257 72.70433 74.26121
#
# Poissons Ratio (x) = -0.23006 0.25094
# Poissons Ratio (y) = -0.21727 0.34916
# Poissons Ratio (z) = 0.23202 0.34184
#
# Static dielectric constant tensor:
#      x y z
#    x 1.870560 -0.037690 -0.018500 
#    y -0.037690 1.899930 -0.058990 
#    z -0.018500 -0.058990 2.020980 
# 
# From -- ./inp_files/273410.got.cif
#   From: 2010.05.17/outbox.cif.g08.bks.cpg/sg2_137_cif.got.tgz:273410.got - 2010.06.03 11:33:40.
