data_PCOD9097093
_publ_section_title
;
Structure prediction by ZEFSAII (Michael W. Deem and Ramdas Pophale) SiO2 
 PCOD9097093
Probable space group: P -1
;
_chemical_formula_sum "Si O2"
_cell_formula_units_Z 15
_cell_length_a 8.089002
_cell_length_b 7.640718
_cell_length_c 19.732953
_cell_angle_alpha 92.813942
_cell_angle_beta 131.691959
_cell_angle_gamma 124.688292
_cell_volume 537.381672
_symmetry_space_group_name_H-M "P -1"
_symmetry_group_IT_number 2
_symmetry_cell_setting 'triclinic'
loop_
_space_group_symop_operation_xyz
x,y,z
-x,-y,-z
loop_
_atom_site_type_symbol
_atom_site_label
_atom_site_fract_x
_atom_site_fract_y
_atom_site_fract_z
Si Si1 0.515886 0.021589 0.837200
Si Si2 0.000000 0.000000 0.000000
Si Si3 0.208598 0.631925 0.631349
Si Si4 0.913650 0.226241 0.766304
Si Si5 0.421172 0.253479 0.588497
Si Si6 0.963639 0.840056 0.346988
Si Si7 0.216934 0.360951 0.192457
Si Si8 0.266096 0.637201 0.978516
O O1 0.911804 0.331710 0.917426
O O2 0.200160 0.778264 0.690151
O O3 0.446793 0.117402 0.880607
O O4 0.639888 0.911911 0.898612
O O5 0.117499 0.144605 0.110037
O O6 0.000000 0.500000 0.500000
O O7 0.074284 0.368153 0.625850
O O8 0.635083 0.928937 0.728062
O O9 0.660222 0.235152 0.676657
O O10 0.022506 0.197798 0.727647
O O11 0.274236 0.509577 0.915200
O O12 0.639569 0.552072 0.689443
O O13 0.322743 0.168277 0.481245
O O14 0.000000 0.000000 0.500000
O O15 0.571749 0.680019 0.256462
O O16 0.879574 0.278943 0.093721
#
# Coordination Sequence:
#
# PCOD9097093 Si02
#       8
#     2   1   2   2   2   2   2   2
#     4   9  17  32  56  86 110 151 198 234 287 350
#     4  10  16  30  58  88 108 148 204 240 280 350
#     4  11  21  33  56  87 114 151 192 238 288 351
#     4  10  20  35  58  85 116 150 196 245 291 345
#     4   9  18  32  53  78 111 158 191 227 290 349
#     4  11  20  35  58  86 115 153 198 239 288 356
#     4   9  18  32  56  83 110 153 193 234 296 345
#     4   8  17  34  57  82 113 152 189 239 297 348
#
# _framework density 27.913122999999999
#
# number of rings (size 3 to 8) (size 9 to 14) (size 15 to 20)
#    0.000    2.400    2.667    0.400    0.000    0.000 
#    0.000    0.667    0.000   47.200    0.000    0.000 
#    0.000    0.000    0.000    0.000    0.000    0.000 
#
# Total GULP energy -83531.115826 kJ/mol
# GULP energy per Si atom -5568.741055 kJ/mol
# Density = 2.784959 g / cm^3
# Si number density = 27.913123 Si / 1000 Ang^3
#
#
#
# Elastic Constant Matrix: (Units=GPa)
#
#
# Indices 1 2 3 4 5 6 
#
# 1 114.4341 34.0508 113.9848 -4.1863 -43.9475 1.8002
# 2 34.0508 60.0804 37.3438 0.1575 -13.0703 10.7576
# 3 113.9848 37.3438 245.2699 -8.2341 -87.6865 8.0232
# 4 -4.1863 0.1575 -8.2341 39.4342 10.8332 4.2888
# 5 -43.9475 -13.0703 -87.6865 10.8332 91.3479 -6.2440
# 6 1.8002 10.7576 8.0232 4.2888 -6.2440 40.0731
#
#
#
# Elastic Compliance Matrix: (Units=1/GPa)
#
#
# Indices 1 2 3 4 5 6 
#
# 1 0.018023 -0.005957 -0.007144 -0.000130 0.001141 0.002412
# 2 -0.005957 0.021167 -0.000534 -0.000043 -0.000715 -0.005414
# 3 -0.007144 -0.000534 0.009484 -0.000251 0.005583 -0.000538
# 4 -0.000130 -0.000043 -0.000251 0.026676 -0.003704 -0.003364
# 5 0.001141 -0.000715 0.005583 -0.003704 0.017337 0.002121
# 6 0.002412 -0.005414 -0.000538 -0.003364 0.002121 0.027098
#
#
# Mechanical properties :
#
#
# Convention : Reuss Voigt Hill
#
# Bulk Modulus (GPa) = 46.72456 87.83812 67.28134
# Shear Modulus (GPa) = 32.42761 49.79803 41.11282
#
# Velocity S-wave (km/s) = 3.41212 4.22837 3.84198
# Velocity P-wave (km/s) = 5.68322 7.44147 6.62097
#
# Compressibility (1/GPa) = 0.02140202
#
# Stress axis : x y z
#
# Youngs Moduli (GPa) = 55.48527 47.24404 105.44287
#
# Poissons Ratio (x) = 0.28144 0.75330
# Poissons Ratio (y) = 0.33054 0.05634
# Poissons Ratio (z) = 0.39639 0.02524
#
# Static dielectric constant tensor:
#      x y z
#    x 2.245930 -0.008530 0.002400 
#    y -0.008530 2.265870 -0.006360 
#    z 0.002400 -0.006360 2.188790 
# 
# From -- ./inp_files/211182.got.cif
#   From: 2010.05.17/outbox.cif.g08.bks.cpg/sg2_106_cif.got.tgz:211182.got - 2010.06.03 11:33:40.
