data_PCOD9097240
_publ_section_title
;
Structure prediction by ZEFSAII (Michael W. Deem and Ramdas Pophale) SiO2 
 PCOD9097240
Probable space group: P -1
;
_chemical_formula_sum "Si O2"
_cell_formula_units_Z 16
_cell_length_a 8.926748
_cell_length_b 16.733530
_cell_length_c 9.412875
_cell_angle_alpha 109.630297
_cell_angle_beta 97.235865
_cell_angle_gamma 139.644875
_cell_volume 668.534040
_symmetry_space_group_name_H-M "P -1"
_symmetry_group_IT_number 2
_symmetry_cell_setting 'triclinic'
loop_
_space_group_symop_operation_xyz
x,y,z
-x,-y,-z
loop_
_atom_site_type_symbol
_atom_site_label
_atom_site_fract_x
_atom_site_fract_y
_atom_site_fract_z
Si Si1 0.657721 0.598308 0.326965
Si Si2 0.345757 0.155708 0.664804
Si Si3 0.086816 0.755078 0.700738
Si Si4 0.975937 0.099304 0.085423
Si Si5 0.549762 0.672834 0.965997
Si Si6 0.319866 0.952243 0.580340
Si Si7 0.505039 0.691712 0.504904
Si Si8 0.665789 0.300157 0.241217
O O1 0.524625 0.462100 0.130242
O O2 0.463038 0.581591 0.352840
O O3 0.777847 0.606861 0.487494
O O4 0.964265 0.781714 0.406119
O O5 0.488181 0.236535 0.576499
O O6 0.409655 0.093588 0.699110
O O7 0.426669 0.271202 0.847616
O O8 0.000000 0.000000 0.500000
O O9 0.084692 0.831159 0.854584
O O10 0.324686 0.896977 0.690311
O O11 0.152275 0.697756 0.743363
O O12 0.156116 0.177121 0.007198
O O13 0.184563 0.174217 0.290267
O O14 0.673231 0.900860 0.928912
O O15 0.306998 0.614152 0.821876
O O16 0.500000 0.000000 0.500000
O O17 0.306017 0.637747 0.569306
#
# Coordination Sequence:
#
# PCOD9097240 Si02
#       8
#     2   2   2   2   2   2   2   2
#     4   9  22  42  55  90 124 160 194 251 305 353
#     4  12  20  38  64  89 112 159 206 245 290 354
#     4   9  20  37  60  84 126 156 199 242 301 358
#     4  10  20  37  60  93 122 156 199 250 299 346
#     4  11  24  37  63  90 126 155 201 251 297 350
#     4  10  21  39  62  85 119 160 197 242 304 357
#     4  10  20  36  60  82 121 154 201 242 294 354
#     4  11  20  35  63  92 118 157 206 245 291 357
#
# _framework density 23.932962
#
# number of rings (size 3 to 8) (size 9 to 14) (size 15 to 20)
#    0.750    1.000    1.250    4.875    0.000    5.500 
#    0.000    0.625    0.000    0.000    0.000    0.000 
#    0.000    0.000    0.000    0.000    0.000    0.000 
#
# Total GULP energy -89439.520070 kJ/mol
# GULP energy per Si atom -5589.970004 kJ/mol
# Density = 2.387849 g / cm^3
# Si number density = 23.932962 Si / 1000 Ang^3
#
#
#
# Elastic Constant Matrix: (Units=GPa)
#
#
# Indices 1 2 3 4 5 6 
#
# 1 131.3151 29.1857 26.9940 2.9384 -36.5689 -6.7165
# 2 29.1857 60.4585 35.6625 1.1186 -6.2704 0.3766
# 3 26.9940 35.6625 92.8182 0.7241 -32.1496 -4.2079
# 4 2.9384 1.1186 0.7241 41.4624 -12.3867 -15.1990
# 5 -36.5689 -6.2704 -32.1496 -12.3867 37.8241 1.8624
# 6 -6.7165 0.3766 -4.2079 -15.1990 1.8624 37.1081
#
#
#
# Elastic Compliance Matrix: (Units=1/GPa)
#
#
# Indices 1 2 3 4 5 6 
#
# 1 0.013498 -0.008165 0.005793 0.006492 0.018505 0.004913
# 2 -0.008165 0.027345 -0.014473 -0.007212 -0.017756 -0.005459
# 3 0.005793 -0.014473 0.024091 0.009953 0.026610 0.006669
# 4 0.006492 -0.007212 0.009953 0.037097 0.024886 0.016322
# 5 0.018505 -0.017756 0.026610 0.024886 0.071505 0.013151
# 6 0.004913 -0.005459 0.006669 0.016322 0.013151 0.034675
#
#
# Mechanical properties :
#
#
# Convention : Reuss Voigt Hill
#
# Bulk Modulus (GPa) = 32.00528 52.03068 42.01798
# Shear Modulus (GPa) = 19.81641 36.12888 27.97265
#
# Velocity S-wave (km/s) = 2.88061 3.88956 3.42247
# Velocity P-wave (km/s) = 4.94630 6.47757 5.76302
#
# Compressibility (1/GPa) = 0.03124484
#
# Stress axis : x y z
#
# Youngs Moduli (GPa) = 74.08277 36.56982 41.50870
#
# Poissons Ratio (x) = 0.29859 -0.24046
# Poissons Ratio (y) = 0.60487 0.60076
# Poissons Ratio (z) = -0.42917 0.52928
#
# Static dielectric constant tensor:
#      x y z
#    x 2.042530 0.186410 0.047200 
#    y 0.186410 2.234540 0.010300 
#    z 0.047200 0.010300 1.926810 
# 
# From -- ./inp_files/218313.got.cif
#   From: 2010.05.17/outbox.cif.g08.bks.cpg/sg2_110_cif.got.tgz:218313.got - 2010.06.03 11:33:40.
