data_PCOD9097422
_publ_section_title
;
Structure prediction by ZEFSAII (Michael W. Deem and Ramdas Pophale) SiO2 
 PCOD9097422
Probable space group: P -1
;
_chemical_formula_sum "Si O2"
_cell_formula_units_Z 16
_cell_length_a 22.161413
_cell_length_b 6.715053
_cell_length_c 7.030784
_cell_angle_alpha 42.722857
_cell_angle_beta 68.477381
_cell_angle_gamma 74.557441
_cell_volume 660.351044
_symmetry_space_group_name_H-M "P -1"
_symmetry_group_IT_number 2
_symmetry_cell_setting 'triclinic'
loop_
_space_group_symop_operation_xyz
x,y,z
-x,-y,-z
loop_
_atom_site_type_symbol
_atom_site_label
_atom_site_fract_x
_atom_site_fract_y
_atom_site_fract_z
Si Si1 0.033981 0.185294 0.714676
Si Si2 0.426530 0.430075 0.698014
Si Si3 0.548035 0.254269 0.199812
Si Si4 0.630355 0.163415 0.804479
Si Si5 0.220181 0.936712 0.254449
Si Si6 0.039887 0.108786 0.241930
Si Si7 0.146248 0.543719 0.904660
Si Si8 0.862423 0.381633 0.694431
O O1 0.032051 0.083200 0.522195
O O2 0.107913 0.290186 0.594249
O O3 0.000000 0.500000 0.500000
O O4 0.011194 0.124912 0.024997
O O5 0.500000 0.500000 0.500000
O O6 0.412847 0.645791 0.732970
O O7 0.382032 0.533330 0.503468
O O8 0.414423 0.108651 0.022826
O O9 0.500000 0.000000 0.500000
O O10 0.500000 0.500000 0.000000
O O11 0.601019 0.184809 0.031946
O O12 0.704457 0.072209 0.778661
O O13 0.177997 0.802178 0.568443
O O14 0.205505 0.712621 0.253050
O O15 0.194444 0.266100 0.024418
O O16 0.092018 0.853726 0.303381
O O17 0.077692 0.422128 0.986958
O O18 0.136888 0.644418 0.061167
#
# Coordination Sequence:
#
# PCOD9097422 Si02
#       8
#     2   2   2   2   2   2   2   2
#     4  10  20  36  60  91 125 159 206 266 337 391
#     4  12  23  42  72 101 140 172 212 272 338 386
#     4  12  23  40  69 105 136 171 212 266 337 391
#     4  12  25  44  66 101 138 177 224 274 321 404
#     4  11  27  45  66  94 133 182 233 268 324 398
#     4  10  20  40  65 103 128 165 220 280 347 407
#     4  11  24  45  68  94 133 179 227 282 337 391
#     4  10  23  44  66  94 135 176 220 286 331 398
#
# _framework density 24.229534000000001
#
# number of rings (size 3 to 8) (size 9 to 14) (size 15 to 20)
#    0.000    1.000    3.750    2.625    0.000    6.000 
#    0.000    2.500    0.000    0.000    0.000    0.000 
#    0.000    0.000    0.000    0.000    0.000    0.000 
#
# Total GULP energy -89312.183361 kJ/mol
# GULP energy per Si atom -5582.011460 kJ/mol
# Density = 2.417439 g / cm^3
# Si number density = 24.229534 Si / 1000 Ang^3
#
#
#
# Elastic Constant Matrix: (Units=GPa)
#
#
# Indices 1 2 3 4 5 6 
#
# 1 83.6299 18.6530 8.4935 -1.7319 -3.1465 -8.2385
# 2 18.6530 110.1111 23.8903 19.1293 -1.4187 5.4674
# 3 8.4935 23.8903 134.7019 -0.6057 -0.5870 -2.0688
# 4 -1.7319 19.1293 -0.6057 55.9445 -0.4474 8.3483
# 5 -3.1465 -1.4187 -0.5870 -0.4474 28.4524 -4.4022
# 6 -8.2385 5.4674 -2.0688 8.3483 -4.4022 33.6689
#
#
#
# Elastic Compliance Matrix: (Units=1/GPa)
#
#
# Indices 1 2 3 4 5 6 
#
# 1 0.012968 -0.002402 -0.000325 0.000695 0.001878 0.003616
# 2 -0.002402 0.010549 -0.001759 -0.003469 -0.000072 -0.001558
# 3 -0.000325 -0.001759 0.007768 0.000594 0.000132 0.000553
# 4 0.000695 -0.003469 0.000594 0.019708 -0.000419 -0.004172
# 5 0.001878 -0.000072 0.000132 -0.000419 0.036169 0.005312
# 6 0.003616 -0.001558 0.000553 -0.004172 0.005312 0.032602
#
#
# Mechanical properties :
#
#
# Convention : Reuss Voigt Hill
#
# Bulk Modulus (GPa) = 44.81856 47.83517 46.32686
# Shear Modulus (GPa) = 36.71774 42.10690 39.41232
#
# Velocity S-wave (km/s) = 3.89705 4.17326 4.03752
# Velocity P-wave (km/s) = 6.22792 6.55796 6.39507
#
# Compressibility (1/GPa) = 0.02231219
#
# Stress axis : x y z
#
# Youngs Moduli (GPa) = 77.11548 94.79150 128.73228
#
# Poissons Ratio (x) = 0.22772 0.04180
# Poissons Ratio (y) = 0.18526 0.22649
# Poissons Ratio (z) = 0.02504 0.16677
#
# Static dielectric constant tensor:
#      x y z
#    x 2.055240 0.244580 0.223410 
#    y 0.244580 2.351610 0.447720 
#    z 0.223410 0.447720 2.331370 
# 
# From -- ./inp_files/121387.got.cif
#   From: 2010.05.17/outbox.cif.g08.bks.cpg/sg2_61_cif.got.tgz:121387.got - 2010.06.03 11:33:40.
