data_PCOD9097595
_publ_section_title
;
Structure prediction by ZEFSAII (Michael W. Deem and Ramdas Pophale) SiO2 
 PCOD9097595
Probable space group: P -1
;
_chemical_formula_sum "Si O2"
_cell_formula_units_Z 16
_cell_length_a 11.666941
_cell_length_b 15.020151
_cell_length_c 15.081903
_cell_angle_alpha 35.131443
_cell_angle_beta 28.187739
_cell_angle_gamma 35.424325
_cell_volume 674.049702
_symmetry_space_group_name_H-M "P -1"
_symmetry_group_IT_number 2
_symmetry_cell_setting 'triclinic'
loop_
_space_group_symop_operation_xyz
x,y,z
-x,-y,-z
loop_
_atom_site_type_symbol
_atom_site_label
_atom_site_fract_x
_atom_site_fract_y
_atom_site_fract_z
Si Si1 0.051936 0.078692 0.039014
Si Si2 0.297666 0.310711 0.052723
Si Si3 0.736097 0.708371 0.709270
Si Si4 0.850340 0.343664 0.101555
Si Si5 0.222462 0.051681 0.200013
Si Si6 0.702880 0.615017 0.622777
Si Si7 0.646906 0.966964 0.301026
Si Si8 0.786797 0.217017 0.683948
O O1 0.966139 0.253201 0.004459
O O2 0.822549 0.058935 0.152419
O O3 0.128870 0.929050 0.179242
O O4 0.276115 0.064300 0.828187
O O5 0.380436 0.302546 0.106406
O O6 0.246622 0.142685 0.199885
O O7 0.085170 0.494173 0.049471
O O8 0.499574 0.313712 0.835749
O O9 0.655191 0.616101 0.759937
O O10 0.042965 0.666362 0.531343
O O11 0.638241 0.905164 0.598055
O O12 0.538872 0.400190 0.254966
O O13 0.987161 0.196850 0.196019
O O14 0.180562 0.878906 0.354095
O O15 0.500000 0.000000 0.000000
O O16 0.692841 0.797267 0.455870
O O17 0.000000 0.500000 0.500000
#
# Coordination Sequence:
#
# PCOD9097595 Si02
#       8
#     2   2   2   2   2   2   2   2
#     4  10  20  36  61  89 122 172 213 261 307 387
#     4  11  24  41  65  96 129 170 219 271 325 380
#     4  12  23  40  67  95 131 174 213 264 324 392
#     4  11  23  40  66  92 132 174 212 263 334 380
#     4   9  21  43  71  92 122 170 222 278 322 373
#     4  12  26  40  61  98 140 171 206 266 326 394
#     4  11  21  38  61  89 130 171 219 255 313 389
#     4  10  20  41  64  94 124 161 221 265 322 382
#
# _framework density 23.737121999999999
#
# number of rings (size 3 to 8) (size 9 to 14) (size 15 to 20)
#    0.000    1.250    3.750    3.000    1.750    1.000 
#    0.000    0.000    0.000    4.500    0.000    0.000 
#    0.000    0.000    0.000    0.000    0.000    0.000 
#
# Total GULP energy -89224.941089 kJ/mol
# GULP energy per Si atom -5576.558818 kJ/mol
# Density = 2.368310 g / cm^3
# Si number density = 23.737122 Si / 1000 Ang^3
#
#
#
# Elastic Constant Matrix: (Units=GPa)
#
#
# Indices 1 2 3 4 5 6 
#
# 1 90.9070 36.6983 14.8766 11.1739 -8.1238 15.9988
# 2 36.6983 103.3024 13.8319 5.3364 15.7832 20.0293
# 3 14.8766 13.8319 65.8508 13.1502 6.8000 4.7868
# 4 11.1739 5.3364 13.1502 24.8544 1.4653 -1.4188
# 5 -8.1238 15.7832 6.8000 1.4653 18.7279 7.2281
# 6 15.9988 20.0293 4.7868 -1.4188 7.2281 42.3003
#
#
#
# Elastic Compliance Matrix: (Units=1/GPa)
#
#
# Indices 1 2 3 4 5 6 
#
# 1 0.017756 -0.007090 -0.002582 -0.006487 0.017547 -0.006282
# 2 -0.007090 0.014774 0.000007 0.000792 -0.014920 -0.001739
# 3 -0.002582 0.000007 0.018103 -0.008014 -0.007016 -0.000145
# 4 -0.006487 0.000792 -0.008014 0.047931 -0.006525 0.005708
# 5 0.017547 -0.014920 -0.007016 -0.006525 0.081637 -0.012947
# 6 -0.006282 -0.001739 -0.000145 0.005708 -0.012947 0.029260
#
#
# Mechanical properties :
#
#
# Convention : Reuss Voigt Hill
#
# Bulk Modulus (GPa) = 31.94470 43.43041 37.68756
# Shear Modulus (GPa) = 20.90090 30.15342 25.52716
#
# Velocity S-wave (km/s) = 2.97057 3.56800 3.28290
# Velocity P-wave (km/s) = 5.02520 5.94225 5.50286
#
# Compressibility (1/GPa) = 0.03130409
#
# Stress axis : x y z
#
# Youngs Moduli (GPa) = 56.31898 67.68747 55.23958
#
# Poissons Ratio (x) = 0.47990 0.14262
# Poissons Ratio (y) = 0.39929 -0.00041
# Poissons Ratio (z) = 0.14541 -0.00050
#
# Static dielectric constant tensor:
#      x y z
#    x 2.010180 -0.005270 -0.038980 
#    y -0.005270 1.907740 -0.007380 
#    z -0.038980 -0.007380 1.947090 
# 
# From -- ./inp_files/521411.got.cif
#   From: 2010.05.17/outbox.cif.g08.bks.cpg/sg2_261_cif.got.tgz:521411.got - 2010.06.03 11:33:40.
