data_PCOD9097956
_publ_section_title
;
Structure prediction by ZEFSAII (Michael W. Deem and Ramdas Pophale) SiO2 
 PCOD9097956
Probable space group: P -1
;
_chemical_formula_sum "Si O2"
_cell_formula_units_Z 16
_cell_length_a 17.071501
_cell_length_b 26.315267
_cell_length_c 14.712901
_cell_angle_alpha 19.289193
_cell_angle_beta 27.170081
_cell_angle_gamma 19.925290
_cell_volume 743.937928
_symmetry_space_group_name_H-M "P -1"
_symmetry_group_IT_number 2
_symmetry_cell_setting 'triclinic'
loop_
_space_group_symop_operation_xyz
x,y,z
-x,-y,-z
loop_
_atom_site_type_symbol
_atom_site_label
_atom_site_fract_x
_atom_site_fract_y
_atom_site_fract_z
Si Si1 0.972961 0.330017 0.309060
Si Si2 0.438143 0.019148 0.426821
Si Si3 0.177716 0.392849 0.367997
Si Si4 0.971416 0.086307 0.571844
Si Si5 0.982792 0.258651 0.932976
Si Si6 0.734617 0.010487 0.731684
Si Si7 0.291880 0.305029 0.769818
Si Si8 0.460028 0.304677 0.790406
O O1 0.166196 0.151271 0.478539
O O2 0.028453 0.204214 0.371996
O O3 0.707154 0.469319 0.373408
O O4 0.000000 0.500000 0.000000
O O5 0.500000 0.000000 0.500000
O O6 0.592354 0.793016 0.606302
O O7 0.483833 0.145738 0.104040
O O8 0.192735 0.539583 0.164214
O O9 0.105919 0.302957 0.664106
O O10 0.960759 0.527464 0.295128
O O11 0.707062 0.212692 0.656505
O O12 0.048967 0.064612 0.424560
O O13 0.093617 0.846957 0.865338
O O14 0.172071 0.092693 0.091897
O O15 0.502402 0.247101 0.588605
O O16 0.659502 0.905741 0.929148
O O17 0.322425 0.341116 0.779393
#
# Coordination Sequence:
#
# PCOD9097956 Si02
#       8
#     2   2   2   2   2   2   2   2
#     4  10  24  42  66  91 116 167 217 260 313 377
#     4  11  22  42  69  90 125 167 218 257 311 383
#     4  10  21  40  64  94 130 177 207 249 315 375
#     4  12  22  39  68  94 133 156 211 270 317 367
#     4  10  21  37  63  91 134 167 204 254 312 374
#     4  10  20  36  62  95 125 170 208 256 305 367
#     4  10  20  37  66  92 126 166 216 248 300 383
#     4  11  22  41  65  94 125 163 212 267 316 359
#
# _framework density 21.507171
#
# number of rings (size 3 to 8) (size 9 to 14) (size 15 to 20)
#    0.000    1.500    2.500    3.000    0.000    6.000 
#    0.000    3.125    5.500    0.000    0.000    0.000 
#    0.000    0.000    0.000    0.000    0.000    0.000 
#
# Total GULP energy -89128.233161 kJ/mol
# GULP energy per Si atom -5570.514573 kJ/mol
# Density = 2.145822 g / cm^3
# Si number density = 21.507171 Si / 1000 Ang^3
#
#
#
# Elastic Constant Matrix: (Units=GPa)
#
#
# Indices 1 2 3 4 5 6 
#
# 1 111.4008 35.7474 39.8491 -11.6592 -10.4266 24.1559
# 2 35.7474 144.3599 40.3452 -23.4814 4.8470 19.2823
# 3 39.8491 40.3452 54.5280 -11.2559 -11.0361 6.7345
# 4 -11.6592 -23.4814 -11.2559 39.5982 9.5059 -8.7806
# 5 -10.4266 4.8470 -11.0361 9.5059 29.9673 -11.1879
# 6 24.1559 19.2823 6.7345 -8.7806 -11.1879 32.5425
#
#
#
# Elastic Compliance Matrix: (Units=1/GPa)
#
#
# Indices 1 2 3 4 5 6 
#
# 1 0.014321 0.000774 -0.010325 0.000206 -0.002675 -0.009816
# 2 0.000774 0.011283 -0.008832 0.004990 -0.009082 -0.007208
# 3 -0.010325 -0.008832 0.034052 0.000376 0.014317 0.010874
# 4 0.000206 0.004990 0.000376 0.031139 -0.009784 0.001851
# 5 -0.002675 -0.009082 0.014317 -0.009784 0.049266 0.018702
# 6 -0.009816 -0.007208 0.010874 0.001851 0.018702 0.046965
#
#
# Mechanical properties :
#
#
# Convention : Reuss Voigt Hill
#
# Bulk Modulus (GPa) = 43.68686 60.24136 51.96411
# Shear Modulus (GPa) = 21.60540 33.37807 27.49173
#
# Velocity S-wave (km/s) = 3.17293 3.94375 3.57915
# Velocity P-wave (km/s) = 5.81207 6.98629 6.42606
#
# Compressibility (1/GPa) = 0.02289018
#
# Stress axis : x y z
#
# Youngs Moduli (GPa) = 69.82521 88.62685 29.36710
#
# Poissons Ratio (x) = -0.06858 0.30322
# Poissons Ratio (y) = -0.05403 0.25936
# Poissons Ratio (z) = 0.72095 0.78273
#
# Static dielectric constant tensor:
#      x y z
#    x 1.818050 -0.009350 -0.061390 
#    y -0.009350 1.876150 0.049960 
#    z -0.061390 0.049960 1.862330 
# 
# From -- ./inp_files/539335.got.cif
#   From: 2010.05.17/outbox.cif.g08.bks.cpg/sg2_270_cif.got.tgz:539335.got - 2010.06.03 11:33:40.
