data_PCOD9097607
_publ_section_title
;
Structure prediction by ZEFSAII (Michael W. Deem and Ramdas Pophale) SiO2 
 PCOD9097607
Probable space group: P -1
;
_chemical_formula_sum "Si O2"
_cell_formula_units_Z 16
_cell_length_a 12.172968
_cell_length_b 10.687693
_cell_length_c 5.602228
_cell_angle_alpha 94.103942
_cell_angle_beta 99.727101
_cell_angle_gamma 110.301360
_cell_volume 667.036689
_symmetry_space_group_name_H-M "P -1"
_symmetry_group_IT_number 2
_symmetry_cell_setting 'triclinic'
loop_
_space_group_symop_operation_xyz
x,y,z
-x,-y,-z
loop_
_atom_site_type_symbol
_atom_site_label
_atom_site_fract_x
_atom_site_fract_y
_atom_site_fract_z
Si Si1 0.114806 0.075101 0.780425
Si Si2 0.419155 0.847889 0.680010
Si Si3 0.274716 0.300505 0.512122
Si Si4 0.324324 0.562557 0.876811
Si Si5 0.061241 0.563751 0.784319
Si Si6 0.498448 0.718851 0.314289
Si Si7 0.651879 0.945429 0.048326
Si Si8 0.032681 0.208098 0.178339
O O1 0.196141 0.168056 0.617158
O O2 0.219595 0.053491 0.981400
O O3 0.044937 0.152295 0.913589
O O4 0.022754 0.923423 0.690968
O O5 0.380624 0.703349 0.775023
O O6 0.422993 0.803062 0.404752
O O7 0.340101 0.930443 0.756333
O O8 0.556232 0.939203 0.809048
O O9 0.318969 0.431870 0.712819
O O10 0.400745 0.293872 0.469410
O O11 0.170159 0.304328 0.298624
O O12 0.189090 0.551777 0.852713
O O13 0.403600 0.584303 0.148472
O O14 0.000000 0.500000 0.500000
O O15 0.054217 0.710944 0.811991
O O16 0.000000 0.500000 0.000000
O O17 0.582315 0.810031 0.152545
#
# Coordination Sequence:
#
# PCOD9097607 Si02
#       8
#     2   2   2   2   2   2   2   2
#     4  10  22  40  63  94 128 174 228 285 343 412
#     4  10  20  36  61  89 128 168 223 276 343 411
#     4  11  22  41  62  92 136 171 225 284 342 413
#     4  11  24  40  62  95 132 176 224 280 341 412
#     4  12  27  48  73 103 140 188 230 285 349 411
#     4  10  22  37  63  94 123 176 220 279 349 407
#     4   9  19  38  58  88 128 166 221 285 339 409
#     4  11  23  41  68  95 129 179 230 284 345 411
#
# _framework density 23.986688000000001
#
# number of rings (size 3 to 8) (size 9 to 14) (size 15 to 20)
#    0.000    1.500    1.250    3.375    1.750    1.500 
#    0.000    2.500    0.000    0.000    0.000    0.000 
#    0.000    0.000    0.000    0.000    0.000    0.000 
#
# Total GULP energy -89305.605035 kJ/mol
# GULP energy per Si atom -5581.600315 kJ/mol
# Density = 2.393209 g / cm^3
# Si number density = 23.986688 Si / 1000 Ang^3
#
#
#
# Elastic Constant Matrix: (Units=GPa)
#
#
# Indices 1 2 3 4 5 6 
#
# 1 100.6830 22.0326 19.0519 12.4661 -11.8386 3.8062
# 2 22.0326 66.9307 13.8410 17.1319 -0.2827 3.6553
# 3 19.0519 13.8410 54.2836 19.0724 -3.5488 10.4225
# 4 12.4661 17.1319 19.0724 36.6376 -2.7110 -4.9736
# 5 -11.8386 -0.2827 -3.5488 -2.7110 35.4113 10.5092
# 6 3.8062 3.6553 10.4225 -4.9736 10.5092 35.5781
#
#
#
# Elastic Compliance Matrix: (Units=1/GPa)
#
#
# Indices 1 2 3 4 5 6 
#
# 1 0.011715 -0.002928 -0.002311 -0.001339 0.004052 -0.001659
# 2 -0.002928 0.018061 -0.000575 -0.007507 -0.000820 -0.002181
# 3 -0.002311 -0.000575 0.026561 -0.013916 0.003962 -0.010591
# 4 -0.001339 -0.007507 -0.013916 0.039865 -0.002176 0.011207
# 5 0.004052 -0.000820 0.003962 -0.002176 0.033273 -0.011642
# 6 -0.001659 -0.002181 -0.010591 0.011207 -0.011642 0.036617
#
#
# Mechanical properties :
#
#
# Convention : Reuss Voigt Hill
#
# Bulk Modulus (GPa) = 22.36658 36.86092 29.61375
# Shear Modulus (GPa) = 25.95746 32.65686 29.30716
#
# Velocity S-wave (km/s) = 3.29319 3.69380 3.49923
# Velocity P-wave (km/s) = 4.87903 5.79593 5.35713
#
# Compressibility (1/GPa) = 0.04470956
#
# Stress axis : x y z
#
# Youngs Moduli (GPa) = 85.35936 55.36912 37.64870
#
# Poissons Ratio (x) = 0.16212 0.08701
# Poissons Ratio (y) = 0.24993 0.02164
# Poissons Ratio (z) = 0.19727 0.03183
#
# Static dielectric constant tensor:
#      x y z
#    x 1.982420 -0.055270 0.107570 
#    y -0.055270 1.933460 -0.059740 
#    z 0.107570 -0.059740 2.045330 
# 
# From -- ./inp_files/71854.got.cif
#   From: 2010.05.17/outbox.cif.g08.bks.cpg/sg2_36_cif.got.tgz:71854.got - 2010.06.03 11:33:40.
