data_PCOD9097469
_publ_section_title
;
Structure prediction by ZEFSAII (Michael W. Deem and Ramdas Pophale) SiO2 
 PCOD9097469
Probable space group: P -1
;
_chemical_formula_sum "Si O2"
_cell_formula_units_Z 15
_cell_length_a 9.060427
_cell_length_b 19.562880
_cell_length_c 9.508268
_cell_angle_alpha 146.603054
_cell_angle_beta 50.049233
_cell_angle_gamma 141.084404
_cell_volume 582.598279
_symmetry_space_group_name_H-M "P -1"
_symmetry_group_IT_number 2
_symmetry_cell_setting 'triclinic'
loop_
_space_group_symop_operation_xyz
x,y,z
-x,-y,-z
loop_
_atom_site_type_symbol
_atom_site_label
_atom_site_fract_x
_atom_site_fract_y
_atom_site_fract_z
Si Si1 0.453775 0.282819 0.177209
Si Si2 0.500000 0.000000 0.000000
Si Si3 0.830435 0.204727 0.605464
Si Si4 0.239538 0.793166 0.981783
Si Si5 0.981952 0.141556 0.112070
Si Si6 0.327652 0.460443 0.751832
Si Si7 0.763655 0.696493 0.024165
Si Si8 0.657192 0.938581 0.473945
O O1 0.382904 0.343970 0.456765
O O2 0.591690 0.417982 0.213113
O O3 0.206657 0.139391 0.019060
O O4 0.632313 0.244694 0.052956
O O5 0.751681 0.019144 0.957302
O O6 0.337288 0.810225 0.795681
O O7 0.901157 0.171928 0.357168
O O8 0.581811 0.171839 0.655443
O O9 0.052393 0.370091 0.793485
O O10 0.795923 0.086911 0.544173
O O11 0.369517 0.981607 0.232790
O O12 0.963986 0.708663 0.015735
O O13 0.131286 0.288133 0.170532
O O14 0.499490 0.552208 0.934080
O O15 0.765711 0.847687 0.294379
#
# Coordination Sequence:
#
# PCOD9097469 Si02
#       8
#     2   1   2   2   2   2   2   2
#     4   9  20  38  66  91 125 161 219 265 301 366
#     4  10  20  36  60  94 128 160 204 254 324 366
#     4  10  22  39  66  93 127 165 218 254 319 374
#     4  11  23  40  62  95 130 169 208 261 317 379
#     4   9  19  36  60  92 117 162 207 254 300 372
#     4   9  20  41  63  94 119 170 211 262 309 372
#     4  10  23  40  66  89 134 165 207 262 321 366
#     4  11  24  40  61  99 130 166 204 271 314 375
#
# _framework density 25.746729999999999
#
# number of rings (size 3 to 8) (size 9 to 14) (size 15 to 20)
#    0.000    2.133    1.333    1.200    7.467    6.400 
#    0.000    0.667    2.933    0.000    0.000    0.000 
#    0.000    0.000    0.000    0.000    0.000    0.000 
#
# Total GULP energy -83593.432939 kJ/mol
# GULP energy per Si atom -5572.895529 kJ/mol
# Density = 2.568813 g / cm^3
# Si number density = 25.746730 Si / 1000 Ang^3
#
#
#
# Elastic Constant Matrix: (Units=GPa)
#
#
# Indices 1 2 3 4 5 6 
#
# 1 219.3328 61.1971 52.4951 10.9571 -13.8687 42.2099
# 2 61.1971 118.1277 16.9715 4.1459 2.3744 37.4491
# 3 52.4951 16.9715 79.2860 0.8804 -4.7767 9.6974
# 4 10.9571 4.1459 0.8804 27.3733 6.8973 18.9805
# 5 -13.8687 2.3744 -4.7767 6.8973 30.3913 -3.2516
# 6 42.2099 37.4491 9.6974 18.9805 -3.2516 61.5616
#
#
#
# Elastic Compliance Matrix: (Units=1/GPa)
#
#
# Indices 1 2 3 4 5 6 
#
# 1 0.006685 -0.002333 -0.003497 -0.001541 0.002820 -0.001990
# 2 -0.002333 0.012008 -0.000413 0.005367 -0.004089 -0.007511
# 3 -0.003497 -0.000413 0.015036 0.000765 0.000635 0.000078
# 4 -0.001541 0.005367 0.000765 0.053870 -0.015341 -0.019748
# 5 0.002820 -0.004089 0.000635 -0.015341 0.038866 0.007237
# 6 -0.001990 -0.007511 0.000078 -0.019748 0.007237 0.028636
#
#
# Mechanical properties :
#
#
# Convention : Reuss Voigt Hill
#
# Bulk Modulus (GPa) = 47.07050 75.34154 61.20602
# Shear Modulus (GPa) = 28.62563 42.93741 35.78152
#
# Velocity S-wave (km/s) = 3.33801 4.08816 3.73198
# Velocity P-wave (km/s) = 5.76005 7.18402 6.51108
#
# Compressibility (1/GPa) = 0.02124473
#
# Stress axis : x y z
#
# Youngs Moduli (GPa) = 149.58209 83.27586 66.50578
#
# Poissons Ratio (x) = 0.19427 0.23254
# Poissons Ratio (y) = 0.34895 0.02748
# Poissons Ratio (z) = 0.52302 0.03441
#
# Static dielectric constant tensor:
#      x y z
#    x 2.171950 -0.068160 0.032120 
#    y -0.068160 2.249250 -0.152800 
#    z 0.032120 -0.152800 2.148310 
# 
# From -- ./inp_files/405045.got.cif
#   From: 2010.05.17/outbox.cif.g08.bks.cpg/sg2_203_cif.got.tgz:405045.got - 2010.06.03 11:33:40.
