data_PCOD9097574
_publ_section_title
;
Structure prediction by ZEFSAII (Michael W. Deem and Ramdas Pophale) SiO2 
 PCOD9097574
Probable space group: P -1
;
_chemical_formula_sum "Si O2"
_cell_formula_units_Z 16
_cell_length_a 7.011161
_cell_length_b 8.474462
_cell_length_c 13.706192
_cell_angle_alpha 126.178534
_cell_angle_beta 87.883485
_cell_angle_gamma 107.804977
_cell_volume 614.837382
_symmetry_space_group_name_H-M "P -1"
_symmetry_group_IT_number 2
_symmetry_cell_setting 'triclinic'
loop_
_space_group_symop_operation_xyz
x,y,z
-x,-y,-z
loop_
_atom_site_type_symbol
_atom_site_label
_atom_site_fract_x
_atom_site_fract_y
_atom_site_fract_z
Si Si1 0.913429 0.521444 0.683439
Si Si2 0.399451 0.949143 0.087526
Si Si3 0.618578 0.946570 0.390235
Si Si4 0.643052 0.491212 0.855096
Si Si5 0.763288 0.108763 0.253597
Si Si6 0.193264 0.167149 0.307925
Si Si7 0.221085 0.509366 0.928063
Si Si8 0.978374 0.162338 0.658087
O O1 0.805832 0.588224 0.802045
O O2 0.807898 0.596283 0.619770
O O3 0.150114 0.671153 0.723022
O O4 0.912495 0.290388 0.621051
O O5 0.584557 0.930098 0.140459
O O6 0.346989 0.121932 0.214192
O O7 0.207201 0.738485 0.009902
O O8 0.500000 0.000000 0.000000
O O9 0.454280 0.750388 0.266053
O O10 0.816011 0.883502 0.389501
O O11 0.500000 0.000000 0.500000
O O12 0.698557 0.123961 0.370924
O O13 0.437943 0.545500 0.883914
O O14 0.743470 0.529218 0.973605
O O15 0.962571 0.046115 0.230649
O O16 0.183077 0.049417 0.368255
O O17 0.050202 0.335869 0.806999
#
# Coordination Sequence:
#
# PCOD9097574 Si02
#       8
#     2   2   2   2   2   2   2   2
#     4  10  21  39  62  92 131 163 217 259 314 391
#     4  12  21  34  58  91 133 178 208 254 322 380
#     4  10  21  44  69  89 123 169 217 271 325 377
#     4  10  20  36  61  88 126 170 206 266 317 375
#     4   9  22  41  60  94 131 162 219 263 317 389
#     4   9  23  39  58  90 137 170 211 260 309 383
#     4  10  21  34  55  93 128 164 220 251 309 396
#     4  10  21  41  63  89 129 172 202 265 327 378
#
# _framework density 26.023140000000001
#
# number of rings (size 3 to 8) (size 9 to 14) (size 15 to 20)
#    0.750    1.250    1.250    2.250    1.750    4.500 
#    0.000    1.875    0.000    0.000    0.000    0.000 
#    0.000    0.000    0.000    0.000    0.000    0.000 
#
# Total GULP energy -89336.602390 kJ/mol
# GULP energy per Si atom -5583.537649 kJ/mol
# Density = 2.596391 g / cm^3
# Si number density = 26.023140 Si / 1000 Ang^3
#
#
#
# Elastic Constant Matrix: (Units=GPa)
#
#
# Indices 1 2 3 4 5 6 
#
# 1 75.6892 36.1991 31.4935 -15.9455 -14.9068 15.2922
# 2 36.1991 187.2183 57.5729 -14.9797 -11.0712 -6.0233
# 3 31.4935 57.5729 113.8723 -14.0190 -12.8784 7.1062
# 4 -15.9455 -14.9797 -14.0190 45.3010 4.1347 -12.8449
# 5 -14.9068 -11.0712 -12.8784 4.1347 35.3151 -11.8381
# 6 15.2922 -6.0233 7.1062 -12.8449 -11.8381 37.5377
#
#
#
# Elastic Compliance Matrix: (Units=1/GPa)
#
#
# Indices 1 2 3 4 5 6 
#
# 1 0.017786 -0.002323 -0.002645 0.002933 0.003827 -0.004907
# 2 -0.002323 0.006942 -0.002767 0.001498 0.001174 0.003466
# 3 -0.002645 -0.002767 0.011315 0.001356 0.001827 -0.000468
# 4 0.002933 0.001498 0.001356 0.026219 0.001939 0.008372
# 5 0.003827 0.001174 0.001827 0.001939 0.033978 0.009662
# 6 -0.004907 0.003466 -0.000468 0.008372 0.009662 0.035196
#
#
# Mechanical properties :
#
#
# Convention : Reuss Voigt Hill
#
# Bulk Modulus (GPa) = 48.60230 69.70120 59.15175
# Shear Modulus (GPa) = 32.51785 40.39839 36.45812
#
# Velocity S-wave (km/s) = 3.53877 3.94433 3.74704
# Velocity P-wave (km/s) = 5.95099 6.89827 6.44206
#
# Compressibility (1/GPa) = 0.02057516
#
# Stress axis : x y z
#
# Youngs Moduli (GPa) = 56.22310 144.05088 88.37980
#
# Poissons Ratio (x) = 0.33457 0.23374
# Poissons Ratio (y) = 0.13058 0.24452
# Poissons Ratio (z) = 0.14869 0.39854
#
# Static dielectric constant tensor:
#      x y z
#    x 2.061760 -0.040320 0.003950 
#    y -0.040320 2.147210 -0.005240 
#    z 0.003950 -0.005240 2.053210 
# 
# From -- ./inp_files/495691.got.cif
#   From: 2010.05.17/outbox.cif.g08.bks.cpg/sg2_248_cif.got.tgz:495691.got - 2010.06.03 11:33:40.
