data_PCOD9097181
_publ_section_title
;
Structure prediction by ZEFSAII (Michael W. Deem and Ramdas Pophale) SiO2 
 PCOD9097181
Probable space group: P -1
;
_chemical_formula_sum "Si O2"
_cell_formula_units_Z 16
_cell_length_a 8.100706
_cell_length_b 15.913308
_cell_length_c 12.618520
_cell_angle_alpha 56.108563
_cell_angle_beta 33.613356
_cell_angle_gamma 74.353946
_cell_volume 677.087951
_symmetry_space_group_name_H-M "P -1"
_symmetry_group_IT_number 2
_symmetry_cell_setting 'triclinic'
loop_
_space_group_symop_operation_xyz
x,y,z
-x,-y,-z
loop_
_atom_site_type_symbol
_atom_site_label
_atom_site_fract_x
_atom_site_fract_y
_atom_site_fract_z
Si Si1 0.120533 0.077768 0.168778
Si Si2 0.016101 0.373309 0.509599
Si Si3 0.932174 0.177092 0.391762
Si Si4 0.865630 0.133201 0.703449
Si Si5 0.638785 0.381607 0.905685
Si Si6 0.357396 0.653941 0.606637
Si Si7 0.324162 0.313794 0.799968
Si Si8 0.828542 0.418690 0.017875
O O1 0.946245 0.090058 0.359890
O O2 0.983595 0.952902 0.283193
O O3 0.502874 0.101271 0.967820
O O4 0.145711 0.180957 0.010225
O O5 0.302398 0.490238 0.237031
O O6 0.056002 0.262178 0.538183
O O7 0.912902 0.374330 0.685628
O O8 0.682697 0.358481 0.632635
O O9 0.844866 0.128411 0.590209
O O10 0.687133 0.231990 0.452396
O O11 0.294655 0.281190 0.127893
O O12 0.693604 0.373025 0.006556
O O13 0.619819 0.662718 0.371117
O O14 0.022353 0.552221 0.816963
O O15 0.388549 0.618832 0.733538
O O16 0.112696 0.374357 0.917158
#
# Coordination Sequence:
#
# PCOD9097181 Si02
#       8
#     2   2   2   2   2   2   2   2
#     4  10  20  36  62  88 111 149 198 256 280 323
#     4  10  20  38  59  87 119 153 191 237 291 346
#     4  12  20  38  60  90 122 147 191 244 299 340
#     4  10  20  36  59  91 110 148 205 242 286 334
#     4  11  22  36  58  91 124 157 176 238 306 353
#     4  11  22  36  56  86 113 160 196 229 281 349
#     4  11  19  41  59  83 116 154 199 240 278 333
#     4  11  23  37  56  82 125 156 194 231 283 355
#
# _framework density 23.630606
#
# number of rings (size 3 to 8) (size 9 to 14) (size 15 to 20)
#    0.000    1.250    7.500    0.750    0.000    2.000 
#    4.500    0.000    0.000    1.500    0.000    0.000 
#    0.000    0.000    0.000    0.000    0.000    0.000 
#
# Total GULP energy -89519.658883 kJ/mol
# GULP energy per Si atom -5594.978680 kJ/mol
# Density = 2.357682 g / cm^3
# Si number density = 23.630606 Si / 1000 Ang^3
#
#
#
# Elastic Constant Matrix: (Units=GPa)
#
#
# Indices 1 2 3 4 5 6 
#
# 1 56.3786 12.1371 13.9448 5.4963 15.1111 15.3015
# 2 12.1371 136.9013 30.4594 1.9546 11.4298 -2.8744
# 3 13.9448 30.4594 96.2734 15.5955 28.7423 7.0532
# 4 5.4963 1.9546 15.5955 40.6084 10.1169 15.6530
# 5 15.1111 11.4298 28.7423 10.1169 36.1124 7.8331
# 6 15.3015 -2.8744 7.0532 15.6530 7.8331 23.0147
#
#
#
# Elastic Compliance Matrix: (Units=1/GPa)
#
#
# Indices 1 2 3 4 5 6 
#
# 1 0.024395 -0.001935 -0.000444 0.005521 -0.006946 -0.017716
# 2 -0.001935 0.008115 -0.002304 -0.000457 -0.000558 0.003506
# 3 -0.000444 -0.002304 0.014646 -0.003443 -0.010056 0.001283
# 4 0.005521 -0.000457 -0.003443 0.036210 -0.003939 -0.025960
# 5 -0.006946 -0.000558 -0.010056 -0.003939 0.040646 -0.003525
# 6 -0.017716 0.003506 0.001283 -0.025960 -0.003525 0.074130
#
#
# Mechanical properties :
#
#
# Convention : Reuss Voigt Hill
#
# Bulk Modulus (GPa) = 26.46074 44.73732 35.59903
# Shear Modulus (GPa) = 22.71638 35.48123 29.09880
#
# Velocity S-wave (km/s) = 3.10387 3.87912 3.51294
# Velocity P-wave (km/s) = 4.90584 6.24791 5.61710
#
# Compressibility (1/GPa) = 0.03779183
#
# Stress axis : x y z
#
# Youngs Moduli (GPa) = 40.99131 123.22349 68.27731
#
# Poissons Ratio (x) = 0.23842 0.03032
# Poissons Ratio (y) = 0.07931 0.15728
# Poissons Ratio (z) = 0.01820 0.28386
#
# Static dielectric constant tensor:
#      x y z
#    x 1.916730 -0.036290 -0.031090 
#    y -0.036290 1.912700 -0.006220 
#    z -0.031090 -0.006220 1.907630 
# 
# From -- ./inp_files/348887.got.cif
#   From: 2010.05.17/outbox.cif.g08.bks.cpg/sg2_175_cif.got.tgz:348887.got - 2010.06.03 11:33:40.
