data_PCOD9097080
_publ_section_title
;
Structure prediction by ZEFSAII (Michael W. Deem and Ramdas Pophale) SiO2 
 PCOD9097080
Probable space group: P -1
;
_chemical_formula_sum "Si O2"
_cell_formula_units_Z 12
_cell_length_a 13.284922
_cell_length_b 6.439373
_cell_length_c 8.203055
_cell_angle_alpha 124.093073
_cell_angle_beta 63.428222
_cell_angle_gamma 94.442736
_cell_volume 505.327065
_symmetry_space_group_name_H-M "P -1"
_symmetry_group_IT_number 2
_symmetry_cell_setting 'triclinic'
loop_
_space_group_symop_operation_xyz
x,y,z
-x,-y,-z
loop_
_atom_site_type_symbol
_atom_site_label
_atom_site_fract_x
_atom_site_fract_y
_atom_site_fract_z
Si Si1 0.622095 0.497680 0.692566
Si Si2 0.405740 0.884835 0.161464
Si Si3 0.851651 0.233105 0.268414
Si Si4 0.239876 0.678576 0.994742
Si Si5 0.455727 0.254795 0.537523
Si Si6 0.071091 0.356315 0.039259
O O1 0.616661 0.304008 0.761957
O O2 0.564496 0.383747 0.528447
O O3 0.756528 0.442425 0.526198
O O4 0.531932 0.752441 0.937188
O O5 0.410607 0.149857 0.360548
O O6 0.297361 0.895861 0.125489
O O7 0.023623 0.695981 0.786999
O O8 0.814916 0.242333 0.107744
O O9 0.860333 0.936373 0.186406
O O10 0.351451 0.444755 0.786144
O O11 0.153300 0.549228 0.106158
O O12 0.500000 0.000000 0.500000
O O13 0.000000 0.500000 0.000000
#
# Coordination Sequence:
#
# PCOD9097080 Si02
#       6
#     2   2   2   2   2   2
#     4   9  18  33  54  83 118 153 189 229 279 337
#     4   9  18  33  56  86 120 153 186 231 282 336
#     4  10  20  36  60  86 113 148 194 240 282 341
#     4  10  20  36  59  86 116 151 190 236 287 333
#     4   9  17  32  56  83 115 155 188 223 276 336
#     4   9  19  37  62  84 108 150 193 235 292 342
#
# _framework density 23.746994999999998
#
# number of rings (size 3 to 8) (size 9 to 14) (size 15 to 20)
#    0.000    2.667    0.000    3.000    0.000    2.667 
#    0.000    5.833    0.000   36.000    0.000    0.000 
#    0.000    0.000    0.000    0.000    0.000    0.000 
#
# Total GULP energy -67010.366547 kJ/mol
# GULP energy per Si atom -5584.197212 kJ/mol
# Density = 2.369295 g / cm^3
# Si number density = 23.746995 Si / 1000 Ang^3
#
#
#
# Elastic Constant Matrix: (Units=GPa)
#
#
# Indices 1 2 3 4 5 6 
#
# 1 130.3653 18.2035 56.8099 5.4620 -2.1307 27.8621
# 2 18.2035 91.4023 15.2299 23.8769 1.1271 7.3852
# 3 56.8099 15.2299 91.4595 7.1931 -4.9105 18.5536
# 4 5.4620 23.8769 7.1931 43.5084 1.0244 3.5245
# 5 -2.1307 1.1271 -4.9105 1.0244 39.6804 2.9676
# 6 27.8621 7.3852 18.5536 3.5245 2.9676 40.3047
#
#
#
# Elastic Compliance Matrix: (Units=1/GPa)
#
#
# Indices 1 2 3 4 5 6 
#
# 1 0.011474 -0.001019 -0.005954 0.000508 0.000274 -0.005069
# 2 -0.001019 0.013147 -0.000897 -0.006878 -0.000312 -0.000667
# 3 -0.005954 -0.000897 0.015565 -0.001141 0.001880 -0.002923
# 4 0.000508 -0.006878 -0.001141 0.026968 -0.000549 -0.000883
# 5 0.000274 -0.000312 0.001880 -0.000549 0.025684 -0.002841
# 6 -0.005069 -0.000667 -0.002923 -0.000883 -0.002841 0.030069
#
#
# Mechanical properties :
#
#
# Convention : Reuss Voigt Hill
#
# Bulk Modulus (GPa) = 40.90595 54.85707 47.88151
# Shear Modulus (GPa) = 34.06025 39.56430 36.81228
#
# Velocity S-wave (km/s) = 3.79132 4.08619 3.94151
# Velocity P-wave (km/s) = 6.03561 6.73894 6.39695
#
# Compressibility (1/GPa) = 0.02444632
#
# Stress axis : x y z
#
# Youngs Moduli (GPa) = 87.14999 76.06040 64.24480
#
# Poissons Ratio (x) = 0.07754 0.38255
# Poissons Ratio (y) = 0.08885 0.05760
# Poissons Ratio (z) = 0.51893 0.06819
#
# Static dielectric constant tensor:
#      x y z
#    x 2.127350 -0.116230 0.124060 
#    y -0.116230 2.109440 -0.091150 
#    z 0.124060 -0.091150 1.924580 
# 
# From -- ./inp_files/215560.got.cif
#   From: 2010.05.17/outbox.cif.g08.bks.cpg/sg2_108_cif.got.tgz:215560.got - 2010.06.03 11:33:40.
