data_PCOD9097783
_publ_section_title
;
Structure prediction by ZEFSAII (Michael W. Deem and Ramdas Pophale) SiO2 
 PCOD9097783
Probable space group: P -1
;
_chemical_formula_sum "Si O2"
_cell_formula_units_Z 16
_cell_length_a 17.345449
_cell_length_b 23.392139
_cell_length_c 14.921622
_cell_angle_alpha 20.228783
_cell_angle_beta 149.647091
_cell_angle_gamma 158.068264
_cell_volume 780.585550
_symmetry_space_group_name_H-M "P -1"
_symmetry_group_IT_number 2
_symmetry_cell_setting 'triclinic'
loop_
_space_group_symop_operation_xyz
x,y,z
-x,-y,-z
loop_
_atom_site_type_symbol
_atom_site_label
_atom_site_fract_x
_atom_site_fract_y
_atom_site_fract_z
Si Si1 0.543157 0.177382 0.849490
Si Si2 0.449282 0.613534 0.850392
Si Si3 0.163243 0.147277 0.526059
Si Si4 0.127042 0.087406 0.090867
Si Si5 0.004189 0.194040 0.985121
Si Si6 0.074676 0.393115 0.340850
Si Si7 0.568498 0.033074 0.763029
Si Si8 0.255791 0.559866 0.086079
O O1 0.359754 0.174569 0.667730
O O2 0.756076 0.430000 0.676401
O O3 0.500000 0.000000 0.000000
O O4 0.546182 0.088182 0.080103
O O5 0.622301 0.724146 0.938805
O O6 0.475237 0.814481 0.537860
O O7 0.500000 0.500000 0.000000
O O8 0.204383 0.414836 0.911473
O O9 0.232943 0.387218 0.253050
O O10 0.065794 0.011531 0.721517
O O11 0.000000 0.000000 0.500000
O O12 0.060937 0.175658 0.968803
O O13 0.058904 0.863014 0.394544
O O14 0.000000 0.000000 0.000000
O O15 0.810694 0.176419 0.810220
O O16 0.207897 0.460791 0.284639
O O17 0.922050 0.435763 0.115080
O O18 0.470812 0.817682 0.919210
#
# Coordination Sequence:
#
# PCOD9097783 Si02
#       8
#     2   2   2   2   2   2   2   2
#     4  10  23  36  60  95 126 160 210 262 321 385
#     4  10  22  41  64  89 122 171 216 259 310 375
#     4  11  23  39  63  97 128 164 209 264 329 381
#     4  11  23  40  62  94 124 172 215 256 310 381
#     4  10  23  41  64  90 130 164 213 262 316 377
#     4  10  20  36  62  87 128 164 201 264 316 372
#     4  10  21  40  66  91 122 170 209 264 324 373
#     4  10  20  37  65  93 125 161 209 263 320 383
#
# _framework density 20.497433999999998
#
# number of rings (size 3 to 8) (size 9 to 14) (size 15 to 20)
#    0.000    1.750    2.500    1.125    1.750    6.500 
#    0.000    1.875    0.000    0.000    0.000    0.000 
#    0.000    0.000    0.000    0.000    0.000    0.000 
#
# Total GULP energy -89287.042937 kJ/mol
# GULP energy per Si atom -5580.440184 kJ/mol
# Density = 2.045078 g / cm^3
# Si number density = 20.497434 Si / 1000 Ang^3
#
#
#
# Elastic Constant Matrix: (Units=GPa)
#
#
# Indices 1 2 3 4 5 6 
#
# 1 43.8236 20.6403 13.4950 -4.1290 11.4636 -14.0750
# 2 20.6403 160.3834 27.1938 -16.8679 1.7624 -7.7875
# 3 13.4950 27.1938 86.5054 -7.4217 22.2053 -5.3485
# 4 -4.1290 -16.8679 -7.4217 33.5367 -10.5147 -1.1800
# 5 11.4636 1.7624 22.2053 -10.5147 18.7707 -7.5506
# 6 -14.0750 -7.7875 -5.3485 -1.1800 -7.5506 29.1285
#
#
#
# Elastic Compliance Matrix: (Units=1/GPa)
#
#
# Indices 1 2 3 4 5 6 
#
# 1 0.031984 -0.004036 0.001424 -0.003347 -0.018845 0.009617
# 2 -0.004036 0.008101 -0.004054 0.006229 0.011027 0.002582
# 3 0.001424 -0.004054 0.019136 -0.006824 -0.028810 -0.004627
# 4 -0.003347 0.006229 -0.006824 0.043298 0.037966 0.010390
# 5 -0.018845 0.011027 -0.028810 0.037966 0.128510 0.023402
# 6 0.009617 0.002582 -0.004627 0.010390 0.023402 0.045305
#
#
# Mechanical properties :
#
#
# Convention : Reuss Voigt Hill
#
# Bulk Modulus (GPa) = 21.79110 45.93006 33.86058
# Shear Modulus (GPa) = 16.39553 31.57943 23.98748
#
# Velocity S-wave (km/s) = 2.83129 3.92937 3.42463
# Velocity P-wave (km/s) = 4.61979 6.56072 5.67386
#
# Compressibility (1/GPa) = 0.04589029
#
# Stress axis : x y z
#
# Youngs Moduli (GPa) = 31.26579 123.44107 52.25775
#
# Poissons Ratio (x) = 0.49815 -0.07441
# Poissons Ratio (y) = 0.12617 0.21183
# Poissons Ratio (z) = -0.04452 0.50038
#
# Static dielectric constant tensor:
#      x y z
#    x 1.732450 -0.019240 -0.021400 
#    y -0.019240 1.791720 -0.020810 
#    z -0.021400 -0.020810 1.724960 
# 
# From -- ./inp_files/218826.got.cif
#   From: 2010.05.17/outbox.cif.g08.bks.cpg/sg2_110_cif.got.tgz:218826.got - 2010.06.03 11:33:40.
