data_PCOD9097272
_publ_section_title
;
Structure prediction by ZEFSAII (Michael W. Deem and Ramdas Pophale) SiO2 
 PCOD9097272
Probable space group: P -1
;
_chemical_formula_sum "Si O2"
_cell_formula_units_Z 14
_cell_length_a 11.224545
_cell_length_b 7.268765
_cell_length_c 11.426776
_cell_angle_alpha 44.132987
_cell_angle_beta 125.223421
_cell_angle_gamma 110.079979
_cell_volume 526.218179
_symmetry_space_group_name_H-M "P -1"
_symmetry_group_IT_number 2
_symmetry_cell_setting 'triclinic'
loop_
_space_group_symop_operation_xyz
x,y,z
-x,-y,-z
loop_
_atom_site_type_symbol
_atom_site_label
_atom_site_fract_x
_atom_site_fract_y
_atom_site_fract_z
Si Si1 0.109029 0.820297 0.485205
Si Si2 0.414965 0.536281 0.761996
Si Si3 0.858101 0.418744 0.887501
Si Si4 0.508602 0.126660 0.155771
Si Si5 0.553054 0.761998 0.547899
Si Si6 0.806130 0.008594 0.234690
Si Si7 0.926596 0.437278 0.649105
O O1 0.282292 0.770067 0.601736
O O2 0.072065 0.796378 0.337004
O O3 0.078038 0.559404 0.660992
O O4 0.978864 0.042237 0.351829
O O5 0.529632 0.652278 0.863194
O O6 0.469211 0.534319 0.662097
O O7 0.402937 0.242641 0.937686
O O8 0.725707 0.662273 0.698123
O O9 0.893383 0.366033 0.794257
O O10 0.795757 0.179217 0.032040
O O11 0.000000 0.500000 0.000000
O O12 0.670475 0.109419 0.195210
O O13 0.501179 0.857291 0.346502
O O14 0.500000 0.000000 0.500000
O O15 0.822172 0.686533 0.413982
#
# Coordination Sequence:
#
# PCOD9097272 Si02
#       7
#     2   2   2   2   2   2   2
#     4   9  21  42  63  81 117 163 193 241 288 346
#     4  10  21  36  58  88 116 152 196 230 301 346
#     4  12  25  36  64  93 115 152 198 240 294 352
#     4  10  20  36  60  84 121 150 184 252 285 345
#     4  10  21  37  54  86 125 147 186 241 293 344
#     4  10  21  39  62  84 119 154 192 246 294 331
#     4   9  22  43  59  83 123 148 205 241 283 342
#
# _framework density 26.604932999999999
#
# number of rings (size 3 to 8) (size 9 to 14) (size 15 to 20)
#    0.857    1.143    2.857    0.000    6.000    1.714 
#    0.000    1.429    0.000    0.000    0.000    0.000 
#    0.000    0.000    0.000    0.000    0.000    0.000 
#
# Total GULP energy -77943.556449 kJ/mol
# GULP energy per Si atom -5567.396889 kJ/mol
# Density = 2.654438 g / cm^3
# Si number density = 26.604933 Si / 1000 Ang^3
#
#
#
# Elastic Constant Matrix: (Units=GPa)
#
#
# Indices 1 2 3 4 5 6 
#
# 1 131.9680 14.6066 73.5329 8.7138 -25.7735 -17.8279
# 2 14.6066 75.2694 21.5605 8.8582 -19.2204 -23.7659
# 3 73.5329 21.5605 208.7424 -10.6713 -50.7303 -10.1663
# 4 8.7138 8.8582 -10.6713 26.2491 -22.1101 -6.5330
# 5 -25.7735 -19.2204 -50.7303 -22.1101 83.1567 1.1427
# 6 -17.8279 -23.7659 -10.1663 -6.5330 1.1427 37.6149
#
#
#
# Elastic Compliance Matrix: (Units=1/GPa)
#
#
# Indices 1 2 3 4 5 6 
#
# 1 0.010375 0.000676 -0.003842 -0.004551 -0.000230 0.003523
# 2 0.000676 0.017889 -0.000721 -0.000788 0.003541 0.011184
# 3 -0.003842 -0.000721 0.008518 0.011122 0.006772 0.001752
# 4 -0.004551 -0.000788 0.011122 0.066259 0.022656 0.011171
# 5 -0.000230 0.003541 0.006772 0.022656 0.022829 0.007200
# 6 0.003523 0.011184 0.001752 0.011171 0.007200 0.037516
#
#
# Mechanical properties :
#
#
# Convention : Reuss Voigt Hill
#
# Bulk Modulus (GPa) = 34.47139 70.59775 52.53457
# Shear Modulus (GPa) = 27.65055 49.82279 38.73667
#
# Velocity S-wave (km/s) = 3.22732 4.33215 3.81989
# Velocity P-wave (km/s) = 5.18385 7.18447 6.26454
#
# Compressibility (1/GPa) = 0.02900957
#
# Stress axis : x y z
#
# Youngs Moduli (GPa) = 96.38816 55.89957 117.39739
#
# Poissons Ratio (x) = -0.03780 0.45099
# Poissons Ratio (y) = -0.06518 0.08463
# Poissons Ratio (z) = 0.37028 0.04030
#
# Static dielectric constant tensor:
#      x y z
#    x 2.149710 0.136430 0.001580 
#    y 0.136430 2.163260 -0.031720 
#    z 0.001580 -0.031720 2.182220 
# 
# From -- ./inp_files/422851.got.cif
#   From: 2010.05.17/outbox.cif.g08.bks.cpg/sg2_212_cif.got.tgz:422851.got - 2010.06.03 11:33:40.
