data_PCOD9097152
_publ_section_title
;
Structure prediction by ZEFSAII (Michael W. Deem and Ramdas Pophale) SiO2 
 PCOD9097152
Probable space group: P -1
;
_chemical_formula_sum "Si O2"
_cell_formula_units_Z 14
_cell_length_a 16.777801
_cell_length_b 20.227012
_cell_length_c 8.273056
_cell_angle_alpha 136.408047
_cell_angle_beta 129.994894
_cell_angle_gamma 19.363747
_cell_volume 631.676247
_symmetry_space_group_name_H-M "P -1"
_symmetry_group_IT_number 2
_symmetry_cell_setting 'triclinic'
loop_
_space_group_symop_operation_xyz
x,y,z
-x,-y,-z
loop_
_atom_site_type_symbol
_atom_site_label
_atom_site_fract_x
_atom_site_fract_y
_atom_site_fract_z
Si Si1 0.175549 0.062268 0.892960
Si Si2 0.170863 0.935820 0.967974
Si Si3 0.823245 0.216591 0.555332
Si Si4 0.491474 0.860910 0.658922
Si Si5 0.367031 0.627107 0.881418
Si Si6 0.115987 0.333337 0.986816
Si Si7 0.901228 0.477989 0.282945
O O1 0.930377 0.227809 0.775233
O O2 0.248431 0.939703 0.928684
O O3 0.375298 0.896882 0.717943
O O4 0.101199 0.230676 0.149913
O O5 0.145569 0.850847 0.701052
O O6 0.331025 0.769126 0.033675
O O7 0.902152 0.191811 0.124281
O O8 0.549999 0.430997 0.640784
O O9 0.000000 0.000000 0.500000
O O10 0.685251 0.769569 0.838029
O O11 0.647798 0.677784 0.400997
O O12 0.271738 0.109892 0.741386
O O13 0.500000 0.500000 0.000000
O O14 0.906168 0.475095 0.089644
O O15 0.000000 0.500000 0.000000
O O16 0.000000 0.500000 0.500000
#
# Coordination Sequence:
#
# PCOD9097152 Si02
#       7
#     2   2   2   2   2   2   2
#     4  10  20  36  59  89 121 152 207 248 297 361
#     4  10  23  38  61  90 118 164 201 248 311 356
#     4  10  20  37  61  84 118 160 197 244 305 356
#     4   9  19  36  58  81 118 153 187 253 301 342
#     4  11  20  39  64  86 122 160 202 250 301 367
#     4   9  18  36  61  85 111 151 202 239 298 361
#     4   9  19  37  62  81 116 159 193 243 299 346
#
# _framework density 22.163253000000001
#
# number of rings (size 3 to 8) (size 9 to 14) (size 15 to 20)
#    0.000    2.286    2.857    1.286    0.000    4.000 
#    5.143    0.000   12.571    0.000    0.000    0.000 
#    0.000    0.000    0.000    0.000    0.000    0.000 
#
# Total GULP energy -77972.391452 kJ/mol
# GULP energy per Si atom -5569.456532 kJ/mol
# Density = 2.211281 g / cm^3
# Si number density = 22.163253 Si / 1000 Ang^3
#
#
#
# Elastic Constant Matrix: (Units=GPa)
#
#
# Indices 1 2 3 4 5 6 
#
# 1 149.4587 47.9092 34.7138 20.7703 -32.7461 28.3906
# 2 47.9092 83.0755 25.9621 27.1946 -13.0255 24.2915
# 3 34.7138 25.9621 63.6067 23.0622 -24.0383 -10.3325
# 4 20.7703 27.1946 23.0622 31.5130 -19.2689 -1.5513
# 5 -32.7461 -13.0255 -24.0383 -19.2689 49.8898 4.5795
# 6 28.3906 24.2915 -10.3325 -1.5513 4.5795 45.5759
#
#
#
# Elastic Compliance Matrix: (Units=1/GPa)
#
#
# Indices 1 2 3 4 5 6 
#
# 1 0.010844 -0.002297 -0.004464 0.001075 0.005429 -0.007051
# 2 -0.002297 0.024331 -0.005554 -0.018332 -0.003714 -0.013047
# 3 -0.004464 -0.005554 0.027066 -0.008973 0.004172 0.011152
# 4 0.001075 -0.018332 -0.008973 0.063127 0.015272 0.007681
# 5 0.005429 -0.003714 0.004172 0.015272 0.030826 -0.003034
# 6 -0.007051 -0.013047 0.011152 0.007681 -0.003034 0.036382
#
#
# Mechanical properties :
#
#
# Convention : Reuss Voigt Hill
#
# Bulk Modulus (GPa) = 26.58736 57.03455 41.81095
# Shear Modulus (GPa) = 21.76346 37.89948 29.83147
#
# Velocity S-wave (km/s) = 3.13703 4.13972 3.67275
# Velocity P-wave (km/s) = 5.01432 6.97419 6.07383
#
# Compressibility (1/GPa) = 0.03761185
#
# Stress axis : x y z
#
# Youngs Moduli (GPa) = 92.22108 41.09948 36.94632
#
# Poissons Ratio (x) = 0.09441 0.16491
# Poissons Ratio (y) = 0.21185 0.20519
# Poissons Ratio (z) = 0.41163 0.22826
#
# Static dielectric constant tensor:
#      x y z
#    x 1.889090 -0.004970 -0.027450 
#    y -0.004970 1.911960 -0.108730 
#    z -0.027450 -0.108730 1.673820 
# 
# From -- ./inp_files/337830.got.cif
#   From: 2010.05.17/outbox.cif.g08.bks.cpg/sg2_169_cif.got.tgz:337830.got - 2010.06.03 11:33:40.
