data_PCOD9097530
_publ_section_title
;
Structure prediction by ZEFSAII (Michael W. Deem and Ramdas Pophale) SiO2 
 PCOD9097530
Probable space group: P -1
;
_chemical_formula_sum "Si O2"
_cell_formula_units_Z 16
_cell_length_a 8.486059
_cell_length_b 22.912305
_cell_length_c 6.599040
_cell_angle_alpha 129.185444
_cell_angle_beta 56.997266
_cell_angle_gamma 130.996159
_cell_volume 731.798294
_symmetry_space_group_name_H-M "P -1"
_symmetry_group_IT_number 2
_symmetry_cell_setting 'triclinic'
loop_
_space_group_symop_operation_xyz
x,y,z
-x,-y,-z
loop_
_atom_site_type_symbol
_atom_site_label
_atom_site_fract_x
_atom_site_fract_y
_atom_site_fract_z
Si Si1 0.264829 0.754264 0.338108
Si Si2 0.311121 0.409093 0.354034
Si Si3 0.322088 0.131049 0.973213
Si Si4 0.654341 0.001212 0.577489
Si Si5 0.913919 0.424657 0.732066
Si Si6 0.595835 0.121296 0.133561
Si Si7 0.164753 0.262555 0.464715
Si Si8 0.508965 0.410469 0.821625
O O1 0.203092 0.657860 0.221022
O O2 0.278437 0.792152 0.638672
O O3 0.077076 0.760989 0.361280
O O4 0.480636 0.804661 0.168115
O O5 0.500000 0.500000 0.500000
O O6 0.213795 0.328431 0.391694
O O7 0.112030 0.424429 0.478335
O O8 0.416367 0.382750 0.047158
O O9 0.423813 0.121017 0.092245
O O10 0.181064 0.177485 0.217234
O O11 0.218758 0.041640 0.719734
O O12 0.521461 0.940773 0.727188
O O13 0.500000 0.000000 0.500000
O O14 0.740454 0.091896 0.832348
O O15 0.750652 0.429156 0.697838
O O16 0.000000 0.500000 0.000000
O O17 0.355211 0.327921 0.618439
O O18 0.500000 0.500000 0.000000
#
# Coordination Sequence:
#
# PCOD9097530 Si02
#       8
#     2   2   2   2   2   2   2   2
#     4  10  22  38  56  84 118 156 197 245 294 350
#     4  11  22  42  59  80 114 153 197 253 300 351
#     4  10  20  36  61  86 118 154 192 241 301 345
#     4   8  16  33  62  92 117 154 191 235 287 355
#     4  11  22  38  61  82 114 156 200 247 301 353
#     4   9  17  35  61  88 118 153 197 233 290 357
#     4  11  24  38  56  85 118 149 201 247 292 355
#     4  12  23  38  57  82 110 149 198 248 300 353
#
# _framework density 21.863948000000001
#
# number of rings (size 3 to 8) (size 9 to 14) (size 15 to 20)
#    0.000    1.750    2.500    2.250    0.000    4.500 
#    0.000    0.625    0.000   25.500    0.000    0.000 
#    0.000    0.000    0.000    0.000    0.000    0.000 
#
# Total GULP energy -89152.292367 kJ/mol
# GULP energy per Si atom -5572.018273 kJ/mol
# Density = 2.181418 g / cm^3
# Si number density = 21.863948 Si / 1000 Ang^3
#
#
#
# Elastic Constant Matrix: (Units=GPa)
#
#
# Indices 1 2 3 4 5 6 
#
# 1 91.9866 -5.4902 31.8613 3.3397 -15.3176 -10.4296
# 2 -5.4902 41.1285 11.3742 0.5354 3.4518 -20.1016
# 3 31.8613 11.3742 87.2164 28.6199 9.9240 -10.9321
# 4 3.3397 0.5354 28.6199 34.1408 -1.8522 -6.3879
# 5 -15.3176 3.4518 9.9240 -1.8522 39.2266 4.0844
# 6 -10.4296 -20.1016 -10.9321 -6.3879 4.0844 20.6081
#
#
#
# Elastic Compliance Matrix: (Units=1/GPa)
#
#
# Indices 1 2 3 4 5 6 
#
# 1 0.018294 0.014069 -0.010405 0.010722 0.007025 0.019393
# 2 0.014069 0.063512 -0.010551 0.019409 -0.003824 0.070248
# 3 -0.010405 -0.010551 0.023426 -0.020381 -0.009230 -0.007619
# 4 0.010722 0.019409 -0.020381 0.050615 0.007128 0.027823
# 5 0.007025 -0.003824 -0.009230 0.007128 0.032207 -0.009245
# 6 0.019393 0.070248 -0.007619 0.027823 -0.009245 0.133276
#
#
# Mechanical properties :
#
#
# Convention : Reuss Voigt Hill
#
# Bulk Modulus (GPa) = 10.93396 32.86912 21.90154
# Shear Modulus (GPa) = 13.67657 30.96752 22.32204
#
# Velocity S-wave (km/s) = 2.50377 3.76756 3.19870
# Velocity P-wave (km/s) = 3.65654 5.83027 4.86633
#
# Compressibility (1/GPa) = 0.09145820
#
# Stress axis : x y z
#
# Youngs Moduli (GPa) = 54.66269 15.74505 42.68802
#
# Poissons Ratio (x) = -0.22151 0.44415
# Poissons Ratio (y) = -0.76904 0.45040
# Poissons Ratio (z) = 0.56874 0.16613
#
# Static dielectric constant tensor:
#      x y z
#    x 1.867210 0.030610 -0.078640 
#    y 0.030610 1.831070 -0.072480 
#    z -0.078640 -0.072480 1.756860 
# 
# From -- ./inp_files/55185.got.cif
#   From: 2010.05.17/outbox.cif.g08.bks.cpg/sg2_28_cif.got.tgz:55185.got - 2010.06.03 11:33:40.
