data_PCOD9097575
_publ_section_title
;
Structure prediction by ZEFSAII (Michael W. Deem and Ramdas Pophale) SiO2 
 PCOD9097575
Probable space group: P -1
;
_chemical_formula_sum "Si O2"
_cell_formula_units_Z 16
_cell_length_a 5.285346
_cell_length_b 7.478743
_cell_length_c 23.159382
_cell_angle_alpha 65.455002
_cell_angle_beta 68.011259
_cell_angle_gamma 45.910445
_cell_volume 592.969711
_symmetry_space_group_name_H-M "P -1"
_symmetry_group_IT_number 2
_symmetry_cell_setting 'triclinic'
loop_
_space_group_symop_operation_xyz
x,y,z
-x,-y,-z
loop_
_atom_site_type_symbol
_atom_site_label
_atom_site_fract_x
_atom_site_fract_y
_atom_site_fract_z
Si Si1 0.693145 0.756900 0.557538
Si Si2 0.356164 0.666222 0.281600
Si Si3 0.595587 0.953731 0.344260
Si Si4 0.300734 0.462216 0.843015
Si Si5 0.424328 0.470431 0.597385
Si Si6 0.012233 0.337249 0.968351
Si Si7 0.719427 0.225917 0.094147
Si Si8 0.376669 0.120052 0.216770
O O1 0.660311 0.556723 0.558311
O O2 0.082278 0.639748 0.562724
O O3 0.500000 0.000000 0.500000
O O4 0.464737 0.877721 0.619832
O O5 0.409335 0.598942 0.218707
O O6 0.645169 0.503006 0.330211
O O7 0.009639 0.720863 0.328839
O O8 0.293261 0.928951 0.249110
O O9 0.417363 0.821762 0.387475
O O10 0.484645 0.108805 0.274108
O O11 0.218525 0.664838 0.870423
O O12 0.320550 0.256886 0.908082
O O13 0.967534 0.600856 0.809879
O O14 0.651099 0.536092 0.936034
O O15 0.000062 0.138610 0.031015
O O16 0.000000 0.500000 0.000000
O O17 0.665737 0.041473 0.153625
#
# Coordination Sequence:
#
# PCOD9097575 Si02
#       8
#     2   2   2   2   2   2   2   2
#     4  12  28  49  77 107 140 188 233 279 347 414
#     4  11  24  41  63 100 134 176 221 281 344 403
#     4  11  26  45  70 101 145 179 232 288 343 415
#     4  10  20  36  61  88 127 168 222 278 341 406
#     4  11  26  48  73 106 144 184 230 285 346 409
#     4   8  16  32  54  85 120 166 216 274 337 401
#     4   9  17  32  59  86 118 168 222 274 336 401
#     4  10  22  37  62  93 128 175 221 279 341 408
#
# _framework density 26.982831000000001
#
# number of rings (size 3 to 8) (size 9 to 14) (size 15 to 20)
#    0.000    1.750    1.250    1.875    7.000    5.000 
#    0.000    0.625    0.000   30.750    0.000    0.000 
#    0.000    0.000    0.000    0.000    0.000    0.000 
#
# Total GULP energy -89449.516808 kJ/mol
# GULP energy per Si atom -5590.594801 kJ/mol
# Density = 2.692142 g / cm^3
# Si number density = 26.982831 Si / 1000 Ang^3
#
#
#
# Elastic Constant Matrix: (Units=GPa)
#
#
# Indices 1 2 3 4 5 6 
#
# 1 122.4868 25.3501 60.0896 0.1825 12.9397 -22.8881
# 2 25.3501 49.4588 40.9247 4.9609 10.6735 -7.5602
# 3 60.0896 40.9247 140.1191 -15.7172 40.0574 11.5108
# 4 0.1825 4.9609 -15.7172 23.5019 14.1325 47.8124
# 5 12.9397 10.6735 40.0574 14.1325 42.1983 -33.0310
# 6 -22.8881 -7.5602 11.5108 47.8124 -33.0310 2.1499
#
#
#
# Elastic Compliance Matrix: (Units=1/GPa)
#
#
# Indices 1 2 3 4 5 6 
#
# 1 0.009898 -0.003327 -0.002156 0.003228 -0.002261 -0.001320
# 2 -0.003327 0.026017 -0.004599 0.000903 -0.004167 -0.003411
# 3 -0.002156 -0.004599 0.008583 -0.004398 -0.000463 0.005605
# 4 0.003228 0.000903 -0.004398 0.008805 0.009564 0.012209
# 5 -0.002261 -0.004167 -0.000463 0.009564 0.015615 -0.009028
# 6 -0.001320 -0.003411 0.005605 0.012209 -0.009028 -0.001131
#
#
# Mechanical properties :
#
#
# Convention : Reuss Voigt Hill
#
# Bulk Modulus (GPa) = 41.09487 62.75482 51.92484
# Shear Modulus (GPa) = 52.04951 25.95004 38.99978
#
# Velocity S-wave (km/s) = 4.39679 3.10453 3.80591
# Velocity P-wave (km/s) = 6.40615 6.01320 6.21278
#
# Compressibility (1/GPa) = 0.02433394
#
# Stress axis : x y z
#
# Youngs Moduli (GPa) = 101.03280 38.43648 116.50568
#
# Poissons Ratio (x) = 0.12787 0.25119
# Poissons Ratio (y) = 0.33610 0.53585
# Poissons Ratio (z) = 0.21783 0.17678
#
# Static dielectric constant tensor:
#      x y z
#    x 2.184190 -0.048050 -0.138360 
#    y -0.048050 2.197440 0.070870 
#    z -0.138360 0.070870 2.187870 
# 
# From -- ./inp_files/582325.got.cif
#   From: 2010.05.17/outbox.cif.g08.bks.cpg/sg2_292_cif.got.tgz:582325.got - 2010.06.03 11:33:40.
