data_PCOD9097689
_publ_section_title
;
Structure prediction by ZEFSAII (Michael W. Deem and Ramdas Pophale) SiO2 
 PCOD9097689
Probable space group: P -1
;
_chemical_formula_sum "Si O2"
_cell_formula_units_Z 16
_cell_length_a 8.663553
_cell_length_b 7.735645
_cell_length_c 15.277445
_cell_angle_alpha 94.617939
_cell_angle_beta 38.030018
_cell_angle_gamma 103.896896
_cell_volume 602.120405
_symmetry_space_group_name_H-M "P -1"
_symmetry_group_IT_number 2
_symmetry_cell_setting 'triclinic'
loop_
_space_group_symop_operation_xyz
x,y,z
-x,-y,-z
loop_
_atom_site_type_symbol
_atom_site_label
_atom_site_fract_x
_atom_site_fract_y
_atom_site_fract_z
Si Si1 0.744694 0.995757 0.668001
Si Si2 0.801920 0.244862 0.119110
Si Si3 0.063490 0.490921 0.165374
Si Si4 0.508757 0.701643 0.075824
Si Si5 0.628444 0.302187 0.482723
Si Si6 0.143809 0.040114 0.633463
Si Si7 0.044508 0.958178 0.089373
Si Si8 0.300706 0.620348 0.353124
O O1 0.683086 0.172591 0.666483
O O2 0.873101 0.020815 0.706315
O O3 0.508555 0.814608 0.754884
O O4 0.000000 0.000000 0.500000
O O5 0.919350 0.412947 0.135926
O O6 0.874231 0.071011 0.120889
O O7 0.943190 0.231449 0.963637
O O8 0.270974 0.675173 0.113186
O O9 0.846759 0.445508 0.336028
O O10 0.262648 0.364831 0.075091
O O11 0.421803 0.586883 0.202083
O O12 0.659742 0.909559 0.037533
O O13 0.388493 0.218534 0.519703
O O14 0.571410 0.373982 0.606701
O O15 0.751578 0.133820 0.437445
O O16 0.085204 0.059181 0.760700
O O17 0.000000 0.500000 0.500000
#
# Coordination Sequence:
#
# PCOD9097689 Si02
#       8
#     2   2   2   2   2   2   2   2
#     4  12  24  39  63  97 133 167 214 282 331 373
#     4  10  20  36  63  93 127 164 223 266 324 374
#     4  10  20  36  62  95 122 167 218 273 308 383
#     4  10  20  36  61  94 124 166 220 261 318 384
#     4  11  21  38  64  95 126 169 217 264 323 389
#     4  11  23  37  63  97 130 161 217 273 328 376
#     4  10  20  37  65  94 124 169 221 272 315 390
#     4  12  24  41  64  95 129 175 220 266 324 397
#
# _framework density 26.572759999999999
#
# number of rings (size 3 to 8) (size 9 to 14) (size 15 to 20)
#    0.000    1.250    6.250    1.500    3.500    0.500 
#    0.000    0.625    0.000    0.750    0.000    0.000 
#    0.000    0.000    0.000    0.000    0.000    0.000 
#
# Total GULP energy -89383.239223 kJ/mol
# GULP energy per Si atom -5586.452451 kJ/mol
# Density = 2.651228 g / cm^3
# Si number density = 26.572760 Si / 1000 Ang^3
#
#
#
# Elastic Constant Matrix: (Units=GPa)
#
#
# Indices 1 2 3 4 5 6 
#
# 1 84.5921 62.6082 16.5489 -7.2873 -19.6864 39.7024
# 2 62.6082 104.9571 25.2565 -13.2050 -9.4020 25.9736
# 3 16.5489 25.2565 91.7236 6.9469 -9.2403 4.5864
# 4 -7.2873 -13.2050 6.9469 51.1134 23.5686 -5.7620
# 5 -19.6864 -9.4020 -9.2403 23.5686 36.8986 -7.0245
# 6 39.7024 25.9736 4.5864 -5.7620 -7.0245 48.2106
#
#
#
# Elastic Compliance Matrix: (Units=1/GPa)
#
#
# Indices 1 2 3 4 5 6 
#
# 1 0.036903 -0.017127 0.001675 -0.010129 0.018435 -0.019846
# 2 -0.017127 0.020114 -0.004198 0.008138 -0.009646 0.003235
# 3 0.001675 -0.004198 0.012858 -0.005667 0.006654 -0.000048
# 4 -0.010129 0.008138 -0.005667 0.033032 -0.024933 0.004812
# 5 0.018435 -0.009646 0.006654 -0.024933 0.050894 -0.006183
# 6 -0.019846 0.003235 -0.000048 0.004812 -0.006183 0.035022
#
#
# Mechanical properties :
#
#
# Convention : Reuss Voigt Hill
#
# Bulk Modulus (GPa) = 32.70846 54.45556 43.58201
# Shear Modulus (GPa) = 20.98064 39.03513 30.00788
#
# Velocity S-wave (km/s) = 2.81295 3.83690 3.36411
# Velocity P-wave (km/s) = 4.78393 6.33771 5.61483
#
# Compressibility (1/GPa) = 0.03057313
#
# Stress axis : x y z
#
# Youngs Moduli (GPa) = 27.09841 49.71712 77.77180
#
# Poissons Ratio (x) = 0.85152 -0.13025
# Poissons Ratio (y) = 0.46413 0.32649
# Poissons Ratio (z) = -0.04539 0.20872
#
# Static dielectric constant tensor:
#      x y z
#    x 1.760110 -0.108820 -0.012910 
#    y -0.108820 2.031920 0.043230 
#    z -0.012910 0.043230 2.180460 
# 
# From -- ./inp_files/499175.got.cif
#   From: 2010.05.17/outbox.cif.g08.bks.cpg/sg2_250_cif.got.tgz:499175.got - 2010.06.03 11:33:40.
