data_PCOD9097274
_publ_section_title
;
Structure prediction by ZEFSAII (Michael W. Deem and Ramdas Pophale) SiO2 
 PCOD9097274
Probable space group: P -1
;
_chemical_formula_sum "Si O2"
_cell_formula_units_Z 15
_cell_length_a 17.287195
_cell_length_b 15.931504
_cell_length_c 9.000944
_cell_angle_alpha 61.675222
_cell_angle_beta 97.920475
_cell_angle_gamma 153.241703
_cell_volume 680.496683
_symmetry_space_group_name_H-M "P -1"
_symmetry_group_IT_number 2
_symmetry_cell_setting 'triclinic'
loop_
_space_group_symop_operation_xyz
x,y,z
-x,-y,-z
loop_
_atom_site_type_symbol
_atom_site_label
_atom_site_fract_x
_atom_site_fract_y
_atom_site_fract_z
Si Si1 0.848373 0.399326 0.947718
Si Si2 0.364674 0.649621 0.062801
Si Si3 0.179384 0.139535 0.128552
Si Si4 0.500000 0.500000 0.500000
Si Si5 0.383394 0.724939 0.353448
Si Si6 0.670193 0.528058 0.329783
Si Si7 0.333348 0.397173 0.238782
Si Si8 0.927188 0.318433 0.553125
O O1 0.790203 0.438034 0.960607
O O2 0.583059 0.041113 0.147460
O O3 0.000000 0.500000 0.000000
O O4 0.999922 0.588461 0.677507
O O5 0.640894 0.971635 0.799911
O O6 0.381602 0.683216 0.218724
O O7 0.271552 0.436737 0.178658
O O8 0.166704 0.140660 0.299588
O O9 0.266504 0.343376 0.913260
O O10 0.389167 0.305735 0.002065
O O11 0.931973 0.826682 0.237313
O O12 0.500066 0.403828 0.478547
O O13 0.354934 0.389406 0.420149
O O14 0.441227 0.706078 0.497688
O O15 0.112121 0.451165 0.549420
O O16 0.000000 0.500000 0.500000
#
# Coordination Sequence:
#
# PCOD9097274 Si02
#       8
#     2   2   2   1   2   2   2   2
#     4  11  25  42  59  97 132 157 211 270 314 374
#     4  11  21  41  66  92 124 170 214 252 316 390
#     4   9  21  39  60  89 128 154 213 260 309 375
#     4  10  20  36  60  84 124 156 202 250 314 364
#     4  11  21  40  66  91 126 165 215 258 311 386
#     4  10  20  39  60  89 120 168 203 259 311 373
#     4  10  20  39  62  92 120 164 204 259 315 377
#     4  11  20  40  67  86 119 174 206 253 315 369
#
# _framework density 22.042719999999999
#
# number of rings (size 3 to 8) (size 9 to 14) (size 15 to 20)
#    0.000    1.600    4.000    1.600    0.000    2.133 
#    4.800    2.667    0.000    0.000    0.000    0.000 
#    0.000    0.000    0.000    0.000    0.000    0.000 
#
# Total GULP energy -83546.787321 kJ/mol
# GULP energy per Si atom -5569.785821 kJ/mol
# Density = 2.199255 g / cm^3
# Si number density = 22.042720 Si / 1000 Ang^3
#
#
#
# Elastic Constant Matrix: (Units=GPa)
#
#
# Indices 1 2 3 4 5 6 
#
# 1 166.3173 21.5607 43.5198 -7.4685 -1.3865 27.2997
# 2 21.5607 52.9354 13.5030 8.7833 -5.6269 8.4158
# 3 43.5198 13.5030 88.8382 -6.6891 -3.5758 9.5083
# 4 -7.4685 8.7833 -6.6891 26.3242 7.3688 -1.8567
# 5 -1.3865 -5.6269 -3.5758 7.3688 31.2460 3.8235
# 6 27.2997 8.4158 9.5083 -1.8567 3.8235 24.2280
#
#
#
# Elastic Compliance Matrix: (Units=1/GPa)
#
#
# Indices 1 2 3 4 5 6 
#
# 1 0.008295 -0.001672 -0.002870 0.001566 0.000295 -0.007566
# 2 -0.001672 0.024268 -0.002639 -0.011950 0.007748 -0.007649
# 3 -0.002870 -0.002639 0.013422 0.003342 0.000256 -0.000901
# 4 0.001566 -0.011950 0.003342 0.047610 -0.013772 0.006897
# 5 0.000295 0.007748 0.000256 -0.013772 0.037934 -0.010166
# 6 -0.007566 -0.007649 -0.000901 0.006897 -0.010166 0.054944
#
#
# Mechanical properties :
#
#
# Convention : Reuss Voigt Hill
#
# Bulk Modulus (GPa) = 31.62250 51.69531 41.65890
# Shear Modulus (GPa) = 23.65471 31.66012 27.65741
#
# Velocity S-wave (km/s) = 3.27942 3.79398 3.54604
# Velocity P-wave (km/s) = 5.35879 6.53419 5.97546
#
# Compressibility (1/GPa) = 0.03162305
#
# Stress axis : x y z
#
# Youngs Moduli (GPa) = 120.55445 41.20718 74.50604
#
# Poissons Ratio (x) = 0.06890 0.21382
# Poissons Ratio (y) = 0.20157 0.19661
# Poissons Ratio (z) = 0.34597 0.10874
#
# Static dielectric constant tensor:
#      x y z
#    x 1.807570 0.025620 0.019910 
#    y 0.025620 1.830380 -0.031410 
#    z 0.019910 -0.031410 1.868800 
# 
# From -- ./inp_files/312808.got.cif
#   From: 2010.05.17/outbox.cif.g08.bks.cpg/sg2_157_cif.got.tgz:312808.got - 2010.06.03 11:33:40.
