data_PCOD9097148
_publ_section_title
;
Structure prediction by ZEFSAII (Michael W. Deem and Ramdas Pophale) SiO2 
 PCOD9097148
Probable space group: P -1
;
_chemical_formula_sum "Si O2"
_cell_formula_units_Z 16
_cell_length_a 10.059748
_cell_length_b 9.790193
_cell_length_c 13.959023
_cell_angle_alpha 127.025894
_cell_angle_beta 112.608942
_cell_angle_gamma 112.917053
_cell_volume 545.890410
_symmetry_space_group_name_H-M "P -1"
_symmetry_group_IT_number 2
_symmetry_cell_setting 'triclinic'
loop_
_space_group_symop_operation_xyz
x,y,z
-x,-y,-z
loop_
_atom_site_type_symbol
_atom_site_label
_atom_site_fract_x
_atom_site_fract_y
_atom_site_fract_z
Si Si1 0.807719 0.812645 0.758446
Si Si2 0.296729 0.068885 0.968694
Si Si3 0.790135 0.239567 0.624864
Si Si4 0.618411 0.187469 0.243585
Si Si5 0.149365 0.817552 0.567744
Si Si6 0.580645 0.386446 0.671322
Si Si7 0.262544 0.298321 0.762953
Si Si8 0.978955 0.205876 0.810554
O O1 0.500000 0.500000 0.500000
O O2 0.755087 0.716702 0.817189
O O3 0.710173 0.846789 0.544690
O O4 0.965637 0.136347 0.889194
O O5 0.382501 0.075204 0.098676
O O6 0.506242 0.415619 0.127169
O O7 0.003135 0.856238 0.793213
O O8 0.351944 0.956853 0.871437
O O9 0.979379 0.360814 0.645779
O O10 0.704368 0.346346 0.633609
O O11 0.915070 0.330521 0.802908
O O12 0.537800 0.852996 0.376113
O O13 0.646157 0.132546 0.332050
O O14 0.892697 0.560493 0.455758
O O15 0.287507 0.136290 0.747424
O O16 0.194179 0.348657 0.856301
O O17 0.000000 0.000000 0.500000
#
# Coordination Sequence:
#
# PCOD9097148 Si02
#       8
#     2   2   2   2   2   2   2   2
#     4  10  20  36  59  89 118 158 214 260 305 362
#     4  11  23  41  62  96 129 168 216 264 309 390
#     4   9  16  31  56  85 114 157 216 246 299 371
#     4  10  23  39  60  96 132 166 214 256 323 386
#     4  11  21  38  62  94 131 172 198 259 331 388
#     4   8  17  33  54  86 111 159 213 252 289 361
#     4  12  21  37  61  95 132 165 197 261 335 379
#     4   9  18  32  56  88 118 158 202 254 306 377
#
# _framework density 29.309913999999999
#
# number of rings (size 3 to 8) (size 9 to 14) (size 15 to 20)
#    0.750    1.250    2.500    1.500    0.000    4.000 
#    0.000    0.000    0.000    7.500    0.000    0.000 
#    0.000    0.000    0.000    0.000    0.000    0.000 
#
# Total GULP energy -89156.666965 kJ/mol
# GULP energy per Si atom -5572.291685 kJ/mol
# Density = 2.924320 g / cm^3
# Si number density = 29.309914 Si / 1000 Ang^3
#
#
#
# Elastic Constant Matrix: (Units=GPa)
#
#
# Indices 1 2 3 4 5 6 
#
# 1 90.2973 37.6466 39.9919 -10.8117 28.5723 -19.2845
# 2 37.6466 196.3755 53.4376 -2.2780 21.5879 -4.5415
# 3 39.9919 53.4376 91.3370 14.7763 37.7550 -16.6396
# 4 -10.8117 -2.2780 14.7763 61.2401 4.6258 1.7109
# 5 28.5723 21.5879 37.7550 4.6258 46.1679 -5.0914
# 6 -19.2845 -4.5415 -16.6396 1.7109 -5.0914 54.0518
#
#
#
# Elastic Compliance Matrix: (Units=1/GPa)
#
#
# Indices 1 2 3 4 5 6 
#
# 1 0.016744 -0.001310 -0.003781 0.004212 -0.006645 0.003940
# 2 -0.001310 0.006263 -0.003721 0.000874 0.000723 -0.001046
# 3 -0.003781 -0.003721 0.021534 -0.005162 -0.012578 0.003946
# 4 0.004212 0.000874 -0.005162 0.018423 -0.000713 -0.000663
# 5 -0.006645 0.000723 -0.012578 -0.000713 0.035481 -0.002817
# 6 0.003940 -0.001046 0.003946 -0.000663 -0.002817 0.020789
#
#
# Mechanical properties :
#
#
# Convention : Reuss Voigt Hill
#
# Bulk Modulus (GPa) = 37.15382 71.12912 54.14147
# Shear Modulus (GPa) = 34.28618 48.75421 41.52019
#
# Velocity S-wave (km/s) = 3.42392 4.08291 3.76785
# Velocity P-wave (km/s) = 5.32303 6.82257 6.11891
#
# Compressibility (1/GPa) = 0.02691514
#
# Stress axis : x y z
#
# Youngs Moduli (GPa) = 59.72259 159.67946 46.43778
#
# Poissons Ratio (x) = 0.20926 0.17560
# Poissons Ratio (y) = 0.07827 0.17279
# Poissons Ratio (z) = 0.22584 0.59415
#
# Static dielectric constant tensor:
#      x y z
#    x 2.251010 0.062630 -0.008610 
#    y 0.062630 2.490330 -0.109960 
#    z -0.008610 -0.109960 2.432080 
# 
# From -- ./inp_files/566858.got.cif
#   From: 2010.05.17/outbox.cif.g08.bks.cpg/sg2_284_cif.got.tgz:566858.got - 2010.06.03 11:33:40.
