data_PCOD9097287
_publ_section_title
;
Structure prediction by ZEFSAII (Michael W. Deem and Ramdas Pophale) SiO2 
 PCOD9097287
Probable space group: P -1
;
_chemical_formula_sum "Si O2"
_cell_formula_units_Z 10
_cell_length_a 6.348480
_cell_length_b 10.011336
_cell_length_c 10.787490
_cell_angle_alpha 50.091445
_cell_angle_beta 115.674924
_cell_angle_gamma 84.939446
_cell_volume 402.042457
_symmetry_space_group_name_H-M "P -1"
_symmetry_group_IT_number 2
_symmetry_cell_setting 'triclinic'
loop_
_space_group_symop_operation_xyz
x,y,z
-x,-y,-z
loop_
_atom_site_type_symbol
_atom_site_label
_atom_site_fract_x
_atom_site_fract_y
_atom_site_fract_z
Si Si1 0.742186 0.555379 0.574850
Si Si2 0.412743 0.012594 0.744403
Si Si3 0.109987 0.696514 0.475231
Si Si4 0.979631 0.671591 0.984938
Si Si5 0.225847 0.988625 0.455575
O O1 0.533054 0.801804 0.372353
O O2 0.736588 0.426979 0.534427
O O3 0.022864 0.561158 0.613087
O O4 0.794198 0.438946 0.785884
O O5 0.206875 0.021087 0.578980
O O6 0.200197 0.102017 0.752796
O O7 0.694695 0.803247 0.913312
O O8 0.271730 0.775793 0.547595
O O9 0.987668 0.830837 0.797816
O O10 0.000000 0.500000 0.000000
O O11 0.500000 0.000000 0.500000
#
# Coordination Sequence:
#
# PCOD9097287 Si02
#       5
#     2   2   2   2   2
#     4   9  20  37  63  81 118 150 192 233 286 344
#     4   9  19  36  62  81 113 153 190 235 279 338
#     4   9  19  40  58  84 118 150 189 238 286 338
#     4  11  20  35  60  86 117 150 193 235 283 344
#     4  10  20  36  60  85 116 150 189 241 286 335
#
# _framework density 24.872993999999998
#
# number of rings (size 3 to 8) (size 9 to 14) (size 15 to 20)
#    1.200    1.200    2.000    0.600    0.000    1.600 
#    0.000   13.000    0.000    0.000    0.000    0.000 
#    0.000    0.000    0.000    0.000    0.000    0.000 
#
# Total GULP energy -55689.875143 kJ/mol
# GULP energy per Si atom -5568.987514 kJ/mol
# Density = 2.481638 g / cm^3
# Si number density = 24.872994 Si / 1000 Ang^3
#
#
#
# Elastic Constant Matrix: (Units=GPa)
#
#
# Indices 1 2 3 4 5 6 
#
# 1 40.9519 27.2121 13.7115 -12.9885 13.6667 -22.4732
# 2 27.2121 203.1119 50.7770 -22.6957 16.5484 6.5035
# 3 13.7115 50.7770 108.5876 -9.7479 4.2273 -9.8659
# 4 -12.9885 -22.6957 -9.7479 31.2445 -10.3150 9.0788
# 5 13.6667 16.5484 4.2273 -10.3150 38.0358 -14.2482
# 6 -22.4732 6.5035 -9.8659 9.0788 -14.2482 67.5327
#
#
#
# Elastic Compliance Matrix: (Units=1/GPa)
#
#
# Indices 1 2 3 4 5 6 
#
# 1 0.037268 -0.003741 -0.001116 0.007526 -0.005709 0.010383
# 2 -0.003741 0.006603 -0.002574 0.002772 -0.001603 -0.002967
# 3 -0.001116 -0.002574 0.010735 0.000948 0.001171 0.001565
# 4 0.007526 0.002772 0.000948 0.039979 0.006193 -0.001692
# 5 -0.005709 -0.001603 0.001171 0.006193 0.032235 0.004394
# 6 0.010383 -0.002967 0.001565 -0.001692 0.004394 0.019932
#
#
# Mechanical properties :
#
#
# Convention : Reuss Voigt Hill
#
# Bulk Modulus (GPa) = 25.15946 59.56140 42.36043
# Shear Modulus (GPa) = 28.59413 44.75932 36.67672
#
# Velocity S-wave (km/s) = 3.39426 4.24667 3.84417
# Velocity P-wave (km/s) = 5.04960 6.93136 6.06392
#
# Compressibility (1/GPa) = 0.03974648
#
# Stress axis : x y z
#
# Youngs Moduli (GPa) = 26.83280 151.43944 93.15106
#
# Poissons Ratio (x) = 0.56646 0.10392
# Poissons Ratio (y) = 0.10037 0.23976
# Poissons Ratio (z) = 0.02993 0.38979
#
# Static dielectric constant tensor:
#      x y z
#    x 2.332530 -0.028840 0.055050 
#    y -0.028840 1.990490 -0.008590 
#    z 0.055050 -0.008590 1.995230 
# 
# From -- ./inp_files/183697.got.cif
#   From: 2010.05.17/outbox.cif.g08.bks.cpg/sg2_92_cif.got.tgz:183697.got - 2010.06.03 11:33:40.
