data_PCOD9097564
_publ_section_title
;
Structure prediction by ZEFSAII (Michael W. Deem and Ramdas Pophale) SiO2 
 PCOD9097564
Probable space group: P -1
;
_chemical_formula_sum "Si O2"
_cell_formula_units_Z 16
_cell_length_a 9.164736
_cell_length_b 12.482449
_cell_length_c 5.867567
_cell_angle_alpha 75.383999
_cell_angle_beta 79.841274
_cell_angle_gamma 86.516637
_cell_volume 639.242186
_symmetry_space_group_name_H-M "P -1"
_symmetry_group_IT_number 2
_symmetry_cell_setting 'triclinic'
loop_
_space_group_symop_operation_xyz
x,y,z
-x,-y,-z
loop_
_atom_site_type_symbol
_atom_site_label
_atom_site_fract_x
_atom_site_fract_y
_atom_site_fract_z
Si Si1 0.649822 0.571117 0.899196
Si Si2 0.410592 0.787857 0.049766
Si Si3 0.944710 0.792640 0.208315
Si Si4 0.183524 0.734235 0.794964
Si Si5 0.182451 0.919118 0.320414
Si Si6 0.744736 0.835585 0.861073
Si Si7 0.564808 0.621331 0.397046
Si Si8 0.068297 0.365949 0.319557
O O1 0.622308 0.638655 0.629250
O O2 0.821233 0.533860 0.815838
O O3 0.500000 0.500000 0.000000
O O4 0.659957 0.615420 0.136678
O O5 0.302591 0.885868 0.110294
O O6 0.442580 0.711038 0.302756
O O7 0.328215 0.715326 0.919504
O O8 0.568085 0.828037 0.894095
O O9 0.941661 0.674333 0.397454
O O10 0.020880 0.885350 0.291526
O O11 0.790037 0.827721 0.120625
O O12 0.060325 0.776424 0.982855
O O13 0.211667 0.836230 0.564760
O O14 0.098156 0.638578 0.730794
O O15 0.200450 0.046357 0.300943
O O16 0.837296 0.738680 0.759576
O O17 0.500000 0.500000 0.500000
#
# Coordination Sequence:
#
# PCOD9097564 Si02
#       8
#     2   2   2   2   2   2   2   2
#     4  10  21  39  66  99 124 152 206 271 322 374
#     4  11  22  37  59  88 126 166 204 263 322 381
#     4   9  20  37  57  82 118 166 215 263 303 369
#     4   9  22  38  54  83 126 166 212 251 319 376
#     4  10  22  37  54  85 125 172 205 259 313 379
#     4  11  21  34  58  88 121 162 219 258 310 375
#     4  10  22  40  67  98 123 156 207 267 321 378
#     4  10  20  36  61  88 118 168 210 261 314 375
#
# _framework density 25.029637999999998
#
# number of rings (size 3 to 8) (size 9 to 14) (size 15 to 20)
#    0.000    2.000    1.250    1.500    3.500    8.000 
#    0.000    0.000    0.000    6.000    0.000    0.000 
#    0.000    0.000    0.000    0.000    0.000    0.000 
#
# Total GULP energy -89214.549949 kJ/mol
# GULP energy per Si atom -5575.909372 kJ/mol
# Density = 2.497267 g / cm^3
# Si number density = 25.029638 Si / 1000 Ang^3
#
#
#
# Elastic Constant Matrix: (Units=GPa)
#
#
# Indices 1 2 3 4 5 6 
#
# 1 131.9471 24.8043 50.1817 8.0995 19.3822 36.7083
# 2 24.8043 45.7564 11.1025 -0.0168 0.4676 10.8398
# 3 50.1817 11.1025 152.8773 6.6155 14.6783 16.1000
# 4 8.0995 -0.0168 6.6155 24.6816 -2.3319 -10.0881
# 5 19.3822 0.4676 14.6783 -2.3319 46.7832 3.7815
# 6 36.7083 10.8398 16.1000 -10.0881 3.7815 35.9152
#
#
#
# Elastic Compliance Matrix: (Units=1/GPa)
#
#
# Indices 1 2 3 4 5 6 
#
# 1 0.014820 -0.003771 -0.001986 -0.011230 -0.004764 -0.015771
# 2 -0.003771 0.024833 -0.000345 0.000012 0.001719 -0.003664
# 3 -0.001986 -0.000345 0.007651 -0.002268 -0.001544 -0.001770
# 4 -0.011230 0.000012 -0.002268 0.056734 0.005945 0.027801
# 5 -0.004764 0.001719 -0.001544 0.005945 0.023772 0.004209
# 6 -0.015771 -0.003664 -0.001770 0.027801 0.004209 0.053228
#
#
# Mechanical properties :
#
#
# Convention : Reuss Voigt Hill
#
# Bulk Modulus (GPa) = 28.49125 55.86200 42.17662
# Shear Modulus (GPa) = 24.39699 37.77548 31.08624
#
# Velocity S-wave (km/s) = 3.12544 3.88910 3.52799
# Velocity P-wave (km/s) = 4.94290 6.52177 5.78644
#
# Compressibility (1/GPa) = 0.03509850
#
# Stress axis : x y z
#
# Youngs Moduli (GPa) = 67.47683 40.26856 130.69945
#
# Poissons Ratio (x) = 0.15185 0.25963
# Poissons Ratio (y) = 0.25446 0.04515
# Poissons Ratio (z) = 0.13404 0.01391
#
# Static dielectric constant tensor:
#      x y z
#    x 2.063720 0.050230 0.018450 
#    y 0.050230 2.073220 -0.002530 
#    z 0.018450 -0.002530 2.008210 
# 
# From -- ./inp_files/37441.got.cif
#   From: 2010.05.17/outbox.cif.g08.bks.cpg/sg2_19_cif.got.tgz:37441.got - 2010.06.03 11:33:40.
