data_PCOD9097350
_publ_section_title
;
Structure prediction by ZEFSAII (Michael W. Deem and Ramdas Pophale) SiO2 
 PCOD9097350
Probable space group: P -1
;
_chemical_formula_sum "Si O2"
_cell_formula_units_Z 13
_cell_length_a 7.869454
_cell_length_b 11.932041
_cell_length_c 14.362451
_cell_angle_alpha 150.041561
_cell_angle_beta 49.240603
_cell_angle_gamma 115.098634
_cell_volume 473.094281
_symmetry_space_group_name_H-M "P -1"
_symmetry_group_IT_number 2
_symmetry_cell_setting 'triclinic'
loop_
_space_group_symop_operation_xyz
x,y,z
-x,-y,-z
loop_
_atom_site_type_symbol
_atom_site_label
_atom_site_fract_x
_atom_site_fract_y
_atom_site_fract_z
Si Si1 0.214984 0.823102 0.512576
Si Si2 0.000404 0.087568 0.955298
Si Si3 0.156117 0.094526 0.445581
Si Si4 0.000000 0.500000 0.500000
Si Si5 0.520340 0.760478 0.762207
Si Si6 0.747530 0.706911 0.261697
Si Si7 0.377033 0.167189 0.970155
O O1 0.498330 0.665743 0.301839
O O2 0.032474 0.766904 0.467753
O O3 0.232350 0.072621 0.648911
O O4 0.079500 0.862727 0.691337
O O5 0.212369 0.188487 0.954281
O O6 0.735136 0.266607 0.149478
O O7 0.000000 0.000000 0.000000
O O8 0.261990 0.228677 0.578994
O O9 0.359127 0.845614 0.155778
O O10 0.000000 0.000000 0.500000
O O11 0.227005 0.445164 0.456037
O O12 0.210757 0.347762 0.235812
O O13 0.481002 0.881613 0.761584
O O14 0.500000 0.000000 0.000000
O O15 0.000000 0.500000 0.000000
#
# Coordination Sequence:
#
# PCOD9097350 Si02
#       7
#     2   2   2   1   2   2   2
#     4  10  20  40  66  91 129 171 208 275 326 380
#     4  10  20  38  66  90 130 173 210 262 325 387
#     4  10  21  41  68  93 128 171 216 273 330 379
#     4  10  20  36  60  88 122 162 214 258 310 388
#     4   9  19  36  57  87 120 161 205 254 317 372
#     4  10  22  41  65  95 125 166 223 269 328 389
#     4  10  20  39  60  89 128 162 213 263 318 384
#
# _framework density 27.478667999999999
#
# number of rings (size 3 to 8) (size 9 to 14) (size 15 to 20)
#    0.000    2.154    1.538    1.846    0.000    1.231 
#    2.769   18.462    0.000    0.000    0.000    0.000 
#    0.000    0.000    0.000    0.000    0.000    0.000 
#
# Total GULP energy -72417.121156 kJ/mol
# GULP energy per Si atom -5570.547781 kJ/mol
# Density = 2.741612 g / cm^3
# Si number density = 27.478668 Si / 1000 Ang^3
#
#
#
# Elastic Constant Matrix: (Units=GPa)
#
#
# Indices 1 2 3 4 5 6 
#
# 1 169.3137 28.2672 101.6498 2.0935 -43.8844 -29.6054
# 2 28.2672 79.1458 56.7715 -3.0712 -11.8603 -23.4649
# 3 101.6498 56.7715 252.9196 -8.6066 -55.1509 -21.9624
# 4 2.0935 -3.0712 -8.6066 47.0618 -4.4361 3.8741
# 5 -43.8844 -11.8603 -55.1509 -4.4361 74.7591 -11.5792
# 6 -29.6054 -23.4649 -21.9624 3.8741 -11.5792 30.8036
#
#
#
# Elastic Compliance Matrix: (Units=1/GPa)
#
#
# Indices 1 2 3 4 5 6 
#
# 1 0.011336 0.003043 -0.002370 -0.001221 0.007565 0.014520
# 2 0.003043 0.019810 -0.002894 -0.000335 0.005575 0.018089
# 3 -0.002370 -0.002894 0.006363 0.001284 0.003083 0.001052
# 4 -0.001221 -0.000335 0.001284 0.021850 0.001029 -0.002875
# 5 0.007565 0.005575 0.003083 0.001029 0.024572 0.022824
# 6 0.014520 0.018089 0.001052 -0.002875 0.022824 0.069890
#
#
# Mechanical properties :
#
#
# Convention : Reuss Voigt Hill
#
# Bulk Modulus (GPa) = 30.24285 97.19513 63.71899
# Shear Modulus (GPa) = 29.53580 51.50426 40.52003
#
# Velocity S-wave (km/s) = 3.28207 4.33406 3.84422
# Velocity P-wave (km/s) = 5.03909 7.77774 6.55308
#
# Compressibility (1/GPa) = 0.03306567
#
# Stress axis : x y z
#
# Youngs Moduli (GPa) = 88.21469 50.48006 157.15074
#
# Poissons Ratio (x) = -0.15359 0.37244
# Poissons Ratio (y) = -0.26840 0.45484
# Poissons Ratio (z) = 0.20907 0.14610
#
# Static dielectric constant tensor:
#      x y z
#    x 1.954110 -0.258910 0.233460 
#    y -0.258910 1.953220 0.185190 
#    z 0.233460 0.185190 1.890560 
# 
# From -- ./inp_files/502079.got.cif
#   From: 2010.05.17/outbox.cif.g08.bks.cpg/sg2_252_cif.got.tgz:502079.got - 2010.06.03 11:33:40.
