data_PCOD9097223
_publ_section_title
;
Structure prediction by ZEFSAII (Michael W. Deem and Ramdas Pophale) SiO2 
 PCOD9097223
Probable space group: P -1
;
_chemical_formula_sum "Si O2"
_cell_formula_units_Z 16
_cell_length_a 18.629190
_cell_length_b 12.699077
_cell_length_c 12.075199
_cell_angle_alpha 50.850759
_cell_angle_beta 31.016735
_cell_angle_gamma 31.266128
_cell_volume 707.177590
_symmetry_space_group_name_H-M "P -1"
_symmetry_group_IT_number 2
_symmetry_cell_setting 'triclinic'
loop_
_space_group_symop_operation_xyz
x,y,z
-x,-y,-z
loop_
_atom_site_type_symbol
_atom_site_label
_atom_site_fract_x
_atom_site_fract_y
_atom_site_fract_z
Si Si1 0.668700 0.714632 0.770753
Si Si2 0.706237 0.868505 0.397956
Si Si3 0.872938 0.547270 0.026335
Si Si4 0.242312 0.620206 0.584234
Si Si5 0.154335 0.905745 0.689087
Si Si6 0.097975 0.228841 0.464123
Si Si7 0.816780 0.886318 0.819332
Si Si8 0.303668 0.799327 0.803425
O O1 0.675841 0.801109 0.592320
O O2 0.753480 0.749287 0.733275
O O3 0.854831 0.456558 0.681202
O O4 0.417269 0.856786 0.029607
O O5 0.939017 0.644013 0.182247
O O6 0.500000 0.000000 0.500000
O O7 0.707004 0.029491 0.305679
O O8 0.753152 0.775578 0.994448
O O9 0.733505 0.524791 0.265499
O O10 0.000000 0.500000 0.000000
O O11 0.244732 0.750699 0.570088
O O12 0.445216 0.445296 0.346450
O O13 0.004512 0.787306 0.724865
O O14 0.238710 0.790977 0.773380
O O15 0.204641 0.024816 0.527008
O O16 0.883775 0.098098 0.928363
O O17 0.083601 0.187349 0.385879
#
# Coordination Sequence:
#
# PCOD9097223 Si02
#       8
#     2   2   2   2   2   2   2   2
#     4  11  24  43  66  96 130 168 210 270 327 382
#     4  12  20  38  72  99 128 161 210 278 326 373
#     4  10  20  36  60 101 127 152 199 267 329 373
#     4  11  23  42  67  95 128 163 214 271 328 379
#     4  11  25  44  63  92 131 176 217 255 320 395
#     4  11  25  44  63  92 131 176 217 255 320 395
#     4  11  23  42  67  95 128 163 214 271 328 379
#     4  11  24  43  66  96 130 168 210 270 327 382
#
# _framework density 22.625150999999999
#
# number of rings (size 3 to 8) (size 9 to 14) (size 15 to 20)
#    0.000    1.000    3.750    4.500    0.000    1.500 
#    0.000    1.250    0.000    0.000    0.000    0.000 
#    0.000    0.000    0.000    0.000    0.000    0.000 
#
# Total GULP energy -89495.623370 kJ/mol
# GULP energy per Si atom -5593.476461 kJ/mol
# Density = 2.257366 g / cm^3
# Si number density = 22.625151 Si / 1000 Ang^3
#
#
#
# Elastic Constant Matrix: (Units=GPa)
#
#
# Indices 1 2 3 4 5 6 
#
# 1 62.5602 8.6460 -1.7984 10.4341 8.5560 7.2508
# 2 8.6460 54.2632 2.4678 14.7098 -0.2943 11.1911
# 3 -1.7984 2.4678 57.3471 33.5709 -2.3366 12.8151
# 4 10.4341 14.7098 33.5709 37.2913 -5.3921 0.8456
# 5 8.5560 -0.2943 -2.3366 -5.3921 33.5772 5.5986
# 6 7.2508 11.1911 12.8151 0.8456 5.5986 26.4318
#
#
#
# Elastic Compliance Matrix: (Units=1/GPa)
#
#
# Indices 1 2 3 4 5 6 
#
# 1 0.022930 0.006105 0.019676 -0.027043 -0.006050 -0.016268
# 2 0.006105 0.032352 0.027591 -0.038840 -0.001039 -0.027287
# 3 0.019676 0.027591 0.079390 -0.087355 -0.004639 -0.051793
# 4 -0.027043 -0.038840 -0.087355 0.128603 0.011163 0.059737
# 5 -0.006050 -0.001039 -0.004639 0.011163 0.033295 -0.003060
# 6 -0.016268 -0.027287 -0.051793 0.059737 -0.003060 0.077697
#
#
# Mechanical properties :
#
#
# Convention : Reuss Voigt Hill
#
# Bulk Modulus (GPa) = 4.14224 21.42237 12.78231
# Shear Modulus (GPa) = 14.36805 30.45039 22.40922
#
# Velocity S-wave (km/s) = 2.52275 3.67258 3.15057
# Velocity P-wave (km/s) = 3.21255 5.24145 4.34702
#
# Compressibility (1/GPa) = 0.24141505
#
# Stress axis : x y z
#
# Youngs Moduli (GPa) = 43.61149 30.91005 12.59609
#
# Poissons Ratio (x) = -0.18869 -0.24784
# Poissons Ratio (y) = -0.26623 -0.34754
# Poissons Ratio (z) = -0.85809 -0.85285
#
# Static dielectric constant tensor:
#      x y z
#    x 1.796380 -0.017990 -0.028300 
#    y -0.017990 1.833420 -0.015850 
#    z -0.028300 -0.015850 1.856810 
# 
# From -- ./inp_files/426715.got.cif
#   From: 2010.05.17/outbox.cif.g08.bks.cpg/sg2_214_cif.got.tgz:426715.got - 2010.06.03 11:33:40.
