data_PCOD9097814
_publ_section_title
;
Structure prediction by ZEFSAII (Michael W. Deem and Ramdas Pophale) SiO2 
 PCOD9097814
Probable space group: P -1
;
_chemical_formula_sum "Si O2"
_cell_formula_units_Z 16
_cell_length_a 10.816102
_cell_length_b 20.960873
_cell_length_c 7.026781
_cell_angle_alpha 103.763156
_cell_angle_beta 84.340170
_cell_angle_gamma 31.356767
_cell_volume 645.895501
_symmetry_space_group_name_H-M "P -1"
_symmetry_group_IT_number 2
_symmetry_cell_setting 'triclinic'
loop_
_space_group_symop_operation_xyz
x,y,z
-x,-y,-z
loop_
_atom_site_type_symbol
_atom_site_label
_atom_site_fract_x
_atom_site_fract_y
_atom_site_fract_z
Si Si1 0.179482 0.133263 0.780240
Si Si2 0.648576 0.020247 0.682364
Si Si3 0.638093 0.668427 0.680314
Si Si4 0.491180 0.129454 0.205758
Si Si5 0.559164 0.746365 0.173548
Si Si6 0.801542 0.454419 0.578755
Si Si7 0.580338 0.469932 0.189219
Si Si8 0.787784 0.506076 0.063467
O O1 0.349033 0.121525 0.755935
O O2 0.121994 0.136157 0.574825
O O3 0.388232 0.978966 0.735420
O O4 0.874573 0.285632 0.042096
O O5 0.653606 0.090590 0.641456
O O6 0.651402 0.032329 0.915215
O O7 0.498590 0.798140 0.684893
O O8 0.607842 0.605025 0.616961
O O9 0.000000 0.500000 0.500000
O O10 0.519484 0.741360 0.960583
O O11 0.139325 0.289364 0.341867
O O12 0.885499 0.623215 0.035529
O O13 0.578186 0.670487 0.235340
O O14 0.669100 0.445421 0.590374
O O15 0.804004 0.475650 0.817734
O O16 0.500000 0.500000 0.000000
O O17 0.680514 0.497014 0.198745
#
# Coordination Sequence:
#
# PCOD9097814 Si02
#       8
#     2   2   2   2   2   2   2   2
#     4  11  22  37  59  86 119 156 194 240 295 349
#     4  10  21  35  59  88 117 143 196 247 291 334
#     4   8  16  31  53  82 113 147 192 243 290 330
#     4  10  20  36  62  89 114 149 202 248 284 339
#     4   9  15  28  53  81 108 141 193 247 277 334
#     4   9  18  34  59  84 118 159 185 236 301 348
#     4  10  21  36  57  84 124 160 189 233 301 356
#     4   9  16  29  52  82 113 148 190 236 289 336
#
# _framework density 24.771808
#
# number of rings (size 3 to 8) (size 9 to 14) (size 15 to 20)
#    0.000    2.500    1.250    1.125    5.250    1.000 
#    0.000    1.250    0.000   12.000    0.000    0.000 
#    0.000    0.000    0.000    0.000    0.000    0.000 
#
# Total GULP energy -89325.172648 kJ/mol
# GULP energy per Si atom -5582.823290 kJ/mol
# Density = 2.471543 g / cm^3
# Si number density = 24.771808 Si / 1000 Ang^3
#
#
#
# Elastic Constant Matrix: (Units=GPa)
#
#
# Indices 1 2 3 4 5 6 
#
# 1 90.1105 39.4753 24.8499 -7.0468 13.7812 32.9638
# 2 39.4753 97.9775 13.4788 1.3029 2.7827 41.0014
# 3 24.8499 13.4788 78.1219 -6.8067 25.4540 8.8840
# 4 -7.0468 1.3029 -6.8067 23.4670 3.1968 2.8660
# 5 13.7812 2.7827 25.4540 3.1968 44.6184 -12.3233
# 6 32.9638 41.0014 8.8840 2.8660 -12.3233 40.0572
#
#
#
# Elastic Compliance Matrix: (Units=1/GPa)
#
#
# Indices 1 2 3 4 5 6 
#
# 1 0.023869 0.002724 0.002358 0.013755 -0.018015 -0.029480
# 2 0.002724 0.020872 0.003296 0.005779 -0.012320 -0.028540
# 3 0.002358 0.003296 0.019877 0.010596 -0.017406 -0.015835
# 4 0.013755 0.005779 0.010596 0.056411 -0.023189 -0.030754
# 5 -0.018015 -0.012320 -0.017406 -0.023189 0.054029 0.049577
# 6 -0.029480 -0.028540 -0.015835 -0.030754 0.049577 0.099401
#
#
# Mechanical properties :
#
#
# Convention : Reuss Voigt Hill
#
# Bulk Modulus (GPa) = 12.28895 46.86865 29.57880
# Shear Modulus (GPa) = 17.55446 34.18889 25.87168
#
# Velocity S-wave (km/s) = 2.66493 3.71907 3.23522
# Velocity P-wave (km/s) = 3.80010 6.11582 5.09136
#
# Compressibility (1/GPa) = 0.08137393
#
# Stress axis : x y z
#
# Youngs Moduli (GPa) = 41.89580 47.91103 50.30898
#
# Poissons Ratio (x) = -0.13052 -0.11864
# Poissons Ratio (y) = -0.11413 -0.16580
# Poissons Ratio (z) = -0.09880 -0.15789
#
# Static dielectric constant tensor:
#      x y z
#    x 1.987930 0.022160 0.029840 
#    y 0.022160 2.043830 -0.044760 
#    z 0.029840 -0.044760 1.954830 
# 
# From -- ./inp_files/282008.got.cif
#   From: 2010.05.17/outbox.cif.g08.bks.cpg/sg2_142_cif.got.tgz:282008.got - 2010.06.03 11:33:40.
