data_PCOD9097281
_publ_section_title
;
Structure prediction by ZEFSAII (Michael W. Deem and Ramdas Pophale) SiO2 
 PCOD9097281
Probable space group: P -1
;
_chemical_formula_sum "Si O2"
_cell_formula_units_Z 16
_cell_length_a 6.460034
_cell_length_b 22.257465
_cell_length_c 8.542842
_cell_angle_alpha 122.661191
_cell_angle_beta 129.093957
_cell_angle_gamma 80.692308
_cell_volume 772.019422
_symmetry_space_group_name_H-M "P -1"
_symmetry_group_IT_number 2
_symmetry_cell_setting 'triclinic'
loop_
_space_group_symop_operation_xyz
x,y,z
-x,-y,-z
loop_
_atom_site_type_symbol
_atom_site_label
_atom_site_fract_x
_atom_site_fract_y
_atom_site_fract_z
Si Si1 0.603364 0.393841 0.863208
Si Si2 0.718108 0.727322 0.674474
Si Si3 0.109927 0.110799 0.598732
Si Si4 0.637592 0.157729 0.306082
Si Si5 0.818942 0.607466 0.766189
Si Si6 0.258323 0.852983 0.025176
Si Si7 0.073138 0.048815 0.849033
Si Si8 0.486808 0.488978 0.228430
O O1 0.358502 0.326808 0.587414
O O2 0.674861 0.454753 0.842663
O O3 0.529970 0.437601 0.036327
O O4 0.863129 0.366074 0.997828
O O5 0.493645 0.773649 0.645088
O O6 0.711359 0.674935 0.746943
O O7 0.018685 0.784187 0.878710
O O8 0.434512 0.144539 0.766417
O O9 0.087193 0.084096 0.730691
O O10 0.903716 0.161163 0.543307
O O11 0.998838 0.038516 0.334617
O O12 0.728603 0.151603 0.162191
O O13 0.377273 0.085961 0.118182
O O14 0.761126 0.546012 0.512834
O O15 0.658436 0.563710 0.775634
O O16 0.160973 0.924972 0.131676
#
# Coordination Sequence:
#
# PCOD9097281 Si02
#       8
#     2   2   2   2   2   2   2   2
#     4  10  20  36  60  85 113 148 188 232 285 339
#     4  10  24  39  52  82 121 156 192 230 278 343
#     4  10  20  37  63  85 111 151 190 240 293 334
#     4  10  22  38  56  82 118 153 191 236 283 341
#     4  10  20  37  60  82 114 150 185 234 286 333
#     4  10  22  38  55  82 118 151 193 237 279 343
#     4   9  20  38  59  88 114 141 192 246 291 337
#     4   9  20  37  59  89 110 138 190 242 282 330
#
# _framework density 20.724867
#
# number of rings (size 3 to 8) (size 9 to 14) (size 15 to 20)
#    0.000    2.250    0.000    1.500    0.000    8.500 
#    0.000    2.500    0.000    0.000    0.000    0.000 
#    0.000    0.000    0.000    0.000    0.000    0.000 
#
# Total GULP energy -89337.710709 kJ/mol
# GULP energy per Si atom -5583.606919 kJ/mol
# Density = 2.067770 g / cm^3
# Si number density = 20.724867 Si / 1000 Ang^3
#
#
#
# Elastic Constant Matrix: (Units=GPa)
#
#
# Indices 1 2 3 4 5 6 
#
# 1 76.9558 37.3186 26.5837 0.1468 -1.4941 -20.4652
# 2 37.3186 101.6327 41.0500 -8.0197 25.0207 -1.5802
# 3 26.5837 41.0500 65.5554 -8.2843 8.6152 -4.2798
# 4 0.1468 -8.0197 -8.2843 28.3180 -18.0390 -4.8772
# 5 -1.4941 25.0207 8.6152 -18.0390 60.3377 19.3074
# 6 -20.4652 -1.5802 -4.2798 -4.8772 19.3074 46.4455
#
#
#
# Elastic Compliance Matrix: (Units=1/GPa)
#
#
# Indices 1 2 3 4 5 6 
#
# 1 0.019046 -0.005487 -0.004024 -0.001174 0.000581 0.007470
# 2 -0.005487 0.016221 -0.007310 -0.001506 -0.006235 -0.000106
# 3 -0.004024 -0.007310 0.021944 0.005241 0.001372 -0.000020
# 4 -0.001174 -0.001506 0.005241 0.044915 0.013603 -0.001024
# 5 0.000581 -0.006235 0.001372 0.013603 0.025990 -0.009206
# 6 0.007470 -0.000106 -0.000020 -0.001024 -0.009206 0.028536
#
#
# Mechanical properties :
#
#
# Convention : Reuss Voigt Hill
#
# Bulk Modulus (GPa) = 42.43039 50.44982 46.44010
# Shear Modulus (GPa) = 25.23315 36.29967 30.76641
#
# Velocity S-wave (km/s) = 3.49310 4.18964 3.85712
# Velocity P-wave (km/s) = 6.06520 6.91372 6.50331
#
# Compressibility (1/GPa) = 0.02356801
#
# Stress axis : x y z
#
# Youngs Moduli (GPa) = 52.50552 61.64663 45.56956
#
# Poissons Ratio (x) = 0.33828 0.18337
# Poissons Ratio (y) = 0.28812 0.33313
# Poissons Ratio (z) = 0.21129 0.45066
#
# Static dielectric constant tensor:
#      x y z
#    x 1.709960 -0.004900 -0.003850 
#    y -0.004900 1.738500 -0.003700 
#    z -0.003850 -0.003700 1.759630 
# 
# From -- ./inp_files/48092.got.cif
#   From: 2010.05.17/outbox.cif.g08.bks.cpg/sg2_25_cif.got.tgz:48092.got - 2010.06.03 11:33:40.
