data_PCOD9097204
_publ_section_title
;
Structure prediction by ZEFSAII (Michael W. Deem and Ramdas Pophale) SiO2 
 PCOD9097204
Probable space group: P -1
;
_chemical_formula_sum "Si O2"
_cell_formula_units_Z 14
_cell_length_a 5.371975
_cell_length_b 17.056531
_cell_length_c 7.626065
_cell_angle_alpha 80.478385
_cell_angle_beta 80.837608
_cell_angle_gamma 124.711899
_cell_volume 538.090924
_symmetry_space_group_name_H-M "P -1"
_symmetry_group_IT_number 2
_symmetry_cell_setting 'triclinic'
loop_
_space_group_symop_operation_xyz
x,y,z
-x,-y,-z
loop_
_atom_site_type_symbol
_atom_site_label
_atom_site_fract_x
_atom_site_fract_y
_atom_site_fract_z
Si Si1 0.357053 0.653064 0.777688
Si Si2 0.237643 0.148993 0.508173
Si Si3 0.496166 0.606575 0.445033
Si Si4 0.463681 0.569493 0.102639
Si Si5 0.154694 0.766680 0.933184
Si Si6 0.596031 0.970380 0.671554
Si Si7 0.739786 0.265438 0.691322
O O1 0.697346 0.754557 0.633244
O O2 0.309401 0.577498 0.661139
O O3 0.281485 0.596899 0.989774
O O4 0.192093 0.707446 0.795895
O O5 0.257552 0.087311 0.376416
O O6 0.513613 0.180143 0.604726
O O7 0.897778 0.077618 0.670734
O O8 0.377912 0.667603 0.352759
O O9 0.878553 0.670256 0.400469
O O10 0.386238 0.528469 0.325855
O O11 0.788002 0.682319 0.045255
O O12 0.500000 0.500000 0.000000
O O13 0.279309 0.878978 0.837654
O O14 0.333372 0.774965 0.087591
O O15 0.500000 0.000000 0.500000
#
# Coordination Sequence:
#
# PCOD9097204 Si02
#       7
#     2   2   2   2   2   2   2
#     4  10  21  40  68  88 129 174 210 266 332 384
#     4   9  21  35  60  92 126 171 214 263 322 389
#     4  10  23  41  67  97 133 171 219 272 324 392
#     4  11  24  42  65  97 130 170 221 275 329 392
#     4  10  22  41  65  91 129 175 217 271 331 386
#     4  10  20  36  59  93 126 168 222 265 319 389
#     4  10  21  41  64  96 132 173 220 268 323 389
#
# _framework density 26.017909
#
# number of rings (size 3 to 8) (size 9 to 14) (size 15 to 20)
#    0.000    2.000    1.429    0.857   10.000    1.714 
#    0.000    1.429    0.000    0.000    0.000    0.000 
#    0.000    0.000    0.000    0.000    0.000    0.000 
#
# Total GULP energy -77968.396778 kJ/mol
# GULP energy per Si atom -5569.171198 kJ/mol
# Density = 2.595869 g / cm^3
# Si number density = 26.017909 Si / 1000 Ang^3
#
#
#
# Elastic Constant Matrix: (Units=GPa)
#
#
# Indices 1 2 3 4 5 6 
#
# 1 98.2498 32.3392 21.3268 -7.7168 5.3630 19.3709
# 2 32.3392 93.0298 44.9898 -22.1132 1.9316 35.1271
# 3 21.3268 44.9898 134.1921 9.6552 4.4314 15.1393
# 4 -7.7168 -22.1132 9.6552 50.3975 -10.6717 -3.0832
# 5 5.3630 1.9316 4.4314 -10.6717 38.1124 6.6045
# 6 19.3709 35.1271 15.1393 -3.0832 6.6045 49.7866
#
#
#
# Elastic Compliance Matrix: (Units=1/GPa)
#
#
# Indices 1 2 3 4 5 6 
#
# 1 0.011772 -0.002820 -0.000667 0.000355 -0.000948 -0.002240
# 2 -0.002820 0.022060 -0.006488 0.010834 0.005236 -0.012518
# 3 -0.000667 -0.006488 0.009994 -0.005289 -0.002533 0.001807
# 4 0.000355 0.010834 -0.005289 0.027138 0.008591 -0.005633
# 5 -0.000948 0.005236 -0.002533 0.008591 0.029843 -0.005982
# 6 -0.002240 -0.012518 0.001807 -0.005633 -0.005982 0.029685
#
#
# Mechanical properties :
#
#
# Convention : Reuss Voigt Hill
#
# Bulk Modulus (GPa) = 41.88166 58.08703 49.98435
# Shear Modulus (GPa) = 31.56551 42.78038 37.17295
#
# Velocity S-wave (km/s) = 3.48691 4.05936 3.78397
# Velocity P-wave (km/s) = 5.68714 6.65923 6.19229
#
# Compressibility (1/GPa) = 0.02387680
#
# Stress axis : x y z
#
# Youngs Moduli (GPa) = 84.94431 45.33028 100.06382
#
# Poissons Ratio (x) = 0.12782 0.06676
# Poissons Ratio (y) = 0.23951 0.64921
# Poissons Ratio (z) = 0.05667 0.29410
#
# Static dielectric constant tensor:
#      x y z
#    x 2.119680 0.036790 -0.048600 
#    y 0.036790 2.258800 0.018060 
#    z -0.048600 0.018060 2.260740 
# 
# From -- ./inp_files/55623.got.cif
#   From: 2010.05.17/outbox.cif.g08.bks.cpg/sg2_28_cif.got.tgz:55623.got - 2010.06.03 11:33:40.
