data_PCOD9097074
_publ_section_title
;
Structure prediction by ZEFSAII (Michael W. Deem and Ramdas Pophale) SiO2 
 PCOD9097074
Probable space group: P -1
;
_chemical_formula_sum "Si O2"
_cell_formula_units_Z 16
_cell_length_a 11.187611
_cell_length_b 7.086754
_cell_length_c 9.088075
_cell_angle_alpha 71.646314
_cell_angle_beta 72.359661
_cell_angle_gamma 76.683910
_cell_volume 644.437239
_symmetry_space_group_name_H-M "P -1"
_symmetry_group_IT_number 2
_symmetry_cell_setting 'triclinic'
loop_
_space_group_symop_operation_xyz
x,y,z
-x,-y,-z
loop_
_atom_site_type_symbol
_atom_site_label
_atom_site_fract_x
_atom_site_fract_y
_atom_site_fract_z
Si Si1 0.937709 0.743559 0.903684
Si Si2 0.271588 0.793055 0.219557
Si Si3 0.992250 0.168083 0.639253
Si Si4 0.528731 0.521309 0.161101
Si Si5 0.413945 0.216107 0.469655
Si Si6 0.198810 0.190829 0.319856
Si Si7 0.793925 0.829039 0.233578
Si Si8 0.212310 0.706532 0.922822
O O1 0.874233 0.654876 0.807424
O O2 0.076277 0.657248 0.933157
O O3 0.839168 0.790355 0.060934
O O4 0.966166 0.962714 0.778301
O O5 0.418540 0.700903 0.201216
O O6 0.150080 0.718090 0.366763
O O7 0.268005 0.013620 0.234791
O O8 0.232452 0.756301 0.074915
O O9 0.086560 0.129210 0.476770
O O10 0.082108 0.263945 0.695914
O O11 0.502402 0.364319 0.336308
O O12 0.680262 0.477177 0.114113
O O13 0.500000 0.500000 0.000000
O O14 0.304924 0.240408 0.378141
O O15 0.332170 0.249161 0.641829
O O16 0.500000 0.000000 0.500000
O O17 0.771451 0.073371 0.207682
#
# Coordination Sequence:
#
# PCOD9097074 Si02
#       8
#     2   2   2   2   2   2   2   2
#     4  10  16  30  58  92 115 144 208 248 287 336
#     4  10  17  34  57  90 119 150 203 239 296 348
#     4   9  16  29  53  90 120 149 192 250 290 343
#     4  10  23  39  61  86 122 166 197 236 302 368
#     4  11  23  41  60  86 124 159 199 243 302 361
#     4  10  21  33  61  95 118 151 205 258 288 340
#     4  10  16  30  58  85 114 150 202 241 290 342
#     4  10  16  31  58  89 118 158 193 243 287 358
#
# _framework density 24.827864000000002
#
# number of rings (size 3 to 8) (size 9 to 14) (size 15 to 20)
#    0.000    2.000    5.000    2.250    0.000    0.000 
#    0.000    8.750    0.000    3.000    0.000    0.000 
#    0.000    0.000    0.000    0.000    0.000    0.000 
#
# Total GULP energy -89163.923159 kJ/mol
# GULP energy per Si atom -5572.745197 kJ/mol
# Density = 2.477135 g / cm^3
# Si number density = 24.827864 Si / 1000 Ang^3
#
#
#
# Elastic Constant Matrix: (Units=GPa)
#
#
# Indices 1 2 3 4 5 6 
#
# 1 128.5683 41.0651 46.0853 16.2068 -13.4257 -37.7561
# 2 41.0651 85.1880 34.3247 12.4871 -3.0768 -38.6939
# 3 46.0853 34.3247 146.9108 12.8018 -12.2842 -14.7983
# 4 16.2068 12.4871 12.8018 29.4596 -6.1690 -9.1104
# 5 -13.4257 -3.0768 -12.2842 -6.1690 38.0800 2.9185
# 6 -37.7561 -38.6939 -14.7983 -9.1104 2.9185 46.3268
#
#
#
# Elastic Compliance Matrix: (Units=1/GPa)
#
#
# Indices 1 2 3 4 5 6 
#
# 1 0.011574 -0.000902 -0.002288 -0.002222 0.002345 0.007363
# 2 -0.000902 0.020487 -0.002864 -0.002534 -0.001150 0.015035
# 3 -0.002288 -0.002864 0.008244 -0.001403 0.001547 -0.001997
# 4 -0.002222 -0.002534 -0.001403 0.038728 0.004607 0.002950
# 5 0.002345 -0.001150 0.001547 0.004607 0.028196 0.000575
# 6 0.007363 0.015035 -0.001997 0.002950 0.000575 0.040051
#
#
# Mechanical properties :
#
#
# Convention : Reuss Voigt Hill
#
# Bulk Modulus (GPa) = 35.46701 67.06857 51.26779
# Shear Modulus (GPa) = 29.62285 38.71942 34.17114
#
# Velocity S-wave (km/s) = 3.45792 3.95335 3.71391
# Velocity P-wave (km/s) = 5.50083 6.92176 6.25179
#
# Compressibility (1/GPa) = 0.02819521
#
# Stress axis : x y z
#
# Youngs Moduli (GPa) = 86.40246 48.81130 121.29409
#
# Poissons Ratio (x) = 0.04403 0.27757
# Poissons Ratio (y) = 0.07794 0.34745
# Poissons Ratio (z) = 0.19773 0.13982
#
# Static dielectric constant tensor:
#      x y z
#    x 2.076120 0.018620 0.043550 
#    y 0.018620 2.122530 -0.079470 
#    z 0.043550 -0.079470 1.984770 
# 
# From -- ./inp_files/237539.got.cif
#   From: 2010.05.17/outbox.cif.g08.bks.cpg/sg2_119_cif.got.tgz:237539.got - 2010.06.03 11:33:40.
