data_PCOD9097404
_publ_section_title
;
Structure prediction by ZEFSAII (Michael W. Deem and Ramdas Pophale) SiO2 
 PCOD9097404
Probable space group: P -1
;
_chemical_formula_sum "Si O2"
_cell_formula_units_Z 11
_cell_length_a 15.240135
_cell_length_b 7.555978
_cell_length_c 13.042708
_cell_angle_alpha 55.126532
_cell_angle_beta 24.986836
_cell_angle_gamma 44.311929
_cell_volume 427.910169
_symmetry_space_group_name_H-M "P -1"
_symmetry_group_IT_number 2
_symmetry_cell_setting 'triclinic'
loop_
_space_group_symop_operation_xyz
x,y,z
-x,-y,-z
loop_
_atom_site_type_symbol
_atom_site_label
_atom_site_fract_x
_atom_site_fract_y
_atom_site_fract_z
Si Si1 0.000000 0.500000 0.000000
Si Si2 0.938937 0.779212 0.359801
Si Si3 0.442184 0.842224 0.532875
Si Si4 0.014807 0.818987 0.688205
Si Si5 0.493209 0.755141 0.894935
Si Si6 0.437833 0.575255 0.817664
O O1 0.690168 0.661122 0.262479
O O2 0.974819 0.381017 0.175116
O O3 0.763780 0.704226 0.621586
O O4 0.792416 0.958514 0.355861
O O5 0.954815 0.968670 0.358184
O O6 0.217215 0.550079 0.100509
O O7 0.387524 0.672461 0.721888
O O8 0.500000 0.000000 0.500000
O O9 0.266563 0.652818 0.409151
O O10 0.728919 0.995635 0.890507
O O11 0.407852 0.800051 0.850057
O O12 0.500000 0.500000 0.000000
#
# Coordination Sequence:
#
# PCOD9097404 Si02
#       6
#     1   2   2   2   2   2
#     4  10  20  36  60  90 130 154 192 250 304 368
#     4  11  22  40  63  93 122 166 202 251 309 363
#     4  11  19  36  61  90 129 158 195 248 310 372
#     4  10  23  41  61  96 126 159 205 248 308 370
#     4  11  24  45  64  85 125 168 209 256 300 354
#     4  10  23  38  62  95 122 159 204 252 309 366
#
# _framework density 25.706332
#
# number of rings (size 3 to 8) (size 9 to 14) (size 15 to 20)
#    0.000    1.455    3.636    1.636    0.000    9.455 
#    0.000    1.818    0.000    0.000    0.000    0.000 
#    0.000    0.000    0.000    0.000    0.000    0.000 
#
# Total GULP energy -61247.247142 kJ/mol
# GULP energy per Si atom -5567.931558 kJ/mol
# Density = 2.564782 g / cm^3
# Si number density = 25.706332 Si / 1000 Ang^3
#
#
#
# Elastic Constant Matrix: (Units=GPa)
#
#
# Indices 1 2 3 4 5 6 
#
# 1 43.1732 0.7755 15.2680 -4.7386 1.9391 -2.1496
# 2 0.7755 49.6533 55.7086 -0.5559 12.0818 -15.1568
# 3 15.2680 55.7086 298.5849 10.0315 -1.3993 -11.7433
# 4 -4.7386 -0.5559 10.0315 56.5630 -13.0169 2.7725
# 5 1.9391 12.0818 -1.3993 -13.0169 30.8402 -1.6176
# 6 -2.1496 -15.1568 -11.7433 2.7725 -1.6176 41.3021
#
#
#
# Elastic Compliance Matrix: (Units=1/GPa)
#
#
# Indices 1 2 3 4 5 6 
#
# 1 0.024071 0.002389 -0.001690 0.001888 -0.001653 0.001457
# 2 0.002389 0.033170 -0.005903 -0.002095 -0.013760 0.010220
# 3 -0.001690 -0.005903 0.004529 -0.000407 0.002408 -0.000845
# 4 0.001888 -0.002095 -0.000407 0.020061 0.009057 -0.001778
# 5 -0.001653 -0.013760 0.002408 0.009057 0.041672 -0.003427
# 6 0.001457 0.010220 -0.000845 -0.001778 -0.003427 0.027783
#
#
# Mechanical properties :
#
#
# Convention : Reuss Voigt Hill
#
# Bulk Modulus (GPa) = 19.47021 59.43505 39.45263
# Shear Modulus (GPa) = 27.96184 47.05168 37.50676
#
# Velocity S-wave (km/s) = 3.30167 4.28290 3.82389
# Velocity P-wave (km/s) = 4.70375 6.90135 5.90567
#
# Compressibility (1/GPa) = 0.05136051
#
# Stress axis : x y z
#
# Youngs Moduli (GPa) = 41.54295 30.14805 220.81643
#
# Poissons Ratio (x) = -0.07202 0.37327
# Poissons Ratio (y) = -0.09924 1.30347
# Poissons Ratio (z) = 0.07023 0.17796
#
# Static dielectric constant tensor:
#      x y z
#    x 2.045930 -0.024430 -0.017180 
#    y -0.024430 2.074010 0.031520 
#    z -0.017180 0.031520 2.083770 
# 
# From -- ./inp_files/19003.got.cif
#   From: 2010.05.17/outbox.cif.g08.bks.cpg/sg2_10_cif.got.tgz:19003.got - 2010.06.03 11:33:40.
