data_PCOD9097600
_publ_section_title
;
Structure prediction by ZEFSAII (Michael W. Deem and Ramdas Pophale) SiO2 
 PCOD9097600
Probable space group: P -1
;
_chemical_formula_sum "Si O2"
_cell_formula_units_Z 16
_cell_length_a 9.029220
_cell_length_b 11.778433
_cell_length_c 15.692902
_cell_angle_alpha 63.095645
_cell_angle_beta 49.538506
_cell_angle_gamma 104.024460
_cell_volume 694.315244
_symmetry_space_group_name_H-M "P -1"
_symmetry_group_IT_number 2
_symmetry_cell_setting 'triclinic'
loop_
_space_group_symop_operation_xyz
x,y,z
-x,-y,-z
loop_
_atom_site_type_symbol
_atom_site_label
_atom_site_fract_x
_atom_site_fract_y
_atom_site_fract_z
Si Si1 0.455142 0.066713 0.226217
Si Si2 0.632689 0.701219 0.158968
Si Si3 0.581368 0.719130 0.487868
Si Si4 0.804243 0.112979 0.222489
Si Si5 0.234649 0.464396 0.546456
Si Si6 0.278441 0.290319 0.378066
Si Si7 0.183747 0.524826 0.000110
Si Si8 0.557777 0.127178 0.858843
O O1 0.528106 0.046083 0.299343
O O2 0.711765 0.311153 0.029924
O O3 0.486130 0.971950 0.177986
O O4 0.093033 0.927985 0.405937
O O5 0.544035 0.654867 0.307883
O O6 0.339711 0.472546 0.304282
O O7 0.650460 0.854103 0.069514
O O8 0.935133 0.780085 0.985657
O O9 0.286730 0.544394 0.593975
O O10 0.791269 0.703050 0.388880
O O11 0.549472 0.682655 0.612861
O O12 0.707323 0.925291 0.355853
O O13 0.967758 0.288025 0.173333
O O14 0.923381 0.357930 0.655207
O O15 0.474859 0.346308 0.205141
O O16 0.000000 0.500000 0.000000
O O17 0.500000 0.000000 0.000000
#
# Coordination Sequence:
#
# PCOD9097600 Si02
#       8
#     2   2   2   2   2   2   2   2
#     4  11  22  40  64  89 122 165 207 247 309 361
#     4  10  21  37  61  86 128 162 207 241 309 367
#     4  10  20  36  61  89 124 156 202 248 306 354
#     4  10  22  39  64  91 121 163 207 254 302 363
#     4  10  21  36  57  86 127 166 198 246 302 374
#     4  10  21  40  67  90 120 162 202 259 304 365
#     4   9  21  42  66  87 119 161 211 251 305 369
#     4  12  24  36  60  94 130 159 205 255 301 363
#
# _framework density 23.044286
#
# number of rings (size 3 to 8) (size 9 to 14) (size 15 to 20)
#    0.000    1.750    2.500    2.250    1.750    7.000 
#    0.000    3.125    2.750    0.000    0.000    0.000 
#    0.000    0.000    0.000    0.000    0.000    0.000 
#
# Total GULP energy -89341.416172 kJ/mol
# GULP energy per Si atom -5583.838511 kJ/mol
# Density = 2.299184 g / cm^3
# Si number density = 23.044286 Si / 1000 Ang^3
#
#
#
# Elastic Constant Matrix: (Units=GPa)
#
#
# Indices 1 2 3 4 5 6 
#
# 1 55.7816 32.8058 18.4453 -17.3981 9.4356 -10.5751
# 2 32.8058 85.1885 24.7502 -36.0677 -5.5854 -11.2710
# 3 18.4453 24.7502 39.0316 -11.8613 5.2543 -2.5801
# 4 -17.3981 -36.0677 -11.8613 32.9397 -7.7576 0.3550
# 5 9.4356 -5.5854 5.2543 -7.7576 36.5369 -13.7050
# 6 -10.5751 -11.2710 -2.5801 0.3550 -13.7050 28.7944
#
#
#
# Elastic Compliance Matrix: (Units=1/GPa)
#
#
# Indices 1 2 3 4 5 6 
#
# 1 0.026638 -0.006829 -0.006388 0.003127 -0.004751 0.004238
# 2 -0.006829 0.042535 -0.012221 0.045251 0.029600 0.026577
# 3 -0.006388 -0.012221 0.035234 -0.006293 -0.009839 -0.008578
# 4 0.003127 0.045251 -0.006293 0.088133 0.039178 0.035858
# 5 -0.004751 0.029600 -0.009839 0.039178 0.056039 0.035150
# 6 0.004238 0.026577 -0.008578 0.035858 0.035150 0.062208
#
#
# Mechanical properties :
#
#
# Convention : Reuss Voigt Hill
#
# Bulk Modulus (GPa) = 18.68089 36.88938 27.78514
# Shear Modulus (GPa) = 13.17499 26.58757 19.88128
#
# Velocity S-wave (km/s) = 2.39367 3.40039 2.94043
# Velocity P-wave (km/s) = 3.97035 5.60889 4.85918
#
# Compressibility (1/GPa) = 0.05353063
#
# Stress axis : x y z
#
# Youngs Moduli (GPa) = 37.54020 23.50999 28.38198
#
# Poissons Ratio (x) = 0.16055 0.18131
# Poissons Ratio (y) = 0.25636 0.34686
# Poissons Ratio (z) = 0.23981 0.28732
#
# Static dielectric constant tensor:
#      x y z
#    x 1.845680 0.007090 -0.001430 
#    y 0.007090 1.889820 -0.017360 
#    z -0.001430 -0.017360 1.903140 
# 
# From -- ./inp_files/178752.got.cif
#   From: 2010.05.17/outbox.cif.g08.bks.cpg/sg2_90_cif.got.tgz:178752.got - 2010.06.03 11:33:40.
