data_PCOD9097428
_publ_section_title
;
Structure prediction by ZEFSAII (Michael W. Deem and Ramdas Pophale) SiO2 
 PCOD9097428
Probable space group: P -1
;
_chemical_formula_sum "Si O2"
_cell_formula_units_Z 16
_cell_length_a 19.938809
_cell_length_b 10.703920
_cell_length_c 9.316072
_cell_angle_alpha 135.354474
_cell_angle_beta 35.823911
_cell_angle_gamma 144.050965
_cell_volume 674.349173
_symmetry_space_group_name_H-M "P -1"
_symmetry_group_IT_number 2
_symmetry_cell_setting 'triclinic'
loop_
_space_group_symop_operation_xyz
x,y,z
-x,-y,-z
loop_
_atom_site_type_symbol
_atom_site_label
_atom_site_fract_x
_atom_site_fract_y
_atom_site_fract_z
Si Si1 0.920665 0.137236 0.835655
Si Si2 0.947091 0.777303 0.598530
Si Si3 0.171427 0.027575 0.623572
Si Si4 0.285255 0.014666 0.710210
Si Si5 0.678321 0.334005 0.738265
Si Si6 0.794796 0.572599 0.257943
Si Si7 0.464588 0.757304 0.365945
Si Si8 0.838886 0.378272 0.748911
O O1 0.925990 0.161561 0.677252
O O2 0.075271 0.296193 0.754322
O O3 0.883808 0.901896 0.746655
O O4 0.817974 0.154531 0.127845
O O5 0.832082 0.527702 0.579300
O O6 0.010128 0.877881 0.727500
O O7 0.206617 0.051897 0.751529
O O8 0.229242 0.255115 0.633651
O O9 0.217315 0.873016 0.361367
O O10 0.404274 0.215350 0.758692
O O11 0.346874 0.897067 0.428222
O O12 0.571158 0.327158 0.805967
O O13 0.718322 0.385431 0.878699
O O14 0.665176 0.393899 0.429319
O O15 0.844208 0.478791 0.973365
O O16 0.500000 0.000000 0.500000
O O17 0.000000 0.500000 0.500000
#
# Coordination Sequence:
#
# PCOD9097428 Si02
#       8
#     2   2   2   2   2   2   2   2
#     4  10  22  36  61  97 121 167 211 262 321 381
#     4  10  20  36  60  91 132 155 207 267 324 367
#     4  10  23  39  62  99 131 160 214 268 316 385
#     4  10  23  40  63  91 128 165 216 261 314 384
#     4  10  20  39  62  87 131 162 205 266 316 374
#     4  11  23  41  71  91 131 176 207 266 334 369
#     4  10  23  46  65  88 129 176 215 260 320 390
#     4  11  22  38  64 103 131 163 213 266 322 379
#
# _framework density 23.726579999999998
#
# number of rings (size 3 to 8) (size 9 to 14) (size 15 to 20)
#    0.000    1.750    2.500    1.500    1.750    4.500 
#    0.000    7.500    5.500    0.000    0.000    0.000 
#    0.000    0.000    0.000    0.000    0.000    0.000 
#
# Total GULP energy -89094.717052 kJ/mol
# GULP energy per Si atom -5568.419816 kJ/mol
# Density = 2.367258 g / cm^3
# Si number density = 23.726580 Si / 1000 Ang^3
#
#
#
# Elastic Constant Matrix: (Units=GPa)
#
#
# Indices 1 2 3 4 5 6 
#
# 1 162.5018 43.9848 28.8367 8.2839 19.2670 40.5729
# 2 43.9848 99.2464 31.7413 -0.4738 -4.3403 -2.7407
# 3 28.8367 31.7413 51.4123 7.1164 5.6480 4.5795
# 4 8.2839 -0.4738 7.1164 30.9313 6.4774 -3.0602
# 5 19.2670 -4.3403 5.6480 6.4774 4.3521 5.7100
# 6 40.5729 -2.7407 4.5795 -3.0602 5.7100 47.4622
#
#
#
# Elastic Compliance Matrix: (Units=1/GPa)
#
#
# Indices 1 2 3 4 5 6 
#
# 1 -0.060298 0.067699 -0.055356 -0.085952 0.548267 -0.010706
# 2 0.067699 -0.058862 0.047066 0.088195 -0.560306 0.007282
# 3 -0.055356 0.047066 -0.014631 -0.068908 0.417824 -0.003259
# 4 -0.085952 0.088195 -0.068908 -0.062464 0.646363 0.003428
# 5 0.548267 -0.560306 0.417824 0.646363 -4.280522 0.015294
# 6 -0.010706 0.007282 -0.003259 0.003428 0.015294 0.029337
#
#
# Mechanical properties :
#
#
# Convention : Reuss Voigt Hill
#
# Bulk Modulus (GPa) = -66.78557 58.03180 -4.37688
# Shear Modulus (GPa) = -1.09379 30.45565 14.68093
#
# Velocity S-wave (km/s) = -0.67971 3.58664 2.49018
# Velocity P-wave (km/s) = 5.36890 6.45473 2.53362
#
# Compressibility (1/GPa) = -0.01497329
#
# Stress axis : x y z
#
# Youngs Moduli (GPa) = -16.58431 -16.98898 -68.34619
#
# Poissons Ratio (x) = 1.15013 -3.78337
# Poissons Ratio (y) = 1.12274 3.21679
# Poissons Ratio (z) = -0.91804 0.79961
#
# Static dielectric constant tensor:
#      x y z
#    x 2.060710 -0.037430 -0.023490 
#    y -0.037430 1.894860 0.007150 
#    z -0.023490 0.007150 1.940140 
# 
# From -- ./inp_files/346335.got.cif
#   From: 2010.05.17/outbox.cif.g08.bks.cpg/sg2_174_cif.got.tgz:346335.got - 2010.06.03 11:33:40.
