data_PCOD9097294
_publ_section_title
;
Structure prediction by ZEFSAII (Michael W. Deem and Ramdas Pophale) SiO2 
 PCOD9097294
Probable space group: P -1
;
_chemical_formula_sum "Si O2"
_cell_formula_units_Z 14
_cell_length_a 5.150220
_cell_length_b 8.290717
_cell_length_c 16.997954
_cell_angle_alpha 90.152791
_cell_angle_beta 86.155467
_cell_angle_gamma 48.272260
_cell_volume 539.362993
_symmetry_space_group_name_H-M "P -1"
_symmetry_group_IT_number 2
_symmetry_cell_setting 'triclinic'
loop_
_space_group_symop_operation_xyz
x,y,z
-x,-y,-z
loop_
_atom_site_type_symbol
_atom_site_label
_atom_site_fract_x
_atom_site_fract_y
_atom_site_fract_z
Si Si1 0.670212 0.908324 0.876614
Si Si2 0.983496 0.314648 0.983103
Si Si3 0.323859 0.549580 0.700971
Si Si4 0.602500 0.302208 0.447316
Si Si5 0.365590 0.185369 0.734375
Si Si6 0.634990 0.541166 0.842560
Si Si7 0.704599 0.863412 0.601962
O O1 0.622329 0.737187 0.859939
O O2 0.331549 0.115748 0.930063
O O3 0.637012 0.016621 0.795594
O O4 0.979508 0.795676 0.935288
O O5 0.684640 0.420412 0.922691
O O6 0.000000 0.500000 0.000000
O O7 0.500268 0.604336 0.639858
O O8 0.489566 0.306031 0.700188
O O9 0.335492 0.605677 0.789795
O O10 0.955395 0.683513 0.664447
O O11 0.500000 0.500000 0.500000
O O12 0.400327 0.220352 0.462409
O O13 0.022494 0.118734 0.436940
O O14 0.991648 0.360396 0.784322
O O15 0.380418 0.063052 0.658606
#
# Coordination Sequence:
#
# PCOD9097294 Si02
#       7
#     2   2   2   2   2   2   2
#     4   9  17  32  58  85 126 169 221 265 331 371
#     4   8  16  31  55  88 121 174 214 275 316 388
#     4  10  23  36  62  91 128 163 214 262 325 377
#     4  10  22  45  69  94 130 171 211 263 321 387
#     4  11  21  36  59  93 124 167 217 269 318 384
#     4  10  20  36  60  85 128 166 220 266 326 380
#     4  10  24  41  68  94 130 169 216 260 326 380
#
# _framework density 25.956544000000001
#
# number of rings (size 3 to 8) (size 9 to 14) (size 15 to 20)
#    0.857    1.429    0.000    3.000    2.000    1.143 
#    0.000    2.143    0.000   35.143    0.000    0.000 
#    0.000    0.000    0.000    0.000    0.000    0.000 
#
# Total GULP energy -78201.501182 kJ/mol
# GULP energy per Si atom -5585.821513 kJ/mol
# Density = 2.589747 g / cm^3
# Si number density = 25.956544 Si / 1000 Ang^3
#
#
#
# Elastic Constant Matrix: (Units=GPa)
#
#
# Indices 1 2 3 4 5 6 
#
# 1 91.1739 24.3120 21.7935 -2.0505 21.7649 0.6823
# 2 24.3120 120.4858 30.6548 4.8721 12.8862 -13.9272
# 3 21.7935 30.6548 106.8445 1.4130 18.0535 -8.0936
# 4 -2.0505 4.8721 1.4130 65.4677 -0.2690 -1.2308
# 5 21.7649 12.8862 18.0535 -0.2690 40.1247 -3.2766
# 6 0.6823 -13.9272 -8.0936 -1.2308 -3.2766 31.6127
#
#
#
# Elastic Compliance Matrix: (Units=1/GPa)
#
#
# Indices 1 2 3 4 5 6 
#
# 1 0.013298 -0.001963 -0.001271 0.000525 -0.006179 -0.002097
# 2 -0.001963 0.009745 -0.001955 -0.000678 -0.000886 0.003717
# 3 -0.001271 -0.001955 0.010885 -0.000113 -0.003451 0.001591
# 4 0.000525 -0.000678 -0.000113 0.015350 0.000109 0.000270
# 5 -0.006179 -0.000886 -0.003451 0.000109 0.030275 0.002002
# 6 -0.002097 0.003717 0.001591 0.000270 0.002002 0.033941
#
#
# Mechanical properties :
#
#
# Convention : Reuss Voigt Hill
#
# Bulk Modulus (GPa) = 42.46404 52.44719 47.45562
# Shear Modulus (GPa) = 37.95894 43.55726 40.75810
#
# Velocity S-wave (km/s) = 3.82829 4.10089 3.96693
# Velocity P-wave (km/s) = 5.99468 6.53243 6.26933
#
# Compressibility (1/GPa) = 0.02354933
#
# Stress axis : x y z
#
# Youngs Moduli (GPa) = 75.20102 102.61551 91.87163
#
# Poissons Ratio (x) = 0.20140 0.11678
# Poissons Ratio (y) = 0.14760 0.17964
# Poissons Ratio (z) = 0.09559 0.20065
#
# Static dielectric constant tensor:
#      x y z
#    x 2.087660 -0.058320 -0.048700 
#    y -0.058320 2.082150 0.021640 
#    z -0.048700 0.021640 2.076290 
# 
# From -- ./inp_files/548178.got.cif
#   From: 2010.05.17/outbox.cif.g08.bks.cpg/sg2_275_cif.got.tgz:548178.got - 2010.06.03 11:33:40.
