data_PCOD9097758
_publ_section_title
;
Structure prediction by ZEFSAII (Michael W. Deem and Ramdas Pophale) SiO2 
 PCOD9097758
Probable space group: P -1
;
_chemical_formula_sum "Si O2"
_cell_formula_units_Z 10
_cell_length_a 11.320509
_cell_length_b 5.519154
_cell_length_c 7.885247
_cell_angle_alpha 61.110648
_cell_angle_beta 80.312135
_cell_angle_gamma 87.114341
_cell_volume 424.931884
_symmetry_space_group_name_H-M "P -1"
_symmetry_group_IT_number 2
_symmetry_cell_setting 'triclinic'
loop_
_space_group_symop_operation_xyz
x,y,z
-x,-y,-z
loop_
_atom_site_type_symbol
_atom_site_label
_atom_site_fract_x
_atom_site_fract_y
_atom_site_fract_z
Si Si1 0.192010 0.454752 0.423232
Si Si2 0.460917 0.816457 0.908746
Si Si3 0.237523 0.841713 0.750165
Si Si4 0.018192 0.690914 0.670983
Si Si5 0.600191 0.276289 0.550807
O O1 0.101375 0.543868 0.563362
O O2 0.306915 0.658444 0.340479
O O3 0.114683 0.445548 0.272123
O O4 0.231681 0.150622 0.569925
O O5 0.319479 0.842159 0.895610
O O6 0.536543 0.977663 0.687996
O O7 0.500000 0.500000 0.000000
O O8 0.500000 0.000000 0.000000
O O9 0.100673 0.719992 0.808857
O O10 0.319903 0.684637 0.648906
O O11 0.000000 0.000000 0.500000
O O12 0.500000 0.500000 0.500000
#
# Coordination Sequence:
#
# PCOD9097758 Si02
#       5
#     2   2   2   2   2
#     4   9  17  31  60  88 115 143 203 258 295 342
#     4  12  27  40  57  89 131 167 198 247 311 364
#     4  10  20  36  62  85 118 157 207 248 293 359
#     4   8  16  31  54  93 112 143 191 266 299 338
#     4  11  21  37  62  88 119 160 209 252 295 356
#
# _framework density 23.533183999999999
#
# number of rings (size 3 to 8) (size 9 to 14) (size 15 to 20)
#    0.000    2.000    2.000    1.800    5.600    0.000 
#    0.000    0.000    0.000    2.400    0.000    0.000 
#    0.000    0.000    0.000    0.000    0.000    0.000 
#
# Total GULP energy -55817.194458 kJ/mol
# GULP energy per Si atom -5581.719446 kJ/mol
# Density = 2.347962 g / cm^3
# Si number density = 23.533184 Si / 1000 Ang^3
#
#
#
# Elastic Constant Matrix: (Units=GPa)
#
#
# Indices 1 2 3 4 5 6 
#
# 1 173.8051 47.0080 48.4880 -2.3288 49.2764 52.4248
# 2 47.0080 99.0375 32.1565 -5.6179 26.6672 8.4409
# 3 48.4880 32.1565 77.4776 5.6261 29.2540 19.6053
# 4 -2.3288 -5.6179 5.6261 41.7003 14.2876 15.1208
# 5 49.2764 26.6672 29.2540 14.2876 45.2544 7.8744
# 6 52.4248 8.4409 19.6053 15.1208 7.8744 67.9982
#
#
#
# Elastic Compliance Matrix: (Units=1/GPa)
#
#
# Indices 1 2 3 4 5 6 
#
# 1 0.014033 -0.000730 -0.000439 0.010178 -0.015861 -0.011029
# 2 -0.000730 0.013469 -0.002798 0.004651 -0.006704 -0.000560
# 3 -0.000439 -0.002798 0.019042 0.001965 -0.010095 -0.004072
# 4 0.010178 0.004651 0.001965 0.038738 -0.024759 -0.014738
# 5 -0.015861 -0.006704 -0.010095 -0.024759 0.055032 0.015104
# 6 -0.011029 -0.000560 -0.004072 -0.014738 0.015104 0.025981
#
#
# Mechanical properties :
#
#
# Convention : Reuss Voigt Hill
#
# Bulk Modulus (GPa) = 25.89997 67.29171 46.59584
# Shear Modulus (GPa) = 26.72369 45.83510 36.27939
#
# Velocity S-wave (km/s) = 3.37348 4.41804 3.93062
# Velocity P-wave (km/s) = 5.11893 7.39472 6.35946
#
# Compressibility (1/GPa) = 0.03861009
#
# Stress axis : x y z
#
# Youngs Moduli (GPa) = 71.25957 74.24442 52.51481
#
# Poissons Ratio (x) = 0.05422 0.02306
# Poissons Ratio (y) = 0.05204 0.14693
# Poissons Ratio (z) = 0.03129 0.20772
#
# Static dielectric constant tensor:
#      x y z
#    x 2.038260 -0.027390 0.077350 
#    y -0.027390 2.044490 0.030040 
#    z 0.077350 0.030040 1.930080 
# 
# From -- ./inp_files/2906.got.cif
#   From: 2010.05.17/outbox.cif.g08.bks.cpg/sg2_2_cif.got.tgz:2906.got - 2010.06.03 11:33:40.
