data_PCOD9097749
_publ_section_title
;
Structure prediction by ZEFSAII (Michael W. Deem and Ramdas Pophale) SiO2 
 PCOD9097749
Probable space group: P -1
;
_chemical_formula_sum "Si O2"
_cell_formula_units_Z 14
_cell_length_a 7.118328
_cell_length_b 9.219187
_cell_length_c 10.386281
_cell_angle_alpha 116.773522
_cell_angle_beta 80.606328
_cell_angle_gamma 66.112518
_cell_volume 504.071137
_symmetry_space_group_name_H-M "P -1"
_symmetry_group_IT_number 2
_symmetry_cell_setting 'triclinic'
loop_
_space_group_symop_operation_xyz
x,y,z
-x,-y,-z
loop_
_atom_site_type_symbol
_atom_site_label
_atom_site_fract_x
_atom_site_fract_y
_atom_site_fract_z
Si Si1 0.547718 0.284057 0.059752
Si Si2 0.528084 0.843767 0.331222
Si Si3 0.249785 0.538572 0.515925
Si Si4 0.499530 0.123218 0.244815
Si Si5 0.143962 0.586636 0.818715
Si Si6 0.023051 0.115789 0.834050
Si Si7 0.802985 0.309284 0.697901
O O1 0.478439 0.171602 0.115764
O O2 0.644929 0.386505 0.178619
O O3 0.327248 0.487964 0.120082
O O4 0.780155 0.144309 0.901022
O O5 0.756761 0.633848 0.244973
O O6 0.338745 0.791506 0.339435
O O7 0.500000 0.000000 0.500000
O O8 0.511945 0.940119 0.232917
O O9 0.500000 0.500000 0.500000
O O10 0.309634 0.320205 0.411132
O O11 0.252333 0.918287 0.760724
O O12 0.159212 0.643368 0.430995
O O13 0.976470 0.736238 0.003465
O O14 0.084827 0.630564 0.693605
O O15 0.013120 0.166645 0.707141
#
# Coordination Sequence:
#
# PCOD9097749 Si02
#       7
#     2   2   2   2   2   2   2
#     4   8  18  33  61  77 109 152 194 210 271 352
#     4  11  20  33  57  84 118 145 193 224 281 338
#     4  11  16  36  61  82 101 162 201 211 257 365
#     4  11  20  33  60  89 112 141 193 241 274 327
#     4   9  19  34  62  78 111 153 194 218 276 347
#     4  10  21  37  60  88 114 139 191 247 281 309
#     4  10  20  36  62  84 111 151 191 230 277 337
#
# _framework density 27.773855000000001
#
# number of rings (size 3 to 8) (size 9 to 14) (size 15 to 20)
#    0.857    1.143    5.714    0.857    0.000    0.571 
#    0.000    3.571    0.000    4.286    0.000    0.000 
#    0.000    0.000    0.000    0.000    0.000    0.000 
#
# Total GULP energy -78267.112030 kJ/mol
# GULP energy per Si atom -5590.508002 kJ/mol
# Density = 2.771064 g / cm^3
# Si number density = 27.773855 Si / 1000 Ang^3
#
#
#
# Elastic Constant Matrix: (Units=GPa)
#
#
# Indices 1 2 3 4 5 6 
#
# 1 78.4811 23.9089 47.7540 5.2420 -0.3298 17.8223
# 2 23.9089 177.5455 61.5591 0.3712 -12.5834 24.4295
# 3 47.7540 61.5591 103.5615 -11.1260 -11.4946 -2.1268
# 4 5.2420 0.3712 -11.1260 46.5302 7.8665 2.7963
# 5 -0.3298 -12.5834 -11.4946 7.8665 22.5325 1.7421
# 6 17.8223 24.4295 -2.1268 2.7963 1.7421 41.8042
#
#
#
# Elastic Compliance Matrix: (Units=1/GPa)
#
#
# Indices 1 2 3 4 5 6 
#
# 1 0.022955 0.003028 -0.013383 -0.004721 -0.002238 -0.011827
# 2 0.003028 0.008613 -0.006569 -0.002043 0.002730 -0.006635
# 3 -0.013383 -0.006569 0.020972 0.005255 0.004220 0.010084
# 4 -0.004721 -0.002043 0.005255 0.024386 -0.007209 0.002143
# 5 -0.002238 0.002730 0.004220 -0.007209 0.050700 -0.002057
# 6 -0.011827 -0.006635 0.010084 0.002143 -0.002057 0.033296
#
#
# Mechanical properties :
#
#
# Convention : Reuss Voigt Hill
#
# Bulk Modulus (GPa) = 53.50017 69.55912 61.52965
# Shear Modulus (GPa) = 24.87565 37.26447 31.07006
#
# Velocity S-wave (km/s) = 2.99599 3.66691 3.34830
# Velocity P-wave (km/s) = 5.59218 6.55953 6.09508
#
# Compressibility (1/GPa) = 0.01869153
#
# Stress axis : x y z
#
# Youngs Moduli (GPa) = 43.56436 116.10601 47.68317
#
# Poissons Ratio (x) = -0.35153 0.63814
# Poissons Ratio (y) = -0.13190 0.31321
# Poissons Ratio (z) = 0.58302 0.76265
#
# Static dielectric constant tensor:
#      x y z
#    x 2.181160 0.017950 0.038330 
#    y 0.017950 2.088880 -0.012550 
#    z 0.038330 -0.012550 2.215450 
# 
# From -- ./inp_files/394665.got.cif
#   From: 2010.05.17/outbox.cif.g08.bks.cpg/sg2_198_cif.got.tgz:394665.got - 2010.06.03 11:33:40.
