data_PCOD9097777
_publ_section_title
;
Structure prediction by ZEFSAII (Michael W. Deem and Ramdas Pophale) SiO2 
 PCOD9097777
Probable space group: P -1
;
_chemical_formula_sum "Si O2"
_cell_formula_units_Z 16
_cell_length_a 8.619221
_cell_length_b 11.025436
_cell_length_c 7.728173
_cell_angle_alpha 67.205767
_cell_angle_beta 110.177840
_cell_angle_gamma 84.877687
_cell_volume 614.054589
_symmetry_space_group_name_H-M "P -1"
_symmetry_group_IT_number 2
_symmetry_cell_setting 'triclinic'
loop_
_space_group_symop_operation_xyz
x,y,z
-x,-y,-z
loop_
_atom_site_type_symbol
_atom_site_label
_atom_site_fract_x
_atom_site_fract_y
_atom_site_fract_z
Si Si1 0.716464 0.503470 0.588605
Si Si2 0.785920 0.932096 0.549236
Si Si3 0.973040 0.669669 0.562686
Si Si4 0.056970 0.896328 0.918697
Si Si5 0.171786 0.250797 0.902516
Si Si6 0.185683 0.497240 0.988827
Si Si7 0.401542 0.741279 0.271314
Si Si8 0.546110 0.973611 0.762984
O O1 0.893674 0.538679 0.600285
O O2 0.578264 0.626301 0.373791
O O3 0.693390 0.357286 0.605031
O O4 0.700333 0.505983 0.793013
O O5 0.852898 0.788417 0.563623
O O6 0.648899 0.032626 0.319331
O O7 0.950820 0.970794 0.672619
O O8 0.657290 0.921518 0.662892
O O9 0.940076 0.724084 0.327259
O O10 0.146635 0.622257 0.767274
O O11 0.255254 0.819061 0.038061
O O12 0.959523 0.781287 0.989525
O O13 0.000000 0.000000 0.000000
O O14 0.242066 0.367308 0.956649
O O15 0.335469 0.123318 0.997914
O O16 0.000000 0.500000 0.000000
O O17 0.448106 0.869890 0.304958
#
# Coordination Sequence:
#
# PCOD9097777 Si02
#       8
#     2   2   2   2   2   2   2   2
#     4  10  21  36  63  89 110 163 199 246 289 345
#     4  10  20  36  62  87 116 157 202 244 283 352
#     4  11  21  39  60  91 125 150 199 247 301 355
#     4  11  20  36  60  87 116 154 198 241 290 348
#     4  11  23  36  62  92 121 157 191 248 308 350
#     4  10  20  37  62  86 115 153 209 242 277 346
#     4  11  20  36  62  89 121 144 206 250 285 340
#     4  10  20  37  62  89 117 153 205 246 285 349
#
# _framework density 26.056312999999999
#
# number of rings (size 3 to 8) (size 9 to 14) (size 15 to 20)
#    0.000    1.500    3.750    5.625    1.750    0.500 
#    0.000    0.625    0.000    8.250    0.000    0.000 
#    0.000    0.000    0.000    0.000    0.000    0.000 
#
# Total GULP energy -89264.189048 kJ/mol
# GULP energy per Si atom -5579.011816 kJ/mol
# Density = 2.599701 g / cm^3
# Si number density = 26.056313 Si / 1000 Ang^3
#
#
#
# Elastic Constant Matrix: (Units=GPa)
#
#
# Indices 1 2 3 4 5 6 
#
# 1 36.1665 26.3881 58.5447 7.5484 23.9799 -6.2373
# 2 26.3881 134.0369 45.2906 -5.3337 6.7243 -17.0693
# 3 58.5447 45.2906 186.0338 2.6599 28.3327 -14.2836
# 4 7.5484 -5.3337 2.6599 34.3652 -2.4386 12.6159
# 5 23.9799 6.7243 28.3327 -2.4386 53.8996 -1.4562
# 6 -6.2373 -17.0693 -14.2836 12.6159 -1.4562 18.3279
#
#
#
# Elastic Compliance Matrix: (Units=1/GPa)
#
#
# Indices 1 2 3 4 5 6 
#
# 1 0.112716 -0.009203 -0.024296 -0.039931 -0.037078 0.035394
# 2 -0.009203 0.009713 0.000480 0.001743 0.002853 0.005316
# 3 -0.024296 0.000480 0.011969 0.005522 0.004656 -0.001924
# 4 -0.039931 0.001743 0.005522 0.055122 0.015941 -0.044339
# 5 -0.037078 0.002853 0.004656 0.015941 0.032569 -0.014719
# 6 0.035394 0.005316 -0.001924 -0.044339 -0.014719 0.099409
#
#
# Mechanical properties :
#
#
# Convention : Reuss Voigt Hill
#
# Bulk Modulus (GPa) = 14.62821 68.52044 41.57433
# Shear Modulus (GPa) = 12.18558 36.38612 24.28585
#
# Velocity S-wave (km/s) = 2.16490 3.74095 3.05627
# Velocity P-wave (km/s) = 3.44606 6.70923 5.33334
#
# Compressibility (1/GPa) = 0.06836107
#
# Stress axis : x y z
#
# Youngs Moduli (GPa) = 8.87189 102.95128 83.55220
#
# Poissons Ratio (x) = 0.94742 2.02996
# Poissons Ratio (y) = 0.08164 -0.04011
# Poissons Ratio (z) = 0.21555 -0.04943
#
# Static dielectric constant tensor:
#      x y z
#    x 2.111260 0.013820 -0.002300 
#    y 0.013820 2.052840 -0.018220 
#    z -0.002300 -0.018220 2.293530 
# 
# From -- ./inp_files/252663.got.cif
#   From: 2010.05.17/outbox.cif.g08.bks.cpg/sg2_127_cif.got.tgz:252663.got - 2010.06.03 11:33:40.
