data_PCOD9097220
_publ_section_title
;
Structure prediction by ZEFSAII (Michael W. Deem and Ramdas Pophale) SiO2 
 PCOD9097220
Probable space group: P -1
;
_chemical_formula_sum "Si O2"
_cell_formula_units_Z 16
_cell_length_a 12.473920
_cell_length_b 9.379820
_cell_length_c 18.790074
_cell_angle_alpha 137.899822
_cell_angle_beta 50.630835
_cell_angle_gamma 96.320239
_cell_volume 818.548214
_symmetry_space_group_name_H-M "P -1"
_symmetry_group_IT_number 2
_symmetry_cell_setting 'triclinic'
loop_
_space_group_symop_operation_xyz
x,y,z
-x,-y,-z
loop_
_atom_site_type_symbol
_atom_site_label
_atom_site_fract_x
_atom_site_fract_y
_atom_site_fract_z
Si Si1 0.057676 0.144001 0.133224
Si Si2 0.973297 0.292602 0.067494
Si Si3 0.719588 0.662069 0.566072
Si Si4 0.124971 0.159458 0.344092
Si Si5 0.402957 0.872825 0.986969
Si Si6 0.403007 0.835364 0.666321
Si Si7 0.739519 0.328932 0.565763
Si Si8 0.315380 0.066353 0.629282
O O1 0.956397 0.342205 0.177848
O O2 0.900497 0.349202 0.337133
O O3 0.101800 0.853721 0.984501
O O4 0.253522 0.028983 0.041207
O O5 0.868771 0.587939 0.177783
O O6 0.200696 0.038459 0.866106
O O7 0.766806 0.853702 0.638914
O O8 0.544932 0.835465 0.649502
O O9 0.677129 0.565531 0.618237
O O10 0.000000 0.500000 0.500000
O O11 0.962117 0.155043 0.424624
O O12 0.275517 0.953672 0.140670
O O13 0.583701 0.526866 0.767036
O O14 0.500000 0.000000 0.000000
O O15 0.500000 0.500000 0.500000
O O16 0.357658 0.961582 0.653550
O O17 0.719795 0.114946 0.464552
O O18 0.500000 0.000000 0.500000
#
# Coordination Sequence:
#
# PCOD9097220 Si02
#       8
#     2   2   2   2   2   2   2   2
#     4  11  21  37  64  94 128 165 223 265 319 389
#     4  11  25  40  63  94 130 175 215 265 331 399
#     4  11  19  37  63  96 127 165 212 275 316 381
#     4  10  20  36  59  97 126 167 218 273 322 379
#     4  12  20  33  64  99 126 165 221 275 325 383
#     4  12  23  40  66  95 131 173 215 271 329 393
#     4  11  21  39  62  92 134 170 215 273 322 390
#     4  12  26  44  64  96 136 174 216 270 342 392
#
# _framework density 19.546800999999999
#
# number of rings (size 3 to 8) (size 9 to 14) (size 15 to 20)
#    0.000    0.750    7.500    2.625    1.750    0.000 
#    2.250    0.000    0.000    9.000    0.000    0.000 
#    0.000    0.000    0.000    0.000    0.000    0.000 
#
# Total GULP energy -89322.847957 kJ/mol
# GULP energy per Si atom -5582.677997 kJ/mol
# Density = 1.950231 g / cm^3
# Si number density = 19.546801 Si / 1000 Ang^3
#
#
#
# Elastic Constant Matrix: (Units=GPa)
#
#
# Indices 1 2 3 4 5 6 
#
# 1 193.7536 33.9968 45.5705 6.7924 -0.0168 18.3381
# 2 33.9968 47.6083 30.0479 5.1347 4.0265 0.5488
# 3 45.5705 30.0479 107.2820 -16.4042 -7.4386 -3.9915
# 4 6.7924 5.1347 -16.4042 30.9283 -2.5655 -4.5364
# 5 -0.0168 4.0265 -7.4386 -2.5655 28.5360 -7.2564
# 6 18.3381 0.5488 -3.9915 -4.5364 -7.2564 29.0215
#
#
#
# Elastic Compliance Matrix: (Units=1/GPa)
#
#
# Indices 1 2 3 4 5 6 
#
# 1 0.007079 -0.002148 -0.003445 -0.004143 -0.002537 -0.006188
# 2 -0.002148 0.031286 -0.010489 -0.011786 -0.009451 -0.004882
# 3 -0.003445 -0.010489 0.016781 0.013519 0.009393 0.009145
# 4 -0.004143 -0.011786 0.013519 0.045678 0.013138 0.015125
# 5 -0.002537 -0.009451 0.009393 0.013138 0.044114 0.016157
# 6 -0.006188 -0.004882 0.009145 0.015125 0.016157 0.046122
#
#
# Mechanical properties :
#
#
# Convention : Reuss Voigt Hill
#
# Bulk Modulus (GPa) = 43.51373 63.09714 53.30543
# Shear Modulus (GPa) = 21.65574 33.63241 27.64407
#
# Velocity S-wave (km/s) = 3.33211 4.15252 3.76473
# Velocity P-wave (km/s) = 6.09209 7.43918 6.79908
#
# Compressibility (1/GPa) = 0.02298125
#
# Stress axis : x y z
#
# Youngs Moduli (GPa) = 141.26052 31.96341 59.59021
#
# Poissons Ratio (x) = 0.06866 0.20529
# Poissons Ratio (y) = 0.30343 0.62506
# Poissons Ratio (z) = 0.48666 0.33528
#
# Static dielectric constant tensor:
#      x y z
#    x 1.677260 0.033800 -0.041730 
#    y 0.033800 1.634600 -0.000570 
#    z -0.041730 -0.000570 1.662890 
# 
# From -- ./inp_files/246097.got.cif
#   From: 2010.05.17/outbox.cif.g08.bks.cpg/sg2_124_cif.got.tgz:246097.got - 2010.06.03 11:33:40.
