data_PCOD9097726
_publ_section_title
;
Structure prediction by ZEFSAII (Michael W. Deem and Ramdas Pophale) SiO2 
 PCOD9097726
Probable space group: P -1
;
_chemical_formula_sum "Si O2"
_cell_formula_units_Z 16
_cell_length_a 14.567683
_cell_length_b 9.921526
_cell_length_c 9.624497
_cell_angle_alpha 113.742422
_cell_angle_beta 129.773096
_cell_angle_gamma 98.756728
_cell_volume 795.476410
_symmetry_space_group_name_H-M "P -1"
_symmetry_group_IT_number 2
_symmetry_cell_setting 'triclinic'
loop_
_space_group_symop_operation_xyz
x,y,z
-x,-y,-z
loop_
_atom_site_type_symbol
_atom_site_label
_atom_site_fract_x
_atom_site_fract_y
_atom_site_fract_z
Si Si1 0.874673 0.476725 0.465170
Si Si2 0.709099 0.634953 0.287559
Si Si3 0.669877 0.054533 0.101391
Si Si4 0.352739 0.465583 0.271789
Si Si5 0.411729 0.959972 0.674039
Si Si6 0.510069 0.695348 0.258215
Si Si7 0.829319 0.887037 0.247673
Si Si8 0.856585 0.447306 0.756774
O O1 0.837679 0.615546 0.441843
O O2 0.736542 0.264829 0.233376
O O3 0.907657 0.499893 0.669503
O O4 0.000000 0.500000 0.500000
O O5 0.644677 0.676036 0.373827
O O6 0.750194 0.784258 0.272828
O O7 0.590527 0.441652 0.020567
O O8 0.598148 0.982152 0.154512
O O9 0.797145 0.026356 0.217471
O O10 0.548359 0.946270 0.819650
O O11 0.500000 0.500000 0.500000
O O12 0.419652 0.618435 0.279537
O O13 0.239696 0.479171 0.261445
O O14 0.248515 0.274873 0.008520
O O15 0.260521 0.768161 0.428965
O O16 0.441277 0.106885 0.652799
O O17 0.000000 0.000000 0.500000
O O18 0.000000 0.500000 0.000000
#
# Coordination Sequence:
#
# PCOD9097726 Si02
#       8
#     2   2   2   2   2   2   2   2
#     4  11  23  40  67  93 133 171 223 272 330 396
#     4  10  20  36  61  99 125 160 224 278 322 377
#     4  10  20  36  64  97 125 162 223 274 322 381
#     4  11  25  44  65  92 136 182 222 269 347 411
#     4  10  20  38  63  92 128 169 217 273 327 392
#     4  10  20  36  66  92 126 167 221 277 323 390
#     4  11  23  38  67  95 133 173 225 277 330 395
#     4  11  27  42  63  95 139 177 215 273 348 407
#
# _framework density 20.113734000000001
#
# number of rings (size 3 to 8) (size 9 to 14) (size 15 to 20)
#    0.000    1.500    2.500    2.250    7.000    0.500 
#    0.000    2.500    0.000    5.250    0.000    0.000 
#    0.000    0.000    0.000    0.000    0.000    0.000 
#
# Total GULP energy -89213.058098 kJ/mol
# GULP energy per Si atom -5575.816131 kJ/mol
# Density = 2.006795 g / cm^3
# Si number density = 20.113734 Si / 1000 Ang^3
#
#
#
# Elastic Constant Matrix: (Units=GPa)
#
#
# Indices 1 2 3 4 5 6 
#
# 1 119.3732 27.2253 38.2450 -22.8142 11.2368 -3.0277
# 2 27.2253 97.1049 29.7484 -15.7157 8.5961 -9.6010
# 3 38.2450 29.7484 113.7327 -20.9605 22.4505 -9.8996
# 4 -22.8142 -15.7157 -20.9605 18.9004 -5.1311 12.6078
# 5 11.2368 8.5961 22.4505 -5.1311 29.2497 -10.8410
# 6 -3.0277 -9.6010 -9.8996 12.6078 -10.8410 30.1401
#
#
#
# Elastic Compliance Matrix: (Units=1/GPa)
#
#
# Indices 1 2 3 4 5 6 
#
# 1 0.012338 -0.000843 -0.000555 0.017929 -0.003932 -0.008126
# 2 -0.000843 0.012232 -0.001364 0.007444 -0.000953 -0.000093
# 3 -0.000555 -0.001364 0.013223 0.013877 -0.009028 -0.005199
# 4 0.017929 0.007444 0.013877 0.124554 -0.016098 -0.049162
# 5 -0.003932 -0.000953 -0.009028 -0.016098 0.047563 0.020178
# 6 -0.008126 -0.000093 -0.005199 -0.049162 0.020178 0.058447
#
#
# Mechanical properties :
#
#
# Convention : Reuss Voigt Hill
#
# Bulk Modulus (GPa) = 30.98961 57.84982 44.41971
# Shear Modulus (GPa) = 17.56619 31.32419 24.44519
#
# Velocity S-wave (km/s) = 2.95844 3.95061 3.48997
# Velocity P-wave (km/s) = 5.20677 7.04511 6.19452
#
# Compressibility (1/GPa) = 0.03226888
#
# Stress axis : x y z
#
# Youngs Moduli (GPa) = 81.05197 81.75077 75.62539
#
# Poissons Ratio (x) = 0.06889 0.04199
# Poissons Ratio (y) = 0.06830 0.10317
# Poissons Ratio (z) = 0.04500 0.11153
#
# Static dielectric constant tensor:
#      x y z
#    x 1.823620 -0.032340 0.062520 
#    y -0.032340 1.696450 -0.002560 
#    z 0.062520 -0.002560 1.755640 
# 
# From -- ./inp_files/299357.got.cif
#   From: 2010.05.17/outbox.cif.g08.bks.cpg/sg2_150_cif.got.tgz:299357.got - 2010.06.03 11:33:40.
