data_PCOD9097253
_publ_section_title
;
Structure prediction by ZEFSAII (Michael W. Deem and Ramdas Pophale) SiO2 
 PCOD9097253
Probable space group: P -1
;
_chemical_formula_sum "Si O2"
_cell_formula_units_Z 12
_cell_length_a 9.184057
_cell_length_b 17.032082
_cell_length_c 5.068648
_cell_angle_alpha 92.929207
_cell_angle_beta 107.163513
_cell_angle_gamma 38.785845
_cell_volume 452.835198
_symmetry_space_group_name_H-M "P -1"
_symmetry_group_IT_number 2
_symmetry_cell_setting 'triclinic'
loop_
_space_group_symop_operation_xyz
x,y,z
-x,-y,-z
loop_
_atom_site_type_symbol
_atom_site_label
_atom_site_fract_x
_atom_site_fract_y
_atom_site_fract_z
Si Si1 0.301264 0.662085 0.728462
Si Si2 0.717100 0.588665 0.801827
Si Si3 0.127284 0.146775 0.106311
Si Si4 0.456017 0.260050 0.764847
Si Si5 0.155578 0.227220 0.629397
Si Si6 0.948290 0.090318 0.694714
O O1 0.173752 0.785667 0.510796
O O2 0.152953 0.645989 0.547742
O O3 0.599109 0.554053 0.829575
O O4 0.178319 0.723690 0.963552
O O5 0.560515 0.712045 0.932734
O O6 0.671268 0.622349 0.475352
O O7 0.000000 0.500000 0.000000
O O8 0.206581 0.179328 0.944544
O O9 0.166100 0.046988 0.970005
O O10 0.235400 0.126626 0.444768
O O11 0.292546 0.249794 0.631971
O O12 0.743024 0.141419 0.797466
O O13 0.000000 0.000000 0.500000
#
# Coordination Sequence:
#
# PCOD9097253 Si02
#       6
#     2   2   2   2   2   2
#     4   8  19  37  56  77 114 145 180 222 281 314
#     4  11  22  38  60  83 111 145 185 228 276 327
#     4   9  17  36  53  77 109 152 175 219 277 320
#     4  11  21  39  57  87 109 144 185 234 267 327
#     4   9  18  34  59  74 112 147 178 223 283 313
#     4  10  20  36  60  84 110 148 189 225 271 331
#
# _framework density 26.499704999999999
#
# number of rings (size 3 to 8) (size 9 to 14) (size 15 to 20)
#    1.000    1.333    1.667    1.500    0.000    0.667 
#    0.000    5.833    0.000    0.000    0.000    0.000 
#    0.000    0.000    0.000    0.000    0.000    0.000 
#
# Total GULP energy -66982.982616 kJ/mol
# GULP energy per Si atom -5581.915218 kJ/mol
# Density = 2.643939 g / cm^3
# Si number density = 26.499705 Si / 1000 Ang^3
#
#
#
# Elastic Constant Matrix: (Units=GPa)
#
#
# Indices 1 2 3 4 5 6 
#
# 1 172.0902 38.5371 12.8059 12.5883 0.0208 -31.7412
# 2 38.5371 67.8921 18.1854 19.9542 -0.8845 -16.7713
# 3 12.8059 18.1854 87.1620 27.1577 -14.5362 6.8983
# 4 12.5883 19.9542 27.1577 48.0993 -0.5374 5.7408
# 5 0.0208 -0.8845 -14.5362 -0.5374 49.5429 0.8027
# 6 -31.7412 -16.7713 6.8983 5.7408 0.8027 43.7863
#
#
#
# Elastic Compliance Matrix: (Units=1/GPa)
#
#
# Indices 1 2 3 4 5 6 
#
# 1 0.007357 -0.002565 -0.000634 -0.001055 -0.000321 0.004595
# 2 -0.002565 0.020879 -0.002289 -0.007599 -0.000502 0.007504
# 3 -0.000634 -0.002289 0.015210 -0.007079 0.004392 -0.002885
# 4 -0.001055 -0.007599 -0.007079 0.028950 -0.001796 -0.006323
# 5 -0.000321 -0.000502 0.004392 -0.001796 0.021466 -0.001275
# 6 0.004595 0.007504 -0.002885 -0.006323 -0.001275 0.030350
#
#
# Mechanical properties :
#
#
# Convention : Reuss Voigt Hill
#
# Bulk Modulus (GPa) = 30.79814 51.80010 41.29912
# Shear Modulus (GPa) = 34.24356 45.46010 39.85183
#
# Velocity S-wave (km/s) = 3.59865 4.14635 3.88217
# Velocity P-wave (km/s) = 5.37721 6.52018 5.97608
#
# Compressibility (1/GPa) = 0.03246950
#
# Stress axis : x y z
#
# Youngs Moduli (GPa) = 135.91952 47.89479 65.74584
#
# Poissons Ratio (x) = 0.12286 0.04169
# Poissons Ratio (y) = 0.34867 0.15050
# Poissons Ratio (z) = 0.08619 0.10964
#
# Static dielectric constant tensor:
#      x y z
#    x 2.098660 -0.043150 0.087940 
#    y -0.043150 2.250690 -0.106210 
#    z 0.087940 -0.106210 2.098650 
# 
# From -- ./inp_files/42043.got.cif
#   From: 2010.05.17/outbox.cif.g08.bks.cpg/sg2_22_cif.got.tgz:42043.got - 2010.06.03 11:33:40.
