data_PCOD9097904
_publ_section_title
;
Structure prediction by ZEFSAII (Michael W. Deem and Ramdas Pophale) SiO2 
 PCOD9097904
Probable space group: P -1
;
_chemical_formula_sum "Si O2"
_cell_formula_units_Z 15
_cell_length_a 11.138529
_cell_length_b 7.459133
_cell_length_c 17.014656
_cell_angle_alpha 118.153245
_cell_angle_beta 29.936381
_cell_angle_gamma 119.723552
_cell_volume 609.735111
_symmetry_space_group_name_H-M "P -1"
_symmetry_group_IT_number 2
_symmetry_cell_setting 'triclinic'
loop_
_space_group_symop_operation_xyz
x,y,z
-x,-y,-z
loop_
_atom_site_type_symbol
_atom_site_label
_atom_site_fract_x
_atom_site_fract_y
_atom_site_fract_z
Si Si1 0.048884 0.536368 0.719611
Si Si2 0.260400 0.433158 0.843284
Si Si3 0.162004 0.176800 0.993777
Si Si4 0.546205 0.947210 0.061899
Si Si5 0.995973 0.946821 0.607425
Si Si6 0.500000 0.500000 0.000000
Si Si7 0.238519 0.324739 0.437749
Si Si8 0.064361 0.177604 0.761309
O O1 0.214299 0.516572 0.547403
O O2 0.017440 0.742258 0.825674
O O3 0.776358 0.463268 0.825337
O O4 0.101549 0.378317 0.724648
O O5 0.480976 0.619537 0.736443
O O6 0.228842 0.245602 0.758690
O O7 0.282586 0.356317 0.903267
O O8 0.000000 0.500000 0.000000
O O9 0.380540 0.110809 0.903722
O O10 0.000000 0.000000 0.000000
O O11 0.279885 0.001843 0.220964
O O12 0.564274 0.729533 0.964940
O O13 0.779466 0.117376 0.937215
O O14 0.942783 0.731093 0.545656
O O15 0.103301 0.989961 0.643149
O O16 0.162668 0.121198 0.493794
#
# Coordination Sequence:
#
# PCOD9097904 Si02
#       8
#     2   2   2   2   2   1   2   2
#     4  10  22  41  68  97 130 176 217 276 338 387
#     4  12  24  43  69  99 129 185 230 269 333 407
#     4  11  24  42  66  99 134 175 223 274 334 409
#     4  11  21  38  70  95 134 170 225 275 337 395
#     4  10  22  39  67 103 132 171 220 285 336 385
#     4  10  20  36  62  92 134 164 210 260 342 388
#     4  10  23  43  67  97 139 170 229 281 330 400
#     4  11  21  38  67 105 127 172 232 272 325 400
#
# _framework density 24.600843999999999
#
# number of rings (size 3 to 8) (size 9 to 14) (size 15 to 20)
#    0.000    1.333    5.333    1.200    0.000    3.200 
#    0.000    1.333   17.600    0.000    0.000    0.000 
#    0.000    0.000    0.000    0.000    0.000    0.000 
#
# Total GULP energy -83515.530065 kJ/mol
# GULP energy per Si atom -5567.702004 kJ/mol
# Density = 2.454485 g / cm^3
# Si number density = 24.600844 Si / 1000 Ang^3
#
#
#
# Elastic Constant Matrix: (Units=GPa)
#
#
# Indices 1 2 3 4 5 6 
#
# 1 95.9945 26.7199 16.9500 4.4752 20.4219 19.1790
# 2 26.7199 92.3384 30.3933 -0.9997 12.0918 32.5001
# 3 16.9500 30.3933 77.8222 -16.5404 11.4458 25.9356
# 4 4.4752 -0.9997 -16.5404 37.2135 14.3714 2.1799
# 5 20.4219 12.0918 11.4458 14.3714 24.1505 12.1392
# 6 19.1790 32.5001 25.9356 2.1799 12.1392 38.0980
#
#
#
# Elastic Compliance Matrix: (Units=1/GPa)
#
#
# Indices 1 2 3 4 5 6 
#
# 1 0.013607 -0.001838 0.001080 0.003579 -0.012026 -0.002390
# 2 -0.001838 0.016044 -0.001926 0.000512 -0.000120 -0.011441
# 3 0.001080 -0.001926 0.022475 0.016232 -0.015069 -0.010328
# 4 0.003579 0.000512 0.016232 0.048514 -0.037829 -0.004011
# 5 -0.012026 -0.000120 -0.015069 -0.037829 0.085672 -0.008719
# 6 -0.002390 -0.011441 -0.010328 -0.004011 -0.008719 0.047250
#
#
# Mechanical properties :
#
#
# Convention : Reuss Voigt Hill
#
# Bulk Modulus (GPa) = 21.38681 46.03131 33.70906
# Shear Modulus (GPa) = 19.64507 32.69852 26.17180
#
# Velocity S-wave (km/s) = 2.82893 3.64972 3.26522
# Velocity P-wave (km/s) = 4.40260 6.04256 5.28656
#
# Compressibility (1/GPa) = 0.04675780
#
# Stress axis : x y z
#
# Youngs Moduli (GPa) = 73.48961 62.32990 44.49362
#
# Poissons Ratio (x) = 0.11458 -0.04806
# Poissons Ratio (y) = 0.13509 0.08570
# Poissons Ratio (z) = -0.07938 0.12005
#
# Static dielectric constant tensor:
#      x y z
#    x 2.029740 0.083630 0.160110 
#    y 0.083630 2.101460 0.018070 
#    z 0.160110 0.018070 2.185630 
# 
# From -- ./inp_files/565395.got.cif
#   From: 2010.05.17/outbox.cif.g08.bks.cpg/sg2_283_cif.got.tgz:565395.got - 2010.06.03 11:33:40.
