data_PCOD9097671
_publ_section_title
;
Structure prediction by ZEFSAII (Michael W. Deem and Ramdas Pophale) SiO2 
 PCOD9097671
Probable space group: P -1
;
_chemical_formula_sum "Si O2"
_cell_formula_units_Z 16
_cell_length_a 8.955253
_cell_length_b 14.155738
_cell_length_c 11.738083
_cell_angle_alpha 148.551052
_cell_angle_beta 98.015479
_cell_angle_gamma 91.756489
_cell_volume 735.831697
_symmetry_space_group_name_H-M "P -1"
_symmetry_group_IT_number 2
_symmetry_cell_setting 'triclinic'
loop_
_space_group_symop_operation_xyz
x,y,z
-x,-y,-z
loop_
_atom_site_type_symbol
_atom_site_label
_atom_site_fract_x
_atom_site_fract_y
_atom_site_fract_z
Si Si1 0.846524 0.845293 0.220331
Si Si2 0.971923 0.437229 0.063436
Si Si3 0.442683 0.239084 0.447437
Si Si4 0.654435 0.832317 0.398916
Si Si5 0.434362 0.345402 0.158062
Si Si6 0.373188 0.754059 0.115532
Si Si7 0.331582 0.040090 0.022196
Si Si8 0.209442 0.805824 0.565121
O O1 0.804948 0.847032 0.351130
O O2 0.837301 0.039889 0.361496
O O3 0.991007 0.763886 0.129196
O O4 0.703822 0.686314 0.982076
O O5 0.090831 0.602052 0.318323
O O6 0.000000 0.500000 0.000000
O O7 0.791479 0.399467 0.038137
O O8 0.368731 0.276134 0.596399
O O9 0.495407 0.434912 0.585859
O O10 0.315260 0.090507 0.203331
O O11 0.607761 0.188093 0.434778
O O12 0.504512 0.742344 0.209650
O O13 0.647496 0.039681 0.650118
O O14 0.358931 0.221955 0.130879
O O15 0.561441 0.264359 0.022575
O O16 0.500000 0.000000 0.000000
O O17 0.212380 0.874082 0.767160
#
# Coordination Sequence:
#
# PCOD9097671 Si02
#       8
#     2   2   2   2   2   2   2   2
#     4  10  22  39  60  88 124 162 194 244 301 355
#     4  12  24  37  60  90 124 162 198 237 304 366
#     4  11  19  34  65  93 115 156 202 253 293 345
#     4  10  20  37  59  85 126 155 195 247 296 348
#     4  10  20  36  61  93 118 151 204 250 294 349
#     4  10  22  37  57  89 124 158 195 243 301 357
#     4   9  19  36  63  89 116 153 199 254 297 341
#     4  10  21  40  59  88 122 157 200 249 294 353
#
# _framework density 21.744102000000002
#
# number of rings (size 3 to 8) (size 9 to 14) (size 15 to 20)
#    0.000    1.750    1.250    5.625    1.750    3.000 
#    0.000    0.000    0.000    7.500    0.000    0.000 
#    0.000    0.000    0.000    0.000    0.000    0.000 
#
# Total GULP energy -89365.384633 kJ/mol
# GULP energy per Si atom -5585.336540 kJ/mol
# Density = 2.169461 g / cm^3
# Si number density = 21.744102 Si / 1000 Ang^3
#
#
#
# Elastic Constant Matrix: (Units=GPa)
#
#
# Indices 1 2 3 4 5 6 
#
# 1 74.2044 17.8418 45.9664 -2.9039 -0.2966 1.3622
# 2 17.8418 52.1853 28.7956 -6.4569 0.1882 -8.1785
# 3 45.9664 28.7956 122.1899 -4.9160 14.6973 -11.3188
# 4 -2.9039 -6.4569 -4.9160 29.8250 -4.3643 -3.1844
# 5 -0.2966 0.1882 14.6973 -4.3643 31.7823 7.1686
# 6 1.3622 -8.1785 -11.3188 -3.1844 7.1686 17.2778
#
#
#
# Elastic Compliance Matrix: (Units=1/GPa)
#
#
# Indices 1 2 3 4 5 6 
#
# 1 0.019943 -0.004123 -0.008480 -0.000642 0.006750 -0.011998
# 2 -0.004123 0.024650 -0.002901 0.005579 -0.000646 0.011389
# 3 -0.008480 -0.002901 0.014429 0.000906 -0.009511 0.012861
# 4 -0.000642 0.005579 0.000906 0.036140 0.002495 0.008911
# 5 0.006750 -0.000646 -0.009511 0.002495 0.041661 -0.023894
# 6 -0.011998 0.011389 0.012861 0.008911 -0.023894 0.084196
#
#
# Mechanical properties :
#
#
# Convention : Reuss Voigt Hill
#
# Bulk Modulus (GPa) = 35.69553 48.19860 41.94707
# Shear Modulus (GPa) = 19.13029 26.17539 22.65284
#
# Velocity S-wave (km/s) = 2.96935 3.47334 3.23118
# Velocity P-wave (km/s) = 5.31111 6.18868 5.76661
#
# Compressibility (1/GPa) = 0.02801471
#
# Stress axis : x y z
#
# Youngs Moduli (GPa) = 50.14400 40.56732 69.30295
#
# Poissons Ratio (x) = 0.16727 0.58766
# Poissons Ratio (y) = 0.20676 0.20104
# Poissons Ratio (z) = 0.42520 0.11768
#
# Static dielectric constant tensor:
#      x y z
#    x 1.780560 -0.008480 -0.027040 
#    y -0.008480 1.829310 0.027650 
#    z -0.027040 0.027650 1.848960 
# 
# From -- ./inp_files/314801.got.cif
#   From: 2010.05.17/outbox.cif.g08.bks.cpg/sg2_158_cif.got.tgz:314801.got - 2010.06.03 11:33:40.
