data_PCOD9097443
_publ_section_title
;
Structure prediction by ZEFSAII (Michael W. Deem and Ramdas Pophale) SiO2 
 PCOD9097443
Probable space group: P -1
;
_chemical_formula_sum "Si O2"
_cell_formula_units_Z 16
_cell_length_a 15.091033
_cell_length_b 15.346770
_cell_length_c 14.441666
_cell_angle_alpha 38.023827
_cell_angle_beta 160.468683
_cell_angle_gamma 142.979890
_cell_volume 662.844082
_symmetry_space_group_name_H-M "P -1"
_symmetry_group_IT_number 2
_symmetry_cell_setting 'triclinic'
loop_
_space_group_symop_operation_xyz
x,y,z
-x,-y,-z
loop_
_atom_site_type_symbol
_atom_site_label
_atom_site_fract_x
_atom_site_fract_y
_atom_site_fract_z
Si Si1 0.999474 0.521620 0.094179
Si Si2 0.598343 0.656266 0.329483
Si Si3 0.046109 0.869530 0.458573
Si Si4 0.727658 0.446753 0.216852
Si Si5 0.538910 0.858622 0.857045
Si Si6 0.090066 0.315387 0.954139
Si Si7 0.488060 0.879367 0.506755
Si Si8 0.288163 0.074310 0.674493
O O1 0.967729 0.655614 0.017791
O O2 0.279899 0.483180 0.430778
O O3 0.725503 0.396841 0.958115
O O4 0.000000 0.500000 0.000000
O O5 0.809391 0.767078 0.375974
O O6 0.631479 0.752731 0.375341
O O7 0.310241 0.810137 0.753016
O O8 0.856336 0.872687 0.180164
O O9 0.200866 0.024873 0.526319
O O10 0.595486 0.272073 0.234735
O O11 0.777757 0.527992 0.098293
O O12 0.000000 0.500000 0.500000
O O13 0.500000 0.500000 0.000000
O O14 0.514952 0.015188 0.671435
O O15 0.799941 0.244471 0.677519
O O16 0.275799 0.204551 0.205198
O O17 0.500000 0.000000 0.500000
O O18 0.000000 0.000000 0.500000
O O19 0.500000 0.000000 0.000000
#
# Coordination Sequence:
#
# PCOD9097443 Si02
#       8
#     2   2   2   2   2   2   2   2
#     4  12  27  45  66  97 137 194 250 296 348 435
#     4  11  22  42  65  91 134 179 233 303 358 407
#     4  11  22  39  65 101 133 171 229 298 366 426
#     4  12  25  45  73 107 141 183 240 305 373 450
#     4  12  25  42  69 103 137 177 231 298 360 435
#     4  12  26  48  75 106 148 198 243 301 376 447
#     4  12  27  49  73 105 147 193 239 300 379 460
#     4  10  20  36  60  92 126 169 213 271 351 418
#
# _framework density 24.138407000000001
#
# number of rings (size 3 to 8) (size 9 to 14) (size 15 to 20)
#    0.000    0.500    0.000   10.500    0.000    3.000 
#    0.000    0.000    0.000    0.000    0.000    0.000 
#    0.000    0.000    0.000    0.000    0.000    0.000 
#
# Total GULP energy -89192.739483 kJ/mol
# GULP energy per Si atom -5574.546218 kJ/mol
# Density = 2.408347 g / cm^3
# Si number density = 24.138407 Si / 1000 Ang^3
#
#
#
# Elastic Constant Matrix: (Units=GPa)
#
#
# Indices 1 2 3 4 5 6 
#
# 1 96.1046 22.6077 12.9988 -3.7837 11.2802 -12.8396
# 2 22.6077 97.7810 21.8003 4.5443 4.9977 -21.0346
# 3 12.9988 21.8003 122.4699 11.9803 22.5649 -6.1130
# 4 -3.7837 4.5443 11.9803 43.7614 -0.9071 -2.5379
# 5 11.2802 4.9977 22.5649 -0.9071 34.1514 -4.1012
# 6 -12.8396 -21.0346 -6.1130 -2.5379 -4.1012 50.9704
#
#
#
# Elastic Compliance Matrix: (Units=1/GPa)
#
#
# Indices 1 2 3 4 5 6 
#
# 1 0.011605 -0.002122 -0.000334 0.001358 -0.003046 0.001830
# 2 -0.002122 0.012018 -0.001742 -0.000697 0.000583 0.004228
# 3 -0.000334 -0.001742 0.009923 -0.002710 -0.006293 -0.000254
# 4 0.001358 -0.000697 -0.002710 0.023892 0.002210 0.001097
# 5 -0.003046 0.000583 -0.006293 0.002210 0.034613 0.001613
# 6 0.001830 0.004228 -0.000254 0.001097 0.001613 0.021979
#
#
# Mechanical properties :
#
#
# Convention : Reuss Voigt Hill
#
# Bulk Modulus (GPa) = 39.76368 47.90767 43.83567
# Shear Modulus (GPa) = 38.22300 43.03989 40.63145
#
# Velocity S-wave (km/s) = 3.98363 4.22719 4.10722
# Velocity P-wave (km/s) = 6.13743 6.61179 6.37902
#
# Compressibility (1/GPa) = 0.02514858
#
# Stress axis : x y z
#
# Youngs Moduli (GPa) = 86.16746 83.20643 100.77811
#
# Poissons Ratio (x) = 0.17661 0.03369
# Poissons Ratio (y) = 0.18289 0.17557
# Poissons Ratio (z) = 0.02880 0.14496
#
# Static dielectric constant tensor:
#      x y z
#    x 1.794250 0.416620 -0.165030 
#    y 0.416620 1.334550 0.128090 
#    z -0.165030 0.128090 1.817060 
# 
# From -- ./inp_files/534309.got.cif
#   From: 2010.05.17/outbox.cif.g08.bks.cpg/sg2_268_cif.got.tgz:534309.got - 2010.06.03 11:33:40.
