data_PCOD9097210
_publ_section_title
;
Structure prediction by ZEFSAII (Michael W. Deem and Ramdas Pophale) SiO2 
 PCOD9097210
Probable space group: P -1
;
_chemical_formula_sum "Si O2"
_cell_formula_units_Z 16
_cell_length_a 16.652560
_cell_length_b 11.610793
_cell_length_c 20.630749
_cell_angle_alpha 41.605697
_cell_angle_beta 160.583178
_cell_angle_gamma 148.832111
_cell_volume 644.318174
_symmetry_space_group_name_H-M "P -1"
_symmetry_group_IT_number 2
_symmetry_cell_setting 'triclinic'
loop_
_space_group_symop_operation_xyz
x,y,z
-x,-y,-z
loop_
_atom_site_type_symbol
_atom_site_label
_atom_site_fract_x
_atom_site_fract_y
_atom_site_fract_z
Si Si1 0.611047 0.207838 0.446802
Si Si2 0.555189 0.165869 0.715597
Si Si3 0.524303 0.637998 0.313715
Si Si4 0.049789 0.135385 0.094151
Si Si5 0.954152 0.650059 0.743127
Si Si6 0.968860 0.245243 0.433554
Si Si7 0.461637 0.150453 0.983539
Si Si8 0.808001 0.723343 0.181631
O O1 0.266163 0.141415 0.202776
O O2 0.828943 0.476236 0.526230
O O3 0.874451 0.246492 0.583355
O O4 0.500000 0.000000 0.500000
O O5 0.621349 0.273929 0.793902
O O6 0.686861 0.392378 0.679691
O O7 0.192424 0.912116 0.558676
O O8 0.739140 0.093461 0.853585
O O9 0.253118 0.381602 0.184350
O O10 0.750508 0.647912 0.533705
O O11 0.784846 0.784011 0.392181
O O12 0.937832 0.946117 0.143246
O O13 0.142152 0.880707 0.834388
O O14 0.267323 0.701468 0.929412
O O15 0.671625 0.154303 0.197419
O O16 0.344482 0.275115 0.869987
O O17 0.500000 0.500000 0.000000
#
# Coordination Sequence:
#
# PCOD9097210 Si02
#       8
#     2   2   2   2   2   2   2   2
#     4   9  19  35  56  94 118 147 195 270 300 343
#     4  12  21  36  59  91 128 161 199 255 307 360
#     4  10  22  39  58  89 125 170 200 240 306 377
#     4  10  21  34  61  92 122 148 210 254 304 355
#     4  10  24  39  59  89 133 169 195 239 311 385
#     4  10  20  36  59  94 120 149 209 257 298 351
#     4  10  20  39  60  90 121 161 214 236 302 382
#     4  11  18  34  65  91 113 154 211 266 294 345
#
# _framework density 24.832450999999999
#
# number of rings (size 3 to 8) (size 9 to 14) (size 15 to 20)
#    0.000    1.750    2.500    1.875    1.750    0.000 
#    6.750    0.000    0.000    3.750    0.000    0.000 
#    0.000    0.000    0.000    0.000    0.000    0.000 
#
# Total GULP energy -89268.278301 kJ/mol
# GULP energy per Si atom -5579.267394 kJ/mol
# Density = 2.477593 g / cm^3
# Si number density = 24.832451 Si / 1000 Ang^3
#
#
#
# Elastic Constant Matrix: (Units=GPa)
#
#
# Indices 1 2 3 4 5 6 
#
# 1 84.6164 36.5918 59.7229 -1.2482 39.5670 -14.0184
# 2 36.5918 109.8627 11.7225 15.7225 14.7080 16.2528
# 3 59.7229 11.7225 113.8387 -0.8870 34.4196 2.7542
# 4 -1.2482 15.7225 -0.8870 30.9910 -13.5782 16.0084
# 5 39.5670 14.7080 34.4196 -13.5782 54.4831 -6.8599
# 6 -14.0184 16.2528 2.7542 16.0084 -6.8599 33.3690
#
#
#
# Elastic Compliance Matrix: (Units=1/GPa)
#
#
# Indices 1 2 3 4 5 6 
#
# 1 0.038984 -0.011195 -0.015293 -0.013740 -0.015722 0.026451
# 2 -0.011195 0.014387 0.004886 -0.002148 -0.000792 -0.011246
# 3 -0.015293 0.004886 0.017186 0.002725 -0.001892 -0.011919
# 4 -0.013740 -0.002148 0.002725 0.055590 0.019207 -0.027671
# 5 -0.015722 -0.000792 -0.001892 0.019207 0.034948 -0.008092
# 6 0.026451 -0.011246 -0.011919 -0.027671 -0.008092 0.059153
#
#
# Mechanical properties :
#
#
# Convention : Reuss Voigt Hill
#
# Bulk Modulus (GPa) = 36.55751 58.26581 47.41166
# Shear Modulus (GPa) = 18.34407 37.12064 27.73235
#
# Velocity S-wave (km/s) = 2.72088 3.87052 3.34545
# Velocity P-wave (km/s) = 4.96231 6.59462 5.83582
#
# Compressibility (1/GPa) = 0.02735416
#
# Stress axis : x y z
#
# Youngs Moduli (GPa) = 25.65167 69.50944 58.18762
#
# Poissons Ratio (x) = 0.77813 0.88985
# Poissons Ratio (y) = 0.28716 -0.28433
# Poissons Ratio (z) = 0.39228 -0.33965
#
# Static dielectric constant tensor:
#      x y z
#    x 1.993790 -0.003020 0.047000 
#    y -0.003020 1.965720 -0.027130 
#    z 0.047000 -0.027130 2.081020 
# 
# From -- ./inp_files/237542.got.cif
#   From: 2010.05.17/outbox.cif.g08.bks.cpg/sg2_119_cif.got.tgz:237542.got - 2010.06.03 11:33:40.
