data_PCOD9097840
_publ_section_title
;
Structure prediction by ZEFSAII (Michael W. Deem and Ramdas Pophale) SiO2 
 PCOD9097840
Probable space group: P -1
;
_chemical_formula_sum "Si O2"
_cell_formula_units_Z 15
_cell_length_a 11.451152
_cell_length_b 8.008198
_cell_length_c 8.030428
_cell_angle_alpha 51.215143
_cell_angle_beta 84.325679
_cell_angle_gamma 85.284263
_cell_volume 571.030149
_symmetry_space_group_name_H-M "P -1"
_symmetry_group_IT_number 2
_symmetry_cell_setting 'triclinic'
loop_
_space_group_symop_operation_xyz
x,y,z
-x,-y,-z
loop_
_atom_site_type_symbol
_atom_site_label
_atom_site_fract_x
_atom_site_fract_y
_atom_site_fract_z
Si Si1 0.619304 0.194509 0.130793
Si Si2 0.754463 0.484325 0.425716
Si Si3 0.558931 0.527024 0.208844
Si Si4 0.046527 0.228008 0.802397
Si Si5 0.500000 0.000000 0.500000
Si Si6 0.918513 0.132422 0.556104
Si Si7 0.173796 0.584818 0.165511
Si Si8 0.725875 0.816191 0.785917
O O1 0.557104 0.299320 0.247838
O O2 0.572867 0.964972 0.322778
O O3 0.556857 0.336042 0.906538
O O4 0.754517 0.239504 0.060029
O O5 0.617996 0.486274 0.401677
O O6 0.826111 0.319572 0.395610
O O7 0.783501 0.402701 0.657464
O O8 0.819978 0.707475 0.256006
O O9 0.657361 0.668859 0.016764
O O10 0.002300 0.242175 0.609354
O O11 0.964824 0.376099 0.840359
O O12 0.000000 0.000000 0.000000
O O13 0.373132 0.051644 0.383056
O O14 0.827263 0.962769 0.751152
O O15 0.000000 0.000000 0.500000
O O16 0.211541 0.355156 0.236239
#
# Coordination Sequence:
#
# PCOD9097840 Si02
#       8
#     2   2   2   2   1   2   2   2
#     4   9  19  37  59  87 118 154 199 246 292 356
#     4  11  22  39  61  88 125 160 197 252 306 354
#     4   9  19  36  58  83 116 155 197 243 295 352
#     4  11  24  41  59  85 125 161 201 251 302 356
#     4  10  20  36  62  90 120 154 198 250 298 348
#     4  11  22  37  60  87 117 159 205 245 298 362
#     4  10  22  39  61  89 123 159 201 249 303 356
#     4  10  20  38  62  88 119 157 203 246 296 362
#
# _framework density 26.268315999999999
#
# number of rings (size 3 to 8) (size 9 to 14) (size 15 to 20)
#    0.000    1.867    0.000    5.600    0.000    4.800 
#    0.000    6.000    0.000   12.800    0.000    0.000 
#    0.000    0.000    0.000    0.000    0.000    0.000 
#
# Total GULP energy -83653.546892 kJ/mol
# GULP energy per Si atom -5576.903126 kJ/mol
# Density = 2.620853 g / cm^3
# Si number density = 26.268316 Si / 1000 Ang^3
#
#
#
# Elastic Constant Matrix: (Units=GPa)
#
#
# Indices 1 2 3 4 5 6 
#
# 1 102.3109 30.5492 9.5865 0.6806 -21.5935 16.9006
# 2 30.5492 67.7093 4.5224 -10.9688 -11.4668 9.8742
# 3 9.5865 4.5224 72.2536 -16.2705 -15.9023 -8.8746
# 4 0.6806 -10.9688 -16.2705 22.7670 6.0470 -0.8214
# 5 -21.5935 -11.4668 -15.9023 6.0470 52.3514 1.1472
# 6 16.9006 9.8742 -8.8746 -0.8214 1.1472 31.9689
#
#
#
# Elastic Compliance Matrix: (Units=1/GPa)
#
#
# Indices 1 2 3 4 5 6 
#
# 1 0.013723 -0.005291 -0.002748 -0.006374 0.004550 -0.006710
# 2 -0.005291 0.019306 0.001834 0.010292 0.001468 -0.002445
# 3 -0.002748 0.001834 0.018649 0.013666 0.003217 0.006299
# 4 -0.006374 0.010292 0.013666 0.059911 -0.003267 0.005641
# 5 0.004550 0.001468 0.003217 -0.003267 0.022717 -0.002865
# 6 -0.006710 -0.002445 0.006299 0.005641 -0.002865 0.037579
#
#
# Mechanical properties :
#
#
# Convention : Reuss Voigt Hill
#
# Bulk Modulus (GPa) = 25.46569 36.84336 31.15452
# Shear Modulus (GPa) = 25.33136 34.59183 29.96160
#
# Velocity S-wave (km/s) = 3.10874 3.63280 3.38094
# Velocity P-wave (km/s) = 4.75407 5.62606 5.20834
#
# Compressibility (1/GPa) = 0.03926853
#
# Stress axis : x y z
#
# Youngs Moduli (GPa) = 72.87234 51.79629 53.62237
#
# Poissons Ratio (x) = 0.27407 0.14733
# Poissons Ratio (y) = 0.38559 -0.09835
# Poissons Ratio (z) = 0.20022 -0.09500
#
# Static dielectric constant tensor:
#      x y z
#    x 3.800500 6.315570 -7.892620 
#    y 6.315570 25.137820 -28.811610 
#    z -7.892620 -28.811610 38.326650 
# 
# From -- ./inp_files/187244.got.cif
#   From: 2010.05.17/outbox.cif.g08.bks.cpg/sg2_94_cif.got.tgz:187244.got - 2010.06.03 11:33:40.
