data_PCOD9097730
_publ_section_title
;
Structure prediction by ZEFSAII (Michael W. Deem and Ramdas Pophale) SiO2 
 PCOD9097730
Probable space group: P -1
;
_chemical_formula_sum "Si O2"
_cell_formula_units_Z 16
_cell_length_a 15.975430
_cell_length_b 8.228212
_cell_length_c 13.763263
_cell_angle_alpha 45.782947
_cell_angle_beta 37.858831
_cell_angle_gamma 45.362106
_cell_volume 746.727937
_symmetry_space_group_name_H-M "P -1"
_symmetry_group_IT_number 2
_symmetry_cell_setting 'triclinic'
loop_
_space_group_symop_operation_xyz
x,y,z
-x,-y,-z
loop_
_atom_site_type_symbol
_atom_site_label
_atom_site_fract_x
_atom_site_fract_y
_atom_site_fract_z
Si Si1 0.777983 0.318904 0.000859
Si Si2 0.195724 0.130977 0.945561
Si Si3 0.303305 0.929180 0.635822
Si Si4 0.924329 0.658064 0.236292
Si Si5 0.070288 0.123560 0.271644
Si Si6 0.660151 0.895640 0.852995
Si Si7 0.219269 0.890240 0.508825
Si Si8 0.595307 0.628327 0.416625
O O1 0.708080 0.605468 0.933149
O O2 0.951597 0.254616 0.868019
O O3 0.733870 0.237857 0.179071
O O4 0.742880 0.152088 0.020967
O O5 0.097147 0.258524 0.890890
O O6 0.322627 0.244299 0.781348
O O7 0.108567 0.178451 0.104607
O O8 0.231573 0.915078 0.602987
O O9 0.476661 0.829240 0.504770
O O10 0.227243 0.200000 0.632130
O O11 0.989594 0.371690 0.298907
O O12 0.226107 0.015529 0.225719
O O13 0.946872 0.003791 0.421067
O O14 0.680575 0.985439 0.689375
O O15 0.500000 0.000000 0.000000
O O16 0.284746 0.601568 0.547518
O O17 0.500000 0.500000 0.500000
#
# Coordination Sequence:
#
# PCOD9097730 Si02
#       8
#     2   2   2   2   2   2   2   2
#     4  10  22  40  65  95 128 168 213 260 325 380
#     4  11  21  39  66  98 130 161 217 265 322 377
#     4  10  21  38  64  95 132 159 213 260 320 374
#     4  10  20  36  62 100 127 160 207 266 323 373
#     4  11  23  39  68  93 126 172 221 262 317 384
#     4  11  26  44  65  90 133 175 213 265 327 386
#     4  11  22  42  65  95 128 172 218 261 317 381
#     4  10  23  35  65  97 130 164 214 262 329 371
#
# _framework density 21.426812999999999
#
# number of rings (size 3 to 8) (size 9 to 14) (size 15 to 20)
#    0.000    1.500    1.250    4.500   10.500    2.000 
#    2.250    7.500    0.000    0.000    0.000    0.000 
#    0.000    0.000    0.000    0.000    0.000    0.000 
#
# Total GULP energy -89337.824693 kJ/mol
# GULP energy per Si atom -5583.614043 kJ/mol
# Density = 2.137804 g / cm^3
# Si number density = 21.426813 Si / 1000 Ang^3
#
#
#
# Elastic Constant Matrix: (Units=GPa)
#
#
# Indices 1 2 3 4 5 6 
#
# 1 63.0709 31.7045 26.1388 4.7756 -10.5206 4.4601
# 2 31.7045 97.2528 47.2334 16.9042 9.7793 2.2863
# 3 26.1388 47.2334 127.3979 14.1673 -5.3513 6.8960
# 4 4.7756 16.9042 14.1673 33.3866 -0.2712 -7.8759
# 5 -10.5206 9.7793 -5.3513 -0.2712 36.4680 7.3279
# 6 4.4601 2.2863 6.8960 -7.8759 7.3279 26.1719
#
#
#
# Elastic Compliance Matrix: (Units=1/GPa)
#
#
# Indices 1 2 3 4 5 6 
#
# 1 0.021969 -0.007430 -0.001052 -0.000147 0.009272 -0.005458
# 2 -0.007430 0.016455 -0.004414 -0.005085 -0.007559 0.001578
# 3 -0.001052 -0.004414 0.010372 -0.002919 0.003171 -0.003934
# 4 -0.000147 -0.005085 -0.002919 0.036769 -0.001384 0.012690
# 5 0.009272 -0.007559 0.003171 -0.001384 0.034983 -0.011966
# 6 -0.005458 0.001578 -0.003934 0.012690 -0.011966 0.047207
#
#
# Mechanical properties :
#
#
# Convention : Reuss Voigt Hill
#
# Bulk Modulus (GPa) = 43.46647 55.31943 49.39295
# Shear Modulus (GPa) = 24.84906 31.38163 28.11534
#
# Velocity S-wave (km/s) = 3.40916 3.83116 3.62630
# Velocity P-wave (km/s) = 5.98553 6.74123 6.37459
#
# Compressibility (1/GPa) = 0.02300624
#
# Stress axis : x y z
#
# Youngs Moduli (GPa) = 45.51765 60.77145 96.40982
#
# Poissons Ratio (x) = 0.45152 0.10140
# Poissons Ratio (y) = 0.33819 0.42554
# Poissons Ratio (z) = 0.04787 0.26823
#
# Static dielectric constant tensor:
#      x y z
#    x 1.858010 0.003980 -0.034290 
#    y 0.003980 1.809980 -0.001760 
#    z -0.034290 -0.001760 1.760480 
# 
# From -- ./inp_files/474298.got.cif
#   From: 2010.05.17/outbox.cif.g08.bks.cpg/sg2_238_cif.got.tgz:474298.got - 2010.06.03 11:33:40.
