data_PCOD9097125
_publ_section_title
;
Structure prediction by ZEFSAII (Michael W. Deem and Ramdas Pophale) SiO2 
 PCOD9097125
Probable space group: P -1
;
_chemical_formula_sum "Si O2"
_cell_formula_units_Z 16
_cell_length_a 13.051146
_cell_length_b 10.857285
_cell_length_c 13.051096
_cell_angle_alpha 42.293429
_cell_angle_beta 145.307033
_cell_angle_gamma 137.706544
_cell_volume 665.265448
_symmetry_space_group_name_H-M "P -1"
_symmetry_group_IT_number 2
_symmetry_cell_setting 'triclinic'
loop_
_space_group_symop_operation_xyz
x,y,z
-x,-y,-z
loop_
_atom_site_type_symbol
_atom_site_label
_atom_site_fract_x
_atom_site_fract_y
_atom_site_fract_z
Si Si1 0.781949 0.008926 0.111253
Si Si2 0.531239 0.767950 0.573332
Si Si3 0.388745 0.008927 0.718049
Si Si4 0.636685 0.611248 0.450688
Si Si5 0.139774 0.733570 0.360230
Si Si6 0.073328 0.232049 0.031237
Si Si7 0.987025 0.267958 0.512978
Si Si8 0.950689 0.388752 0.136687
O O1 0.817886 0.173675 0.126938
O O2 0.564413 0.943853 0.935585
O O3 0.856507 0.835717 0.310628
O O4 0.920049 0.118083 0.062268
O O5 0.562270 0.881916 0.420052
O O6 0.450996 0.536509 0.622656
O O7 0.363894 0.806766 0.474677
O O8 0.731742 0.811678 0.768262
O O9 0.373064 0.173676 0.682115
O O10 0.189370 0.835719 0.643490
O O11 0.500000 0.500000 0.500000
O O12 0.851451 0.618486 0.648548
O O13 0.091130 0.775218 0.408872
O O14 0.025328 0.806767 0.136109
O O15 0.068032 0.499294 0.431972
O O16 0.122652 0.463491 0.950994
O O17 0.000000 0.500000 0.000000
#
# Coordination Sequence:
#
# PCOD9097125 Si02
#       8
#     2   2   2   2   2   2   2   2
#     4  11  20  38  64  95 122 158 202 250 302 363
#     4  11  20  38  64  95 122 158 202 250 302 363
#     4  11  20  38  64  95 122 158 202 250 302 363
#     4  10  16  30  58  92 127 153 190 245 308 361
#     4  11  26  45  61  85 124 165 207 258 309 354
#     4  11  20  38  64  95 122 158 202 250 302 363
#     4  11  26  45  61  85 124 165 207 258 309 354
#     4  10  16  30  58  92 127 153 190 245 308 361
#
# _framework density 24.050550000000001
#
# number of rings (size 3 to 8) (size 9 to 14) (size 15 to 20)
#    0.000    1.250    5.000    5.250    0.000    3.000 
#    0.000    5.000    0.000    3.000    0.000    0.000 
#    0.000    0.000    0.000    0.000    0.000    0.000 
#
# Total GULP energy -89696.661459 kJ/mol
# GULP energy per Si atom -5606.041341 kJ/mol
# Density = 2.399581 g / cm^3
# Si number density = 24.050550 Si / 1000 Ang^3
#
#
#
# Elastic Constant Matrix: (Units=GPa)
#
#
# Indices 1 2 3 4 5 6 
#
# 1 110.8321 17.5863 47.6037 10.5991 7.4130 -4.5425
# 2 17.5863 156.6626 66.8962 -0.0643 11.9999 -0.0361
# 3 47.6037 66.8962 210.0857 27.9444 31.6833 0.6066
# 4 10.5991 -0.0643 27.9444 54.0134 2.1745 1.4643
# 5 7.4130 11.9999 31.6833 2.1745 46.5082 2.2006
# 6 -4.5425 -0.0361 0.6066 1.4643 2.2006 34.2912
#
#
#
# Elastic Compliance Matrix: (Units=1/GPa)
#
#
# Indices 1 2 3 4 5 6 
#
# 1 0.010109 -0.000239 -0.002068 -0.000946 -0.000164 0.001426
# 2 -0.000239 0.007485 -0.002466 0.001343 -0.000275 -0.000020
# 3 -0.002068 -0.002466 0.006969 -0.003055 -0.003637 -0.000036
# 4 -0.000946 0.001343 -0.003055 0.020269 0.000985 -0.000999
# 5 -0.000164 -0.000275 -0.003637 0.000985 0.024103 -0.001547
# 6 0.001426 -0.000020 -0.000036 -0.000999 -0.001547 0.029493
#
#
# Mechanical properties :
#
#
# Convention : Reuss Voigt Hill
#
# Bulk Modulus (GPa) = 66.59836 82.41697 74.50767
# Shear Modulus (GPa) = 44.25551 49.99554 47.12552
#
# Velocity S-wave (km/s) = 4.29430 4.56430 4.43135
# Velocity P-wave (km/s) = 7.23458 7.88161 7.56501
#
# Compressibility (1/GPa) = 0.01501538
#
# Stress axis : x y z
#
# Youngs Moduli (GPa) = 98.92454 133.60549 143.49605
#
# Poissons Ratio (x) = 0.03196 0.29674
# Poissons Ratio (y) = 0.02367 0.35390
# Poissons Ratio (z) = 0.20457 0.32951
#
# Static dielectric constant tensor:
#      x y z
#    x 1.936140 0.037740 -0.043380 
#    y 0.037740 1.942050 -0.049200 
#    z -0.043380 -0.049200 1.856560 
# 
# From -- ./inp_files/477675.got.cif
#   From: 2010.05.17/outbox.cif.g08.bks.cpg/sg2_239_cif.got.tgz:477675.got - 2010.06.03 11:33:40.
