data_PCOD9097690
_publ_section_title
;
Structure prediction by ZEFSAII (Michael W. Deem and Ramdas Pophale) SiO2 
 PCOD9097690
Probable space group: P -1
;
_chemical_formula_sum "Si O2"
_cell_formula_units_Z 14
_cell_length_a 24.697295
_cell_length_b 7.253203
_cell_length_c 22.792702
_cell_angle_alpha 42.538882
_cell_angle_beta 12.010294
_cell_angle_gamma 41.479103
_cell_volume 562.498578
_symmetry_space_group_name_H-M "P -1"
_symmetry_group_IT_number 2
_symmetry_cell_setting 'triclinic'
loop_
_space_group_symop_operation_xyz
x,y,z
-x,-y,-z
loop_
_atom_site_type_symbol
_atom_site_label
_atom_site_fract_x
_atom_site_fract_y
_atom_site_fract_z
Si Si1 0.290069 0.345666 0.840484
Si Si2 0.380736 0.725695 0.932722
Si Si3 0.931152 0.941667 0.681849
Si Si4 0.218085 0.260735 0.685280
Si Si5 0.639197 0.748422 0.335990
Si Si6 0.565583 0.332375 0.716770
Si Si7 0.880272 0.454390 0.537455
O O1 0.539142 0.472793 0.526492
O O2 0.182371 0.288765 0.902282
O O3 0.349806 0.050114 0.876878
O O4 0.084304 0.577798 0.039543
O O5 0.480862 0.558016 0.805937
O O6 0.597083 0.626757 0.776935
O O7 0.104583 0.636947 0.261276
O O8 0.165485 0.864901 0.498664
O O9 0.033571 0.755798 0.559415
O O10 0.875707 0.258554 0.644291
O O11 0.667554 0.835268 0.003847
O O12 0.231750 0.169402 0.760347
O O13 0.376274 0.499090 0.441547
O O14 0.373464 0.988190 0.551023
#
# Coordination Sequence:
#
# PCOD9097690 Si02
#       7
#     2   2   2   2   2   2   2
#     4  11  23  41  64  92 129 170 218 268 329 385
#     4  10  20  36  61  94 129 167 214 268 318 387
#     4   9  18  34  60  93 128 168 214 263 321 385
#     4  11  23  41  64  92 129 170 218 268 329 385
#     4  10  24  44  62  92 124 172 222 268 322 396
#     4  10  20  36  61  94 129 167 214 268 318 387
#     4   9  18  34  60  93 128 168 214 263 321 385
#
# _framework density 24.888950999999999
#
# number of rings (size 3 to 8) (size 9 to 14) (size 15 to 20)
#    0.000    2.000    1.429    1.714    4.000    3.429 
#    0.000    0.000    0.000    5.143    0.000    0.000 
#    0.000    0.000    0.000    0.000    0.000    0.000 
#
# Total GULP energy -78364.111327 kJ/mol
# GULP energy per Si atom -5597.436523 kJ/mol
# Density = 2.483230 g / cm^3
# Si number density = 24.888951 Si / 1000 Ang^3
#
#
#
# Elastic Constant Matrix: (Units=GPa)
#
#
# Indices 1 2 3 4 5 6 
#
# 1 89.0004 50.2104 38.4510 14.0542 12.4186 -20.8788
# 2 50.2104 192.8985 71.1923 -9.4983 -4.6081 -19.7693
# 3 38.4510 71.1923 127.3245 -6.7155 -18.1989 -13.8722
# 4 14.0542 -9.4983 -6.7155 41.0372 -3.8119 13.8228
# 5 12.4186 -4.6081 -18.1989 -3.8119 39.3566 10.4130
# 6 -20.8788 -19.7693 -13.8722 13.8228 10.4130 28.2864
#
#
#
# Elastic Compliance Matrix: (Units=1/GPa)
#
#
# Indices 1 2 3 4 5 6 
#
# 1 0.046551 -0.003995 -0.013393 -0.043786 -0.041952 0.061841
# 2 -0.003995 0.007243 -0.002592 0.003203 0.001564 -0.001299
# 3 -0.013393 -0.002592 0.014550 0.013768 0.016586 -0.017396
# 4 -0.043786 0.003203 0.013768 0.072516 0.047783 -0.076356
# 5 -0.041952 0.001564 0.016586 0.047783 0.069861 -0.070807
# 6 0.061841 -0.001299 -0.017396 -0.076356 -0.070807 0.134939
#
#
# Mechanical properties :
#
#
# Convention : Reuss Voigt Hill
#
# Bulk Modulus (GPa) = 35.23107 80.99234 58.11170
# Shear Modulus (GPa) = 12.65565 38.36071 25.50818
#
# Velocity S-wave (km/s) = 2.25741 3.93017 3.20485
# Velocity P-wave (km/s) = 4.58045 7.29432 6.09047
#
# Compressibility (1/GPa) = 0.02838404
#
# Stress axis : x y z
#
# Youngs Moduli (GPa) = 21.48175 138.07295 68.73087
#
# Poissons Ratio (x) = 0.55155 0.92049
# Poissons Ratio (y) = 0.08581 0.17817
# Poissons Ratio (z) = 0.28770 0.35793
#
# Static dielectric constant tensor:
#      x y z
#    x 2.091950 0.051230 -0.043560 
#    y 0.051230 1.935510 0.037070 
#    z -0.043560 0.037070 1.920930 
# 
# From -- ./inp_files/42157.got.cif
#   From: 2010.05.17/outbox.cif.g08.bks.cpg/sg2_22_cif.got.tgz:42157.got - 2010.06.03 11:33:40.
