data_PCOD9097147
_publ_section_title
;
Structure prediction by ZEFSAII (Michael W. Deem and Ramdas Pophale) SiO2 
 PCOD9097147
Probable space group: P -1
;
_chemical_formula_sum "Si O2"
_cell_formula_units_Z 14
_cell_length_a 5.301931
_cell_length_b 14.246765
_cell_length_c 13.582246
_cell_angle_alpha 135.068721
_cell_angle_beta 89.881855
_cell_angle_gamma 95.043942
_cell_volume 719.126910
_symmetry_space_group_name_H-M "P -1"
_symmetry_group_IT_number 2
_symmetry_cell_setting 'triclinic'
loop_
_space_group_symop_operation_xyz
x,y,z
-x,-y,-z
loop_
_atom_site_type_symbol
_atom_site_label
_atom_site_fract_x
_atom_site_fract_y
_atom_site_fract_z
Si Si1 0.158995 0.766274 0.196299
Si Si2 0.612216 0.624880 0.022857
Si Si3 0.658053 0.945754 0.548875
Si Si4 0.729772 0.418873 0.405989
Si Si5 0.418088 0.507540 0.745021
Si Si6 0.340570 0.744669 0.536890
Si Si7 0.034005 0.292561 0.651674
O O1 0.404494 0.728282 0.111935
O O2 0.183598 0.720364 0.276338
O O3 0.892380 0.688054 0.102745
O O4 0.162085 0.925974 0.316125
O O5 0.500000 0.500000 0.000000
O O6 0.612062 0.584420 0.877987
O O7 0.803337 0.828161 0.417630
O O8 0.500000 0.000000 0.500000
O O9 0.500000 0.500000 0.500000
O O10 0.696118 0.411462 0.282876
O O11 0.687162 0.281792 0.366995
O O12 0.000000 0.500000 0.500000
O O13 0.192258 0.436660 0.760493
O O14 0.535224 0.382183 0.602520
O O15 0.491623 0.876879 0.587917
O O16 0.066445 0.730957 0.475960
#
# Coordination Sequence:
#
# PCOD9097147 Si02
#       7
#     2   2   2   2   2   2   2
#     4  12  25  38  56  85 120 157 194 227 285 354
#     4  12  25  38  58  82 122 160 191 232 283 353
#     4  11  23  37  57  87 120 155 193 242 296 341
#     4  10  20  36  59  89 117 147 190 244 300 342
#     4  10  22  37  58  88 120 152 192 239 295 348
#     4  10  21  36  61  88 118 148 191 249 297 340
#     4  11  20  35  61  84 120 149 192 245 292 346
#
# _framework density 19.468050999999999
#
# number of rings (size 3 to 8) (size 9 to 14) (size 15 to 20)
#    0.000    1.143    4.286    2.571    4.000    0.000 
#    0.000    0.000    0.000    1.714    0.000    0.000 
#    0.000    0.000    0.000    0.000    0.000    0.000 
#
# Total GULP energy -78137.015967 kJ/mol
# GULP energy per Si atom -5581.215426 kJ/mol
# Density = 1.942374 g / cm^3
# Si number density = 19.468051 Si / 1000 Ang^3
#
#
#
# Elastic Constant Matrix: (Units=GPa)
#
#
# Indices 1 2 3 4 5 6 
#
# 1 72.2954 20.1708 12.5393 1.7454 14.4003 -4.0793
# 2 20.1708 145.5907 49.1835 -15.5077 14.1649 1.3817
# 3 12.5393 49.1835 79.6143 -9.8705 23.0396 3.5037
# 4 1.7454 -15.5077 -9.8705 23.5003 2.0246 10.8240
# 5 14.4003 14.1649 23.0396 2.0246 29.5843 -3.2859
# 6 -4.0793 1.3817 3.5037 10.8240 -3.2859 22.0847
#
#
#
# Elastic Compliance Matrix: (Units=1/GPa)
#
#
# Indices 1 2 3 4 5 6 
#
# 1 0.015944 -0.002028 -0.000265 -0.004089 -0.005832 0.004250
# 2 -0.002028 0.009385 -0.004257 0.006256 -0.001009 -0.003503
# 3 -0.000265 -0.004257 0.022821 0.014408 -0.018052 -0.013151
# 4 -0.004089 0.006256 0.014408 0.074974 -0.022186 -0.043479
# 5 -0.005832 -0.001009 -0.018052 -0.022186 0.055023 0.020910
# 6 0.004250 -0.003503 -0.013151 -0.043479 0.020910 0.072791
#
#
# Mechanical properties :
#
#
# Convention : Reuss Voigt Hill
#
# Bulk Modulus (GPa) = 28.52949 51.25417 39.89183
# Shear Modulus (GPa) = 18.13426 29.40765 23.77096
#
# Velocity S-wave (km/s) = 3.05534 3.89081 3.49811
# Velocity P-wave (km/s) = 5.20895 6.82415 6.07051
#
# Compressibility (1/GPa) = 0.03505145
#
# Stress axis : x y z
#
# Youngs Moduli (GPa) = 62.71941 106.54868 43.81881
#
# Poissons Ratio (x) = 0.21608 0.01159
# Poissons Ratio (y) = 0.12720 0.18654
# Poissons Ratio (z) = 0.01660 0.45358
#
# Static dielectric constant tensor:
#      x y z
#    x 1.729560 -0.000990 0.017400 
#    y -0.000990 1.706170 0.001040 
#    z 0.017400 0.001040 1.697970 
# 
# From -- ./inp_files/78877.got.cif
#   From: 2010.05.17/outbox.cif.g08.bks.cpg/sg2_40_cif.got.tgz:78877.got - 2010.06.03 11:33:40.
