data_PCOD9097944
_publ_section_title
;
Structure prediction by ZEFSAII (Michael W. Deem and Ramdas Pophale) SiO2 
 PCOD9097944
Probable space group: P -1
;
_chemical_formula_sum "Si O2"
_cell_formula_units_Z 14
_cell_length_a 10.801988
_cell_length_b 8.831821
_cell_length_c 10.710019
_cell_angle_alpha 63.740825
_cell_angle_beta 47.027117
_cell_angle_gamma 84.876136
_cell_volume 634.387170
_symmetry_space_group_name_H-M "P -1"
_symmetry_group_IT_number 2
_symmetry_cell_setting 'triclinic'
loop_
_space_group_symop_operation_xyz
x,y,z
-x,-y,-z
loop_
_atom_site_type_symbol
_atom_site_label
_atom_site_fract_x
_atom_site_fract_y
_atom_site_fract_z
Si Si1 0.110359 0.363851 0.011027
Si Si2 0.762637 0.241063 0.415034
Si Si3 0.789308 0.646673 0.316332
Si Si4 0.550111 0.308356 0.323232
Si Si5 0.627403 0.693670 0.801906
Si Si6 0.017642 0.306400 0.583600
Si Si7 0.318964 0.979985 0.202107
O O1 0.147863 0.270759 0.893334
O O2 0.301284 0.496880 0.873399
O O3 0.000000 0.500000 0.000000
O O4 0.965997 0.243159 0.249642
O O5 0.757916 0.436076 0.391264
O O6 0.652450 0.202647 0.375146
O O7 0.683284 0.113015 0.629285
O O8 0.611083 0.671888 0.487021
O O9 0.940908 0.710834 0.293237
O O10 0.474976 0.240008 0.264068
O O11 0.808294 0.690092 0.614878
O O12 0.679041 0.823380 0.836670
O O13 0.500000 0.500000 0.000000
O O14 0.000000 0.500000 0.500000
O O15 0.848032 0.146989 0.712361
O O16 0.500000 0.000000 0.000000
#
# Coordination Sequence:
#
# PCOD9097944 Si02
#       7
#     2   2   2   2   2   2   2
#     4   8  16  30  57  92 120 156 204 253 311 379
#     4  10  20  36  62  94 128 164 214 266 317 383
#     4   9  17  35  62  96 124 165 208 256 325 388
#     4   9  19  36  63  95 125 168 211 260 320 388
#     4  11  26  43  66  95 130 176 220 267 328 385
#     4  11  22  42  68  90 131 170 214 268 323 392
#     4  12  27  43  63  96 133 173 223 271 322 385
#
# _framework density 22.068541
#
# number of rings (size 3 to 8) (size 9 to 14) (size 15 to 20)
#    0.000    2.286    1.429    3.000    4.000    5.143 
#    0.000    0.000    0.000    3.429    0.000    0.000 
#    0.000    0.000    0.000    0.000    0.000    0.000 
#
# Total GULP energy -78196.064624 kJ/mol
# GULP energy per Si atom -5585.433187 kJ/mol
# Density = 2.201831 g / cm^3
# Si number density = 22.068541 Si / 1000 Ang^3
#
#
#
# Elastic Constant Matrix: (Units=GPa)
#
#
# Indices 1 2 3 4 5 6 
#
# 1 108.4684 21.4410 38.9320 -12.6728 -25.3416 28.2781
# 2 21.4410 63.2757 12.9820 -9.5849 -12.2050 30.2555
# 3 38.9320 12.9820 141.4857 1.9415 -4.2661 13.6093
# 4 -12.6728 -9.5849 1.9415 27.3844 0.5605 -2.8494
# 5 -25.3416 -12.2050 -4.2661 0.5605 28.0880 -9.5904
# 6 28.2781 30.2555 13.6093 -2.8494 -9.5904 30.4101
#
#
#
# Elastic Compliance Matrix: (Units=1/GPa)
#
#
# Indices 1 2 3 4 5 6 
#
# 1 0.017236 0.006108 -0.003523 0.008460 0.012061 -0.015932
# 2 0.006108 0.034224 -0.001308 0.011029 0.007789 -0.035655
# 3 -0.003523 -0.001308 0.008127 -0.002623 -0.002491 -0.000091
# 4 0.008460 0.011029 -0.002623 0.043151 0.007300 -0.011320
# 5 0.012061 0.007789 -0.002491 0.007300 0.048731 -0.001798
# 6 -0.015932 -0.035655 -0.000091 -0.011320 -0.001798 0.081585
#
#
# Mechanical properties :
#
#
# Convention : Reuss Voigt Hill
#
# Bulk Modulus (GPa) = 16.09243 51.10442 33.59843
# Shear Modulus (GPa) = 19.90340 33.16816 26.53578
#
# Velocity S-wave (km/s) = 3.00641 3.88101 3.47136
# Velocity P-wave (km/s) = 4.39990 6.57954 5.59685
#
# Compressibility (1/GPa) = 0.06214101
#
# Stress axis : x y z
#
# Youngs Moduli (GPa) = 58.01762 29.21930 123.04738
#
# Poissons Ratio (x) = -0.17847 0.43352
# Poissons Ratio (y) = -0.35437 0.16093
# Poissons Ratio (z) = 0.20441 0.03821
#
# Static dielectric constant tensor:
#      x y z
#    x 1.877220 -0.013730 0.043090 
#    y -0.013730 1.829300 -0.050580 
#    z 0.043090 -0.050580 1.835340 
# 
# From -- ./inp_files/416773.got.cif
#   From: 2010.05.17/outbox.cif.g08.bks.cpg/sg2_209_cif.got.tgz:416773.got - 2010.06.03 11:33:40.
