data_PCOD9097540
_publ_section_title
;
Structure prediction by ZEFSAII (Michael W. Deem and Ramdas Pophale) SiO2 
 PCOD9097540
Probable space group: P -1
;
_chemical_formula_sum "Si O2"
_cell_formula_units_Z 16
_cell_length_a 8.545430
_cell_length_b 13.914596
_cell_length_c 11.905863
_cell_angle_alpha 122.403816
_cell_angle_beta 127.121534
_cell_angle_gamma 44.113240
_cell_volume 772.198090
_symmetry_space_group_name_H-M "P -1"
_symmetry_group_IT_number 2
_symmetry_cell_setting 'triclinic'
loop_
_space_group_symop_operation_xyz
x,y,z
-x,-y,-z
loop_
_atom_site_type_symbol
_atom_site_label
_atom_site_fract_x
_atom_site_fract_y
_atom_site_fract_z
Si Si1 0.985359 0.277275 0.165974
Si Si2 0.431639 0.146278 0.112789
Si Si3 0.733003 0.047926 0.400811
Si Si4 0.293705 0.291412 0.500812
Si Si5 0.708677 0.600295 0.950398
Si Si6 0.414566 0.109473 0.632915
Si Si7 0.539471 0.551422 0.225866
Si Si8 0.647119 0.226712 0.902121
O O1 0.741532 0.434581 0.154723
O O2 0.175899 0.225046 0.116517
O O3 0.119140 0.279701 0.335919
O O4 0.871072 0.190378 0.052470
O O5 0.403069 0.261712 0.088849
O O6 0.630291 0.102753 0.267143
O O7 0.500000 0.000000 0.000000
O O8 0.713357 0.922366 0.349019
O O9 0.556673 0.171633 0.488897
O O10 0.000000 0.000000 0.500000
O O11 0.260355 0.255711 0.590408
O O12 0.311857 0.421317 0.603475
O O13 0.600154 0.510466 0.824096
O O14 0.599360 0.668572 0.068170
O O15 0.000000 0.500000 0.000000
O O16 0.637071 0.100182 0.779626
O O17 0.500000 0.000000 0.500000
O O18 0.364515 0.692103 0.164990
#
# Coordination Sequence:
#
# PCOD9097540 Si02
#       8
#     2   2   2   2   2   2   2   2
#     4  10  20  38  58  83 118 152 195 252 299 356
#     4  11  24  40  59  89 125 162 202 248 303 364
#     4  10  22  39  56  83 124 162 199 247 302 365
#     4   9  20  37  60  85 113 153 203 254 304 357
#     4  11  22  38  62  93 125 161 203 250 304 366
#     4   9  19  37  57  81 111 151 199 241 292 354
#     4  10  20  37  60  87 115 155 202 252 307 358
#     4  10  20  36  61  87 114 156 203 250 300 356
#
# _framework density 20.72007
#
# number of rings (size 3 to 8) (size 9 to 14) (size 15 to 20)
#    0.000    2.000    0.000    4.125    0.000    7.000 
#    0.000   15.625    0.000    0.000    0.000    0.000 
#    0.000    0.000    0.000    0.000    0.000    0.000 
#
# Total GULP energy -89168.444383 kJ/mol
# GULP energy per Si atom -5573.027774 kJ/mol
# Density = 2.067291 g / cm^3
# Si number density = 20.720070 Si / 1000 Ang^3
#
#
#
# Elastic Constant Matrix: (Units=GPa)
#
#
# Indices 1 2 3 4 5 6 
#
# 1 101.6359 63.5862 68.8613 -11.1929 22.0457 19.1739
# 2 63.5862 81.1644 45.4434 -1.6869 14.0571 20.4221
# 3 68.8613 45.4434 150.5749 13.8144 30.1056 15.4851
# 4 -11.1929 -1.6869 13.8144 34.5999 6.3913 2.9028
# 5 22.0457 14.0571 30.1056 6.3913 39.4243 -0.8498
# 6 19.1739 20.4221 15.4851 2.9028 -0.8498 38.7010
#
#
#
# Elastic Compliance Matrix: (Units=1/GPa)
#
#
# Indices 1 2 3 4 5 6 
#
# 1 0.028459 -0.015518 -0.007807 0.013120 -0.006631 -0.003917
# 2 -0.015518 0.025754 0.000285 -0.003337 -0.000307 -0.005773
# 3 -0.007807 0.000285 0.011450 -0.006407 -0.003451 -0.000460
# 4 0.013120 -0.003337 -0.006407 0.037343 -0.007419 -0.005139
# 5 -0.006631 -0.000307 -0.003451 -0.007419 0.033152 0.006112
# 6 -0.003917 -0.005773 -0.000460 -0.005139 0.006112 0.031530
#
#
# Mechanical properties :
#
#
# Convention : Reuss Voigt Hill
#
# Bulk Modulus (GPa) = 51.05965 76.57301 63.81633
# Shear Modulus (GPa) = 22.69678 32.91065 27.80372
#
# Velocity S-wave (km/s) = 3.31327 3.98973 3.66713
# Velocity P-wave (km/s) = 6.27162 7.63283 6.98546
#
# Compressibility (1/GPa) = 0.01958494
#
# Stress axis : x y z
#
# Youngs Moduli (GPa) = 35.13852 38.82855 87.33255
#
# Poissons Ratio (x) = 0.60253 0.68178
# Poissons Ratio (y) = 0.54527 -0.02490
# Poissons Ratio (z) = 0.27432 -0.01107
#
# Static dielectric constant tensor:
#      x y z
#    x 1.733120 0.042790 0.014680 
#    y 0.042790 1.833950 0.020880 
#    z 0.014680 0.020880 1.811590 
# 
# From -- ./inp_files/396259.got.cif
#   From: 2010.05.17/outbox.cif.g08.bks.cpg/sg2_199_cif.got.tgz:396259.got - 2010.06.03 11:33:40.
