data_PCOD9097142
_publ_section_title
;
Structure prediction by ZEFSAII (Michael W. Deem and Ramdas Pophale) SiO2 
 PCOD9097142
Probable space group: P -1
;
_chemical_formula_sum "Si O2"
_cell_formula_units_Z 16
_cell_length_a 7.430787
_cell_length_b 9.491907
_cell_length_c 10.841722
_cell_angle_alpha 77.568018
_cell_angle_beta 107.159464
_cell_angle_gamma 123.751790
_cell_volume 606.232578
_symmetry_space_group_name_H-M "P -1"
_symmetry_group_IT_number 2
_symmetry_cell_setting 'triclinic'
loop_
_space_group_symop_operation_xyz
x,y,z
-x,-y,-z
loop_
_atom_site_type_symbol
_atom_site_label
_atom_site_fract_x
_atom_site_fract_y
_atom_site_fract_z
Si Si1 0.686180 0.914393 0.050153
Si Si2 0.472777 0.442854 0.695555
Si Si3 0.765906 0.775180 0.528002
Si Si4 0.915077 0.489866 0.848840
Si Si5 0.948064 0.184740 0.840706
Si Si6 0.496872 0.638847 0.884151
Si Si7 0.797607 0.132617 0.273806
Si Si8 0.375566 0.095216 0.324505
O O1 0.841326 0.835337 0.108110
O O2 0.686501 0.992519 0.168346
O O3 0.481108 0.764630 0.956663
O O4 0.803800 0.076307 0.951553
O O5 0.634471 0.592456 0.605798
O O6 0.288776 0.281638 0.613367
O O7 0.652996 0.413121 0.802506
O O8 0.381056 0.520552 0.761391
O O9 0.019337 0.879510 0.605720
O O10 0.639056 0.858575 0.548115
O O11 0.974403 0.364623 0.820514
O O12 0.052224 0.678314 0.786839
O O13 0.000000 0.500000 0.000000
O O14 0.808505 0.094608 0.708141
O O15 0.684946 0.794704 0.804462
O O16 0.500000 0.500000 0.000000
O O17 0.610411 0.131158 0.320356
#
# Coordination Sequence:
#
# PCOD9097142 Si02
#       8
#     2   2   2   2   2   2   2   2
#     4  10  20  36  61  89 133 177 204 254 336 390
#     4   9  20  38  64  87 127 183 207 263 334 374
#     4   9  19  44  63  89 129 173 225 260 312 392
#     4  11  21  35  62  96 131 164 216 267 324 388
#     4  10  20  36  59  88 132 174 209 261 325 394
#     4  10  22  35  60  97 137 165 210 275 330 389
#     4  11  22  38  68  98 125 174 215 268 324 382
#     4  10  22  38  64  96 124 172 221 264 322 381
#
# _framework density 26.392510999999999
#
# number of rings (size 3 to 8) (size 9 to 14) (size 15 to 20)
#    0.000    2.000    2.500    0.750    7.000    3.000 
#    0.000   10.625    0.000    1.500    0.000    0.000 
#    0.000    0.000    0.000    0.000    0.000    0.000 
#
# Total GULP energy -89356.883660 kJ/mol
# GULP energy per Si atom -5584.805229 kJ/mol
# Density = 2.633244 g / cm^3
# Si number density = 26.392511 Si / 1000 Ang^3
#
#
#
# Elastic Constant Matrix: (Units=GPa)
#
#
# Indices 1 2 3 4 5 6 
#
# 1 142.6017 66.8391 49.2851 37.3816 8.9875 -9.9835
# 2 66.8391 163.2247 75.4487 37.8614 -12.1532 -34.6762
# 3 49.2851 75.4487 122.6864 36.3979 -7.9196 -8.9764
# 4 37.3816 37.8614 36.3979 81.2685 -2.0122 -9.9239
# 5 8.9875 -12.1532 -7.9196 -2.0122 34.2081 0.5886
# 6 -9.9835 -34.6762 -8.9764 -9.9239 0.5886 35.9207
#
#
#
# Elastic Compliance Matrix: (Units=1/GPa)
#
#
# Indices 1 2 3 4 5 6 
#
# 1 0.009999 -0.003443 -0.001518 -0.002615 -0.004329 -0.001576
# 2 -0.003443 0.012318 -0.005060 -0.000641 0.003910 0.009429
# 3 -0.001518 -0.005060 0.012611 -0.002923 0.001400 -0.002985
# 4 -0.002615 -0.000641 -0.002923 0.015396 0.000651 0.002167
# 5 -0.004329 0.003910 0.001400 0.000651 0.032077 0.002575
# 6 -0.001576 0.009429 -0.002985 0.002167 0.002575 0.036314
#
#
# Mechanical properties :
#
#
# Convention : Reuss Voigt Hill
#
# Bulk Modulus (GPa) = 67.17699 90.18430 78.68064
# Shear Modulus (GPa) = 34.78974 46.07544 40.43259
#
# Velocity S-wave (km/s) = 3.63460 4.18278 3.91829
# Velocity P-wave (km/s) = 6.56674 7.58763 7.09557
#
# Compressibility (1/GPa) = 0.01488605
#
# Stress axis : x y z
#
# Youngs Moduli (GPa) = 100.00896 81.18075 79.29315
#
# Poissons Ratio (x) = 0.27953 0.12038
# Poissons Ratio (y) = 0.34436 0.40121
# Poissons Ratio (z) = 0.15184 0.41076
#
# Static dielectric constant tensor:
#      x y z
#    x 2.099580 0.063500 0.080730 
#    y 0.063500 2.062180 -0.100440 
#    z 0.080730 -0.100440 2.141630 
# 
# From -- ./inp_files/381810.got.cif
#   From: 2010.05.17/outbox.cif.g08.bks.cpg/sg2_191_cif.got.tgz:381810.got - 2010.06.03 11:33:40.
