data_PCOD9097095
_publ_section_title
;
Structure prediction by ZEFSAII (Michael W. Deem and Ramdas Pophale) SiO2 
 PCOD9097095
Probable space group: P -1
;
_chemical_formula_sum "Si O2"
_cell_formula_units_Z 14
_cell_length_a 15.044855
_cell_length_b 7.875112
_cell_length_c 11.059075
_cell_angle_alpha 111.441773
_cell_angle_beta 30.205108
_cell_angle_gamma 93.851561
_cell_volume 519.845523
_symmetry_space_group_name_H-M "P -1"
_symmetry_group_IT_number 2
_symmetry_cell_setting 'triclinic'
loop_
_space_group_symop_operation_xyz
x,y,z
-x,-y,-z
loop_
_atom_site_type_symbol
_atom_site_label
_atom_site_fract_x
_atom_site_fract_y
_atom_site_fract_z
Si Si1 0.921156 0.737954 0.923150
Si Si2 0.687550 0.226705 0.356723
Si Si3 0.266096 0.481177 0.776329
Si Si4 0.686008 0.700618 0.720250
Si Si5 0.322414 0.685550 0.172625
Si Si6 0.357949 0.300910 0.952884
Si Si7 0.973529 0.885324 0.380860
O O1 0.143147 0.551973 0.563228
O O2 0.856479 0.639243 0.085566
O O3 0.759578 0.767595 0.015391
O O4 0.864868 0.977787 0.073262
O O5 0.501440 0.306893 0.496184
O O6 0.750908 0.401472 0.299893
O O7 0.569444 0.248278 0.626094
O O8 0.171318 0.686058 0.033191
O O9 0.466872 0.743646 0.938126
O O10 0.808704 0.809733 0.560029
O O11 0.632421 0.775819 0.942950
O O12 0.147687 0.897090 0.499054
O O13 0.500000 0.500000 0.000000
O O14 0.228339 0.562073 0.183841
O O15 0.000000 0.000000 0.500000
#
# Coordination Sequence:
#
# PCOD9097095 Si02
#       7
#     2   2   2   2   2   2   2
#     4  10  20  37  61  89 122 160 205 256 308 359
#     4  10  20  36  59  86 129 158 196 262 309 357
#     4   9  20  34  55  88 121 154 202 248 312 354
#     4  10  22  37  61  87 122 156 202 252 308 365
#     4  10  22  39  60  86 128 162 196 253 311 367
#     4  10  20  37  57  90 116 157 208 242 301 366
#     4  11  22  38  64  95 117 157 210 262 300 356
#
# _framework density 26.931077999999999
#
# number of rings (size 3 to 8) (size 9 to 14) (size 15 to 20)
#    0.000    2.000    0.000    5.143    6.000    0.000 
#    2.571    0.714    0.000    1.714    0.000    0.000 
#    0.000    0.000    0.000    0.000    0.000    0.000 
#
# Total GULP energy -78215.163621 kJ/mol
# GULP energy per Si atom -5586.797402 kJ/mol
# Density = 2.686978 g / cm^3
# Si number density = 26.931078 Si / 1000 Ang^3
#
#
#
# Elastic Constant Matrix: (Units=GPa)
#
#
# Indices 1 2 3 4 5 6 
#
# 1 85.7088 34.1441 11.8307 -1.8410 2.4293 19.7558
# 2 34.1441 131.9590 66.8094 26.5457 -3.1494 -1.4138
# 3 11.8307 66.8094 123.4721 16.8200 4.2337 -9.3060
# 4 -1.8410 26.5457 16.8200 61.9233 -3.6571 -3.7222
# 5 2.4293 -3.1494 4.2337 -3.6571 29.9310 -16.0395
# 6 19.7558 -1.4138 -9.3060 -3.7222 -16.0395 39.0830
#
#
#
# Elastic Compliance Matrix: (Units=1/GPa)
#
#
# Indices 1 2 3 4 5 6 
#
# 1 0.016570 -0.005066 0.000362 0.001397 -0.007983 -0.011616
# 2 -0.005066 0.012665 -0.005788 -0.003628 0.003607 0.002776
# 3 0.000362 -0.005788 0.011454 -0.000602 -0.001425 0.001693
# 4 0.001397 -0.003628 -0.000602 0.018192 0.002841 0.001918
# 5 -0.007983 0.003607 -0.001425 0.002841 0.047664 0.023658
# 6 -0.011616 0.002776 0.001693 0.001918 0.023658 0.041854
#
#
# Mechanical properties :
#
#
# Convention : Reuss Voigt Hill
#
# Bulk Modulus (GPa) = 50.75044 62.96759 56.85902
# Shear Modulus (GPa) = 28.41681 41.41118 34.91399
#
# Velocity S-wave (km/s) = 3.25186 3.92557 3.60449
# Velocity P-wave (km/s) = 5.74325 6.63163 6.20337
#
# Compressibility (1/GPa) = 0.01970426
#
# Stress axis : x y z
#
# Youngs Moduli (GPa) = 60.35161 78.95836 87.30256
#
# Poissons Ratio (x) = 0.40004 -0.03158
# Poissons Ratio (y) = 0.30577 0.50528
# Poissons Ratio (z) = -0.02183 0.45698
#
# Static dielectric constant tensor:
#      x y z
#    x 2.276680 -0.052370 -0.043260 
#    y -0.052370 2.241050 -0.018350 
#    z -0.043260 -0.018350 2.074370 
# 
# From -- ./inp_files/461449.got.cif
#   From: 2010.05.17/outbox.cif.g08.bks.cpg/sg2_231_cif.got.tgz:461449.got - 2010.06.03 11:33:40.
