data_PCOD9097406
_publ_section_title
;
Structure prediction by ZEFSAII (Michael W. Deem and Ramdas Pophale) SiO2 
 PCOD9097406
Probable space group: P -1
;
_chemical_formula_sum "Si O2"
_cell_formula_units_Z 16
_cell_length_a 8.966144
_cell_length_b 20.014933
_cell_length_c 9.041362
_cell_angle_alpha 39.270239
_cell_angle_beta 52.177651
_cell_angle_gamma 71.995898
_cell_volume 765.452559
_symmetry_space_group_name_H-M "P -1"
_symmetry_group_IT_number 2
_symmetry_cell_setting 'triclinic'
loop_
_space_group_symop_operation_xyz
x,y,z
-x,-y,-z
loop_
_atom_site_type_symbol
_atom_site_label
_atom_site_fract_x
_atom_site_fract_y
_atom_site_fract_z
Si Si1 0.414308 0.318358 0.020227
Si Si2 0.812019 0.887955 0.275251
Si Si3 0.904371 0.596828 0.872528
Si Si4 0.171522 0.616981 0.169502
Si Si5 0.456369 0.810892 0.079797
Si Si6 0.954258 0.251166 0.746173
Si Si7 0.436136 0.955783 0.278592
Si Si8 0.225285 0.737740 0.642256
O O1 0.271066 0.207223 0.384395
O O2 0.318845 0.416975 0.919753
O O3 0.625595 0.365297 0.894546
O O4 0.450740 0.270779 0.921730
O O5 0.619090 0.920483 0.292171
O O6 0.904473 0.824238 0.208683
O O7 0.000000 0.000000 0.000000
O O8 0.941461 0.642168 0.605588
O O9 0.025523 0.695397 0.741649
O O10 0.000000 0.500000 0.000000
O O11 0.087562 0.707821 0.140567
O O12 0.000000 0.500000 0.500000
O O13 0.225274 0.642620 0.921433
O O14 0.257106 0.806692 0.112994
O O15 0.390501 0.766941 0.361386
O O16 0.587354 0.941818 0.788861
O O17 0.253199 0.845408 0.542730
O O18 0.500000 0.000000 0.000000
#
# Coordination Sequence:
#
# PCOD9097406 Si02
#       8
#     2   2   2   2   2   2   2   2
#     4  10  23  41  65  96 123 168 222 253 311 392
#     4  11  20  37  64  94 126 170 209 248 313 390
#     4  10  21  43  64  85 121 171 211 260 314 373
#     4  11  22  42  63  93 127 159 218 276 315 361
#     4   9  19  39  63  89 128 166 207 253 313 385
#     4   9  20  37  61  89 123 160 212 259 300 381
#     4  10  20  36  60  90 130 163 200 247 327 363
#     4  10  21  40  61  89 129 165 201 272 313 363
#
# _framework density 20.902667999999998
#
# number of rings (size 3 to 8) (size 9 to 14) (size 15 to 20)
#    0.000    2.000    2.500    0.750    1.750    1.500 
#    6.750   11.250    0.000    0.000    0.000    0.000 
#    0.000    0.000    0.000    0.000    0.000    0.000 
#
# Total GULP energy -89165.136727 kJ/mol
# GULP energy per Si atom -5572.821045 kJ/mol
# Density = 2.085509 g / cm^3
# Si number density = 20.902668 Si / 1000 Ang^3
#
#
#
# Elastic Constant Matrix: (Units=GPa)
#
#
# Indices 1 2 3 4 5 6 
#
# 1 48.9754 45.6882 25.4502 -1.5474 4.8239 -4.3279
# 2 45.6882 105.2619 39.1380 10.4966 3.3727 -7.7486
# 3 25.4502 39.1380 85.0763 -6.8937 -1.5675 12.0894
# 4 -1.5474 10.4966 -6.8937 26.0235 3.8420 0.5273
# 5 4.8239 3.3727 -1.5675 3.8420 29.7980 -5.1053
# 6 -4.3279 -7.7486 12.0894 0.5273 -5.1053 37.0153
#
#
#
# Elastic Compliance Matrix: (Units=1/GPa)
#
#
# Indices 1 2 3 4 5 6 
#
# 1 0.037821 -0.015533 -0.003819 0.008263 -0.005363 0.001560
# 2 -0.015533 0.019846 -0.006005 -0.010937 0.002177 0.004756
# 3 -0.003819 -0.006005 0.017278 0.006917 0.000040 -0.007440
# 4 0.008263 -0.010937 0.006917 0.046237 -0.006580 -0.005149
# 5 -0.005363 0.002177 0.000040 -0.006580 0.035864 0.004856
# 6 0.001560 0.004756 -0.007440 -0.005149 0.004856 0.031367
#
#
# Mechanical properties :
#
#
# Convention : Reuss Voigt Hill
#
# Bulk Modulus (GPa) = 41.27186 51.09626 46.18406
# Shear Modulus (GPa) = 20.22631 27.16983 23.69807
#
# Velocity S-wave (km/s) = 3.11407 3.60922 3.37075
# Velocity P-wave (km/s) = 5.71993 6.47044 6.10672
#
# Compressibility (1/GPa) = 0.02422958
#
# Stress axis : x y z
#
# Youngs Moduli (GPa) = 26.44053 50.38854 57.87860
#
# Poissons Ratio (x) = 0.78268 0.22105
# Poissons Ratio (y) = 0.41070 0.34756
# Poissons Ratio (z) = 0.10098 0.30258
#
# Static dielectric constant tensor:
#      x y z
#    x 2.285830 0.312140 -0.716180 
#    y 0.312140 1.960630 -0.455350 
#    z -0.716180 -0.455350 2.746600 
# 
# From -- ./inp_files/223003.got.cif
#   From: 2010.05.17/outbox.cif.g08.bks.cpg/sg2_112_cif.got.tgz:223003.got - 2010.06.03 11:33:40.
