data_PCOD9097860
_publ_section_title
;
Structure prediction by ZEFSAII (Michael W. Deem and Ramdas Pophale) SiO2 
 PCOD9097860
Probable space group: P -1
;
_chemical_formula_sum "Si O2"
_cell_formula_units_Z 16
_cell_length_a 5.333047
_cell_length_b 11.331858
_cell_length_c 12.576578
_cell_angle_alpha 107.501549
_cell_angle_beta 82.564472
_cell_angle_gamma 78.554625
_cell_volume 695.759345
_symmetry_space_group_name_H-M "P -1"
_symmetry_group_IT_number 2
_symmetry_cell_setting 'triclinic'
loop_
_space_group_symop_operation_xyz
x,y,z
-x,-y,-z
loop_
_atom_site_type_symbol
_atom_site_label
_atom_site_fract_x
_atom_site_fract_y
_atom_site_fract_z
Si Si1 0.889830 0.654833 0.534437
Si Si2 0.699621 0.245982 0.322689
Si Si3 0.949301 0.342004 0.706248
Si Si4 0.672676 0.193123 0.838472
Si Si5 0.765719 0.552194 0.105043
Si Si6 0.407162 0.996096 0.822134
Si Si7 0.452982 0.404650 0.183045
Si Si8 0.372918 0.174837 0.039048
O O1 0.582070 0.698752 0.589807
O O2 0.000000 0.500000 0.500000
O O3 0.062809 0.718663 0.620560
O O4 0.931950 0.701783 0.425924
O O5 0.733289 0.094825 0.258801
O O6 0.646002 0.318644 0.232652
O O7 0.882347 0.239548 0.766160
O O8 0.695297 0.457766 0.726261
O O9 0.129191 0.416769 0.778655
O O10 0.424954 0.314199 0.877947
O O11 0.585566 0.068998 0.764860
O O12 0.651325 0.166745 0.959841
O O13 0.610693 0.444542 0.089664
O O14 0.000000 0.500000 0.000000
O O15 0.581510 0.906071 0.877663
O O16 0.236302 0.108836 0.937821
O O17 0.270073 0.318895 0.123714
#
# Coordination Sequence:
#
# PCOD9097860 Si02
#       8
#     2   2   2   2   2   2   2   2
#     4  12  25  43  69  96 129 167 216 273 326 370
#     4  11  24  44  69  97 126 168 218 271 318 379
#     4  11  23  36  60  90 127 167 208 268 323 380
#     4   9  19  38  59  84 129 165 205 260 313 388
#     4  11  22  34  57  96 127 167 211 257 327 386
#     4   8  18  39  64  90 124 167 212 257 319 383
#     4  10  20  36  62  90 129 161 210 263 325 383
#     4   8  15  35  65  86 122 166 204 260 322 382
#
# _framework density 22.996456999999999
#
# number of rings (size 3 to 8) (size 9 to 14) (size 15 to 20)
#    0.750    1.250    1.250    2.625    3.500    2.000 
#    2.250    1.250    0.000    6.000    0.000    0.000 
#    0.000    0.000    0.000    0.000    0.000    0.000 
#
# Total GULP energy -89171.215450 kJ/mol
# GULP energy per Si atom -5573.200966 kJ/mol
# Density = 2.294412 g / cm^3
# Si number density = 22.996457 Si / 1000 Ang^3
#
#
#
# Elastic Constant Matrix: (Units=GPa)
#
#
# Indices 1 2 3 4 5 6 
#
# 1 61.3523 23.8857 12.6748 1.9488 -7.7008 6.9153
# 2 23.8857 137.2814 31.7577 -5.6483 0.8206 40.9997
# 3 12.6748 31.7577 86.3544 -5.0575 0.6487 7.5066
# 4 1.9488 -5.6483 -5.0575 32.0198 13.1796 9.8425
# 5 -7.7008 0.8206 0.6487 13.1796 34.4914 2.5054
# 6 6.9153 40.9997 7.5066 9.8425 2.5054 16.4730
#
#
#
# Elastic Compliance Matrix: (Units=1/GPa)
#
#
# Indices 1 2 3 4 5 6 
#
# 1 0.013080 0.045318 -0.002198 0.056502 -0.008833 -0.149698
# 2 0.045318 -0.401781 -0.000416 -0.515298 0.124327 1.270139
# 3 -0.002198 -0.000416 0.012942 0.005030 -0.002165 -0.006616
# 4 0.056502 -0.515298 0.005030 -0.613300 0.142820 1.601238
# 5 -0.008833 0.124327 -0.002165 0.142820 -0.002159 -0.389748
# 6 -0.149698 1.270139 -0.006616 1.601238 -0.389748 -3.932142
#
#
# Mechanical properties :
#
#
# Convention : Reuss Voigt Hill
#
# Bulk Modulus (GPa) = -3.44411 46.84717 21.70153
# Shear Modulus (GPa) = -0.97933 31.04149 15.03108
#
# Velocity S-wave (km/s) = -0.65329 3.67800 2.55938
# Velocity P-wave (km/s) = 1.43874 6.20102 4.26513
#
# Compressibility (1/GPa) = -0.29035061
#
# Stress axis : x y z
#
# Youngs Moduli (GPa) = 76.45416 -2.48892 77.27053
#
# Poissons Ratio (x) = 0.11279 0.16981
# Poissons Ratio (y) = -3.46475 0.03212
# Poissons Ratio (z) = 0.16802 -0.00103
#
# Static dielectric constant tensor:
#      x y z
#    x 1.917560 -0.017730 0.001670 
#    y -0.017730 1.955880 0.006210 
#    z 0.001670 0.006210 1.882520 
# 
# From -- ./inp_files/364741.got.cif
#   From: 2010.05.17/outbox.cif.g08.bks.cpg/sg2_183_cif.got.tgz:364741.got - 2010.06.03 11:33:40.
