data_PCOD9097977
_publ_section_title
;
Structure prediction by ZEFSAII (Michael W. Deem and Ramdas Pophale) SiO2 
 PCOD9097977
Probable space group: P -1
;
_chemical_formula_sum "Si O2"
_cell_formula_units_Z 14
_cell_length_a 12.229145
_cell_length_b 10.944046
_cell_length_c 12.300121
_cell_angle_alpha 65.100845
_cell_angle_beta 155.904860
_cell_angle_gamma 104.776071
_cell_volume 571.232445
_symmetry_space_group_name_H-M "P -1"
_symmetry_group_IT_number 2
_symmetry_cell_setting 'triclinic'
loop_
_space_group_symop_operation_xyz
x,y,z
-x,-y,-z
loop_
_atom_site_type_symbol
_atom_site_label
_atom_site_fract_x
_atom_site_fract_y
_atom_site_fract_z
Si Si1 0.186433 0.987203 0.875952
Si Si2 0.082711 0.084360 0.140024
Si Si3 0.464334 0.212223 0.327279
Si Si4 0.552883 0.286283 0.916634
Si Si5 0.933107 0.618920 0.723683
Si Si6 0.459561 0.808975 0.826968
Si Si7 0.387321 0.390108 0.371061
O O1 0.126318 0.893066 0.956091
O O2 0.380826 0.875883 0.006932
O O3 0.875356 0.088815 0.512558
O O4 0.344554 0.092628 0.021290
O O5 0.184740 0.204564 0.135600
O O6 0.365674 0.954030 0.485965
O O7 0.000000 0.000000 0.000000
O O8 0.457024 0.279816 0.177242
O O9 0.597928 0.280817 0.518157
O O10 0.287522 0.388758 0.566461
O O11 0.848897 0.311560 0.152584
O O12 0.486158 0.291028 0.980742
O O13 0.728616 0.692829 0.611957
O O14 0.142876 0.481938 0.030561
O O15 0.500000 0.500000 0.500000
#
# Coordination Sequence:
#
# PCOD9097977 Si02
#       7
#     2   2   2   2   2   2   2
#     4  11  22  38  63  96 135 175 215 261 325 389
#     4  10  20  36  62  98 133 165 215 258 340 390
#     4  10  23  40  64  95 135 171 209 276 328 392
#     4  12  23  41  68  93 136 172 219 267 311 398
#     4  11  25  43  67  97 120 168 227 269 331 371
#     4  11  23  42  60 100 133 176 215 256 332 396
#     4  11  24  47  69  95 128 167 227 280 332 377
#
# _framework density 24.508412
#
# number of rings (size 3 to 8) (size 9 to 14) (size 15 to 20)
#    0.000    1.143    2.857    3.429    2.000    2.286 
#    0.000    1.429    0.000    0.000    0.000    0.000 
#    0.000    0.000    0.000    0.000    0.000    0.000 
#
# Total GULP energy -78194.159411 kJ/mol
# GULP energy per Si atom -5585.297101 kJ/mol
# Density = 2.445263 g / cm^3
# Si number density = 24.508412 Si / 1000 Ang^3
#
#
#
# Elastic Constant Matrix: (Units=GPa)
#
#
# Indices 1 2 3 4 5 6 
#
# 1 188.8536 45.6330 30.9341 15.6988 -37.3075 3.6783
# 2 45.6330 75.1438 14.1353 16.0795 5.6179 -3.9472
# 3 30.9341 14.1353 134.9533 12.1712 -0.5492 6.2022
# 4 15.6988 16.0795 12.1712 32.7940 1.0879 4.6857
# 5 -37.3075 5.6179 -0.5492 1.0879 38.6828 3.8096
# 6 3.6783 -3.9472 6.2022 4.6857 3.8096 29.3816
#
#
#
# Elastic Compliance Matrix: (Units=1/GPa)
#
#
# Indices 1 2 3 4 5 6 
#
# 1 0.008989 -0.005927 -0.001192 -0.000880 0.009814 -0.002802
# 2 -0.005927 0.019456 -0.000338 -0.007098 -0.008910 0.005714
# 3 -0.001192 -0.000338 0.007950 -0.002024 -0.000817 -0.001146
# 4 -0.000880 -0.007098 -0.002024 0.036030 -0.000256 -0.006129
# 5 0.009814 -0.008910 -0.000817 -0.000256 0.037300 -0.007049
# 6 -0.002802 0.005714 -0.001146 -0.006129 -0.007049 0.037287
#
#
# Mechanical properties :
#
#
# Convention : Reuss Voigt Hill
#
# Bulk Modulus (GPa) = 46.55132 64.48395 55.51764
# Shear Modulus (GPa) = 29.57073 40.72155 35.14614
#
# Velocity S-wave (km/s) = 3.47732 4.08061 3.79099
# Velocity P-wave (km/s) = 5.92938 6.96921 6.47022
#
# Compressibility (1/GPa) = 0.02148167
#
# Stress axis : x y z
#
# Youngs Moduli (GPa) = 111.24789 51.39817 125.78067
#
# Poissons Ratio (x) = 0.30465 0.14987
# Poissons Ratio (y) = 0.65940 0.04251
# Poissons Ratio (z) = 0.13256 0.01737
#
# Static dielectric constant tensor:
#      x y z
#    x 2.009330 -0.038230 0.035950 
#    y -0.038230 2.033880 -0.079880 
#    z 0.035950 -0.079880 2.132590 
# 
# From -- ./inp_files/421221.got.cif
#   From: 2010.05.17/outbox.cif.g08.bks.cpg/sg2_211_cif.got.tgz:421221.got - 2010.06.03 11:33:40.
