data_PCOD9097382
_publ_section_title
;
Structure prediction by ZEFSAII (Michael W. Deem and Ramdas Pophale) SiO2 
 PCOD9097382
Probable space group: P -1
;
_chemical_formula_sum "Si O2"
_cell_formula_units_Z 15
_cell_length_a 8.633636
_cell_length_b 5.898538
_cell_length_c 17.958204
_cell_angle_alpha 124.297711
_cell_angle_beta 122.037528
_cell_angle_gamma 55.782457
_cell_volume 593.417703
_symmetry_space_group_name_H-M "P -1"
_symmetry_group_IT_number 2
_symmetry_cell_setting 'triclinic'
loop_
_space_group_symop_operation_xyz
x,y,z
-x,-y,-z
loop_
_atom_site_type_symbol
_atom_site_label
_atom_site_fract_x
_atom_site_fract_y
_atom_site_fract_z
Si Si1 0.332617 0.799837 0.068185
Si Si2 0.715108 0.934092 0.508086
Si Si3 0.500000 0.000000 0.000000
Si Si4 0.883401 0.272517 0.355353
Si Si5 0.570259 0.530258 0.216693
Si Si6 0.263018 0.411049 0.225866
Si Si7 0.905220 0.596600 0.075571
Si Si8 0.585338 0.159479 0.366001
O O1 0.487593 0.549543 0.115606
O O2 0.246808 0.090648 0.151596
O O3 0.181571 0.656434 0.975889
O O4 0.430195 0.907883 0.046668
O O5 0.809232 0.604080 0.434413
O O6 0.885623 0.908832 0.606325
O O7 0.500000 0.000000 0.500000
O O8 0.673758 0.161476 0.470361
O O9 0.276436 0.106077 0.930686
O O10 0.793001 0.336705 0.261707
O O11 0.755342 0.130547 0.344472
O O12 0.419100 0.442939 0.212017
O O13 0.545331 0.859695 0.294594
O O14 0.378118 0.408286 0.331730
O O15 0.050703 0.622307 0.181241
O O16 0.000000 0.500000 0.000000
#
# Coordination Sequence:
#
# PCOD9097382 Si02
#       8
#     2   2   1   2   2   2   2   2
#     4  11  21  39  61  88 120 156 203 252 297 357
#     4  10  20  36  60  90 118 147 193 239 288 354
#     4  12  26  36  56  88 118 152 200 248 296 364
#     4   9  19  37  60  85 117 158 189 237 295 344
#     4   9  18  36  62  86 116 158 204 236 295 352
#     4  10  20  37  65  86 113 162 199 247 301 349
#     4  12  23  40  63  87 117 159 202 251 305 349
#     4   9  19  35  61  84 118 156 194 238 292 354
#
# _framework density 25.277304000000001
#
# number of rings (size 3 to 8) (size 9 to 14) (size 15 to 20)
#    0.000    1.867    2.667    1.200    0.000    0.533 
#    2.400    0.000   29.333    0.000    0.000    0.000 
#    0.000    0.000    0.000    0.000    0.000    0.000 
#
# Total GULP energy -83573.533338 kJ/mol
# GULP energy per Si atom -5571.568889 kJ/mol
# Density = 2.521977 g / cm^3
# Si number density = 25.277304 Si / 1000 Ang^3
#
#
#
# Elastic Constant Matrix: (Units=GPa)
#
#
# Indices 1 2 3 4 5 6 
#
# 1 77.8256 27.1295 47.0612 -37.0100 20.1952 5.6971
# 2 27.1295 93.7033 68.2618 -48.9689 16.6224 -16.1282
# 3 47.0612 68.2618 185.0769 -57.5473 32.6674 -14.5857
# 4 -37.0100 -48.9689 -57.5473 77.7855 -16.0406 11.6364
# 5 20.1952 16.6224 32.6674 -16.0406 37.9157 -16.6516
# 6 5.6971 -16.1282 -14.5857 11.6364 -16.6516 42.6021
#
#
#
# Elastic Compliance Matrix: (Units=1/GPa)
#
#
# Indices 1 2 3 4 5 6 
#
# 1 0.021287 -0.000756 -0.001624 0.007735 -0.010725 -0.009993
# 2 -0.000756 0.018446 -0.003996 0.007881 0.000794 0.003874
# 3 -0.001624 -0.003996 0.008719 0.002397 -0.004138 -0.000582
# 4 0.007735 0.007881 0.002397 0.023593 -0.001536 -0.004275
# 5 -0.010725 0.000794 -0.004138 -0.001536 0.042226 0.017242
# 6 -0.009993 0.003874 -0.000582 -0.004275 0.017242 0.033984
#
#
# Mechanical properties :
#
#
# Convention : Reuss Voigt Hill
#
# Bulk Modulus (GPa) = 28.00909 71.27895 49.64402
# Shear Modulus (GPa) = 28.91727 45.93756 37.42741
#
# Velocity S-wave (km/s) = 3.38598 4.26766 3.85213
# Velocity P-wave (km/s) = 5.13724 7.24872 6.28232
#
# Compressibility (1/GPa) = 0.03570270
#
# Stress axis : x y z
#
# Youngs Moduli (GPa) = 46.97625 54.21192 114.68693
#
# Poissons Ratio (x) = 0.04097 0.18622
# Poissons Ratio (y) = 0.03550 0.45824
# Poissons Ratio (z) = 0.07628 0.21661
#
# Static dielectric constant tensor:
#      x y z
#    x 1.907530 -0.247660 -0.204330 
#    y -0.247660 -1.302340 -2.656500 
#    z -0.204330 -2.656500 -0.049880 
# 
# From -- ./inp_files/54578.got.cif
#   From: 2010.05.17/outbox.cif.g08.bks.cpg/sg2_28_cif.got.tgz:54578.got - 2010.06.03 11:33:40.
