data_PCOD9097898
_publ_section_title
;
Structure prediction by ZEFSAII (Michael W. Deem and Ramdas Pophale) SiO2 
 PCOD9097898
Probable space group: P -1
;
_chemical_formula_sum "Si O2"
_cell_formula_units_Z 14
_cell_length_a 14.686486
_cell_length_b 8.030795
_cell_length_c 14.475360
_cell_angle_alpha 127.634283
_cell_angle_beta 27.633221
_cell_angle_gamma 112.078193
_cell_volume 560.171132
_symmetry_space_group_name_H-M "P -1"
_symmetry_group_IT_number 2
_symmetry_cell_setting 'triclinic'
loop_
_space_group_symop_operation_xyz
x,y,z
-x,-y,-z
loop_
_atom_site_type_symbol
_atom_site_label
_atom_site_fract_x
_atom_site_fract_y
_atom_site_fract_z
Si Si1 0.294705 0.829176 0.010666
Si Si2 0.605671 0.728767 0.971711
Si Si3 0.021114 0.519927 0.879419
Si Si4 0.289002 0.746768 0.777679
Si Si5 0.759069 0.540903 0.583332
Si Si6 0.852569 0.892507 0.506001
Si Si7 0.216783 0.243721 0.992058
O O1 0.090314 0.879316 0.277371
O O2 0.337148 0.055952 0.032519
O O3 0.227918 0.779692 0.952260
O O4 0.523884 0.624364 0.773393
O O5 0.727706 0.534951 0.718816
O O6 0.672439 0.672811 0.998812
O O7 0.344430 0.848614 0.234009
O O8 0.812093 0.627149 0.035672
O O9 0.118285 0.709068 0.853163
O O10 0.169803 0.267137 0.613158
O O11 0.000000 0.500000 0.000000
O O12 0.500000 0.500000 0.500000
O O13 0.331908 0.964719 0.784104
O O14 0.823223 0.751267 0.570958
O O15 0.968712 0.317727 0.279441
#
# Coordination Sequence:
#
# PCOD9097898 Si02
#       7
#     2   2   2   2   2   2   2
#     4  10  20  36  62  92 125 165 216 261 311 379
#     4  10  21  38  61  91 125 170 210 262 319 375
#     4  11  21  38  62  90 124 166 206 260 322 371
#     4  11  21  39  64  89 123 171 213 258 321 380
#     4  10  21  38  63  89 125 169 212 260 322 372
#     4  10  20  38  61  93 128 162 218 262 308 385
#     4  10  22  40  63  92 129 165 215 263 315 389
#
# _framework density 24.992363000000001
#
# number of rings (size 3 to 8) (size 9 to 14) (size 15 to 20)
#    0.000    1.714    1.429    6.000    0.000    2.286 
#    0.000    8.571    0.000    8.571    0.000    0.000 
#    0.000    0.000    0.000    0.000    0.000    0.000 
#
# Total GULP energy -78324.096529 kJ/mol
# GULP energy per Si atom -5594.578324 kJ/mol
# Density = 2.493548 g / cm^3
# Si number density = 24.992363 Si / 1000 Ang^3
#
#
#
# Elastic Constant Matrix: (Units=GPa)
#
#
# Indices 1 2 3 4 5 6 
#
# 1 115.1590 28.6267 22.0712 10.2814 8.2621 -12.4712
# 2 28.6267 76.8802 22.9401 -7.0948 0.2388 -5.3589
# 3 22.0712 22.9401 89.7819 -5.9964 -4.8024 -6.9658
# 4 10.2814 -7.0948 -5.9964 25.8447 8.7721 -5.7847
# 5 8.2621 0.2388 -4.8024 8.7721 48.3753 -3.3805
# 6 -12.4712 -5.3589 -6.9658 -5.7847 -3.3805 45.2620
#
#
#
# Elastic Compliance Matrix: (Units=1/GPa)
#
#
# Indices 1 2 3 4 5 6 
#
# 1 0.010671 -0.003756 -0.001939 -0.005065 -0.000975 0.001477
# 2 -0.003756 0.015810 -0.002687 0.005680 -0.000656 0.001100
# 3 -0.001939 -0.002687 0.012681 0.002924 0.001182 0.001561
# 4 -0.005065 0.005680 0.002924 0.046451 -0.006936 0.005146
# 5 -0.000975 -0.000656 0.001182 -0.006936 0.022259 0.000612
# 6 0.001477 0.001100 0.001561 0.005146 0.000612 0.023574
#
#
# Mechanical properties :
#
#
# Convention : Reuss Voigt Hill
#
# Bulk Modulus (GPa) = 44.64660 47.67746 46.16203
# Shear Modulus (GPa) = 32.11751 37.77528 34.94640
#
# Velocity S-wave (km/s) = 3.58871 3.89198 3.74342
# Velocity P-wave (km/s) = 5.92239 6.27016 6.09875
#
# Compressibility (1/GPa) = 0.02239812
#
# Stress axis : x y z
#
# Youngs Moduli (GPa) = 93.71059 63.24918 78.85806
#
# Poissons Ratio (x) = 0.23758 0.15294
# Poissons Ratio (y) = 0.35199 0.21187
# Poissons Ratio (z) = 0.18174 0.16993
#
# Static dielectric constant tensor:
#      x y z
#    x 2.080250 0.069190 0.001670 
#    y 0.069190 2.045090 -0.026980 
#    z 0.001670 -0.026980 1.973150 
# 
# From -- ./inp_files/315945.got.cif
#   From: 2010.05.17/outbox.cif.g08.bks.cpg/sg2_158_cif.got.tgz:315945.got - 2010.06.03 11:33:40.
