data_PCOD9097900
_publ_section_title
;
Structure prediction by ZEFSAII (Michael W. Deem and Ramdas Pophale) SiO2 
 PCOD9097900
Probable space group: P -1
;
_chemical_formula_sum "Si O2"
_cell_formula_units_Z 14
_cell_length_a 9.789500
_cell_length_b 12.244576
_cell_length_c 11.755788
_cell_angle_alpha 139.673608
_cell_angle_beta 40.769600
_cell_angle_gamma 140.394771
_cell_volume 529.709205
_symmetry_space_group_name_H-M "P -1"
_symmetry_group_IT_number 2
_symmetry_cell_setting 'triclinic'
loop_
_space_group_symop_operation_xyz
x,y,z
-x,-y,-z
loop_
_atom_site_type_symbol
_atom_site_label
_atom_site_fract_x
_atom_site_fract_y
_atom_site_fract_z
Si Si1 0.283148 0.128775 0.436984
Si Si2 0.302519 0.017553 0.567828
Si Si3 0.768498 0.527753 0.277124
Si Si4 0.941034 0.402430 0.635201
Si Si5 0.765731 0.187544 0.928625
Si Si6 0.867560 0.029117 0.971665
Si Si7 0.142970 0.320022 0.211481
O O1 0.346026 0.334232 0.511435
O O2 0.372250 0.163991 0.537824
O O3 0.366216 0.990565 0.212779
O O4 0.000000 0.000000 0.500000
O O5 0.182082 0.814443 0.419228
O O6 0.500000 0.000000 0.500000
O O7 0.120316 0.042836 0.784486
O O8 0.889127 0.492253 0.284604
O O9 0.979472 0.667707 0.169737
O O10 0.646271 0.324998 0.132093
O O11 0.771379 0.492857 0.773985
O O12 0.075908 0.386434 0.424717
O O13 0.802204 0.095112 0.947600
O O14 0.921857 0.176317 0.158070
O O15 0.738095 0.813742 0.933049
#
# Coordination Sequence:
#
# PCOD9097900 Si02
#       7
#     2   2   2   2   2   2   2
#     4  10  16  31  49  75 105 133 172 212 271 309
#     4  11  21  33  51  75 115 145 164 216 277 327
#     4  10  17  27  52  79 106 127 170 235 264 308
#     4  10  17  33  49  79 108 132 182 211 270 312
#     4  10  17  27  52  79 106 127 170 235 264 308
#     4  10  17  33  49  79 108 132 182 211 270 312
#     4   9  19  28  52  74 106 142 168 230 250 299
#
# _framework density 26.429597000000001
#
# number of rings (size 3 to 8) (size 9 to 14) (size 15 to 20)
#    0.000    2.000    7.143    0.857    0.000    0.000 
#    0.000    0.714    0.000    0.000    0.000   32.000 
#    0.000    0.000    0.000    0.000    0.000    0.000 
#
# Total GULP energy -78147.190768 kJ/mol
# GULP energy per Si atom -5581.942198 kJ/mol
# Density = 2.636944 g / cm^3
# Si number density = 26.429597 Si / 1000 Ang^3
#
#
#
# Elastic Constant Matrix: (Units=GPa)
#
#
# Indices 1 2 3 4 5 6 
#
# 1 85.4491 29.8631 10.4282 -28.9245 12.3692 -36.5307
# 2 29.8631 86.4986 35.1993 8.1784 -6.2170 -40.4850
# 3 10.4282 35.1993 125.1354 7.9741 -7.6386 -11.3756
# 4 -28.9245 8.1784 7.9741 37.3551 -10.2518 -6.5870
# 5 12.3692 -6.2170 -7.6386 -10.2518 41.5744 -4.8276
# 6 -36.5307 -40.4850 -11.3756 -6.5870 -4.8276 53.7797
#
#
#
# Elastic Compliance Matrix: (Units=1/GPa)
#
#
# Indices 1 2 3 4 5 6 
#
# 1 0.034184 -0.002367 -0.001953 0.031751 -0.000163 0.024900
# 2 -0.002367 0.020710 -0.004044 -0.002045 0.004092 0.013244
# 3 -0.001953 -0.004044 0.009270 -0.002905 0.000649 -0.002707
# 4 0.031751 -0.002045 -0.002905 0.059308 0.007515 0.027352
# 5 -0.000163 0.004092 0.000649 0.007515 0.027439 0.006490
# 6 0.024900 0.013244 -0.002707 0.027352 0.006490 0.048838
#
#
# Mechanical properties :
#
#
# Convention : Reuss Voigt Hill
#
# Bulk Modulus (GPa) = 21.08054 49.78493 35.43274
# Shear Modulus (GPa) = 21.52482 41.31468 31.41975
#
# Velocity S-wave (km/s) = 2.85690 3.95802 3.45165
# Velocity P-wave (km/s) = 4.34465 6.30600 5.41487
#
# Compressibility (1/GPa) = 0.04743711
#
# Stress axis : x y z
#
# Youngs Moduli (GPa) = 29.25305 48.28600 107.87214
#
# Poissons Ratio (x) = 0.11429 0.21064
# Poissons Ratio (y) = 0.06924 0.43626
# Poissons Ratio (z) = 0.05712 0.19528
#
# Static dielectric constant tensor:
#      x y z
#    x 2.082180 0.049080 -0.023470 
#    y 0.049080 2.146430 0.018590 
#    z -0.023470 0.018590 2.239720 
# 
# From -- ./inp_files/168746.got.cif
#   From: 2010.05.17/outbox.cif.g08.bks.cpg/sg2_85_cif.got.tgz:168746.got - 2010.06.03 11:33:40.
