data_PCOD9097762
_publ_section_title
;
Structure prediction by ZEFSAII (Michael W. Deem and Ramdas Pophale) SiO2 
 PCOD9097762
Probable space group: P -1
;
_chemical_formula_sum "Si O2"
_cell_formula_units_Z 14
_cell_length_a 9.055647
_cell_length_b 8.489315
_cell_length_c 8.633435
_cell_angle_alpha 112.163958
_cell_angle_beta 63.034796
_cell_angle_gamma 111.772821
_cell_volume 531.536973
_symmetry_space_group_name_H-M "P -1"
_symmetry_group_IT_number 2
_symmetry_cell_setting 'triclinic'
loop_
_space_group_symop_operation_xyz
x,y,z
-x,-y,-z
loop_
_atom_site_type_symbol
_atom_site_label
_atom_site_fract_x
_atom_site_fract_y
_atom_site_fract_z
Si Si1 0.601437 0.438926 0.101630
Si Si2 0.158917 0.380535 0.208146
Si Si3 0.343537 0.102978 0.128534
Si Si4 0.441579 0.122526 0.445213
Si Si5 0.159786 0.323906 0.725037
Si Si6 0.292754 0.550189 0.471241
Si Si7 0.910649 0.147243 0.025400
O O1 0.519304 0.236125 0.036859
O O2 0.771058 0.497082 0.144632
O O3 0.458085 0.494059 0.297258
O O4 0.678116 0.557362 0.961955
O O5 0.201614 0.218163 0.220994
O O6 0.179315 0.549777 0.371758
O O7 0.984881 0.305602 0.170064
O O8 0.370673 0.065557 0.284057
O O9 0.277970 0.955891 0.973552
O O10 0.291514 0.198072 0.623608
O O11 0.612568 0.281152 0.415569
O O12 0.500000 0.000000 0.500000
O O13 0.181039 0.398326 0.572112
O O14 0.990726 0.217754 0.846900
O O15 0.000000 0.000000 0.000000
#
# Coordination Sequence:
#
# PCOD9097762 Si02
#       7
#     2   2   2   2   2   2   2
#     4   9  15  28  52  79 103 132 170 224 264 306
#     4   9  17  29  53  80 105 134 170 225 267 312
#     4  10  16  31  48  79 110 131 170 218 270 307
#     4  11  21  32  51  82 115 141 173 221 264 308
#     4  10  17  33  56  81 103 140 178 222 262 312
#     4  10  16  31  54  79 100 132 186 225 249 308
#     4   9  20  32  51  86 111 130 167 233 282 307
#
# _framework density 26.338716000000002
#
# number of rings (size 3 to 8) (size 9 to 14) (size 15 to 20)
#    0.000    2.286    4.286    2.571    0.000    1.714 
#    0.000    0.000    0.000   23.143    0.000    0.000 
#    0.000    0.000    0.000    0.000    0.000    0.000 
#
# Total GULP energy -78014.264564 kJ/mol
# GULP energy per Si atom -5572.447469 kJ/mol
# Density = 2.627877 g / cm^3
# Si number density = 26.338716 Si / 1000 Ang^3
#
#
#
# Elastic Constant Matrix: (Units=GPa)
#
#
# Indices 1 2 3 4 5 6 
#
# 1 143.8306 58.4189 40.9191 15.3883 26.1886 -1.9270
# 2 58.4189 91.1587 47.2407 -4.1959 20.3115 16.2955
# 3 40.9191 47.2407 96.5615 -2.8119 38.9146 -1.7156
# 4 15.3883 -4.1959 -2.8119 50.1903 7.1728 18.6168
# 5 26.1886 20.3115 38.9146 7.1728 57.1960 6.1113
# 6 -1.9270 16.2955 -1.7156 18.6168 6.1113 54.5449
#
#
#
# Elastic Compliance Matrix: (Units=1/GPa)
#
#
# Indices 1 2 3 4 5 6 
#
# 1 0.011185 -0.007722 -0.000213 -0.005586 -0.002050 0.004832
# 2 -0.007722 0.021738 -0.007843 0.007118 0.001284 -0.009587
# 3 -0.000213 -0.007843 0.018455 0.000447 -0.010146 0.003901
# 4 -0.005586 0.007118 0.000447 0.026747 -0.002435 -0.011166
# 5 -0.002050 0.001284 -0.010146 -0.002435 0.025474 -0.002798
# 6 0.004832 -0.009587 0.003901 -0.011166 -0.002798 0.025616
#
#
# Mechanical properties :
#
#
# Convention : Reuss Voigt Hill
#
# Bulk Modulus (GPa) = 50.44771 69.41202 59.92986
# Shear Modulus (GPa) = 29.87258 44.71771 37.29514
#
# Velocity S-wave (km/s) = 3.37140 4.12490 3.76704
# Velocity P-wave (km/s) = 5.86090 7.00694 6.45939
#
# Compressibility (1/GPa) = 0.01982251
#
# Stress axis : x y z
#
# Youngs Moduli (GPa) = 89.40450 46.00166 54.18700
#
# Poissons Ratio (x) = 0.35521 0.01152
# Poissons Ratio (y) = 0.69036 0.42501
# Poissons Ratio (z) = 0.01901 0.36081
#
# Static dielectric constant tensor:
#      x y z
#    x 2.236440 -0.148040 0.071120 
#    y -0.148040 2.262710 0.052390 
#    z 0.071120 0.052390 2.128180 
# 
# From -- ./inp_files/159124.got.cif
#   From: 2010.05.17/outbox.cif.g08.bks.cpg/sg2_80_cif.got.tgz:159124.got - 2010.06.03 11:33:40.
