data_PCOD9097611
_publ_section_title
;
Structure prediction by ZEFSAII (Michael W. Deem and Ramdas Pophale) SiO2 
 PCOD9097611
Probable space group: P -1
;
_chemical_formula_sum "Si O2"
_cell_formula_units_Z 16
_cell_length_a 12.463861
_cell_length_b 16.565398
_cell_length_c 8.219131
_cell_angle_alpha 130.924205
_cell_angle_beta 110.104337
_cell_angle_gamma 34.238899
_cell_volume 638.576719
_symmetry_space_group_name_H-M "P -1"
_symmetry_group_IT_number 2
_symmetry_cell_setting 'triclinic'
loop_
_space_group_symop_operation_xyz
x,y,z
-x,-y,-z
loop_
_atom_site_type_symbol
_atom_site_label
_atom_site_fract_x
_atom_site_fract_y
_atom_site_fract_z
Si Si1 0.851297 0.741886 0.254789
Si Si2 0.734293 0.281871 0.897893
Si Si3 0.591009 0.167175 0.700438
Si Si4 0.340852 0.560484 0.605901
Si Si5 0.497383 0.221152 0.378805
Si Si6 0.465232 0.177444 0.957449
Si Si7 0.961177 0.713035 0.599855
Si Si8 0.020161 0.257851 0.984780
O O1 0.675999 0.796607 0.176701
O O2 0.955674 0.634579 0.342605
O O3 0.001598 0.647305 0.054795
O O4 0.733266 0.948364 0.494551
O O5 0.738358 0.151517 0.707324
O O6 0.890669 0.250675 0.874696
O O7 0.500000 0.500000 0.000000
O O8 0.749586 0.288800 0.106906
O O9 0.433286 0.272300 0.603239
O O10 0.485318 0.260231 0.948301
O O11 0.500000 0.500000 0.500000
O O12 0.486430 0.353204 0.493292
O O13 0.130168 0.669260 0.567831
O O14 0.731155 0.979669 0.188707
O O15 0.386699 0.256462 0.207392
O O16 0.711268 0.942874 0.795341
O O17 0.031799 0.647250 0.740361
#
# Coordination Sequence:
#
# PCOD9097611 Si02
#       8
#     2   2   2   2   2   2   2   2
#     4  10  21  38  67  89 116 160 204 252 294 348
#     4  11  22  39  60  87 123 157 195 248 302 356
#     4  10  20  36  61  90 116 156 200 243 295 355
#     4  11  23  38  59  88 125 164 193 247 304 356
#     4  10  21  38  58  88 120 155 203 244 295 359
#     4  10  21  40  64  89 118 158 206 251 294 347
#     4   9  20  37  58  87 120 154 201 244 299 353
#     4   9  22  38  61  89 118 156 205 245 298 358
#
# _framework density 25.055723
#
# number of rings (size 3 to 8) (size 9 to 14) (size 15 to 20)
#    0.000    2.000    1.250    2.250    1.750    9.500 
#    0.000    8.125    2.750    8.250    0.000    0.000 
#    0.000    0.000    0.000    0.000    0.000    0.000 
#
# Total GULP energy -89225.407252 kJ/mol
# GULP energy per Si atom -5576.587953 kJ/mol
# Density = 2.499869 g / cm^3
# Si number density = 25.055723 Si / 1000 Ang^3
#
#
#
# Elastic Constant Matrix: (Units=GPa)
#
#
# Indices 1 2 3 4 5 6 
#
# 1 59.2818 -6.2806 25.8192 -3.1533 -4.8492 -16.7093
# 2 -6.2806 102.1743 26.1020 -22.8484 4.3602 -11.0471
# 3 25.8192 26.1020 107.1370 -31.1292 -2.9085 -0.5503
# 4 -3.1533 -22.8484 -31.1292 43.8577 3.8009 7.3827
# 5 -4.8492 4.3602 -2.9085 3.8009 42.7128 -0.7997
# 6 -16.7093 -11.0471 -0.5503 7.3827 -0.7997 37.4776
#
#
#
# Elastic Compliance Matrix: (Units=1/GPa)
#
#
# Indices 1 2 3 4 5 6 
#
# 1 0.024260 0.003833 -0.007867 -0.004193 0.002438 0.012709
# 2 0.003833 0.012155 -0.002723 0.004039 -0.001268 0.004429
# 3 -0.007867 -0.002723 0.014584 0.009421 -0.000572 -0.005964
# 4 -0.004193 0.004039 0.009421 0.032766 -0.003295 -0.007065
# 5 0.002438 -0.001268 -0.000572 -0.003295 0.024108 0.001869
# 6 0.012709 0.004429 -0.005964 -0.007065 0.001869 0.034998
#
#
# Mechanical properties :
#
#
# Convention : Reuss Voigt Hill
#
# Bulk Modulus (GPa) = 26.67760 39.98604 33.33182
# Shear Modulus (GPa) = 29.60697 39.67312 34.64005
#
# Velocity S-wave (km/s) = 3.44124 3.98351 3.72226
# Velocity P-wave (km/s) = 5.14392 6.09518 5.63964
#
# Compressibility (1/GPa) = 0.03748463
#
# Stress axis : x y z
#
# Youngs Moduli (GPa) = 41.22080 82.27251 68.56658
#
# Poissons Ratio (x) = -0.31537 0.53943
# Poissons Ratio (y) = -0.15801 0.18671
# Poissons Ratio (z) = 0.32429 0.22404
#
# Static dielectric constant tensor:
#      x y z
#    x 1.998580 0.060050 -0.059860 
#    y 0.060050 1.491810 0.090830 
#    z -0.059860 0.090830 2.109540 
# 
# From -- ./inp_files/188708.got.cif
#   From: 2010.05.17/outbox.cif.g08.bks.cpg/sg2_95_cif.got.tgz:188708.got - 2010.06.03 11:33:40.
