data_PCOD9097939
_publ_section_title
;
Structure prediction by ZEFSAII (Michael W. Deem and Ramdas Pophale) SiO2 
 PCOD9097939
Probable space group: P -1
;
_chemical_formula_sum "Si O2"
_cell_formula_units_Z 15
_cell_length_a 13.491344
_cell_length_b 16.424943
_cell_length_c 12.806562
_cell_angle_alpha 144.138098
_cell_angle_beta 33.780250
_cell_angle_gamma 154.849347
_cell_volume 650.044213
_symmetry_space_group_name_H-M "P -1"
_symmetry_group_IT_number 2
_symmetry_cell_setting 'triclinic'
loop_
_space_group_symop_operation_xyz
x,y,z
-x,-y,-z
loop_
_atom_site_type_symbol
_atom_site_label
_atom_site_fract_x
_atom_site_fract_y
_atom_site_fract_z
Si Si1 0.905334 0.208766 0.761366
Si Si2 0.803372 0.919520 0.400630
Si Si3 0.079010 0.774673 0.002622
Si Si4 0.280779 0.305349 0.277879
Si Si5 0.500000 0.500000 0.500000
Si Si6 0.468521 0.852344 0.123100
Si Si7 0.699997 0.461121 0.655019
Si Si8 0.791214 0.397140 0.727143
O O1 0.821982 0.200672 0.942559
O O2 0.777108 0.243339 0.828358
O O3 0.208381 0.371214 0.660950
O O4 0.810145 0.003908 0.592639
O O5 0.527854 0.749990 0.417752
O O6 0.931105 0.838904 0.209605
O O7 0.990087 0.113702 0.364794
O O8 0.896851 0.557422 0.890702
O O9 0.308910 0.921820 0.873442
O O10 0.402190 0.467650 0.429983
O O11 0.314539 0.391814 0.225626
O O12 0.422845 0.238078 0.095313
O O13 0.404787 0.811344 0.258494
O O14 0.685214 0.429220 0.758079
O O15 0.970484 0.555308 0.476416
#
# Coordination Sequence:
#
# PCOD9097939 Si02
#       8
#     2   2   2   2   1   2   2   2
#     4  11  22  40  66  96 131 169 206 257 318 377
#     4  10  22  41  65  92 126 167 207 254 314 378
#     4  11  24  41  64  96 130 166 210 259 315 378
#     4  10  23  40  62  94 127 166 208 256 315 374
#     4  10  20  36  62  94 126 162 204 250 308 372
#     4  11  24  41  62  93 128 165 212 260 313 374
#     4  11  24  44  66  90 126 167 213 262 315 376
#     4  11  25  42  65  94 123 166 215 263 315 371
#
# _framework density 23.075354000000001
#
# number of rings (size 3 to 8) (size 9 to 14) (size 15 to 20)
#    0.000    1.333    0.000    5.600    0.000    8.533 
#    0.000    7.333    0.000    0.000    0.000    0.000 
#    0.000    0.000    0.000    0.000    0.000    0.000 
#
# Total GULP energy -83674.912161 kJ/mol
# GULP energy per Si atom -5578.327477 kJ/mol
# Density = 2.302283 g / cm^3
# Si number density = 23.075354 Si / 1000 Ang^3
#
#
#
# Elastic Constant Matrix: (Units=GPa)
#
#
# Indices 1 2 3 4 5 6 
#
# 1 66.7134 -3.1887 5.3927 -5.2224 -3.2830 -23.8085
# 2 -3.1887 46.6201 6.8185 -24.3289 -8.4327 -5.0740
# 3 5.3927 6.8185 55.1141 -3.0687 5.6756 -11.5767
# 4 -5.2224 -24.3289 -3.0687 39.2695 -7.7690 2.6465
# 5 -3.2830 -8.4327 5.6756 -7.7690 31.3663 -3.6776
# 6 -23.8085 -5.0740 -11.5767 2.6465 -3.6776 27.2055
#
#
#
# Elastic Compliance Matrix: (Units=1/GPa)
#
#
# Indices 1 2 3 4 5 6 
#
# 1 0.026696 0.013493 0.000730 0.012653 0.012549 0.026655
# 2 0.013493 0.048068 -0.003959 0.035116 0.025999 0.019187
# 3 0.000730 -0.003959 0.020629 -0.002150 -0.004279 0.008309
# 4 0.012653 0.035116 -0.002150 0.052866 0.026017 0.015082
# 5 0.012549 0.025999 -0.004279 0.026017 0.049534 0.018175
# 6 0.026655 0.019187 0.008309 0.015082 0.018175 0.068188
#
#
# Mechanical properties :
#
#
# Convention : Reuss Voigt Hill
#
# Bulk Modulus (GPa) = 8.62652 20.72140 14.67396
# Shear Modulus (GPa) = 17.59983 30.19661 23.89822
#
# Velocity S-wave (km/s) = 2.76472 3.62139 3.22166
# Velocity P-wave (km/s) = 3.73338 5.14639 4.49575
#
# Compressibility (1/GPa) = 0.11592157
#
# Stress axis : x y z
#
# Youngs Moduli (GPa) = 37.45856 20.80373 48.47588
#
# Poissons Ratio (x) = -0.28071 -0.03537
# Poissons Ratio (y) = -0.50544 0.19191
# Poissons Ratio (z) = -0.02733 0.08236
#
# Static dielectric constant tensor:
#      x y z
#    x 1.836730 -0.035720 -0.002140 
#    y -0.035720 1.885040 -0.012260 
#    z -0.002140 -0.012260 1.888020 
# 
# From -- ./inp_files/337637.got.cif
#   From: 2010.05.17/outbox.cif.g08.bks.cpg/sg2_169_cif.got.tgz:337637.got - 2010.06.03 11:33:40.
