data_PCOD9097051
_publ_section_title
;
Structure prediction by ZEFSAII (Michael W. Deem and Ramdas Pophale) SiO2 
 PCOD9097051
Probable space group: P -1
;
_chemical_formula_sum "Si O2"
_cell_formula_units_Z 15
_cell_length_a 23.892662
_cell_length_b 5.981125
_cell_length_c 20.796551
_cell_angle_alpha 116.707540
_cell_angle_beta 19.741733
_cell_angle_gamma 130.719408
_cell_volume 582.794805
_symmetry_space_group_name_H-M "P -1"
_symmetry_group_IT_number 2
_symmetry_cell_setting 'triclinic'
loop_
_space_group_symop_operation_xyz
x,y,z
-x,-y,-z
loop_
_atom_site_type_symbol
_atom_site_label
_atom_site_fract_x
_atom_site_fract_y
_atom_site_fract_z
Si Si1 0.665258 0.442968 0.386479
Si Si2 0.684453 0.367023 0.496843
Si Si3 0.844641 0.565995 0.799253
Si Si4 0.604201 0.367410 0.839294
Si Si5 0.912762 0.544385 0.866786
Si Si6 0.000000 0.500000 0.500000
Si Si7 0.722853 0.532916 0.196251
Si Si8 0.498233 0.346737 0.815779
O O1 0.785126 0.559473 0.342813
O O2 0.828266 0.647303 0.170476
O O3 0.471928 0.457628 0.597408
O O4 0.500000 0.000000 0.500000
O O5 0.613181 0.506027 0.641045
O O6 0.876703 0.412617 0.333732
O O7 0.440739 0.912580 0.687446
O O8 0.949475 0.689441 0.774416
O O9 0.043845 0.708613 0.548672
O O10 0.700021 0.660338 0.956194
O O11 0.626122 0.098514 0.968135
O O12 0.674745 0.506510 0.707370
O O13 0.830688 0.530568 0.658690
O O14 0.500000 0.500000 0.000000
O O15 0.887118 0.699726 0.975330
O O16 0.654196 0.088734 0.080745
#
# Coordination Sequence:
#
# PCOD9097051 Si02
#       8
#     2   2   2   2   2   1   2   2
#     4   9  18  35  58  84 116 157 191 241 301 345
#     4  10  20  36  59  85 115 156 198 242 297 356
#     4  11  24  42  61  90 122 158 204 251 308 364
#     4  11  24  44  62  90 123 156 203 255 305 367
#     4  10  22  38  59  87 117 157 199 245 298 361
#     4  12  24  40  66  90 116 162 200 248 314 366
#     4   9  19  37  57  82 120 152 194 245 294 353
#     4  10  22  41  60  85 123 155 196 254 299 357
#
# _framework density 25.738047999999999
#
# number of rings (size 3 to 8) (size 9 to 14) (size 15 to 20)
#    0.000    1.867    1.333    2.000    0.000    3.200 
#    0.000    6.000    0.000    0.000    0.000    0.000 
#    0.000    0.000    0.000    0.000    0.000    0.000 
#
# Total GULP energy -83720.443823 kJ/mol
# GULP energy per Si atom -5581.362922 kJ/mol
# Density = 2.567947 g / cm^3
# Si number density = 25.738048 Si / 1000 Ang^3
#
#
#
# Elastic Constant Matrix: (Units=GPa)
#
#
# Indices 1 2 3 4 5 6 
#
# 1 194.8569 42.3680 28.8214 18.1032 -8.2277 35.2046
# 2 42.3680 114.3419 23.4461 14.3671 29.2116 15.9798
# 3 28.8214 23.4461 48.7920 31.7576 6.7701 8.4289
# 4 18.1032 14.3671 31.7576 55.0982 -5.2404 12.0754
# 5 -8.2277 29.2116 6.7701 -5.2404 42.1912 9.8045
# 6 35.2046 15.9798 8.4289 12.0754 9.8045 45.1856
#
#
#
# Elastic Compliance Matrix: (Units=1/GPa)
#
#
# Indices 1 2 3 4 5 6 
#
# 1 0.007531 -0.002865 -0.004746 0.002900 0.005978 -0.006042
# 2 -0.002865 0.012820 -0.001577 -0.002586 -0.009686 0.000785
# 3 -0.004746 -0.001577 0.039480 -0.022904 -0.010229 0.005231
# 4 0.002900 -0.002586 -0.022904 0.034195 0.012344 -0.008889
# 5 0.005978 -0.009686 -0.010229 0.012344 0.037235 -0.010702
# 6 -0.006042 0.000785 0.005231 -0.008889 -0.010702 0.030282
#
#
# Mechanical properties :
#
#
# Convention : Reuss Voigt Hill
#
# Bulk Modulus (GPa) = 24.12161 60.80686 42.46424
# Shear Modulus (GPa) = 25.80820 46.05200 35.93010
#
# Velocity S-wave (km/s) = 3.17002 4.23455 3.74035
# Velocity P-wave (km/s) = 4.77399 6.89820 5.93195
#
# Compressibility (1/GPa) = 0.04145661
#
# Stress axis : x y z
#
# Youngs Moduli (GPa) = 132.77967 78.00186 25.32941
#
# Poissons Ratio (x) = 0.22346 0.12021
# Poissons Ratio (y) = 0.38039 0.03994
# Poissons Ratio (z) = 0.63013 0.12299
#
# Static dielectric constant tensor:
#      x y z
#    x 2.108890 -0.024170 0.154320 
#    y -0.024170 2.051120 -0.114540 
#    z 0.154320 -0.114540 2.082120 
# 
# From -- ./inp_files/8014.got.cif
#   From: 2010.05.17/outbox.cif.g08.bks.cpg/sg2_5_cif.got.tgz:8014.got - 2010.06.03 11:33:40.
