data_PCOD9097114
_publ_section_title
;
Structure prediction by ZEFSAII (Michael W. Deem and Ramdas Pophale) SiO2 
 PCOD9097114
Probable space group: P -1
;
_chemical_formula_sum "Si O2"
_cell_formula_units_Z 16
_cell_length_a 14.541302
_cell_length_b 15.251685
_cell_length_c 15.039106
_cell_angle_alpha 142.505831
_cell_angle_beta 27.341570
_cell_angle_gamma 150.529726
_cell_volume 750.680798
_symmetry_space_group_name_H-M "P -1"
_symmetry_group_IT_number 2
_symmetry_cell_setting 'triclinic'
loop_
_space_group_symop_operation_xyz
x,y,z
-x,-y,-z
loop_
_atom_site_type_symbol
_atom_site_label
_atom_site_fract_x
_atom_site_fract_y
_atom_site_fract_z
Si Si1 0.241620 0.551043 0.779112
Si Si2 0.769414 0.341097 0.323520
Si Si3 0.779818 0.613947 0.941698
Si Si4 0.884287 0.856988 0.878995
Si Si5 0.560476 0.796492 0.344951
Si Si6 0.810579 0.793398 0.529610
Si Si7 0.406213 0.779193 0.276166
Si Si8 0.052607 0.272532 0.453760
O O1 0.262786 0.642376 0.739462
O O2 0.510879 0.695986 0.710498
O O3 0.193063 0.359359 0.646416
O O4 0.000000 0.500000 0.000000
O O5 0.537462 0.203397 0.474388
O O6 0.994492 0.329762 0.141904
O O7 0.840350 0.525280 0.453601
O O8 0.862742 0.736025 0.881011
O O9 0.670771 0.416405 0.842251
O O10 0.588970 0.637904 0.174846
O O11 0.821253 0.755536 0.758552
O O12 0.693001 0.904034 0.101918
O O13 0.162115 0.030788 0.770487
O O14 0.390848 0.784944 0.400892
O O15 0.911617 0.800863 0.546693
O O16 0.000000 0.000000 0.500000
O O17 0.225893 0.808996 0.404466
#
# Coordination Sequence:
#
# PCOD9097114 Si02
#       8
#     2   2   2   2   2   2   2   2
#     4  10  24  47  73  99 133 172 220 282 339 401
#     4  10  22  39  63  89 116 162 211 251 317 383
#     4  10  20  36  59  87 122 164 208 248 303 372
#     4  11  22  35  55  89 128 163 199 255 309 367
#     4  11  22  35  56  88 129 163 200 257 306 370
#     4  10  24  46  71 100 134 168 221 281 343 396
#     4  10  20  37  59  85 121 167 211 248 303 374
#     4  10  22  39  62  85 121 160 210 255 313 379
#
# _framework density 21.313986
#
# number of rings (size 3 to 8) (size 9 to 14) (size 15 to 20)
#    0.000    1.750    0.000    5.250    1.750   11.500 
#    0.000    0.000    0.000    0.000    0.000    0.000 
#    0.000    0.000    0.000    0.000    0.000    0.000 
#
# Total GULP energy -89365.445158 kJ/mol
# GULP energy per Si atom -5585.340322 kJ/mol
# Density = 2.126547 g / cm^3
# Si number density = 21.313986 Si / 1000 Ang^3
#
#
#
# Elastic Constant Matrix: (Units=GPa)
#
#
# Indices 1 2 3 4 5 6 
#
# 1 259.7583 26.5438 51.2314 -3.7035 -52.9121 70.0878
# 2 26.5438 132.3139 36.8366 -19.6947 9.1918 -22.0756
# 3 51.2314 36.8366 122.5048 -24.4916 6.7210 -17.1518
# 4 -3.7035 -19.6947 -24.4916 35.2532 3.0160 9.1713
# 5 -52.9121 9.1918 6.7210 3.0160 41.0215 -28.1623
# 6 70.0878 -22.0756 -17.1518 9.1713 -28.1623 72.7463
#
#
#
# Elastic Compliance Matrix: (Units=1/GPa)
#
#
# Indices 1 2 3 4 5 6 
#
# 1 0.008283 -0.002389 -0.004603 -0.002641 0.007729 -0.006465
# 2 -0.002389 0.009551 -0.000387 0.004215 -0.003167 0.003351
# 3 -0.004603 -0.000387 0.012582 0.007430 -0.005585 0.004185
# 4 -0.002641 0.004215 0.007430 0.037338 -0.010511 -0.003201
# 5 0.007729 -0.003167 -0.005585 -0.010511 0.042191 0.007934
# 6 -0.006465 0.003351 0.004185 -0.003201 0.007934 0.025454
#
#
# Mechanical properties :
#
#
# Convention : Reuss Voigt Hill
#
# Bulk Modulus (GPa) = 63.86440 82.64451 73.25446
# Shear Modulus (GPa) = 32.17983 56.46855 44.32419
#
# Velocity S-wave (km/s) = 3.88983 5.15278 4.56519
# Velocity P-wave (km/s) = 7.08541 8.61745 7.88871
#
# Compressibility (1/GPa) = 0.01565818
#
# Stress axis : x y z
#
# Youngs Moduli (GPa) = 120.73309 104.69605 79.47786
#
# Poissons Ratio (x) = 0.25011 0.36582
# Poissons Ratio (y) = 0.28843 0.03078
# Poissons Ratio (z) = 0.55571 0.04055
#
# Static dielectric constant tensor:
#      x y z
#    x 1.764910 0.010760 -0.017080 
#    y 0.010760 1.857760 0.005890 
#    z -0.017080 0.005890 1.789930 
# 
# From -- ./inp_files/534405.got.cif
#   From: 2010.05.17/outbox.cif.g08.bks.cpg/sg2_268_cif.got.tgz:534405.got - 2010.06.03 11:33:40.
