data_PCOD9097424
_publ_section_title
;
Structure prediction by ZEFSAII (Michael W. Deem and Ramdas Pophale) SiO2 
 PCOD9097424
Probable space group: P -1
;
_chemical_formula_sum "Si O2"
_cell_formula_units_Z 14
_cell_length_a 5.570182
_cell_length_b 12.440649
_cell_length_c 14.449996
_cell_angle_alpha 41.109411
_cell_angle_beta 112.472143
_cell_angle_gamma 106.311884
_cell_volume 608.342404
_symmetry_space_group_name_H-M "P -1"
_symmetry_group_IT_number 2
_symmetry_cell_setting 'triclinic'
loop_
_space_group_symop_operation_xyz
x,y,z
-x,-y,-z
loop_
_atom_site_type_symbol
_atom_site_label
_atom_site_fract_x
_atom_site_fract_y
_atom_site_fract_z
Si Si1 0.391719 0.461373 0.110240
Si Si2 0.608361 0.024445 0.396694
Si Si3 0.080925 0.916825 0.319093
Si Si4 0.021685 0.736502 0.610640
Si Si5 0.857846 0.602661 0.165776
Si Si6 0.787864 0.902334 0.094033
Si Si7 0.012252 0.252181 0.104553
O O1 0.621794 0.475916 0.205289
O O2 0.226731 0.300496 0.180160
O O3 0.500000 0.500000 0.000000
O O4 0.204591 0.611682 0.005803
O O5 0.774242 0.192368 0.327242
O O6 0.500000 0.000000 0.500000
O O7 0.364834 0.003871 0.303401
O O8 0.789235 0.867023 0.507224
O O9 0.101093 0.780045 0.488203
O O10 0.937177 0.872425 0.232600
O O11 0.909551 0.073931 0.224151
O O12 0.930872 0.546081 0.718542
O O13 0.786010 0.725727 0.157590
O O14 0.888848 0.717645 0.005505
O O15 0.500000 0.000000 0.000000
O O16 0.000000 0.000000 0.000000
#
# Coordination Sequence:
#
# PCOD9097424 Si02
#       7
#     2   2   2   2   2   2   2
#     4   9  20  34  59  94 126 166 219 283 348 406
#     4   9  21  41  64  98 140 178 223 275 354 421
#     4  11  23  41  67  93 132 181 232 279 348 408
#     4  10  23  40  66 100 137 179 223 287 346 421
#     4  11  23  41  63  93 133 173 230 284 346 407
#     4  12  28  50  74 103 137 188 239 298 350 411
#     4  10  20  36  60  91 127 168 221 282 345 414
#
# _framework density 23.013354
#
# number of rings (size 3 to 8) (size 9 to 14) (size 15 to 20)
#    0.000    1.714    1.429    1.714    2.000   15.429 
#    0.000    0.714    0.000    0.000    0.000    0.000 
#    0.000    0.000    0.000    0.000    0.000    0.000 
#
# Total GULP energy -77965.351887 kJ/mol
# GULP energy per Si atom -5568.953706 kJ/mol
# Density = 2.296097 g / cm^3
# Si number density = 23.013354 Si / 1000 Ang^3
#
#
#
# Elastic Constant Matrix: (Units=GPa)
#
#
# Indices 1 2 3 4 5 6 
#
# 1 69.4598 17.3070 18.8604 10.4301 1.6775 -11.1249
# 2 17.3070 158.0260 44.4751 -6.8397 3.2056 -16.9687
# 3 18.8604 44.4751 128.0827 3.2860 -16.7419 -5.2150
# 4 10.4301 -6.8397 3.2860 48.3388 8.1012 2.6787
# 5 1.6775 3.2056 -16.7419 8.1012 30.1516 -5.5537
# 6 -11.1249 -16.9687 -5.2150 2.6787 -5.5537 21.4884
#
#
#
# Elastic Compliance Matrix: (Units=1/GPa)
#
#
# Indices 1 2 3 4 5 6 
#
# 1 0.017030 -0.000663 -0.001693 -0.004289 0.000930 0.008657
# 2 -0.000663 0.007737 -0.002689 0.001486 -0.001859 0.004448
# 3 -0.001693 -0.002689 0.009968 -0.001888 0.006676 0.001380
# 4 -0.004289 0.001486 -0.001888 0.023760 -0.008583 -0.006686
# 5 0.000930 -0.001859 0.006676 -0.008583 0.041620 0.012461
# 6 0.008657 0.004448 0.001380 -0.006686 0.012461 0.058920
#
#
# Mechanical properties :
#
#
# Convention : Reuss Voigt Hill
#
# Bulk Modulus (GPa) = 40.57858 57.42817 49.00337
# Shear Modulus (GPa) = 28.19434 38.32415 33.25924
#
# Velocity S-wave (km/s) = 3.50398 4.08524 3.80572
# Velocity P-wave (km/s) = 5.83450 6.87464 6.37582
#
# Compressibility (1/GPa) = 0.02464354
#
# Stress axis : x y z
#
# Youngs Moduli (GPa) = 58.72011 129.24678 100.32362
#
# Poissons Ratio (x) = 0.08576 0.16988
# Poissons Ratio (y) = 0.03896 0.26976
# Poissons Ratio (z) = 0.09943 0.34753
#
# Static dielectric constant tensor:
#      x y z
#    x 2.093800 -0.049350 0.167820 
#    y -0.049350 1.918330 -0.099590 
#    z 0.167820 -0.099590 2.145580 
# 
# From -- ./inp_files/436012.got.cif
#   From: 2010.05.17/outbox.cif.g08.bks.cpg/sg2_219_cif.got.tgz:436012.got - 2010.06.03 11:33:40.
