data_PCOD9097763
_publ_section_title
;
Structure prediction by ZEFSAII (Michael W. Deem and Ramdas Pophale) SiO2 
 PCOD9097763
Probable space group: P -1
;
_chemical_formula_sum "Si O2"
_cell_formula_units_Z 16
_cell_length_a 17.787433
_cell_length_b 12.611481
_cell_length_c 8.564895
_cell_angle_alpha 113.694574
_cell_angle_beta 52.680774
_cell_angle_gamma 151.114353
_cell_volume 695.272773
_symmetry_space_group_name_H-M "P -1"
_symmetry_group_IT_number 2
_symmetry_cell_setting 'triclinic'
loop_
_space_group_symop_operation_xyz
x,y,z
-x,-y,-z
loop_
_atom_site_type_symbol
_atom_site_label
_atom_site_fract_x
_atom_site_fract_y
_atom_site_fract_z
Si Si1 0.827101 0.726545 0.551316
Si Si2 0.113163 0.165378 0.128043
Si Si3 0.277552 0.701246 0.940937
Si Si4 0.725626 0.227380 0.668371
Si Si5 0.458318 0.408676 0.665708
Si Si6 0.304195 0.995976 0.654116
Si Si7 0.279433 0.643143 0.568284
Si Si8 0.042398 0.236871 0.975349
O O1 0.804886 0.683512 0.738345
O O2 0.646941 0.605397 0.646293
O O3 0.822269 0.589784 0.413860
O O4 0.000000 0.000000 0.500000
O O5 0.015068 0.154813 0.135012
O O6 0.292899 0.303671 0.894167
O O7 0.978959 0.908392 0.175479
O O8 0.218835 0.656895 0.804273
O O9 0.497138 0.971845 0.822097
O O10 0.201664 0.672042 0.186174
O O11 0.232794 0.515735 0.903578
O O12 0.764363 0.356185 0.549989
O O13 0.779756 0.164265 0.480143
O O14 0.500000 0.500000 0.500000
O O15 0.396630 0.211655 0.607572
O O16 0.488815 0.127862 0.574753
O O17 0.129467 0.856018 0.897623
#
# Coordination Sequence:
#
# PCOD9097763 Si02
#       8
#     2   2   2   2   2   2   2   2
#     4  11  23  38  64  95 129 160 208 259 306 378
#     4  10  22  38  61  88 127 165 204 255 316 377
#     4  10  20  36  62  86 114 159 209 254 307 370
#     4  10  21  39  62  87 117 166 213 253 312 375
#     4  10  23  39  63  91 125 167 203 253 316 375
#     4   9  20  37  60  85 127 161 201 259 310 367
#     4  10  21  41  62  89 128 163 203 259 317 365
#     4  10  21  36  62  90 123 162 207 258 314 360
#
# _framework density 23.012550000000001
#
# number of rings (size 3 to 8) (size 9 to 14) (size 15 to 20)
#    0.000    2.000    0.000    3.375   10.500    0.500 
#    0.000    2.500    5.500    0.000    0.000    0.000 
#    0.000    0.000    0.000    0.000    0.000    0.000 
#
# Total GULP energy -89088.415716 kJ/mol
# GULP energy per Si atom -5568.025982 kJ/mol
# Density = 2.296017 g / cm^3
# Si number density = 23.012550 Si / 1000 Ang^3
#
#
#
# Elastic Constant Matrix: (Units=GPa)
#
#
# Indices 1 2 3 4 5 6 
#
# 1 65.0204 24.4330 19.3346 1.2618 0.7694 11.8091
# 2 24.4330 102.6039 41.1101 -2.9672 12.8622 2.7794
# 3 19.3346 41.1101 60.9406 25.4617 7.9326 7.8676
# 4 1.2618 -2.9672 25.4617 47.3902 7.1919 7.4328
# 5 0.7694 12.8622 7.9326 7.1919 31.9925 0.4903
# 6 11.8091 2.7794 7.8676 7.4328 0.4903 32.2420
#
#
#
# Elastic Compliance Matrix: (Units=1/GPa)
#
#
# Indices 1 2 3 4 5 6 
#
# 1 0.018776 -0.002459 -0.004792 0.002699 0.001213 -0.006137
# 2 -0.002459 0.016772 -0.013787 0.009213 -0.005348 0.000777
# 3 -0.004792 -0.013787 0.035490 -0.019823 0.001333 -0.001167
# 4 0.002699 0.009213 -0.019823 0.033964 -0.006417 -0.004678
# 5 0.001213 -0.005348 0.001333 -0.006417 0.034481 0.000647
# 6 -0.006137 0.000777 -0.001167 -0.004678 0.000647 0.034549
#
#
# Mechanical properties :
#
#
# Convention : Reuss Voigt Hill
#
# Bulk Modulus (GPa) = 34.52778 44.25779 39.39279
# Shear Modulus (GPa) = 22.14717 31.90409 27.02563
#
# Velocity S-wave (km/s) = 3.10562 3.72745 3.43065
# Velocity P-wave (km/s) = 5.28169 6.14808 5.73128
#
# Compressibility (1/GPa) = 0.02896218
#
# Stress axis : x y z
#
# Youngs Moduli (GPa) = 53.25807 59.62400 28.17705
#
# Poissons Ratio (x) = 0.14662 0.13501
# Poissons Ratio (y) = 0.13097 0.38849
# Poissons Ratio (z) = 0.25519 0.82206
#
# Static dielectric constant tensor:
#      x y z
#    x 1.887410 0.020390 0.041850 
#    y 0.020390 1.902080 -0.030140 
#    z 0.041850 -0.030140 1.978790 
# 
# From -- ./inp_files/332245.got.cif
#   From: 2010.05.17/outbox.cif.g08.bks.cpg/sg2_167_cif.got.tgz:332245.got - 2010.06.03 11:33:40.
