data_PCOD9097881
_publ_section_title
;
Structure prediction by ZEFSAII (Michael W. Deem and Ramdas Pophale) SiO2 
 PCOD9097881
Probable space group: P -1
;
_chemical_formula_sum "Si O2"
_cell_formula_units_Z 16
_cell_length_a 9.837450
_cell_length_b 9.417023
_cell_length_c 12.701488
_cell_angle_alpha 49.312074
_cell_angle_beta 138.684938
_cell_angle_gamma 115.005136
_cell_volume 583.753937
_symmetry_space_group_name_H-M "P -1"
_symmetry_group_IT_number 2
_symmetry_cell_setting 'triclinic'
loop_
_space_group_symop_operation_xyz
x,y,z
-x,-y,-z
loop_
_atom_site_type_symbol
_atom_site_label
_atom_site_fract_x
_atom_site_fract_y
_atom_site_fract_z
Si Si1 0.643833 0.725717 0.833353
Si Si2 0.880085 0.868332 0.158519
Si Si3 0.196713 0.389667 0.230699
Si Si4 0.948955 0.297917 0.447884
Si Si5 0.418402 0.414300 0.840867
Si Si6 0.464118 0.852284 0.142653
Si Si7 0.911933 0.362798 0.771075
Si Si8 0.711872 0.978520 0.419384
O O1 0.636763 0.691297 0.720681
O O2 0.593559 0.519917 0.945003
O O3 0.483273 0.904917 0.687833
O O4 0.880371 0.727827 0.002396
O O5 0.686832 0.746405 0.080385
O O6 0.080301 0.799023 0.236936
O O7 0.921471 0.816470 0.329452
O O8 0.768777 0.081006 0.982530
O O9 0.159352 0.192079 0.358834
O O10 0.244606 0.534083 0.282025
O O11 0.000000 0.500000 0.000000
O O12 0.770549 0.419281 0.354465
O O13 0.045611 0.454142 0.362301
O O14 0.848695 0.145389 0.394494
O O15 0.497409 0.336553 0.811215
O O16 0.620360 0.881769 0.312629
O O17 0.500000 0.000000 0.000000
#
# Coordination Sequence:
#
# PCOD9097881 Si02
#       8
#     2   2   2   2   2   2   2   2
#     4  10  21  41  64  86 120 168 212 250 287 366
#     4  10  20  37  58  92 134 156 189 255 315 364
#     4  10  24  41  62  88 123 162 216 258 290 356
#     4  10  23  36  65  94 126 159 197 249 318 378
#     4   9  20  36  60  87 124 157 198 249 302 358
#     4  10  22  36  60  95 132 151 196 253 312 370
#     4  10  20  36  62  91 127 163 199 246 317 358
#     4  11  23  41  66  93 119 165 205 252 313 361
#
# _framework density 27.408808000000001
#
# number of rings (size 3 to 8) (size 9 to 14) (size 15 to 20)
#    0.000    2.000    1.250    1.875    8.750    4.000 
#    0.000    0.625    2.750    2.250    0.000    0.000 
#    0.000    0.000    0.000    0.000    0.000    0.000 
#
# Total GULP energy -89398.543996 kJ/mol
# GULP energy per Si atom -5587.409000 kJ/mol
# Density = 2.734642 g / cm^3
# Si number density = 27.408808 Si / 1000 Ang^3
#
#
#
# Elastic Constant Matrix: (Units=GPa)
#
#
# Indices 1 2 3 4 5 6 
#
# 1 95.9967 45.2256 10.1728 0.8121 -9.3410 -49.5985
# 2 45.2256 143.9999 46.6200 -23.4681 -1.2998 -41.6869
# 3 10.1728 46.6200 115.7132 -20.9837 5.1202 -6.2865
# 4 0.8121 -23.4681 -20.9837 38.1366 -5.4865 -0.9100
# 5 -9.3410 -1.2998 5.1202 -5.4865 33.3015 -4.5577
# 6 -49.5985 -41.6869 -6.2865 -0.9100 -4.5577 72.1559
#
#
#
# Elastic Compliance Matrix: (Units=1/GPa)
#
#
# Indices 1 2 3 4 5 6 
#
# 1 0.018125 -0.002286 -0.000490 -0.000853 0.006503 0.011496
# 2 -0.002286 0.010889 -0.003024 0.005452 0.001782 0.004637
# 3 -0.000490 -0.003024 0.010579 0.003735 -0.001432 -0.001206
# 4 -0.000853 0.005452 0.003735 0.032492 0.005249 0.003631
# 5 0.006503 0.001782 -0.001432 0.005249 0.034046 0.007591
# 6 0.011496 0.004637 -0.001206 0.003631 0.007591 0.024860
#
#
# Mechanical properties :
#
#
# Convention : Reuss Voigt Hill
#
# Bulk Modulus (GPa) = 35.72508 62.19404 48.95956
# Shear Modulus (GPa) = 32.91147 45.63156 39.27152
#
# Velocity S-wave (km/s) = 3.46896 4.08468 3.78935
# Velocity P-wave (km/s) = 5.39513 6.70721 6.08663
#
# Compressibility (1/GPa) = 0.02799154
#
# Stress axis : x y z
#
# Youngs Moduli (GPa) = 55.17095 91.83946 94.52869
#
# Poissons Ratio (x) = 0.20997 0.04634
# Poissons Ratio (y) = 0.12614 0.28587
# Poissons Ratio (z) = 0.02705 0.27773
#
# Static dielectric constant tensor:
#      x y z
#    x 2.297690 0.005190 0.030770 
#    y 0.005190 2.241120 0.041010 
#    z 0.030770 0.041010 2.123030 
# 
# From -- ./inp_files/416689.got.cif
#   From: 2010.05.17/outbox.cif.g08.bks.cpg/sg2_209_cif.got.tgz:416689.got - 2010.06.03 11:33:40.
