data_PCOD9097363
_publ_section_title
;
Structure prediction by ZEFSAII (Michael W. Deem and Ramdas Pophale) SiO2 
 PCOD9097363
Probable space group: P -1
;
_chemical_formula_sum "Si O2"
_cell_formula_units_Z 16
_cell_length_a 10.665871
_cell_length_b 5.355510
_cell_length_c 12.931095
_cell_angle_alpha 82.192655
_cell_angle_beta 74.796020
_cell_angle_gamma 66.927315
_cell_volume 655.313941
_symmetry_space_group_name_H-M "P -1"
_symmetry_group_IT_number 2
_symmetry_cell_setting 'triclinic'
loop_
_space_group_symop_operation_xyz
x,y,z
-x,-y,-z
loop_
_atom_site_type_symbol
_atom_site_label
_atom_site_fract_x
_atom_site_fract_y
_atom_site_fract_z
Si Si1 0.778327 0.056425 0.089280
Si Si2 0.465840 0.653652 0.746622
Si Si3 0.899201 0.663345 0.261159
Si Si4 0.975474 0.744089 0.911709
Si Si5 0.409062 0.813880 0.530129
Si Si6 0.111051 0.597748 0.525773
Si Si7 0.091565 0.908766 0.327555
Si Si8 0.354524 0.964651 0.312695
O O1 0.629740 0.281487 0.134430
O O2 0.902636 0.149354 0.093361
O O3 0.796200 0.816873 0.182141
O O4 0.823720 0.954821 0.968870
O O5 0.367625 0.782330 0.658762
O O6 0.537701 0.333347 0.727887
O O7 0.572299 0.814480 0.723036
O O8 0.992373 0.382102 0.201184
O O9 0.821916 0.611566 0.383329
O O10 0.010379 0.796875 0.267478
O O11 0.000000 0.500000 0.000000
O O12 0.500000 0.500000 0.500000
O O13 0.313950 0.944410 0.444201
O O14 0.500000 0.000000 0.500000
O O15 0.000000 0.500000 0.500000
O O16 0.175719 0.661550 0.403805
O O17 0.031178 0.871409 0.592024
O O18 0.215197 0.017677 0.273873
#
# Coordination Sequence:
#
# PCOD9097363 Si02
#       8
#     2   2   2   2   2   2   2   2
#     4  10  21  38  61  91 116 147 200 255 315 362
#     4  10  22  37  59  86 117 162 198 248 301 363
#     4  10  20  36  60  89 117 155 197 254 309 356
#     4   9  20  37  61  89 114 147 190 260 317 359
#     4   8  16  33  47  73 107 148 197 228 272 330
#     4   9  20  35  55  84 117 160 202 247 288 340
#     4  10  21  37  56  87 123 163 205 244 293 354
#     4  10  22  37  57  84 122 165 202 240 294 365
#
# _framework density 24.415780999999999
#
# number of rings (size 3 to 8) (size 9 to 14) (size 15 to 20)
#    0.000    2.500    0.000    0.750    7.000    4.000 
#    9.000    0.000    0.000    1.500    0.000    0.000 
#    0.000    0.000    0.000    0.000    0.000    0.000 
#
# Total GULP energy -89204.511970 kJ/mol
# GULP energy per Si atom -5575.281998 kJ/mol
# Density = 2.436021 g / cm^3
# Si number density = 24.415781 Si / 1000 Ang^3
#
#
#
# Elastic Constant Matrix: (Units=GPa)
#
#
# Indices 1 2 3 4 5 6 
#
# 1 62.7927 11.1426 11.1428 13.7282 2.4676 16.1157
# 2 11.1426 84.2204 19.9899 22.1729 -0.2290 8.0343
# 3 11.1428 19.9899 90.8929 27.8610 -3.8122 -2.6175
# 4 13.7282 22.1729 27.8610 58.9145 -3.4352 6.7530
# 5 2.4676 -0.2290 -3.8122 -3.4352 33.6748 9.8478
# 6 16.1157 8.0343 -2.6175 6.7530 9.8478 35.0659
#
#
#
# Elastic Compliance Matrix: (Units=1/GPa)
#
#
# Indices 1 2 3 4 5 6 
#
# 1 0.018998 -0.000687 -0.001664 -0.002379 0.000634 -0.008418
# 2 -0.000687 0.013618 -0.001787 -0.003849 0.000207 -0.002255
# 3 -0.001664 -0.001787 0.013430 -0.005656 0.000107 0.003236
# 4 -0.002379 -0.003849 -0.005656 0.022217 0.002801 -0.003512
# 5 0.000634 0.000207 0.000107 0.002801 0.032906 -0.010111
# 6 -0.008418 -0.002255 0.003236 -0.003512 -0.010111 0.036661
#
#
# Mechanical properties :
#
#
# Convention : Reuss Voigt Hill
#
# Bulk Modulus (GPa) = 26.47666 35.82852 31.15259
# Shear Modulus (GPa) = 31.50657 38.57309 35.03983
#
# Velocity S-wave (km/s) = 3.59614 3.97904 3.79242
# Velocity P-wave (km/s) = 5.30194 5.98469 5.65363
#
# Compressibility (1/GPa) = 0.03776911
#
# Stress axis : x y z
#
# Youngs Moduli (GPa) = 52.63580 73.43349 74.45876
#
# Poissons Ratio (x) = 0.05047 0.12393
# Poissons Ratio (y) = 0.03618 0.13306
# Poissons Ratio (z) = 0.08761 0.13122
#
# Static dielectric constant tensor:
#      x y z
#    x 1.929220 -0.001450 -0.029260 
#    y -0.001450 2.108230 -0.065040 
#    z -0.029260 -0.065040 2.080260 
# 
# From -- ./inp_files/78294.got.cif
#   From: 2010.05.17/outbox.cif.g08.bks.cpg/sg2_40_cif.got.tgz:78294.got - 2010.06.03 11:33:40.
