data_PCOD9097239
_publ_section_title
;
Structure prediction by ZEFSAII (Michael W. Deem and Ramdas Pophale) SiO2 
 PCOD9097239
Probable space group: P -1
;
_chemical_formula_sum "Si O2"
_cell_formula_units_Z 14
_cell_length_a 8.270570
_cell_length_b 9.393294
_cell_length_c 19.844457
_cell_angle_alpha 40.044472
_cell_angle_beta 143.695695
_cell_angle_gamma 118.618116
_cell_volume 547.394880
_symmetry_space_group_name_H-M "P -1"
_symmetry_group_IT_number 2
_symmetry_cell_setting 'triclinic'
loop_
_space_group_symop_operation_xyz
x,y,z
-x,-y,-z
loop_
_atom_site_type_symbol
_atom_site_label
_atom_site_fract_x
_atom_site_fract_y
_atom_site_fract_z
Si Si1 0.794797 0.244979 0.806709
Si Si2 0.280574 0.541669 0.153823
Si Si3 0.874506 0.903890 0.576236
Si Si4 0.546252 0.459526 0.132640
Si Si5 0.155415 0.058888 0.875173
Si Si6 0.975640 0.862742 0.771774
Si Si7 0.395330 0.040935 0.667809
O O1 0.687790 0.433538 0.763639
O O2 0.522437 0.200008 0.696199
O O3 0.995596 0.253761 0.806375
O O4 0.000000 0.000000 0.000000
O O5 0.531984 0.475874 0.203657
O O6 0.135140 0.345477 0.165289
O O7 0.122876 0.815004 0.978922
O O8 0.619968 0.924740 0.430633
O O9 0.127052 0.644100 0.748212
O O10 0.811386 0.950324 0.615669
O O11 0.059617 0.070639 0.559235
O O12 0.441483 0.238978 0.160045
O O13 0.326391 0.702581 0.939739
O O14 0.985276 0.081992 0.739752
O O15 0.500000 0.000000 0.000000
#
# Coordination Sequence:
#
# PCOD9097239 Si02
#       7
#     2   2   2   2   2   2   2
#     4  10  20  36  60  82 120 156 190 241 294 344
#     4  10  21  34  56  88 119 153 190 246 301 332
#     4   9  21  34  63  85 119 155 200 238 287 352
#     4   9  17  35  56  84 116 151 193 243 279 342
#     4  10  22  36  56  91 120 149 197 246 290 346
#     4  11  20  35  60  89 115 152 199 244 291 343
#     4   9  19  39  60  84 121 155 200 235 294 345
#
# _framework density 25.575686999999999
#
# number of rings (size 3 to 8) (size 9 to 14) (size 15 to 20)
#    0.857    1.429    0.000    4.714    4.000    2.286 
#    0.000    4.286    0.000    0.000    0.000    0.000 
#    0.000    0.000    0.000    0.000    0.000    0.000 
#
# Total GULP energy -78003.726896 kJ/mol
# GULP energy per Si atom -5571.694778 kJ/mol
# Density = 2.551748 g / cm^3
# Si number density = 25.575687 Si / 1000 Ang^3
#
#
#
# Elastic Constant Matrix: (Units=GPa)
#
#
# Indices 1 2 3 4 5 6 
#
# 1 99.5467 50.6008 27.3765 32.4076 -10.9407 -25.5263
# 2 50.6008 154.4686 27.7054 49.7062 -8.0132 -15.6894
# 3 27.3765 27.7054 66.3932 36.7128 -3.9945 -8.8346
# 4 32.4076 49.7062 36.7128 44.0605 -12.4910 -5.3544
# 5 -10.9407 -8.0132 -3.9945 -12.4910 41.7884 9.5639
# 6 -25.5263 -15.6894 -8.8346 -5.3544 9.5639 44.6757
#
#
#
# Elastic Compliance Matrix: (Units=1/GPa)
#
#
# Indices 1 2 3 4 5 6 
#
# 1 0.015588 -0.001398 0.000343 -0.009461 -0.000698 0.007499
# 2 -0.001398 0.011637 0.005464 -0.017267 -0.003470 0.003042
# 3 0.000343 0.005464 0.032082 -0.034550 -0.007478 0.005919
# 4 -0.009461 -0.017267 -0.034550 0.081553 0.018126 -0.012408
# 5 -0.000698 -0.003470 -0.007478 0.018126 0.029439 -0.007226
# 6 0.007499 0.003042 0.005919 -0.012408 -0.007226 0.028967
#
#
# Mechanical properties :
#
#
# Convention : Reuss Voigt Hill
#
# Bulk Modulus (GPa) = 14.67869 59.08598 36.88234
# Shear Modulus (GPa) = 23.45703 40.41997 31.93850
#
# Velocity S-wave (km/s) = 3.03175 3.97975 3.53765
# Velocity P-wave (km/s) = 4.24348 6.65360 5.58021
#
# Compressibility (1/GPa) = 0.06812595
#
# Stress axis : x y z
#
# Youngs Moduli (GPa) = 64.15212 85.93359 31.16973
#
# Poissons Ratio (x) = 0.12014 -0.01069
# Poissons Ratio (y) = 0.08969 -0.17032
# Poissons Ratio (z) = -0.02201 -0.46957
#
# Static dielectric constant tensor:
#      x y z
#    x 2.230240 -0.053260 -0.041930 
#    y -0.053260 2.021010 0.008650 
#    z -0.041930 0.008650 2.094380 
# 
# From -- ./inp_files/556017.got.cif
#   From: 2010.05.17/outbox.cif.g08.bks.cpg/sg2_279_cif.got.tgz:556017.got - 2010.06.03 11:33:40.
