data_PCOD9097024
_publ_section_title
;
Structure prediction by ZEFSAII (Michael W. Deem and Ramdas Pophale) SiO2 
 PCOD9097024
Probable space group: P -1
;
_chemical_formula_sum "Si O2"
_cell_formula_units_Z 14
_cell_length_a 24.076226
_cell_length_b 10.175362
_cell_length_c 18.068868
_cell_angle_alpha 36.783764
_cell_angle_beta 160.148309
_cell_angle_gamma 152.049982
_cell_volume 691.960408
_symmetry_space_group_name_H-M "P -1"
_symmetry_group_IT_number 2
_symmetry_cell_setting 'triclinic'
loop_
_space_group_symop_operation_xyz
x,y,z
-x,-y,-z
loop_
_atom_site_type_symbol
_atom_site_label
_atom_site_fract_x
_atom_site_fract_y
_atom_site_fract_z
Si Si1 0.998415 0.212755 0.850606
Si Si2 0.092234 0.242204 0.293365
Si Si3 0.666223 0.834670 0.264164
Si Si4 0.639405 0.753543 0.501134
Si Si5 0.351051 0.155804 0.169131
Si Si6 0.247836 0.783574 0.336348
Si Si7 0.404552 0.825015 0.065019
O O1 0.907499 0.319601 0.743539
O O2 0.217575 0.490466 0.969139
O O3 0.840748 0.026284 0.671192
O O4 0.000000 0.000000 0.000000
O O5 0.130764 0.115417 0.469526
O O6 0.265797 0.316093 0.415211
O O7 0.152845 0.532592 0.270333
O O8 0.857497 0.030272 0.059542
O O9 0.485809 0.494615 0.179167
O O10 0.590902 0.930061 0.193066
O O11 0.679697 0.003902 0.133865
O O12 0.500000 0.500000 0.500000
O O13 0.499253 0.833386 0.258100
O O14 0.527916 0.116081 0.397704
O O15 0.279764 0.037922 0.217077
#
# Coordination Sequence:
#
# PCOD9097024 Si02
#       7
#     2   2   2   2   2   2   2
#     4  12  23  38  60  91 123 154 187 253 307 350
#     4  10  21  39  61  89 117 159 203 242 293 361
#     4   9  20  38  60  87 116 162 197 245 287 364
#     4  11  23  35  61  94 121 149 197 250 304 349
#     4  10  20  36  59  83 120 154 203 242 288 353
#     4  10  23  36  60  90 120 158 199 242 303 354
#     4  10  21  38  59  86 125 153 198 243 304 350
#
# _framework density 20.232372000000002
#
# number of rings (size 3 to 8) (size 9 to 14) (size 15 to 20)
#    0.000    1.714    1.429    3.000    6.000    2.286 
#    0.000    7.143    0.000    5.143    0.000    0.000 
#    0.000    0.000    0.000    0.000    0.000    0.000 
#
# Total GULP energy -78104.682741 kJ/mol
# GULP energy per Si atom -5578.905910 kJ/mol
# Density = 2.018632 g / cm^3
# Si number density = 20.232372 Si / 1000 Ang^3
#
#
#
# Elastic Constant Matrix: (Units=GPa)
#
#
# Indices 1 2 3 4 5 6 
#
# 1 54.5533 11.9049 16.8185 -9.8594 -6.4653 -9.2913
# 2 11.9049 91.0789 51.3144 -16.5946 -23.8776 7.4532
# 3 16.8185 51.3144 145.3683 1.7510 -27.1556 12.1128
# 4 -9.8594 -16.5946 1.7510 31.8919 6.1773 -11.1839
# 5 -6.4653 -23.8776 -27.1556 6.1773 24.5233 -9.4265
# 6 -9.2913 7.4532 12.1128 -11.1839 -9.4265 30.5036
#
#
#
# Elastic Compliance Matrix: (Units=1/GPa)
#
#
# Indices 1 2 3 4 5 6 
#
# 1 0.024839 0.001665 -0.003620 0.012822 0.006858 0.015417
# 2 0.001665 0.018016 -0.004823 0.009655 0.012264 0.005350
# 3 -0.003620 -0.004823 0.010616 -0.007088 0.006015 -0.004880
# 4 0.012822 0.009655 -0.007088 0.048360 0.001410 0.022528
# 5 0.006858 0.012264 0.006015 0.001410 0.067820 0.018179
# 6 0.015417 0.005350 -0.004880 0.022528 0.018179 0.051987
#
#
# Mechanical properties :
#
#
# Convention : Reuss Voigt Hill
#
# Bulk Modulus (GPa) = 25.05298 50.11957 37.58627
# Shear Modulus (GPa) = 20.12095 31.44796 25.78445
#
# Velocity S-wave (km/s) = 3.15698 3.94679 3.57377
# Velocity P-wave (km/s) = 5.06934 6.75243 5.97049
#
# Compressibility (1/GPa) = 0.03991542
#
# Stress axis : x y z
#
# Youngs Moduli (GPa) = 40.25917 55.50708 94.19764
#
# Poissons Ratio (x) = -0.09242 0.34095
# Poissons Ratio (y) = -0.06704 0.45434
# Poissons Ratio (z) = 0.14572 0.26772
#
# Static dielectric constant tensor:
#      x y z
#    x 1.745970 0.000330 0.017550 
#    y 0.000330 1.710980 -0.050950 
#    z 0.017550 -0.050950 1.756620 
# 
# From -- ./inp_files/431749.got.cif
#   From: 2010.05.17/outbox.cif.g08.bks.cpg/sg2_216_cif.got.tgz:431749.got - 2010.06.03 11:33:40.
