data_PCOD9097412
_publ_section_title
;
Structure prediction by ZEFSAII (Michael W. Deem and Ramdas Pophale) SiO2 
 PCOD9097412
Probable space group: P -1
;
_chemical_formula_sum "Si O2"
_cell_formula_units_Z 16
_cell_length_a 9.068965
_cell_length_b 7.609841
_cell_length_c 13.801005
_cell_angle_alpha 136.201301
_cell_angle_beta 108.436069
_cell_angle_gamma 67.344872
_cell_volume 607.262934
_symmetry_space_group_name_H-M "P -1"
_symmetry_group_IT_number 2
_symmetry_cell_setting 'triclinic'
loop_
_space_group_symop_operation_xyz
x,y,z
-x,-y,-z
loop_
_atom_site_type_symbol
_atom_site_label
_atom_site_fract_x
_atom_site_fract_y
_atom_site_fract_z
Si Si1 0.670398 0.644698 0.569543
Si Si2 0.726678 0.145901 0.238153
Si Si3 0.032941 0.389664 0.108486
Si Si4 0.541489 0.538555 0.210808
Si Si5 0.267883 0.417022 0.995798
Si Si6 0.958277 0.775402 0.742824
Si Si7 0.644645 0.258662 0.561711
Si Si8 0.863745 0.739546 0.356777
O O1 0.710629 0.383573 0.406306
O O2 0.796550 0.820607 0.667618
O O3 0.668254 0.531212 0.632427
O O4 0.496739 0.793470 0.557445
O O5 0.609658 0.264679 0.172644
O O6 0.907621 0.088689 0.212768
O O7 0.691995 0.875293 0.156766
O O8 0.974479 0.676587 0.260586
O O9 0.180792 0.381837 0.066270
O O10 0.063313 0.209084 0.138728
O O11 0.871287 0.383723 0.013054
O O12 0.427481 0.508273 0.087697
O O13 0.429168 0.715932 0.337837
O O14 0.702461 0.635029 0.264941
O O15 0.038434 0.460362 0.623140
O O16 0.801902 0.033909 0.491277
#
# Coordination Sequence:
#
# PCOD9097412 Si02
#       8
#     2   2   2   2   2   2   2   2
#     4  10  20  36  60  91 120 148 195 247 293 354
#     4  10  21  38  61  87 118 155 197 241 292 353
#     4   9  22  40  55  83 124 147 200 249 277 352
#     4  10  21  38  61  87 118 155 197 241 292 353
#     4  11  21  40  60  84 119 159 198 244 287 340
#     4   9  20  40  59  86 121 151 193 245 295 348
#     4  10  20  36  60  91 120 148 195 247 293 354
#     4   9  20  40  59  86 121 151 193 245 295 348
#
# _framework density 26.347729999999999
#
# number of rings (size 3 to 8) (size 9 to 14) (size 15 to 20)
#    0.750    1.500    0.000    2.625    0.000    1.500 
#    9.000    1.250    0.000    0.000    0.000    0.000 
#    0.000    0.000    0.000    0.000    0.000    0.000 
#
# Total GULP energy -89523.981270 kJ/mol
# GULP energy per Si atom -5595.248829 kJ/mol
# Density = 2.628776 g / cm^3
# Si number density = 26.347730 Si / 1000 Ang^3
#
#
#
# Elastic Constant Matrix: (Units=GPa)
#
#
# Indices 1 2 3 4 5 6 
#
# 1 75.6697 9.5918 40.0501 -22.3253 -0.0345 -6.0634
# 2 9.5918 80.0139 21.9912 -1.2402 2.0237 -3.4677
# 3 40.0501 21.9912 74.3499 -12.2006 4.8206 -12.4552
# 4 -22.3253 -1.2402 -12.2006 32.2787 -13.2295 -4.4262
# 5 -0.0345 2.0237 4.8206 -13.2295 56.5837 -18.1095
# 6 -6.0634 -3.4677 -12.4552 -4.4262 -18.1095 41.0959
#
#
#
# Elastic Compliance Matrix: (Units=1/GPa)
#
#
# Indices 1 2 3 4 5 6 
#
# 1 0.023278 0.000147 -0.009592 0.015628 0.006044 0.004886
# 2 0.000147 0.013659 -0.004401 -0.001371 -0.000620 -0.000580
# 3 -0.009592 -0.004401 0.021060 0.002020 0.000431 0.005004
# 4 0.015628 -0.001371 0.002020 0.051664 0.017048 0.015879
# 5 0.006044 -0.000620 0.000431 0.017048 0.026248 0.014373
# 6 0.004886 -0.000580 0.005004 0.015879 0.014373 0.034566
#
#
# Mechanical properties :
#
#
# Convention : Reuss Voigt Hill
#
# Bulk Modulus (GPa) = 32.99709 41.47772 37.23740
# Shear Modulus (GPa) = 24.00737 36.55169 30.27953
#
# Velocity S-wave (km/s) = 3.02184 3.72866 3.39370
# Velocity P-wave (km/s) = 4.97255 5.85780 5.43323
#
# Compressibility (1/GPa) = 0.03030570
#
# Stress axis : x y z
#
# Youngs Moduli (GPa) = 42.95840 73.21110 47.48298
#
# Poissons Ratio (x) = -0.01075 0.45544
# Poissons Ratio (y) = -0.00631 0.20898
# Poissons Ratio (z) = 0.41204 0.32221
#
# Static dielectric constant tensor:
#      x y z
#    x 2.032480 0.026140 -0.023150 
#    y 0.026140 2.048830 -0.016730 
#    z -0.023150 -0.016730 2.110610 
# 
# From -- ./inp_files/557686.got.cif
#   From: 2010.05.17/outbox.cif.g08.bks.cpg/sg2_279_cif.got.tgz:557686.got - 2010.06.03 11:33:40.
