data_PCOD9097492
_publ_section_title
;
Structure prediction by ZEFSAII (Michael W. Deem and Ramdas Pophale) SiO2 
 PCOD9097492
Probable space group: P -1
;
_chemical_formula_sum "Si O2"
_cell_formula_units_Z 14
_cell_length_a 20.637376
_cell_length_b 7.886940
_cell_length_c 11.551677
_cell_angle_alpha 115.809996
_cell_angle_beta 151.860402
_cell_angle_gamma 48.512230
_cell_volume 602.495996
_symmetry_space_group_name_H-M "P -1"
_symmetry_group_IT_number 2
_symmetry_cell_setting 'triclinic'
loop_
_space_group_symop_operation_xyz
x,y,z
-x,-y,-z
loop_
_atom_site_type_symbol
_atom_site_label
_atom_site_fract_x
_atom_site_fract_y
_atom_site_fract_z
Si Si1 0.537335 0.307984 0.908744
Si Si2 0.529831 0.773052 0.844544
Si Si3 0.124724 0.993935 0.791380
Si Si4 0.723468 0.762199 0.583065
Si Si5 0.738761 0.914251 0.302082
Si Si6 0.112527 0.422721 0.975229
Si Si7 0.134002 0.690433 0.896850
O O1 0.349982 0.380743 0.600224
O O2 0.500000 0.500000 0.000000
O O3 0.667136 0.238484 0.986332
O O4 0.664148 0.049795 0.102974
O O5 0.360592 0.872331 0.691374
O O6 0.422859 0.975246 0.632533
O O7 0.680985 0.522822 0.940721
O O8 0.657263 0.777534 0.137896
O O9 0.088131 0.939461 0.846338
O O10 0.098510 0.243218 0.824693
O O11 0.000000 0.000000 0.500000
O O12 0.916106 0.625484 0.785416
O O13 0.746231 0.756913 0.754310
O O14 0.953367 0.735883 0.590730
O O15 0.161020 0.574956 0.032479
#
# Coordination Sequence:
#
# PCOD9097492 Si02
#       7
#     2   2   2   2   2   2   2
#     4  11  22  41  66  99 142 173 225 287 335 405
#     4  10  21  37  64  97 131 176 228 273 337 413
#     4  12  26  41  67 106 134 177 228 280 344 403
#     4  10  23  45  70  96 133 194 222 277 350 397
#     4  10  20  36  60  98 134 174 220 275 341 398
#     4  11  25  47  70  95 142 179 232 281 337 415
#     4  12  24  41  68 100 135 178 221 283 345 399
#
# _framework density 23.236668999999999
#
# number of rings (size 3 to 8) (size 9 to 14) (size 15 to 20)
#    0.000    1.143    2.857    3.857    2.000    2.286 
#    0.000    7.143    0.000    0.000    0.000    0.000 
#    0.000    0.000    0.000    0.000    0.000    0.000 
#
# Total GULP energy -78031.856720 kJ/mol
# GULP energy per Si atom -5573.704051 kJ/mol
# Density = 2.318378 g / cm^3
# Si number density = 23.236669 Si / 1000 Ang^3
#
#
#
# Elastic Constant Matrix: (Units=GPa)
#
#
# Indices 1 2 3 4 5 6 
#
# 1 139.8486 7.9217 24.7010 -10.0676 -2.4350 22.3975
# 2 7.9217 24.6220 4.4665 -5.6587 -1.0825 3.6969
# 3 24.7010 4.4665 70.2828 -16.8671 -12.6779 5.5647
# 4 -10.0676 -5.6587 -16.8671 28.2078 -4.3927 0.5206
# 5 -2.4350 -1.0825 -12.6779 -4.3927 20.3576 4.9635
# 6 22.3975 3.6969 5.5647 0.5206 4.9635 18.4783
#
#
#
# Elastic Compliance Matrix: (Units=1/GPa)
#
#
# Indices 1 2 3 4 5 6 
#
# 1 0.009720 0.000120 -0.000469 0.004232 0.004990 -0.013124
# 2 0.000120 0.045426 0.003081 0.012858 0.010368 -0.013309
# 3 -0.000469 0.003081 0.023652 0.018287 0.022105 -0.013624
# 4 0.004232 0.012858 0.018287 0.055594 0.030152 -0.022875
# 5 0.004990 0.010368 0.022105 0.030152 0.079563 -0.037001
# 6 -0.013124 -0.013309 -0.013624 -0.022875 -0.037001 0.087374
#
#
# Mechanical properties :
#
#
# Convention : Reuss Voigt Hill
#
# Bulk Modulus (GPa) = 11.86774 34.32574 23.09674
# Shear Modulus (GPa) = 15.43440 26.58636 21.01038
#
# Velocity S-wave (km/s) = 2.58005 3.38621 3.01024
# Velocity P-wave (km/s) = 3.74085 5.48569 4.69504
#
# Compressibility (1/GPa) = 0.08426203
#
# Stress axis : x y z
#
# Youngs Moduli (GPa) = 102.88006 22.01395 42.27977
#
# Poissons Ratio (x) = -0.00265 0.01982
# Poissons Ratio (y) = -0.01239 -0.13024
# Poissons Ratio (z) = 0.04823 -0.06781
#
# Static dielectric constant tensor:
#      x y z
#    x 2.046250 0.127780 0.014290 
#    y 0.127780 1.985380 0.010550 
#    z 0.014290 0.010550 1.847660 
# 
# From -- ./inp_files/256053.got.cif
#   From: 2010.05.17/outbox.cif.g08.bks.cpg/sg2_129_cif.got.tgz:256053.got - 2010.06.03 11:33:40.
