data_PCOD9097502
_publ_section_title
;
Structure prediction by ZEFSAII (Michael W. Deem and Ramdas Pophale) SiO2 
 PCOD9097502
Probable space group: P -1
;
_chemical_formula_sum "Si O2"
_cell_formula_units_Z 16
_cell_length_a 11.586384
_cell_length_b 11.940745
_cell_length_c 11.245745
_cell_angle_alpha 146.565204
_cell_angle_beta 123.976071
_cell_angle_gamma 49.318200
_cell_volume 649.679699
_symmetry_space_group_name_H-M "P -1"
_symmetry_group_IT_number 2
_symmetry_cell_setting 'triclinic'
loop_
_space_group_symop_operation_xyz
x,y,z
-x,-y,-z
loop_
_atom_site_type_symbol
_atom_site_label
_atom_site_fract_x
_atom_site_fract_y
_atom_site_fract_z
Si Si1 0.340441 0.683482 0.181082
Si Si2 0.529646 0.873251 0.029685
Si Si3 0.924213 0.959525 0.065188
Si Si4 0.524794 0.689342 0.514487
Si Si5 0.156078 0.453030 0.983718
Si Si6 0.190302 0.464958 0.765215
Si Si7 0.683066 0.279904 0.353062
Si Si8 0.814526 0.905694 0.711746
O O1 0.472044 0.652800 0.321959
O O2 0.203351 0.660359 0.163516
O O3 0.291864 0.905991 0.273152
O O4 0.342207 0.498213 0.921287
O O5 0.477670 0.063967 0.267193
O O6 0.703375 0.716332 0.012037
O O7 0.435964 0.726178 0.822257
O O8 0.500000 0.000000 0.000000
O O9 0.829745 0.054777 0.214954
O O10 0.050987 0.708724 0.901709
O O11 0.807602 0.983609 0.912430
O O12 0.014641 0.115925 0.238745
O O13 0.678303 0.516824 0.516833
O O14 0.391154 0.708112 0.550782
O O15 0.000000 0.500000 0.000000
O O16 0.156452 0.350660 0.761947
O O17 0.200340 0.321753 0.528770
#
# Coordination Sequence:
#
# PCOD9097502 Si02
#       8
#     2   2   2   2   2   2   2   2
#     4   9  20  36  58  84 117 154 191 244 300 354
#     4  10  21  35  58  80 120 163 192 239 293 361
#     4  10  22  37  61  87 119 151 211 251 292 354
#     4  10  20  36  61  80 122 154 191 240 305 361
#     4  10  21  36  57  88 122 154 194 246 298 359
#     4   9  20  36  58  85 120 155 189 250 303 352
#     4  10  21  38  55  87 116 156 197 245 294 360
#     4  10  20  40  59  87 115 159 199 255 299 347
#
# _framework density 24.627521000000002
#
# number of rings (size 3 to 8) (size 9 to 14) (size 15 to 20)
#    0.750    1.500    1.250    1.125    3.500    2.000 
#    0.000    3.125    0.000    3.750    0.000    0.000 
#    0.000    0.000    0.000    0.000    0.000    0.000 
#
# Total GULP energy -89158.764177 kJ/mol
# GULP energy per Si atom -5572.422761 kJ/mol
# Density = 2.457147 g / cm^3
# Si number density = 24.627521 Si / 1000 Ang^3
#
#
#
# Elastic Constant Matrix: (Units=GPa)
#
#
# Indices 1 2 3 4 5 6 
#
# 1 52.5128 8.5217 17.4340 -6.0608 -13.6583 -8.0013
# 2 8.5217 119.0570 18.8523 -10.1861 -3.3638 12.7873
# 3 17.4340 18.8523 126.9278 -13.4663 -8.5781 -3.9273
# 4 -6.0608 -10.1861 -13.4663 34.2578 1.2303 0.0716
# 5 -13.6583 -3.3638 -8.5781 1.2303 36.3109 -1.9058
# 6 -8.0013 12.7873 -3.9273 0.0716 -1.9058 20.8201
#
#
#
# Elastic Compliance Matrix: (Units=1/GPa)
#
#
# Indices 1 2 3 4 5 6 
#
# 1 0.024343 -0.002181 -0.001787 0.002608 0.009031 0.011176
# 2 -0.002181 0.009658 -0.001178 0.002061 -0.000644 -0.007059
# 3 -0.001787 -0.001178 0.008729 0.002715 0.001283 0.001792
# 4 0.002608 0.002061 0.002715 0.031304 0.000764 0.000211
# 5 0.009031 -0.000644 0.001283 0.000764 0.031521 0.006991
# 6 0.011176 -0.007059 0.001792 0.000211 0.006991 0.057638
#
#
# Mechanical properties :
#
#
# Convention : Reuss Voigt Hill
#
# Bulk Modulus (GPa) = 30.82880 43.12375 36.97628
# Shear Modulus (GPa) = 27.12988 35.19038 31.16013
#
# Velocity S-wave (km/s) = 3.32265 3.78419 3.56090
# Velocity P-wave (km/s) = 5.22161 6.05325 5.65274
#
# Compressibility (1/GPa) = 0.03243720
#
# Stress axis : x y z
#
# Youngs Moduli (GPa) = 41.07990 103.53825 114.55922
#
# Poissons Ratio (x) = 0.22587 0.20469
# Poissons Ratio (y) = 0.08961 0.13498
# Poissons Ratio (z) = 0.07340 0.12199
#
# Static dielectric constant tensor:
#      x y z
#    x 2.020700 0.015930 0.046730 
#    y 0.015930 1.995750 0.078520 
#    z 0.046730 0.078520 2.094360 
# 
# From -- ./inp_files/455274.got.cif
#   From: 2010.05.17/outbox.cif.g08.bks.cpg/sg2_228_cif.got.tgz:455274.got - 2010.06.03 11:33:40.
