data_PCOD9097545
_publ_section_title
;
Structure prediction by ZEFSAII (Michael W. Deem and Ramdas Pophale) SiO2 
 PCOD9097545
Probable space group: P -1
;
_chemical_formula_sum "Si O2"
_cell_formula_units_Z 13
_cell_length_a 12.952726
_cell_length_b 9.198379
_cell_length_c 13.607872
_cell_angle_alpha 35.801631
_cell_angle_beta 148.793402
_cell_angle_gamma 126.465846
_cell_volume 464.256031
_symmetry_space_group_name_H-M "P -1"
_symmetry_group_IT_number 2
_symmetry_cell_setting 'triclinic'
loop_
_space_group_symop_operation_xyz
x,y,z
-x,-y,-z
loop_
_atom_site_type_symbol
_atom_site_label
_atom_site_fract_x
_atom_site_fract_y
_atom_site_fract_z
Si Si1 0.500000 0.500000 0.000000
Si Si2 0.450257 0.427667 0.682972
Si Si3 0.719535 0.007461 0.720309
Si Si4 0.782159 0.709789 0.588964
Si Si5 0.215941 0.284208 0.758149
Si Si6 0.177097 0.585511 0.861829
Si Si7 0.009290 0.111901 0.172141
O O1 0.619233 0.696757 0.035510
O O2 0.301677 0.626638 0.846683
O O3 0.425049 0.272230 0.650598
O O4 0.316818 0.347217 0.704810
O O5 0.669836 0.413898 0.920739
O O6 0.339666 0.739770 0.397928
O O7 0.832762 0.708312 0.005606
O O8 0.865251 0.054208 0.726585
O O9 0.500000 0.000000 0.500000
O O10 0.803966 0.871067 0.613395
O O11 0.946617 0.752421 0.619160
O O12 0.881957 0.408019 0.873612
O O13 0.000000 0.500000 0.500000
O O14 0.141574 0.031446 0.827074
#
# Coordination Sequence:
#
# PCOD9097545 Si02
#       7
#     1   2   2   2   2   2   2
#     4  10  22  36  58  94 120 154 200 252 300 344
#     4  10  20  36  61  87 118 155 203 242 296 348
#     4   9  18  35  58  87 115 150 199 251 280 344
#     4  10  22  41  59  88 125 161 193 243 298 367
#     4  11  21  38  60  90 122 153 202 252 291 354
#     4   9  20  36  58  86 123 153 200 247 293 352
#     4  10  22  39  62  88 124 160 198 242 305 355
#
# _framework density 28.001791000000001
#
# number of rings (size 3 to 8) (size 9 to 14) (size 15 to 20)
#    0.000    2.154    1.538    0.923    2.154    1.846 
#    0.000   16.923    0.000    0.000    0.000    0.000 
#    0.000    0.000    0.000    0.000    0.000    0.000 
#
# Total GULP energy -72569.743502 kJ/mol
# GULP energy per Si atom -5582.287962 kJ/mol
# Density = 2.793806 g / cm^3
# Si number density = 28.001791 Si / 1000 Ang^3
#
#
#
# Elastic Constant Matrix: (Units=GPa)
#
#
# Indices 1 2 3 4 5 6 
#
# 1 78.9297 20.6695 11.4322 -1.9037 4.4729 16.7268
# 2 20.6695 188.8933 44.9567 35.4938 -18.4470 6.1296
# 3 11.4322 44.9567 69.0337 26.2842 4.0093 -2.5496
# 4 -1.9037 35.4938 26.2842 46.0510 3.0336 -11.4195
# 5 4.4729 -18.4470 4.0093 3.0336 30.2627 6.3275
# 6 16.7268 6.1296 -2.5496 -11.4195 6.3275 53.7102
#
#
#
# Elastic Compliance Matrix: (Units=1/GPa)
#
#
# Indices 1 2 3 4 5 6 
#
# 1 0.014363 -0.001581 -0.002243 0.002340 -0.002264 -0.003635
# 2 -0.001581 0.008009 -0.003390 -0.005361 0.006626 -0.002503
# 3 -0.002243 -0.003390 0.020689 -0.008891 -0.003713 0.000615
# 4 0.002340 -0.005361 -0.008891 0.033339 -0.007327 0.007413
# 5 -0.002264 0.006626 -0.003713 -0.007327 0.040003 -0.006498
# 6 -0.003635 -0.002503 0.000615 0.007413 -0.006498 0.022407
#
#
# Mechanical properties :
#
#
# Convention : Reuss Voigt Hill
#
# Bulk Modulus (GPa) = 34.92449 54.55260 44.73854
# Shear Modulus (GPa) = 30.71588 43.32466 37.02027
#
# Velocity S-wave (km/s) = 3.31558 3.93773 3.63997
# Velocity P-wave (km/s) = 5.21121 6.34022 5.80324
#
# Compressibility (1/GPa) = 0.02863321
#
# Stress axis : x y z
#
# Youngs Moduli (GPa) = 69.62147 124.85222 48.33595
#
# Poissons Ratio (x) = 0.19736 0.10842
# Poissons Ratio (y) = 0.11005 0.16388
# Poissons Ratio (z) = 0.15616 0.42330
#
# Static dielectric constant tensor:
#      x y z
#    x 2.149200 -0.019430 -0.060090 
#    y -0.019430 2.114350 -0.045320 
#    z -0.060090 -0.045320 2.272630 
# 
# From -- ./inp_files/155936.got.cif
#   From: 2010.05.17/outbox.cif.g08.bks.cpg/sg2_78_cif.got.tgz:155936.got - 2010.06.03 11:33:40.
