data_PCOD9097347
_publ_section_title
;
Structure prediction by ZEFSAII (Michael W. Deem and Ramdas Pophale) SiO2 
 PCOD9097347
Probable space group: P -1
;
_chemical_formula_sum "Si O2"
_cell_formula_units_Z 14
_cell_length_a 15.160010
_cell_length_b 7.579436
_cell_length_c 12.864449
_cell_angle_alpha 100.346466
_cell_angle_beta 26.304195
_cell_angle_gamma 86.114920
_cell_volume 548.533678
_symmetry_space_group_name_H-M "P -1"
_symmetry_group_IT_number 2
_symmetry_cell_setting 'triclinic'
loop_
_space_group_symop_operation_xyz
x,y,z
-x,-y,-z
loop_
_atom_site_type_symbol
_atom_site_label
_atom_site_fract_x
_atom_site_fract_y
_atom_site_fract_z
Si Si1 0.630808 0.791590 0.970330
Si Si2 0.708367 0.802157 0.317216
Si Si3 0.839487 0.333583 0.738330
Si Si4 0.431349 0.255252 0.202810
Si Si5 0.867560 0.070926 0.257863
Si Si6 0.785931 0.476458 0.348824
Si Si7 0.902030 0.081570 0.446232
O O1 0.801598 0.563108 0.815367
O O2 0.670791 0.762635 0.800362
O O3 0.372715 0.831108 0.266879
O O4 0.594555 0.020039 0.053260
O O5 0.653301 0.642353 0.414628
O O6 0.500000 0.000000 0.500000
O O7 0.775813 0.913334 0.347453
O O8 0.940505 0.661670 0.987451
O O9 0.919932 0.235951 0.526256
O O10 0.590252 0.350586 0.016772
O O11 0.992729 0.145988 0.636575
O O12 0.247412 0.401703 0.497293
O O13 0.694192 0.318576 0.447452
O O14 0.996375 0.062118 0.227615
O O15 0.000000 0.000000 0.000000
#
# Coordination Sequence:
#
# PCOD9097347 Si02
#       7
#     2   2   2   2   2   2   2
#     4  10  20  38  59  85 124 161 200 251 303 355
#     4  10  23  42  63  89 118 156 205 250 305 368
#     4  10  21  38  62  88 121 163 202 249 303 359
#     4  10  20  36  60  88 118 159 205 247 301 363
#     4  10  21  39  62  87 120 158 197 249 305 356
#     4  10  21  40  61  86 123 157 195 256 306 353
#     4  10  20  39  61  88 123 159 205 252 302 361
#
# _framework density 25.522589
#
# number of rings (size 3 to 8) (size 9 to 14) (size 15 to 20)
#    0.000    2.000    0.000    4.286    0.000    2.857 
#    0.000   32.857    0.000    1.714    0.000    0.000 
#    0.000    0.000    0.000    0.000    0.000    0.000 
#
# Total GULP energy -78272.515379 kJ/mol
# GULP energy per Si atom -5590.893956 kJ/mol
# Density = 2.546450 g / cm^3
# Si number density = 25.522589 Si / 1000 Ang^3
#
#
#
# Elastic Constant Matrix: (Units=GPa)
#
#
# Indices 1 2 3 4 5 6 
#
# 1 82.7411 32.5667 51.0769 8.8445 28.9054 -24.3626
# 2 32.5667 177.5244 42.7115 39.2353 18.2294 -6.5417
# 3 51.0769 42.7115 111.6185 30.5335 25.0840 -17.1556
# 4 8.8445 39.2353 30.5335 49.1367 -2.6532 1.3932
# 5 28.9054 18.2294 25.0840 -2.6532 43.4209 1.7903
# 6 -24.3626 -6.5417 -17.1556 1.3932 1.7903 39.5995
#
#
#
# Elastic Compliance Matrix: (Units=1/GPa)
#
#
# Indices 1 2 3 4 5 6 
#
# 1 0.024579 -0.001046 -0.005442 -0.001307 -0.013405 0.013244
# 2 -0.001046 0.007466 0.000052 -0.005988 -0.002873 0.000953
# 3 -0.005442 0.000052 0.016175 -0.009586 -0.006506 0.004299
# 4 -0.001307 -0.005988 -0.009586 0.032144 0.011198 -0.007583
# 5 -0.013405 -0.002873 -0.006506 0.011198 0.038167 -0.013660
# 6 0.013244 0.000953 0.004299 -0.007583 -0.013660 0.036305
#
#
# Mechanical properties :
#
#
# Convention : Reuss Voigt Hill
#
# Bulk Modulus (GPa) = 28.29051 69.39936 48.84493
# Shear Modulus (GPa) = 27.85668 42.80001 35.32834
#
# Velocity S-wave (km/s) = 3.30730 4.09950 3.72452
# Velocity P-wave (km/s) = 5.06881 7.04686 6.13804
#
# Compressibility (1/GPa) = 0.03534755
#
# Stress axis : x y z
#
# Youngs Moduli (GPa) = 40.68477 133.94139 61.82548
#
# Poissons Ratio (x) = 0.14016 0.33643
# Poissons Ratio (y) = 0.04258 -0.00321
# Poissons Ratio (z) = 0.22139 -0.00695
#
# Static dielectric constant tensor:
#      x y z
#    x 2.025620 0.032770 -0.041720 
#    y 0.032770 2.038730 -0.064910 
#    z -0.041720 -0.064910 2.064120 
# 
# From -- ./inp_files/444689.got.cif
#   From: 2010.05.17/outbox.cif.g08.bks.cpg/sg2_223_cif.got.tgz:444689.got - 2010.06.03 11:33:40.
