data_PCOD9097393
_publ_section_title
;
Structure prediction by ZEFSAII (Michael W. Deem and Ramdas Pophale) SiO2 
 PCOD9097393
Probable space group: P -1
;
_chemical_formula_sum "Si O2"
_cell_formula_units_Z 13
_cell_length_a 14.422105
_cell_length_b 9.923816
_cell_length_c 9.552626
_cell_angle_alpha 135.858706
_cell_angle_beta 138.573933
_cell_angle_gamma 62.128892
_cell_volume 622.558488
_symmetry_space_group_name_H-M "P -1"
_symmetry_group_IT_number 2
_symmetry_cell_setting 'triclinic'
loop_
_space_group_symop_operation_xyz
x,y,z
-x,-y,-z
loop_
_atom_site_type_symbol
_atom_site_label
_atom_site_fract_x
_atom_site_fract_y
_atom_site_fract_z
Si Si1 0.500000 0.000000 0.000000
Si Si2 0.405933 0.698620 0.423941
Si Si3 0.878697 0.367847 0.071161
Si Si4 0.993024 0.223320 0.362129
Si Si5 0.226549 0.775340 0.657382
Si Si6 0.297804 0.393463 0.305332
Si Si7 0.988147 0.184599 0.799463
O O1 0.584394 0.138531 0.323025
O O2 0.632790 0.072288 0.096598
O O3 0.347726 0.494194 0.287742
O O4 0.563301 0.685770 0.540241
O O5 0.286911 0.718297 0.190048
O O6 0.968128 0.254046 0.193449
O O7 0.904326 0.589964 0.320375
O O8 0.937465 0.346088 0.965106
O O9 0.841432 0.228251 0.269356
O O10 0.043380 0.022210 0.311532
O O11 0.261576 0.563295 0.493500
O O12 0.100639 0.821267 0.446764
O O13 0.156109 0.240859 0.010550
#
# Coordination Sequence:
#
# PCOD9097393 Si02
#       7
#     1   2   2   2   2   2   2
#     4  10  20  36  60  90 122 154 210 254 300 364
#     4  10  21  39  61  91 127 164 200 262 312 358
#     4  11  23  45  61  92 131 163 203 254 312 369
#     4  11  25  38  67  92 127 164 207 252 309 374
#     4  11  21  39  62  96 123 158 212 262 300 362
#     4  10  20  36  65  89 125 158 207 263 306 351
#     4  12  21  41  67  91 122 165 212 256 306 360
#
# _framework density 20.881572999999999
#
# number of rings (size 3 to 8) (size 9 to 14) (size 15 to 20)
#    0.000    1.231    4.615    3.231    0.000    3.692 
#    0.000    3.846    0.000    0.000    0.000    0.000 
#    0.000    0.000    0.000    0.000    0.000    0.000 
#
# Total GULP energy -72408.089526 kJ/mol
# GULP energy per Si atom -5569.853040 kJ/mol
# Density = 2.083405 g / cm^3
# Si number density = 20.881573 Si / 1000 Ang^3
#
#
#
# Elastic Constant Matrix: (Units=GPa)
#
#
# Indices 1 2 3 4 5 6 
#
# 1 47.5123 -15.6923 9.8500 -3.0641 11.7813 -5.4474
# 2 -15.6923 44.7842 32.1883 1.6660 -0.8699 -9.2285
# 3 9.8500 32.1883 131.7442 1.4773 17.8600 1.7185
# 4 -3.0641 1.6660 1.4773 17.9597 1.1661 0.7889
# 5 11.7813 -0.8699 17.8600 1.1661 34.6346 -1.6247
# 6 -5.4474 -9.2285 1.7185 0.7889 -1.6247 29.5886
#
#
#
# Elastic Compliance Matrix: (Units=1/GPa)
#
#
# Indices 1 2 3 4 5 6 
#
# 1 0.031024 0.016929 -0.005721 0.004159 -0.006810 0.010839
# 2 0.016929 0.039970 -0.011504 -0.000720 0.001970 0.016378
# 3 -0.005721 -0.011504 0.011519 -0.000318 -0.004533 -0.005551
# 4 0.004159 -0.000720 -0.000318 0.056742 -0.003232 -0.001131
# 5 -0.006810 0.001970 -0.004533 -0.003232 0.033758 0.001564
# 6 0.010839 0.016378 -0.005551 -0.001131 0.001564 0.041339
#
#
# Mechanical properties :
#
#
# Convention : Reuss Voigt Hill
#
# Bulk Modulus (GPa) = 12.20679 30.74806 21.47742
# Shear Modulus (GPa) = 20.63978 29.61626 25.12802
#
# Velocity S-wave (km/s) = 3.14733 3.77011 3.47271
# Velocity P-wave (km/s) = 4.36646 5.80591 5.13686
#
# Compressibility (1/GPa) = 0.08192165
#
# Stress axis : x y z
#
# Youngs Moduli (GPa) = 32.23325 25.01905 86.81079
#
# Poissons Ratio (x) = -0.42354 0.49660
# Poissons Ratio (y) = -0.54567 0.99866
# Poissons Ratio (z) = 0.18439 0.28782
#
# Static dielectric constant tensor:
#      x y z
#    x 1.762100 -0.026940 0.013050 
#    y -0.026940 1.781330 0.026630 
#    z 0.013050 0.026630 1.731410 
# 
# From -- ./inp_files/170164.got.cif
#   From: 2010.05.17/outbox.cif.g08.bks.cpg/sg2_86_cif.got.tgz:170164.got - 2010.06.03 11:33:40.
