data_PCOD9097833
_publ_section_title
;
Structure prediction by ZEFSAII (Michael W. Deem and Ramdas Pophale) SiO2 
 PCOD9097833
Probable space group: P -1
;
_chemical_formula_sum "Si O2"
_cell_formula_units_Z 16
_cell_length_a 11.920181
_cell_length_b 18.353586
_cell_length_c 20.794966
_cell_angle_alpha 28.149141
_cell_angle_beta 20.377602
_cell_angle_gamma 29.848916
_cell_volume 723.938707
_symmetry_space_group_name_H-M "P -1"
_symmetry_group_IT_number 2
_symmetry_cell_setting 'triclinic'
loop_
_space_group_symop_operation_xyz
x,y,z
-x,-y,-z
loop_
_atom_site_type_symbol
_atom_site_label
_atom_site_fract_x
_atom_site_fract_y
_atom_site_fract_z
Si Si1 0.364016 0.276146 0.606556
Si Si2 0.626998 0.370695 0.124100
Si Si3 0.276214 0.961911 0.936551
Si Si4 0.386210 0.774706 0.262652
Si Si5 0.997442 0.536085 0.703511
Si Si6 0.902381 0.960969 0.883008
Si Si7 0.671817 0.526674 0.197433
Si Si8 0.280850 0.629424 0.206761
O O1 0.473889 0.095012 0.711934
O O2 0.648738 0.358341 0.368799
O O3 0.173394 0.384618 0.682995
O O4 0.091134 0.305561 0.672030
O O5 0.890067 0.464663 0.881765
O O6 0.344124 0.383306 0.212261
O O7 0.452582 0.468354 0.202682
O O8 0.800777 0.186474 0.182216
O O9 0.100390 0.992600 0.076926
O O10 0.449358 0.774972 0.986480
O O11 0.000000 0.000000 0.000000
O O12 0.634641 0.656613 0.172214
O O13 0.222959 0.662570 0.482372
O O14 0.126228 0.891042 0.264440
O O15 0.575854 0.890535 0.105708
O O16 0.350225 0.592436 0.272949
O O17 0.000000 0.500000 0.000000
#
# Coordination Sequence:
#
# PCOD9097833 Si02
#       8
#     2   2   2   2   2   2   2   2
#     4   9  19  37  61  86 112 155 200 237 296 350
#     4  10  20  36  62  90 117 152 203 250 279 341
#     4  10  20  38  62  89 114 157 196 242 295 346
#     4  10  23  39  60  86 120 164 193 236 300 356
#     4   9  19  37  59  89 119 150 202 245 290 345
#     4  11  21  40  62  85 120 158 200 238 290 358
#     4  11  21  38  58  87 121 154 197 241 291 352
#     4  10  20  37  60  87 121 154 190 246 298 337
#
# _framework density 22.101319
#
# number of rings (size 3 to 8) (size 9 to 14) (size 15 to 20)
#    0.000    2.000    2.500    1.125    1.750    1.000 
#    2.250    4.375    0.000    0.000    0.000    0.000 
#    0.000    0.000    0.000    0.000    0.000    0.000 
#
# Total GULP energy -89366.901543 kJ/mol
# GULP energy per Si atom -5585.431346 kJ/mol
# Density = 2.205101 g / cm^3
# Si number density = 22.101319 Si / 1000 Ang^3
#
#
#
# Elastic Constant Matrix: (Units=GPa)
#
#
# Indices 1 2 3 4 5 6 
#
# 1 78.3696 7.6762 -19.2601 0.6350 -3.5022 2.3373
# 2 7.6762 100.1732 15.7077 -12.4011 -0.6991 -9.9108
# 3 -19.2601 15.7077 61.2183 -6.8087 8.7827 0.2206
# 4 0.6350 -12.4011 -6.8087 30.1747 -0.6309 5.3126
# 5 -3.5022 -0.6991 8.7827 -0.6309 14.1796 -5.4585
# 6 2.3373 -9.9108 0.2206 5.3126 -5.4585 23.7728
#
#
#
# Elastic Compliance Matrix: (Units=1/GPa)
#
#
# Indices 1 2 3 4 5 6 
#
# 1 0.014288 -0.002121 0.005213 0.000448 -0.000793 -0.002620
# 2 -0.002121 0.011747 -0.004055 0.003078 0.004847 0.005568
# 3 0.005213 -0.004055 0.021584 0.003959 -0.014667 -0.006656
# 4 0.000448 0.003078 0.003959 0.036587 -0.003561 -0.007791
# 5 -0.000793 0.004847 -0.014667 -0.003561 0.088481 0.023347
# 6 -0.002620 0.005568 -0.006656 -0.007791 0.023347 0.051808
#
#
# Mechanical properties :
#
#
# Convention : Reuss Voigt Hill
#
# Bulk Modulus (GPa) = 21.88581 27.55652 24.72117
# Shear Modulus (GPa) = 20.69097 29.33458 25.01278
#
# Velocity S-wave (km/s) = 3.06304 3.64713 3.36777
# Velocity P-wave (km/s) = 4.73641 5.49825 5.13149
#
# Compressibility (1/GPa) = 0.04569170
#
# Stress axis : x y z
#
# Youngs Moduli (GPa) = 69.98901 85.12879 46.33093
#
# Poissons Ratio (x) = 0.18060 -0.24150
# Poissons Ratio (y) = 0.14848 0.18785
# Poissons Ratio (z) = -0.36482 0.34516
#
# Static dielectric constant tensor:
#      x y z
#    x 1.848300 -0.023350 -0.037920 
#    y -0.023350 1.790430 -0.014890 
#    z -0.037920 -0.014890 1.860930 
# 
# From -- ./inp_files/277766.got.cif
#   From: 2010.05.17/outbox.cif.g08.bks.cpg/sg2_139_cif.got.tgz:277766.got - 2010.06.03 11:33:40.
