data_PCOD9097178
_publ_section_title
;
Structure prediction by ZEFSAII (Michael W. Deem and Ramdas Pophale) SiO2 
 PCOD9097178
Probable space group: P -1
;
_chemical_formula_sum "Si O2"
_cell_formula_units_Z 16
_cell_length_a 7.082632
_cell_length_b 14.240883
_cell_length_c 7.636136
_cell_angle_alpha 90.785248
_cell_angle_beta 54.467952
_cell_angle_gamma 84.659945
_cell_volume 621.875626
_symmetry_space_group_name_H-M "P -1"
_symmetry_group_IT_number 2
_symmetry_cell_setting 'triclinic'
loop_
_space_group_symop_operation_xyz
x,y,z
-x,-y,-z
loop_
_atom_site_type_symbol
_atom_site_label
_atom_site_fract_x
_atom_site_fract_y
_atom_site_fract_z
Si Si1 0.533876 0.692908 0.203101
Si Si2 0.926968 0.942835 0.258798
Si Si3 0.270638 0.536575 0.511908
Si Si4 0.529884 0.590083 0.867053
Si Si5 0.692960 0.896127 0.701538
Si Si6 0.235574 0.858336 0.798334
Si Si7 0.438572 0.106918 0.835083
Si Si8 0.057447 0.657960 0.916827
O O1 0.352484 0.626091 0.368418
O O2 0.444272 0.801744 0.279220
O O3 0.574606 0.672712 0.974764
O O4 0.797383 0.669233 0.137751
O O5 0.913822 0.897544 0.454711
O O6 0.742559 0.906051 0.222339
O O7 0.856200 0.056379 0.282914
O O8 0.162698 0.905929 0.029698
O O9 0.500000 0.500000 0.500000
O O10 0.266447 0.448156 0.381176
O O11 0.070671 0.579681 0.752568
O O12 0.276869 0.619662 0.918109
O O13 0.500000 0.500000 0.000000
O O14 0.513652 0.842884 0.679130
O O15 0.597842 0.008041 0.757300
O O16 0.686520 0.871053 0.908354
O O17 0.125185 0.761463 0.828498
#
# Coordination Sequence:
#
# PCOD9097178 Si02
#       8
#     2   2   2   2   2   2   2   2
#     4  11  22  40  65  90 129 159 209 274 305 387
#     4  10  21  39  60  87 131 173 205 261 316 366
#     4   9  22  40  62  94 116 159 211 252 328 395
#     4   9  21  42  60  88 125 154 201 262 320 380
#     4  10  22  38  61  86 130 177 204 263 319 358
#     4  10  20  36  59  90 125 161 219 253 305 386
#     4  10  20  39  59  93 122 164 222 250 312 376
#     4  11  22  38  67  94 120 169 208 259 320 378
#
# _framework density 25.728619999999999
#
# number of rings (size 3 to 8) (size 9 to 14) (size 15 to 20)
#    0.000    2.000    1.250    2.250    3.500    5.000 
#    0.000   18.750    0.000    0.000    0.000    0.000 
#    0.000    0.000    0.000    0.000    0.000    0.000 
#
# Total GULP energy -89440.310646 kJ/mol
# GULP energy per Si atom -5590.019415 kJ/mol
# Density = 2.567006 g / cm^3
# Si number density = 25.728620 Si / 1000 Ang^3
#
#
#
# Elastic Constant Matrix: (Units=GPa)
#
#
# Indices 1 2 3 4 5 6 
#
# 1 73.2338 11.2638 -1.6783 4.5847 2.4021 -7.1965
# 2 11.2638 94.4282 -13.6145 8.7630 7.8275 -0.1251
# 3 -1.6783 -13.6145 74.2724 -2.5299 6.6908 -15.4882
# 4 4.5847 8.7630 -2.5299 31.3749 -1.7439 0.0584
# 5 2.4021 7.8275 6.6908 -1.7439 32.0823 1.6202
# 6 -7.1965 -0.1251 -15.4882 0.0584 1.6202 31.2744
#
#
#
# Elastic Compliance Matrix: (Units=1/GPa)
#
#
# Indices 1 2 3 4 5 6 
#
# 1 0.014406 -0.001314 0.000939 -0.001739 -0.001242 0.003842
# 2 -0.001314 0.011697 0.002579 -0.003065 -0.003521 0.001210
# 3 0.000939 0.002579 0.016129 0.000178 -0.004480 0.008446
# 4 -0.001739 -0.003065 0.000178 0.033146 0.002669 -0.000524
# 5 -0.001242 -0.003521 -0.004480 0.002669 0.033416 -0.004255
# 6 0.003842 0.001210 0.008446 -0.000524 -0.004255 0.037268
#
#
# Mechanical properties :
#
#
# Convention : Reuss Voigt Hill
#
# Bulk Modulus (GPa) = 21.44083 25.98626 23.71355
# Shear Modulus (GPa) = 31.80678 35.34388 33.57533
#
# Velocity S-wave (km/s) = 3.51984 3.71039 3.61637
# Velocity P-wave (km/s) = 4.98704 5.33649 5.16472
#
# Compressibility (1/GPa) = 0.04663999
#
# Stress axis : x y z
#
# Youngs Moduli (GPa) = 69.41747 85.49519 62.00072
#
# Poissons Ratio (x) = 0.11231 -0.05819
# Poissons Ratio (y) = 0.09119 -0.15993
# Poissons Ratio (z) = -0.06516 -0.22053
#
# Static dielectric constant tensor:
#      x y z
#    x 2.089780 0.027520 -0.032200 
#    y 0.027520 1.980270 0.011410 
#    z -0.032200 0.011410 2.134480 
# 
# From -- ./inp_files/196747.got.cif
#   From: 2010.05.17/outbox.cif.g08.bks.cpg/sg2_99_cif.got.tgz:196747.got - 2010.06.03 11:33:40.
