data_PCOD9097385
_publ_section_title
;
Structure prediction by ZEFSAII (Michael W. Deem and Ramdas Pophale) SiO2 
 PCOD9097385
Probable space group: P -1
;
_chemical_formula_sum "Si O2"
_cell_formula_units_Z 14
_cell_length_a 12.053476
_cell_length_b 9.505538
_cell_length_c 8.909696
_cell_angle_alpha 60.694757
_cell_angle_beta 69.275217
_cell_angle_gamma 41.912434
_cell_volume 594.544624
_symmetry_space_group_name_H-M "P -1"
_symmetry_group_IT_number 2
_symmetry_cell_setting 'triclinic'
loop_
_space_group_symop_operation_xyz
x,y,z
-x,-y,-z
loop_
_atom_site_type_symbol
_atom_site_label
_atom_site_fract_x
_atom_site_fract_y
_atom_site_fract_z
Si Si1 0.101877 0.052785 0.622770
Si Si2 0.193041 0.585396 0.223572
Si Si3 0.946346 0.248724 0.305070
Si Si4 0.673092 0.245530 0.088667
Si Si5 0.626076 0.102327 0.915107
Si Si6 0.347621 0.589911 0.421533
Si Si7 0.744587 0.652122 0.977394
O O1 0.982694 0.257668 0.689487
O O2 0.086349 0.146304 0.417560
O O3 0.025782 0.945838 0.692504
O O4 0.280471 0.847766 0.716511
O O5 0.330766 0.481982 0.343555
O O6 0.197078 0.743829 0.036773
O O7 0.228984 0.411763 0.177189
O O8 0.786031 0.357436 0.427834
O O9 0.893931 0.435640 0.117114
O O10 0.500000 0.500000 0.000000
O O11 0.680363 0.078496 0.072933
O O12 0.680915 0.212578 0.750481
O O13 0.426334 0.275069 0.927009
O O14 0.707276 0.870887 0.922228
O O15 0.500000 0.500000 0.500000
#
# Coordination Sequence:
#
# PCOD9097385 Si02
#       7
#     2   2   2   2   2   2   2
#     4  10  21  36  61  88 118 156 206 244 296 350
#     4  10  21  35  62  87 121 158 203 243 294 360
#     4  10  20  36  63  86 119 159 197 249 298 352
#     4  11  19  35  60  91 113 152 203 249 283 352
#     4  10  22  35  60  91 124 154 196 253 303 346
#     4  10  20  36  60  90 120 154 200 254 293 344
#     4  11  20  38  61  89 121 160 198 243 304 361
#
# _framework density 23.547432000000001
#
# number of rings (size 3 to 8) (size 9 to 14) (size 15 to 20)
#    0.000    1.714    4.286    0.429    2.000    0.000 
#    0.000    2.143    6.286    0.000    0.000    0.000 
#    0.000    0.000    0.000    0.000    0.000    0.000 
#
# Total GULP energy -78155.373778 kJ/mol
# GULP energy per Si atom -5582.526698 kJ/mol
# Density = 2.349384 g / cm^3
# Si number density = 23.547432 Si / 1000 Ang^3
#
#
#
# Elastic Constant Matrix: (Units=GPa)
#
#
# Indices 1 2 3 4 5 6 
#
# 1 73.2934 34.3150 54.4910 1.0120 34.9342 3.5296
# 2 34.3150 132.9232 43.1077 26.8985 30.0371 28.6982
# 3 54.4910 43.1077 101.0944 12.3523 51.3220 4.3944
# 4 1.0120 26.8985 12.3523 29.6611 -5.5491 4.4714
# 5 34.9342 30.0371 51.3220 -5.5491 55.2496 3.2548
# 6 3.5296 28.6982 4.3944 4.4714 3.2548 47.1478
#
#
#
# Elastic Compliance Matrix: (Units=1/GPa)
#
#
# Indices 1 2 3 4 5 6 
#
# 1 0.024956 -0.003735 -0.011449 0.006683 -0.002502 0.001011
# 2 -0.003735 0.013846 0.002355 -0.014003 -0.008379 -0.006461
# 3 -0.011449 0.002355 0.028626 -0.017861 -0.022426 -0.000002
# 4 0.006683 -0.014003 -0.017861 0.058062 0.025668 0.002409
# 5 -0.002502 -0.008379 -0.022426 0.025668 0.047549 0.001661
# 6 0.001011 -0.006461 -0.000002 0.002409 0.001661 0.024724
#
#
# Mechanical properties :
#
#
# Convention : Reuss Voigt Hill
#
# Bulk Modulus (GPa) = 23.94116 63.45981 43.70049
# Shear Modulus (GPa) = 21.06638 38.10485 29.58561
#
# Velocity S-wave (km/s) = 2.99429 4.02707 3.54846
# Velocity P-wave (km/s) = 4.70570 6.97362 5.94874
#
# Compressibility (1/GPa) = 0.04176907
#
# Stress axis : x y z
#
# Youngs Moduli (GPa) = 40.07015 72.22483 34.93292
#
# Poissons Ratio (x) = 0.26974 0.39996
# Poissons Ratio (y) = 0.14965 -0.08225
# Poissons Ratio (z) = 0.45878 -0.17006
#
# Static dielectric constant tensor:
#      x y z
#    x 1.956390 -0.070050 0.059410 
#    y -0.070050 1.962600 0.026010 
#    z 0.059410 0.026010 1.892530 
# 
# From -- ./inp_files/294817.got.cif
#   From: 2010.05.17/outbox.cif.g08.bks.cpg/sg2_148_cif.got.tgz:294817.got - 2010.06.03 11:33:40.
