data_PCOD9097525
_publ_section_title
;
Structure prediction by ZEFSAII (Michael W. Deem and Ramdas Pophale) SiO2 
 PCOD9097525
Probable space group: P -1
;
_chemical_formula_sum "Si O2"
_cell_formula_units_Z 16
_cell_length_a 12.050691
_cell_length_b 16.064341
_cell_length_c 17.366807
_cell_angle_alpha 25.786454
_cell_angle_beta 142.940126
_cell_angle_gamma 127.894275
_cell_volume 808.579939
_symmetry_space_group_name_H-M "P -1"
_symmetry_group_IT_number 2
_symmetry_cell_setting 'triclinic'
loop_
_space_group_symop_operation_xyz
x,y,z
-x,-y,-z
loop_
_atom_site_type_symbol
_atom_site_label
_atom_site_fract_x
_atom_site_fract_y
_atom_site_fract_z
Si Si1 0.214069 0.648510 0.757148
Si Si2 0.641111 0.021432 0.953031
Si Si3 0.491948 0.959995 0.297839
Si Si4 0.259495 0.617989 0.255045
Si Si5 0.779407 0.177729 0.222874
Si Si6 0.197852 0.508839 0.141704
Si Si7 0.474131 0.165594 0.278331
Si Si8 0.218273 0.276827 0.591391
O O1 0.245468 0.666398 0.850230
O O2 0.328336 0.780108 0.670123
O O3 0.980022 0.749516 0.523440
O O4 0.306701 0.401324 0.997261
O O5 0.659486 0.017747 0.874475
O O6 0.770468 0.144883 0.954802
O O7 0.409540 0.145825 0.751275
O O8 0.718456 0.803296 0.221062
O O9 0.625418 0.715843 0.586057
O O10 0.627921 0.069019 0.243593
O O11 0.432161 0.065466 0.259885
O O12 0.500000 0.500000 0.500000
O O13 0.184519 0.556001 0.185825
O O14 0.173093 0.519739 0.355211
O O15 0.755851 0.307313 0.024770
O O16 0.000000 0.000000 0.500000
O O17 0.000000 0.500000 0.000000
O O18 0.500000 0.000000 0.500000
#
# Coordination Sequence:
#
# PCOD9097525 Si02
#       8
#     2   2   2   2   2   2   2   2
#     4  10  22  41  60  90 116 158 208 250 310 372
#     4  10  22  36  58  91 124 165 194 239 310 381
#     4  11  22  38  57  86 118 156 207 249 302 363
#     4  10  21  35  53  86 128 166 192 227 304 378
#     4  11  22  33  57  89 123 149 186 251 314 366
#     4  12  22  33  55  89 126 156 199 249 297 366
#     4  10  23  43  64  82 116 162 209 263 312 348
#     4  10  20  36  61  85 126 157 197 243 299 375
#
# _framework density 19.787777999999999
#
# number of rings (size 3 to 8) (size 9 to 14) (size 15 to 20)
#    0.000    1.500    3.750    2.250    7.000    1.000 
#    0.000    0.625    0.000    1.500    0.000    0.000 
#    0.000    0.000    0.000    0.000    0.000    0.000 
#
# Total GULP energy -89238.377394 kJ/mol
# GULP energy per Si atom -5577.398587 kJ/mol
# Density = 1.974274 g / cm^3
# Si number density = 19.787778 Si / 1000 Ang^3
#
#
#
# Elastic Constant Matrix: (Units=GPa)
#
#
# Indices 1 2 3 4 5 6 
#
# 1 49.1070 21.3844 37.0023 -9.9588 -25.3309 0.4596
# 2 21.3844 96.5778 37.2691 -2.8641 -1.2672 -17.7259
# 3 37.0023 37.2691 89.1069 -8.5894 -35.7950 -3.7341
# 4 -9.9588 -2.8641 -8.5894 32.8861 3.4720 3.8361
# 5 -25.3309 -1.2672 -35.7950 3.4720 31.0912 4.7323
# 6 0.4596 -17.7259 -3.7341 3.8361 4.7323 33.5793
#
#
#
# Elastic Compliance Matrix: (Units=1/GPa)
#
#
# Indices 1 2 3 4 5 6 
#
# 1 0.049797 -0.014742 0.004585 0.011951 0.046326 -0.015848
# 2 -0.014742 0.021391 -0.014582 -0.004990 -0.029594 0.014613
# 3 0.004585 -0.014582 0.031925 0.005373 0.040907 -0.010589
# 4 0.011951 -0.004990 0.005373 0.034547 0.013078 -0.007990
# 5 0.046326 -0.029594 0.040907 0.013078 0.118896 -0.029957
# 6 -0.015848 0.014613 -0.010589 -0.007990 -0.029957 0.041668
#
#
# Mechanical properties :
#
#
# Convention : Reuss Voigt Hill
#
# Bulk Modulus (GPa) = 18.64461 47.34479 32.99470
# Shear Modulus (GPa) = 13.67685 28.78704 21.23195
#
# Velocity S-wave (km/s) = 2.63188 3.81831 3.27920
# Velocity P-wave (km/s) = 4.32186 6.58920 5.57207
#
# Compressibility (1/GPa) = 0.05363481
#
# Stress axis : x y z
#
# Youngs Moduli (GPa) = 20.08147 46.74761 31.32378
#
# Poissons Ratio (x) = 0.68914 -0.14361
# Poissons Ratio (y) = 0.29604 0.45677
# Poissons Ratio (z) = -0.09207 0.68168
#
# Static dielectric constant tensor:
#      x y z
#    x 1.719910 0.027550 0.012200 
#    y 0.027550 1.745030 0.017260 
#    z 0.012200 0.017260 1.733120 
# 
# From -- ./inp_files/454522.got.cif
#   From: 2010.05.17/outbox.cif.g08.bks.cpg/sg2_228_cif.got.tgz:454522.got - 2010.06.03 11:33:40.
