data_PCOD9097856
_publ_section_title
;
Structure prediction by ZEFSAII (Michael W. Deem and Ramdas Pophale) SiO2 
 PCOD9097856
Probable space group: P -1
;
_chemical_formula_sum "Si O2"
_cell_formula_units_Z 14
_cell_length_a 8.646338
_cell_length_b 12.537795
_cell_length_c 10.909439
_cell_angle_alpha 119.595712
_cell_angle_beta 43.803302
_cell_angle_gamma 129.075106
_cell_volume 633.833203
_symmetry_space_group_name_H-M "P -1"
_symmetry_group_IT_number 2
_symmetry_cell_setting 'triclinic'
loop_
_space_group_symop_operation_xyz
x,y,z
-x,-y,-z
loop_
_atom_site_type_symbol
_atom_site_label
_atom_site_fract_x
_atom_site_fract_y
_atom_site_fract_z
Si Si1 0.713967 0.632814 0.578355
Si Si2 0.850298 0.475125 0.242616
Si Si3 0.045510 0.315926 0.897451
Si Si4 0.132106 0.135395 0.580928
Si Si5 0.831891 0.682388 0.815170
Si Si6 0.603904 0.151398 0.466770
Si Si7 0.470302 0.637523 0.209182
O O1 0.819014 0.523462 0.423304
O O2 0.421057 0.569382 0.685036
O O3 0.822847 0.745461 0.473876
O O4 0.773663 0.693673 0.712787
O O5 0.016391 0.605076 0.133750
O O6 0.923495 0.354040 0.104854
O O7 0.985665 0.165481 0.794630
O O8 0.335564 0.372257 0.807619
O O9 0.391462 0.148029 0.493863
O O10 0.000000 0.000000 0.500000
O O11 0.739629 0.516795 0.788350
O O12 0.124099 0.789660 0.718216
O O13 0.645964 0.703823 0.027888
O O14 0.631232 0.262570 0.619518
O O15 0.500000 0.000000 0.500000
#
# Coordination Sequence:
#
# PCOD9097856 Si02
#       7
#     2   2   2   2   2   2   2
#     4  10  20  36  62  90 126 158 201 261 315 383
#     4   9  18  33  60  91 122 156 198 253 324 368
#     4   9  18  36  60  88 123 159 201 262 313 378
#     4  10  22  42  62  88 121 166 221 261 310 381
#     4  11  23  41  66 100 130 169 209 270 327 384
#     4  11  25  45  68  90 130 179 216 263 326 384
#     4  10  23  41  64  99 134 165 216 267 320 390
#
# _framework density 22.087831000000001
#
# number of rings (size 3 to 8) (size 9 to 14) (size 15 to 20)
#    0.000    2.000    1.429    1.286    4.000    2.857 
#    5.143    0.714    0.000    0.000    0.000    0.000 
#    0.000    0.000    0.000    0.000    0.000    0.000 
#
# Total GULP energy -78092.222486 kJ/mol
# GULP energy per Si atom -5578.015892 kJ/mol
# Density = 2.203756 g / cm^3
# Si number density = 22.087831 Si / 1000 Ang^3
#
#
#
# Elastic Constant Matrix: (Units=GPa)
#
#
# Indices 1 2 3 4 5 6 
#
# 1 63.5388 16.7624 23.2901 -2.2208 8.0412 6.9592
# 2 16.7624 86.6902 47.9594 5.7552 3.1898 10.2550
# 3 23.2901 47.9594 68.1155 -2.8879 1.0787 -9.6537
# 4 -2.2208 5.7552 -2.8879 31.1701 -1.7060 7.2890
# 5 8.0412 3.1898 1.0787 -1.7060 31.6549 -1.3540
# 6 6.9592 10.2550 -9.6537 7.2890 -1.3540 31.4926
#
#
#
# Elastic Compliance Matrix: (Units=1/GPa)
#
#
# Indices 1 2 3 4 5 6 
#
# 1 0.020463 0.002797 -0.010105 0.001858 -0.005429 -0.009194
# 2 0.002797 0.023961 -0.019882 -0.002977 -0.003205 -0.013964
# 3 -0.010105 -0.019882 0.034860 0.001943 0.004305 0.019128
# 4 0.001858 -0.002977 0.001943 0.034607 0.001336 -0.006798
# 5 -0.005429 -0.003205 0.004305 0.001336 0.033419 0.004691
# 6 -0.009194 -0.013964 0.019128 -0.006798 0.004691 0.045971
#
#
# Mechanical properties :
#
#
# Convention : Reuss Voigt Hill
#
# Bulk Modulus (GPa) = 40.15112 43.81872 41.98492
# Shear Modulus (GPa) = 19.53432 27.55237 23.54335
#
# Velocity S-wave (km/s) = 2.97710 3.53569 3.26835
# Velocity P-wave (km/s) = 5.48041 6.04562 5.76994
#
# Compressibility (1/GPa) = 0.02490590
#
# Stress axis : x y z
#
# Youngs Moduli (GPa) = 48.86813 41.73466 28.68653
#
# Poissons Ratio (x) = -0.11675 0.28987
# Poissons Ratio (y) = -0.13670 0.57033
# Poissons Ratio (z) = 0.49380 0.82975
#
# Static dielectric constant tensor:
#      x y z
#    x 1.883130 -0.050140 0.039700 
#    y -0.050140 1.902990 0.000380 
#    z 0.039700 0.000380 1.863340 
# 
# From -- ./inp_files/308496.got.cif
#   From: 2010.05.17/outbox.cif.g08.bks.cpg/sg2_155_cif.got.tgz:308496.got - 2010.06.03 11:33:40.
