data_PCOD9097203
_publ_section_title
;
Structure prediction by ZEFSAII (Michael W. Deem and Ramdas Pophale) SiO2 
 PCOD9097203
Probable space group: P -1
;
_chemical_formula_sum "Si O2"
_cell_formula_units_Z 16
_cell_length_a 9.551816
_cell_length_b 9.079250
_cell_length_c 9.107041
_cell_angle_alpha 111.445996
_cell_angle_beta 104.376382
_cell_angle_gamma 93.222329
_cell_volume 702.563028
_symmetry_space_group_name_H-M "P -1"
_symmetry_group_IT_number 2
_symmetry_cell_setting 'triclinic'
loop_
_space_group_symop_operation_xyz
x,y,z
-x,-y,-z
loop_
_atom_site_type_symbol
_atom_site_label
_atom_site_fract_x
_atom_site_fract_y
_atom_site_fract_z
Si Si1 0.282384 0.366845 0.996506
Si Si2 0.349982 0.454326 0.540366
Si Si3 0.161483 0.982028 0.297046
Si Si4 0.445417 0.977779 0.199981
Si Si5 0.879375 0.357878 0.978612
Si Si6 0.898396 0.729163 0.794370
Si Si7 0.708783 0.828132 0.351870
Si Si8 0.421849 0.731720 0.866481
O O1 0.232319 0.265774 0.801392
O O2 0.259373 0.549985 0.034712
O O3 0.192376 0.281967 0.080554
O O4 0.451329 0.356394 0.065364
O O5 0.500000 0.500000 0.500000
O O6 0.208714 0.394464 0.380917
O O7 0.360052 0.307314 0.599164
O O8 0.326550 0.602696 0.691536
O O9 0.331434 0.015531 0.302810
O O10 0.120848 0.795638 0.181613
O O11 0.083746 0.097592 0.215196
O O12 0.168472 0.047283 0.487496
O O13 0.584103 0.918563 0.286615
O O14 0.497869 0.132394 0.172707
O O15 0.366111 0.837586 0.019380
O O16 0.000000 0.500000 0.000000
O O17 0.946068 0.317227 0.137691
#
# Coordination Sequence:
#
# PCOD9097203 Si02
#       8
#     2   2   2   2   2   2   2   2
#     4  10  20  41  60  89 125 151 205 248 299 352
#     4  11  21  37  62  88 126 156 196 246 309 354
#     4  11  21  40  62  85 121 161 204 244 303 362
#     4  10  21  35  60  92 124 158 198 240 306 366
#     4  10  24  39  64  86 115 162 210 247 300 358
#     4  10  21  42  61  85 117 165 201 247 300 362
#     4  10  24  36  61  95 123 155 201 250 298 361
#     4  10  20  36  59  93 126 156 192 249 304 357
#
# _framework density 22.773755999999999
#
# number of rings (size 3 to 8) (size 9 to 14) (size 15 to 20)
#    0.000    1.750    2.500    1.500    3.500    3.000 
#    0.000    5.000    2.750    0.000    0.000    0.000 
#    0.000    0.000    0.000    0.000    0.000    0.000 
#
# Total GULP energy -89429.726205 kJ/mol
# GULP energy per Si atom -5589.357888 kJ/mol
# Density = 2.272192 g / cm^3
# Si number density = 22.773756 Si / 1000 Ang^3
#
#
#
# Elastic Constant Matrix: (Units=GPa)
#
#
# Indices 1 2 3 4 5 6 
#
# 1 39.6851 19.8061 18.3730 -11.5641 2.5501 -4.8308
# 2 19.8061 155.1584 76.0831 10.0587 15.6778 -18.5356
# 3 18.3730 76.0831 181.5447 22.0713 1.9327 0.0216
# 4 -11.5641 10.0587 22.0713 33.2344 -7.0534 4.7145
# 5 2.5501 15.6778 1.9327 -7.0534 25.8340 -6.5626
# 6 -4.8308 -18.5356 0.0216 4.7145 -6.5626 15.7431
#
#
#
# Elastic Compliance Matrix: (Units=1/GPa)
#
#
# Indices 1 2 3 4 5 6 
#
# 1 0.033396 -0.003386 -0.003909 0.015655 0.004167 0.003315
# 2 -0.003386 0.010661 -0.003528 -0.004547 -0.004296 0.011088
# 3 -0.003909 -0.003528 0.008014 -0.005149 -0.000503 -0.004032
# 4 0.015655 -0.004547 -0.005149 0.044014 0.011330 -0.009000
# 5 0.004167 -0.004296 -0.000503 0.011330 0.047213 0.012509
# 6 0.003315 0.011088 -0.004032 -0.009000 0.012509 0.085507
#
#
# Mechanical properties :
#
#
# Convention : Reuss Voigt Hill
#
# Bulk Modulus (GPa) = 32.86790 67.21252 50.04021
# Shear Modulus (GPa) = 19.18711 32.43738 25.81224
#
# Velocity S-wave (km/s) = 2.90575 3.77813 3.37028
# Velocity P-wave (km/s) = 5.07164 6.97205 6.09635
#
# Compressibility (1/GPa) = 0.03042482
#
# Stress axis : x y z
#
# Youngs Moduli (GPa) = 29.94413 93.80266 124.77839
#
# Poissons Ratio (x) = 0.31765 0.48771
# Poissons Ratio (y) = 0.10140 0.44020
# Poissons Ratio (z) = 0.11704 0.33092
#
# Static dielectric constant tensor:
#      x y z
#    x 1.905130 0.020660 0.008660 
#    y 0.020660 1.829500 0.016720 
#    z 0.008660 0.016720 1.867530 
# 
# From -- ./inp_files/186084.got.cif
#   From: 2010.05.17/outbox.cif.g08.bks.cpg/sg2_94_cif.got.tgz:186084.got - 2010.06.03 11:33:40.
