data_PCOD9097266
_publ_section_title
;
Structure prediction by ZEFSAII (Michael W. Deem and Ramdas Pophale) SiO2 
 PCOD9097266
Probable space group: P -1
;
_chemical_formula_sum "Si O2"
_cell_formula_units_Z 12
_cell_length_a 10.951811
_cell_length_b 10.546542
_cell_length_c 7.149113
_cell_angle_alpha 138.291516
_cell_angle_beta 70.421901
_cell_angle_gamma 119.471114
_cell_volume 477.574529
_symmetry_space_group_name_H-M "P -1"
_symmetry_group_IT_number 2
_symmetry_cell_setting 'triclinic'
loop_
_space_group_symop_operation_xyz
x,y,z
-x,-y,-z
loop_
_atom_site_type_symbol
_atom_site_label
_atom_site_fract_x
_atom_site_fract_y
_atom_site_fract_z
Si Si1 0.885484 0.051600 0.961193
Si Si2 0.848547 0.330360 0.956180
Si Si3 0.264474 0.817084 0.527559
Si Si4 0.245965 0.316897 0.635405
Si Si5 0.175163 0.363493 0.152565
Si Si6 0.464626 0.617753 0.322179
O O1 0.864295 0.212511 0.999602
O O2 0.862621 0.857093 0.627918
O O3 0.770722 0.026596 0.152307
O O4 0.041740 0.182683 0.100905
O O5 0.773522 0.168138 0.651006
O O6 0.752143 0.460980 0.177003
O O7 0.000000 0.500000 0.000000
O O8 0.157863 0.581822 0.376887
O O9 0.412136 0.794117 0.467210
O O10 0.398942 0.307132 0.538613
O O11 0.199535 0.297330 0.856747
O O12 0.320699 0.442703 0.279228
O O13 0.500000 0.500000 0.000000
#
# Coordination Sequence:
#
# PCOD9097266 Si02
#       6
#     2   2   2   2   2   2
#     4  12  21  36  62  92 109 145 200 238 274 338
#     4  11  21  37  60  84 118 151 187 232 292 337
#     4   9  20  36  61  81 118 153 184 236 288 328
#     4  10  20  36  60  84 117 151 188 236 285 332
#     4   8  17  33  60  78 113 157 182 222 298 328
#     4   8  15  35  60  77 112 165 175 223 300 332
#
# _framework density 25.126968000000002
#
# number of rings (size 3 to 8) (size 9 to 14) (size 15 to 20)
#    1.000    1.333    5.000    1.000    0.000    0.667 
#    0.000    5.833    0.000    0.000    0.000    0.000 
#    0.000    0.000    0.000    0.000    0.000    0.000 
#
# Total GULP energy -67078.693899 kJ/mol
# GULP energy per Si atom -5589.891158 kJ/mol
# Density = 2.506978 g / cm^3
# Si number density = 25.126968 Si / 1000 Ang^3
#
#
#
# Elastic Constant Matrix: (Units=GPa)
#
#
# Indices 1 2 3 4 5 6 
#
# 1 87.4663 10.4768 19.0447 -7.1136 8.9576 14.7669
# 2 10.4768 45.1785 8.5801 -0.9582 8.7461 -5.6016
# 3 19.0447 8.5801 98.6243 -23.5432 0.4993 -5.0788
# 4 -7.1136 -0.9582 -23.5432 31.2249 0.8621 -1.8058
# 5 8.9576 8.7461 0.4993 0.8621 43.1775 0.8251
# 6 14.7669 -5.6016 -5.0788 -1.8058 0.8251 17.6424
#
#
#
# Elastic Compliance Matrix: (Units=1/GPa)
#
#
# Indices 1 2 3 4 5 6 
#
# 1 0.015479 -0.004456 -0.003372 0.000020 -0.001979 -0.015247
# 2 -0.004456 0.025649 -0.000728 0.000033 -0.004490 0.011877
# 3 -0.003372 -0.000728 0.013599 0.009887 0.000349 0.007501
# 4 0.000020 0.000033 0.009887 0.039918 -0.001056 0.006975
# 5 -0.001979 -0.004490 0.000349 -0.001056 0.024515 -0.000923
# 6 -0.015247 0.011877 0.007501 0.006975 -0.000923 0.076132
#
#
# Mechanical properties :
#
#
# Convention : Reuss Voigt Hill
#
# Bulk Modulus (GPa) = 26.58605 34.16359 30.37482
# Shear Modulus (GPa) = 22.22787 31.28682 26.75735
#
# Velocity S-wave (km/s) = 2.97749 3.53250 3.26680
# Velocity P-wave (km/s) = 4.73542 5.50127 5.13265
#
# Compressibility (1/GPa) = 0.03761371
#
# Stress axis : x y z
#
# Youngs Moduli (GPa) = 64.60188 38.98821 73.53674
#
# Poissons Ratio (x) = 0.17374 0.24795
# Poissons Ratio (y) = 0.28789 0.05357
# Poissons Ratio (z) = 0.21782 0.02840
#
# Static dielectric constant tensor:
#      x y z
#    x 2.078670 -0.022720 -0.003210 
#    y -0.022720 2.047420 -0.013960 
#    z -0.003210 -0.013960 1.914750 
# 
# From -- ./inp_files/269372.got.cif
#   From: 2010.05.17/outbox.cif.g08.bks.cpg/sg2_135_cif.got.tgz:269372.got - 2010.06.03 11:33:40.
