data_PCOD9097808
_publ_section_title
;
Structure prediction by ZEFSAII (Michael W. Deem and Ramdas Pophale) SiO2 
 PCOD9097808
Probable space group: P -1
;
_chemical_formula_sum "Si O2"
_cell_formula_units_Z 16
_cell_length_a 9.405919
_cell_length_b 15.390131
_cell_length_c 9.521277
_cell_angle_alpha 133.829551
_cell_angle_beta 114.760776
_cell_angle_gamma 95.663813
_cell_volume 726.727532
_symmetry_space_group_name_H-M "P -1"
_symmetry_group_IT_number 2
_symmetry_cell_setting 'triclinic'
loop_
_space_group_symop_operation_xyz
x,y,z
-x,-y,-z
loop_
_atom_site_type_symbol
_atom_site_label
_atom_site_fract_x
_atom_site_fract_y
_atom_site_fract_z
Si Si1 0.111595 0.878627 0.708680
Si Si2 0.773891 0.437537 0.815321
Si Si3 0.839834 0.376575 0.494815
Si Si4 0.712815 0.682382 0.149922
Si Si5 0.517492 0.793600 0.356398
Si Si6 0.795871 0.317399 0.103405
Si Si7 0.915980 0.104401 0.954946
Si Si8 0.163278 0.105310 0.806256
O O1 0.172801 0.767892 0.624194
O O2 0.910382 0.792144 0.443615
O O3 0.245904 0.022461 0.823248
O O4 0.072310 0.907824 0.884317
O O5 0.740880 0.414208 0.610218
O O6 0.628579 0.281454 0.658446
O O7 0.722237 0.546065 0.969044
O O8 0.000000 0.500000 0.000000
O O9 0.754117 0.349429 0.274930
O O10 0.065511 0.523123 0.738528
O O11 0.557762 0.678717 0.180367
O O12 0.705961 0.748447 0.071216
O O13 0.714394 0.950032 0.652098
O O14 0.396935 0.802188 0.193740
O O15 0.911375 0.246301 0.092737
O O16 0.069825 0.127111 0.928915
O O17 0.000000 0.000000 0.500000
#
# Coordination Sequence:
#
# PCOD9097808 Si02
#       8
#     2   2   2   2   2   2   2   2
#     4  10  20  39  65  93 127 169 209 254 309 376
#     4  12  23  42  69  91 122 165 218 259 314 377
#     4  10  21  42  66  91 117 169 219 253 305 377
#     4  11  23  42  65  96 125 167 210 259 315 369
#     4  12  24  40  61  97 132 163 202 268 316 373
#     4  10  22  41  64  91 128 162 209 261 312 369
#     4  11  22  39  63  96 128 169 208 255 313 375
#     4  10  20  36  62  88 125 165 207 248 304 375
#
# _framework density 22.016504000000001
#
# number of rings (size 3 to 8) (size 9 to 14) (size 15 to 20)
#    0.000    1.250    5.000    1.875    0.000    0.000 
#    4.500    1.875    0.000    0.000    0.000    0.000 
#    0.000    0.000    0.000    0.000    0.000    0.000 
#
# Total GULP energy -89250.707255 kJ/mol
# GULP energy per Si atom -5578.169203 kJ/mol
# Density = 2.196639 g / cm^3
# Si number density = 22.016504 Si / 1000 Ang^3
#
#
#
# Elastic Constant Matrix: (Units=GPa)
#
#
# Indices 1 2 3 4 5 6 
#
# 1 47.6829 31.5335 15.6392 1.1757 -15.2615 21.7992
# 2 31.5335 116.6325 41.6975 -9.9470 -6.6930 12.7963
# 3 15.6392 41.6975 76.0541 -12.8883 -24.8222 16.6241
# 4 1.1757 -9.9470 -12.8883 34.5544 6.2830 -10.9829
# 5 -15.2615 -6.6930 -24.8222 6.2830 32.3184 -1.3120
# 6 21.7992 12.7963 16.6241 -10.9829 -1.3120 33.5071
#
#
#
# Elastic Compliance Matrix: (Units=1/GPa)
#
#
# Indices 1 2 3 4 5 6 
#
# 1 0.063741 -0.017523 0.016990 -0.024293 0.042233 -0.049515
# 2 -0.017523 0.015767 -0.011375 0.007689 -0.014715 0.012967
# 3 0.016990 -0.011375 0.028881 -0.005025 0.027950 -0.021591
# 4 -0.024293 0.007689 -0.005025 0.043016 -0.020939 0.028641
# 5 0.042233 -0.014715 0.027950 -0.020939 0.071761 -0.039777
# 6 -0.049515 0.012967 -0.021591 0.028641 -0.039777 0.075649
#
#
# Mechanical properties :
#
#
# Convention : Reuss Voigt Hill
#
# Bulk Modulus (GPa) = 11.82398 46.45663 29.14030
# Shear Modulus (GPa) = 14.25220 30.17594 22.21407
#
# Velocity S-wave (km/s) = 2.54705 3.70619 3.17988
# Velocity P-wave (km/s) = 3.74595 6.28180 5.17171
#
# Compressibility (1/GPa) = 0.08457388
#
# Stress axis : x y z
#
# Youngs Moduli (GPa) = 15.68850 63.42346 34.62441
#
# Poissons Ratio (x) = 1.11139 -0.58828
# Poissons Ratio (y) = 0.27492 0.39385
# Poissons Ratio (z) = -0.26655 0.72143
#
# Static dielectric constant tensor:
#      x y z
#    x 1.803740 -0.015410 0.000330 
#    y -0.015410 1.865960 0.040820 
#    z 0.000330 0.040820 1.848650 
# 
# From -- ./inp_files/209136.got.cif
#   From: 2010.05.17/outbox.cif.g08.bks.cpg/sg2_105_cif.got.tgz:209136.got - 2010.06.03 11:33:40.
