data_PCOD9097092
_publ_section_title
;
Structure prediction by ZEFSAII (Michael W. Deem and Ramdas Pophale) SiO2 
 PCOD9097092
Probable space group: P -1
;
_chemical_formula_sum "Si O2"
_cell_formula_units_Z 16
_cell_length_a 12.509292
_cell_length_b 8.251648
_cell_length_c 7.095848
_cell_angle_alpha 57.177404
_cell_angle_beta 92.558627
_cell_angle_gamma 85.963300
_cell_volume 610.986679
_symmetry_space_group_name_H-M "P -1"
_symmetry_group_IT_number 2
_symmetry_cell_setting 'triclinic'
loop_
_space_group_symop_operation_xyz
x,y,z
-x,-y,-z
loop_
_atom_site_type_symbol
_atom_site_label
_atom_site_fract_x
_atom_site_fract_y
_atom_site_fract_z
Si Si1 0.743652 0.147515 0.231855
Si Si2 0.395025 0.278250 0.059211
Si Si3 0.638819 0.122373 0.846513
Si Si4 0.811458 0.531005 0.180357
Si Si5 0.963458 0.939825 0.255728
Si Si6 0.161355 0.698237 0.348226
Si Si7 0.989405 0.321858 0.980344
Si Si8 0.441429 0.694326 0.631162
O O1 0.807260 0.327308 0.195761
O O2 0.657024 0.152534 0.390700
O O3 0.837721 0.976715 0.281463
O O4 0.661084 0.181718 0.025885
O O5 0.455088 0.256253 0.276079
O O6 0.404085 0.084981 0.055643
O O7 0.267647 0.326992 0.040369
O O8 0.426233 0.474987 0.835808
O O9 0.761183 0.135058 0.770717
O O10 0.563915 0.270134 0.614540
O O11 0.774813 0.474132 0.422558
O O12 0.909594 0.652670 0.161456
O O13 0.049702 0.757847 0.415520
O O14 0.007604 0.129472 0.227412
O O15 0.000000 0.000000 0.000000
O O16 0.117927 0.651451 0.170239
O O17 0.000000 0.500000 0.000000
#
# Coordination Sequence:
#
# PCOD9097092 Si02
#       8
#     2   2   2   2   2   2   2   2
#     4  11  22  41  67  93 135 169 218 275 319 384
#     4  10  23  43  73  94 131 174 215 271 333 385
#     4  12  21  43  72  94 132 174 212 270 333 382
#     4  11  22  42  60  92 134 172 214 270 317 385
#     4  10  20  36  59  86 123 171 212 251 318 380
#     4  11  22  38  61  90 130 175 210 259 323 383
#     4  11  20  37  59  90 125 170 220 259 318 386
#     4  10  24  48  67  98 133 166 219 276 326 387
#
# _framework density 26.187151
#
# number of rings (size 3 to 8) (size 9 to 14) (size 15 to 20)
#    0.000    1.250    6.250    1.500    1.750    1.000 
#    0.000    8.125    0.000    0.000    0.000    0.000 
#    0.000    0.000    0.000    0.000    0.000    0.000 
#
# Total GULP energy -89071.728969 kJ/mol
# GULP energy per Si atom -5566.983061 kJ/mol
# Density = 2.612755 g / cm^3
# Si number density = 26.187151 Si / 1000 Ang^3
#
#
#
# Elastic Constant Matrix: (Units=GPa)
#
#
# Indices 1 2 3 4 5 6 
#
# 1 67.0221 21.5190 27.0273 7.0640 21.9276 18.1798
# 2 21.5190 59.8671 35.9556 13.4460 15.3386 31.5679
# 3 27.0273 35.9556 100.9631 32.0420 26.5481 23.3875
# 4 7.0640 13.4460 32.0420 45.6625 13.9440 7.1128
# 5 21.9276 15.3386 26.5481 13.9440 40.0168 6.1991
# 6 18.1798 31.5679 23.3875 7.1128 6.1991 58.3398
#
#
#
# Elastic Compliance Matrix: (Units=1/GPa)
#
#
# Indices 1 2 3 4 5 6 
#
# 1 0.020188 -0.002351 -0.002136 0.002369 -0.009029 -0.003492
# 2 -0.002351 0.028225 -0.005294 -0.001239 -0.003748 -0.011868
# 3 -0.002136 -0.005294 0.016518 -0.008010 -0.004718 -0.001614
# 4 0.002369 -0.001239 -0.008010 0.029238 -0.005727 0.000187
# 5 -0.009029 -0.003748 -0.004718 -0.005727 0.035939 0.003612
# 6 -0.003492 -0.011868 -0.001614 0.000187 0.003612 0.024891
#
#
# Mechanical properties :
#
#
# Convention : Reuss Voigt Hill
#
# Bulk Modulus (GPa) = 22.04169 44.09512 33.06841
# Shear Modulus (GPa) = 26.35935 38.36050 32.35993
#
# Velocity S-wave (km/s) = 3.17610 3.83150 3.51909
# Velocity P-wave (km/s) = 4.67818 6.03729 5.40066
#
# Compressibility (1/GPa) = 0.04536857
#
# Stress axis : x y z
#
# Youngs Moduli (GPa) = 49.53423 35.42924 60.53968
#
# Poissons Ratio (x) = 0.08331 0.12930
# Poissons Ratio (y) = 0.11647 0.32052
# Poissons Ratio (z) = 0.10579 0.18757
#
# Static dielectric constant tensor:
#      x y z
#    x 1.945820 -0.278330 0.100330 
#    y -0.278330 2.324370 -0.000840 
#    z 0.100330 -0.000840 2.023890 
# 
# From -- ./inp_files/294550.got.cif
#   From: 2010.05.17/outbox.cif.g08.bks.cpg/sg2_148_cif.got.tgz:294550.got - 2010.06.03 11:33:40.
