data_PCOD9097627
_publ_section_title
;
Structure prediction by ZEFSAII (Michael W. Deem and Ramdas Pophale) SiO2 
 PCOD9097627
Probable space group: P -1
;
_chemical_formula_sum "Si O2"
_cell_formula_units_Z 16
_cell_length_a 8.526757
_cell_length_b 24.297307
_cell_length_c 7.597259
_cell_angle_alpha 133.698880
_cell_angle_beta 91.287420
_cell_angle_gamma 56.443665
_cell_volume 761.090840
_symmetry_space_group_name_H-M "P -1"
_symmetry_group_IT_number 2
_symmetry_cell_setting 'triclinic'
loop_
_space_group_symop_operation_xyz
x,y,z
-x,-y,-z
loop_
_atom_site_type_symbol
_atom_site_label
_atom_site_fract_x
_atom_site_fract_y
_atom_site_fract_z
Si Si1 0.597155 0.232182 0.420840
Si Si2 0.744042 0.120222 0.808906
Si Si3 0.842098 0.708372 0.535543
Si Si4 0.127919 0.513977 0.413915
Si Si5 0.375907 0.124715 0.803028
Si Si6 0.154591 0.663968 0.841081
Si Si7 0.697029 0.373349 0.648024
Si Si8 0.371136 0.723245 0.137409
O O1 0.342648 0.282130 0.538608
O O2 0.618993 0.315035 0.561338
O O3 0.716140 0.188718 0.519174
O O4 0.720592 0.145099 0.070145
O O5 0.554160 0.126565 0.757411
O O6 0.677327 0.220504 0.925404
O O7 0.000000 0.000000 0.500000
O O8 0.965038 0.610395 0.472690
O O9 0.056559 0.678085 0.388156
O O10 0.690168 0.828599 0.895256
O O11 0.201972 0.558118 0.636206
O O12 0.000000 0.500000 0.500000
O O13 0.356983 0.391246 0.074007
O O14 0.500000 0.000000 0.500000
O O15 0.124061 0.220339 0.915002
O O16 0.259255 0.640333 0.593954
O O17 0.257982 0.681531 0.028053
O O18 0.500000 0.500000 0.000000
#
# Coordination Sequence:
#
# PCOD9097627 Si02
#       8
#     2   2   2   2   2   2   2   2
#     4  11  23  43  65  92 134 169 216 266 320 388
#     4  11  24  43  71  91 124 170 212 276 326 380
#     4   9  22  40  58  93 133 171 216 261 320 384
#     4  10  20  36  61  90 129 173 212 264 322 380
#     4   9  18  37  67  90 118 167 211 262 328 374
#     4  10  21  38  59  92 133 163 219 262 318 393
#     4  10  20  37  63  89 126 177 211 258 324 372
#     4  12  23  40  63  95 126 167 217 260 323 391
#
# _framework density 21.022455999999998
#
# number of rings (size 3 to 8) (size 9 to 14) (size 15 to 20)
#    0.000    2.000    1.250    4.875    1.750    2.500 
#    4.500    0.000    0.000    2.250    0.000    0.000 
#    0.000    0.000    0.000    0.000    0.000    0.000 
#
# Total GULP energy -89215.908158 kJ/mol
# GULP energy per Si atom -5575.994260 kJ/mol
# Density = 2.097461 g / cm^3
# Si number density = 21.022456 Si / 1000 Ang^3
#
#
#
# Elastic Constant Matrix: (Units=GPa)
#
#
# Indices 1 2 3 4 5 6 
#
# 1 154.9692 11.5390 53.6572 -11.2046 2.1458 -7.0553
# 2 11.5390 25.7256 28.4588 -9.3573 1.5171 -8.0406
# 3 53.6572 28.4588 128.9259 9.6683 -0.1037 -16.9292
# 4 -11.2046 -9.3573 9.6683 27.5031 -2.4871 10.1709
# 5 2.1458 1.5171 -0.1037 -2.4871 36.2159 -0.0380
# 6 -7.0553 -8.0406 -16.9292 10.1709 -0.0380 33.0687
#
#
#
# Elastic Compliance Matrix: (Units=1/GPa)
#
#
# Indices 1 2 3 4 5 6 
#
# 1 0.008406 0.004059 -0.005241 0.007443 -0.000174 -0.002192
# 2 0.004059 0.070962 -0.020235 0.033798 -0.000953 -0.002635
# 3 -0.005241 -0.020235 0.016808 -0.017916 -0.000016 0.008077
# 4 0.007443 0.033798 -0.017916 0.064518 0.002503 -0.019207
# 5 -0.000174 -0.000953 -0.000016 0.002503 0.027833 -0.001015
# 6 -0.002192 -0.002635 0.008077 -0.019207 -0.001015 0.039173
#
#
# Mechanical properties :
#
#
# Convention : Reuss Voigt Hill
#
# Bulk Modulus (GPa) = 18.74626 55.21453 36.98039
# Shear Modulus (GPa) = 17.34221 33.75525 25.54873
#
# Velocity S-wave (km/s) = 2.87529 4.01144 3.48991
# Velocity P-wave (km/s) = 4.46762 6.91209 5.81965
#
# Compressibility (1/GPa) = 0.05334398
#
# Stress axis : x y z
#
# Youngs Moduli (GPa) = 118.96419 14.09207 59.49484
#
# Poissons Ratio (x) = -0.05720 0.31178
# Poissons Ratio (y) = -0.48291 1.20386
# Poissons Ratio (z) = 0.62343 0.28515
#
# Static dielectric constant tensor:
#      x y z
#    x 1.775640 -0.021200 -0.021180 
#    y -0.021200 1.763920 -0.049230 
#    z -0.021180 -0.049230 1.790240 
# 
# From -- ./inp_files/227960.got.cif
#   From: 2010.05.17/outbox.cif.g08.bks.cpg/sg2_114_cif.got.tgz:227960.got - 2010.06.03 11:33:40.
