data_PCOD9097077
_publ_section_title
;
Structure prediction by ZEFSAII (Michael W. Deem and Ramdas Pophale) SiO2 
 PCOD9097077
Probable space group: P -1
;
_chemical_formula_sum "Si O2"
_cell_formula_units_Z 16
_cell_length_a 9.359185
_cell_length_b 10.778078
_cell_length_c 11.320658
_cell_angle_alpha 66.752743
_cell_angle_beta 45.250329
_cell_angle_gamma 72.537278
_cell_volume 744.730639
_symmetry_space_group_name_H-M "P -1"
_symmetry_group_IT_number 2
_symmetry_cell_setting 'triclinic'
loop_
_space_group_symop_operation_xyz
x,y,z
-x,-y,-z
loop_
_atom_site_type_symbol
_atom_site_label
_atom_site_fract_x
_atom_site_fract_y
_atom_site_fract_z
Si Si1 0.834552 0.402645 0.685639
Si Si2 0.092620 0.730865 0.064165
Si Si3 0.684146 0.814164 0.510809
Si Si4 0.159726 0.373319 0.948854
Si Si5 0.990532 0.866502 0.727139
Si Si6 0.735914 0.047704 0.245163
Si Si7 0.910250 0.156744 0.592168
Si Si8 0.466242 0.561697 0.788289
O O1 0.924253 0.325792 0.775053
O O2 0.634422 0.490099 0.799783
O O3 0.000000 0.500000 0.500000
O O4 0.784295 0.283677 0.668396
O O5 0.900539 0.701482 0.107161
O O6 0.158238 0.885061 0.952911
O O7 0.285348 0.645017 0.927123
O O8 0.497549 0.905277 0.637153
O O9 0.863880 0.815780 0.500400
O O10 0.591707 0.669268 0.601544
O O11 0.748545 0.889932 0.325947
O O12 0.368470 0.445655 0.811857
O O13 0.127787 0.264178 0.112864
O O14 0.000000 0.500000 0.000000
O O15 0.088934 0.845181 0.549032
O O16 0.154392 0.888548 0.727103
O O17 0.866004 0.009171 0.727363
#
# Coordination Sequence:
#
# PCOD9097077 Si02
#       8
#     2   2   2   2   2   2   2   2
#     4  12  24  37  55  88 125 149 188 238 290 339
#     4   9  20  38  59  85 111 153 191 233 290 338
#     4   9  16  32  54  87 110 141 186 237 282 326
#     4   9  19  35  62  84 112 147 198 236 275 347
#     4   9  19  38  59  84 106 155 195 231 283 336
#     4   8  16  33  60  82 110 141 199 236 273 341
#     4  10  21  36  58  79 118 152 190 235 281 339
#     4  10  20  36  59  86 114 153 192 233 280 346
#
# _framework density 21.484276000000001
#
# number of rings (size 3 to 8) (size 9 to 14) (size 15 to 20)
#    0.000    2.500    1.250    1.125    3.500    2.000 
#    0.000    8.125    0.000    0.000    0.000    0.000 
#    0.000    0.000    0.000    0.000    0.000    0.000 
#
# Total GULP energy -89239.851961 kJ/mol
# GULP energy per Si atom -5577.490748 kJ/mol
# Density = 2.143538 g / cm^3
# Si number density = 21.484276 Si / 1000 Ang^3
#
#
#
# Elastic Constant Matrix: (Units=GPa)
#
#
# Indices 1 2 3 4 5 6 
#
# 1 58.9680 11.1309 41.9684 -15.8939 1.2959 -13.5091
# 2 11.1309 97.3964 44.6960 -29.4823 1.8699 -6.5939
# 3 41.9684 44.6960 113.8825 -45.4437 14.1015 4.6671
# 4 -15.8939 -29.4823 -45.4437 47.6890 -1.9267 -4.0785
# 5 1.2959 1.8699 14.1015 -1.9267 34.7951 -2.1550
# 6 -13.5091 -6.5939 4.6671 -4.0785 -2.1550 29.1928
#
#
#
# Elastic Compliance Matrix: (Units=1/GPa)
#
#
# Indices 1 2 3 4 5 6 
#
# 1 0.030179 0.004354 -0.013618 0.001505 0.005343 0.017731
# 2 0.004354 0.014519 -0.005506 0.005874 0.002057 0.007147
# 3 -0.013618 -0.005506 0.022164 0.011992 -0.008135 -0.010014
# 4 0.001505 0.005874 0.011992 0.036845 -0.002879 0.005041
# 5 0.005343 0.002057 -0.008135 -0.002879 0.031951 0.006194
# 6 0.017731 0.007147 -0.010014 0.005041 0.006194 0.046837
#
#
# Mechanical properties :
#
#
# Convention : Reuss Voigt Hill
#
# Bulk Modulus (GPa) = 26.79471 51.75974 39.27723
# Shear Modulus (GPa) = 22.27402 33.83215 28.05309
#
# Velocity S-wave (km/s) = 3.22337 3.97260 3.61744
# Velocity P-wave (km/s) = 5.13345 6.72208 5.98075
#
# Compressibility (1/GPa) = 0.03732080
#
# Stress axis : x y z
#
# Youngs Moduli (GPa) = 33.13580 68.87395 45.11840
#
# Poissons Ratio (x) = -0.29987 0.61442
# Poissons Ratio (y) = -0.14427 0.24844
# Poissons Ratio (z) = 0.45124 0.37925
#
# Static dielectric constant tensor:
#      x y z
#    x 1.753140 -0.003640 -0.003340 
#    y -0.003640 1.841870 -0.008900 
#    z -0.003340 -0.008900 1.802030 
# 
# From -- ./inp_files/389150.got.cif
#   From: 2010.05.17/outbox.cif.g08.bks.cpg/sg2_195_cif.got.tgz:389150.got - 2010.06.03 11:33:40.
