data_PCOD9097623
_publ_section_title
;
Structure prediction by ZEFSAII (Michael W. Deem and Ramdas Pophale) SiO2 
 PCOD9097623
Probable space group: P -1
;
_chemical_formula_sum "Si O2"
_cell_formula_units_Z 16
_cell_length_a 7.244570
_cell_length_b 9.067666
_cell_length_c 14.333754
_cell_angle_alpha 73.384563
_cell_angle_beta 44.408539
_cell_angle_gamma 71.500856
_cell_volume 622.360548
_symmetry_space_group_name_H-M "P -1"
_symmetry_group_IT_number 2
_symmetry_cell_setting 'triclinic'
loop_
_space_group_symop_operation_xyz
x,y,z
-x,-y,-z
loop_
_atom_site_type_symbol
_atom_site_label
_atom_site_fract_x
_atom_site_fract_y
_atom_site_fract_z
Si Si1 0.175406 0.017865 0.839827
Si Si2 0.265031 0.521679 0.294489
Si Si3 0.886655 0.270788 0.527307
Si Si4 0.683995 0.525835 0.018139
Si Si5 0.411859 0.111186 0.422804
Si Si6 0.225155 0.704316 0.637471
Si Si7 0.240727 0.133384 0.095729
Si Si8 0.895937 0.624792 0.236032
O O1 0.203143 0.195857 0.780347
O O2 0.467003 0.929629 0.717346
O O3 0.992365 0.950473 0.843320
O O4 0.000000 0.000000 0.000000
O O5 0.086508 0.393057 0.407129
O O6 0.552325 0.449581 0.164024
O O7 0.298588 0.639587 0.343384
O O8 0.103995 0.618787 0.249497
O O9 0.093105 0.134667 0.524711
O O10 0.749103 0.236626 0.487858
O O11 0.500000 0.500000 0.000000
O O12 0.688866 0.707233 0.002117
O O13 0.966700 0.437422 0.899853
O O14 0.540533 0.257992 0.387541
O O15 0.500000 0.000000 0.500000
O O16 0.253733 0.516991 0.657412
O O17 0.923554 0.784154 0.767062
O O18 0.500000 0.000000 0.000000
#
# Coordination Sequence:
#
# PCOD9097623 Si02
#       8
#     2   2   2   2   2   2   2   2
#     4  11  25  41  61  97 133 168 213 270 330 386
#     4   9  18  35  60  97 120 160 216 266 312 373
#     4  10  21  39  65  90 128 167 217 262 311 390
#     4   9  17  32  60  91 117 162 207 256 322 372
#     4  11  25  45  64  94 137 172 209 267 333 384
#     4   9  22  43  66  95 122 175 218 260 325 385
#     4  10  20  36  61  90 126 163 205 265 326 382
#     4   9  18  39  66  85 130 168 209 268 326 379
#
# _framework density 25.708572
#
# number of rings (size 3 to 8) (size 9 to 14) (size 15 to 20)
#    0.000    2.250    0.000    3.000    3.500    1.500 
#    4.500   10.625    0.000    0.000    0.000    0.000 
#    0.000    0.000    0.000    0.000    0.000    0.000 
#
# Total GULP energy -89261.288844 kJ/mol
# GULP energy per Si atom -5578.830553 kJ/mol
# Density = 2.565006 g / cm^3
# Si number density = 25.708572 Si / 1000 Ang^3
#
#
#
# Elastic Constant Matrix: (Units=GPa)
#
#
# Indices 1 2 3 4 5 6 
#
# 1 72.1357 33.8930 14.3005 4.0701 9.9319 -1.1004
# 2 33.8930 141.1266 19.1734 -5.1313 10.1831 18.6418
# 3 14.3005 19.1734 124.9997 7.4716 13.8272 2.4307
# 4 4.0701 -5.1313 7.4716 38.4330 6.2510 -4.1288
# 5 9.9319 10.1831 13.8272 6.2510 34.9765 -2.8568
# 6 -1.1004 18.6418 2.4307 -4.1288 -2.8568 30.4335
#
#
#
# Elastic Compliance Matrix: (Units=1/GPa)
#
#
# Indices 1 2 3 4 5 6 
#
# 1 0.016428 -0.004034 -0.000938 -0.001374 -0.002653 0.002704
# 2 -0.004034 0.009089 -0.000696 0.001488 -0.001952 -0.005639
# 3 -0.000938 -0.000696 0.008611 -0.001297 -0.002763 -0.000731
# 4 -0.001374 0.001488 -0.001297 0.027575 -0.004256 0.002484
# 5 -0.002653 -0.001952 -0.002763 -0.004256 0.032072 0.003754
# 6 0.002704 -0.005639 -0.000731 0.002484 0.003754 0.037158
#
#
# Mechanical properties :
#
#
# Convention : Reuss Voigt Hill
#
# Bulk Modulus (GPa) = 43.87174 52.55510 48.21342
# Shear Modulus (GPa) = 33.36324 38.82829 36.09576
#
# Velocity S-wave (km/s) = 3.60633 3.89051 3.75111
# Velocity P-wave (km/s) = 5.86881 6.37718 6.12827
#
# Compressibility (1/GPa) = 0.02279372
#
# Stress axis : x y z
#
# Youngs Moduli (GPa) = 60.87182 110.02382 116.12450
#
# Poissons Ratio (x) = 0.44380 0.10889
# Poissons Ratio (y) = 0.24554 0.08082
# Poissons Ratio (z) = 0.05708 0.07658
#
# Static dielectric constant tensor:
#      x y z
#    x 2.064240 -0.085880 -0.106390 
#    y -0.085880 2.105660 0.118140 
#    z -0.106390 0.118140 2.418070 
# 
# From -- ./inp_files/494593.got.cif
#   From: 2010.05.17/outbox.cif.g08.bks.cpg/sg2_248_cif.got.tgz:494593.got - 2010.06.03 11:33:40.
