data_PCOD9097456
_publ_section_title
;
Structure prediction by ZEFSAII (Michael W. Deem and Ramdas Pophale) SiO2 
 PCOD9097456
Probable space group: P -1
;
_chemical_formula_sum "Si O2"
_cell_formula_units_Z 16
_cell_length_a 10.946599
_cell_length_b 8.457146
_cell_length_c 13.741112
_cell_angle_alpha 113.872503
_cell_angle_beta 40.881897
_cell_angle_gamma 87.999690
_cell_volume 625.808337
_symmetry_space_group_name_H-M "P -1"
_symmetry_group_IT_number 2
_symmetry_cell_setting 'triclinic'
loop_
_space_group_symop_operation_xyz
x,y,z
-x,-y,-z
loop_
_atom_site_type_symbol
_atom_site_label
_atom_site_fract_x
_atom_site_fract_y
_atom_site_fract_z
Si Si1 0.544854 0.266740 0.516491
Si Si2 0.484382 0.240425 0.753094
Si Si3 0.376194 0.820171 0.084163
Si Si4 0.456941 0.718781 0.696824
Si Si5 0.164562 0.389736 0.162938
Si Si6 0.075903 0.038516 0.138153
Si Si7 0.222313 0.641458 0.302918
Si Si8 0.236906 0.169086 0.386985
O O1 0.438341 0.231056 0.665743
O O2 0.469090 0.506836 0.631209
O O3 0.485557 0.244695 0.437378
O O4 0.818395 0.112879 0.319505
O O5 0.595965 0.371441 0.733150
O O6 0.664464 0.011262 0.631357
O O7 0.271893 0.350061 0.982867
O O8 0.280290 0.735405 0.199442
O O9 0.234024 0.882712 0.089726
O O10 0.415825 0.984561 0.148206
O O11 0.651925 0.617955 0.865163
O O12 0.638666 0.707289 0.656535
O O13 0.209972 0.912523 0.928690
O O14 0.077617 0.246388 0.195276
O O15 0.995706 0.628180 0.356124
O O16 0.983039 0.789141 0.537262
#
# Coordination Sequence:
#
# PCOD9097456 Si02
#       8
#     2   2   2   2   2   2   2   2
#     4  11  27  41  68  88 119 163 221 252 305 354
#     4  11  21  42  59  96 125 163 198 258 302 369
#     4   9  21  34  61  96 121 162 195 246 303 376
#     4  11  24  46  63  88 121 166 210 266 294 356
#     4   9  21  36  62  92 132 158 192 247 317 365
#     4  12  20  43  65  92 123 165 205 253 307 370
#     4  10  20  36  60  93 130 162 190 245 310 371
#     4  11  22  39  64  92 132 159 202 251 311 366
#
# _framework density 25.566934
#
# number of rings (size 3 to 8) (size 9 to 14) (size 15 to 20)
#    0.750    0.750    2.500    3.750    0.000    1.500 
#    2.250    3.125    0.000    2.250    0.000    0.000 
#    0.000    0.000    0.000    0.000    0.000    0.000 
#
# Total GULP energy -89325.637917 kJ/mol
# GULP energy per Si atom -5582.852370 kJ/mol
# Density = 2.550874 g / cm^3
# Si number density = 25.566934 Si / 1000 Ang^3
#
#
#
# Elastic Constant Matrix: (Units=GPa)
#
#
# Indices 1 2 3 4 5 6 
#
# 1 64.4477 25.2000 19.5334 3.5131 20.5754 -4.6774
# 2 25.2000 74.5591 42.0470 23.0840 16.3007 -0.9666
# 3 19.5334 42.0470 97.8853 21.2333 15.9212 3.6566
# 4 3.5131 23.0840 21.2333 48.2553 1.7428 9.3663
# 5 20.5754 16.3007 15.9212 1.7428 42.4287 -14.5607
# 6 -4.6774 -0.9666 3.6566 9.3663 -14.5607 34.6176
#
#
#
# Elastic Compliance Matrix: (Units=1/GPa)
#
#
# Indices 1 2 3 4 5 6 
#
# 1 0.020155 -0.005195 -0.000871 0.001918 -0.007938 -0.001187
# 2 -0.005195 0.021572 -0.006258 -0.007376 -0.002618 0.001456
# 3 -0.000871 -0.006258 0.014271 -0.002626 -0.003266 -0.002463
# 4 0.001918 -0.007376 -0.002626 0.026683 -0.000668 -0.007170
# 5 -0.007938 -0.002618 -0.003266 -0.000668 0.034434 0.013864
# 6 -0.001187 0.001456 -0.002463 -0.007170 0.013864 0.036798
#
#
# Mechanical properties :
#
#
# Convention : Reuss Voigt Hill
#
# Bulk Modulus (GPa) = 31.89867 45.60588 38.75228
# Shear Modulus (GPa) = 26.45325 35.06777 30.76051
#
# Velocity S-wave (km/s) = 3.22011 3.70754 3.47239
# Velocity P-wave (km/s) = 5.13119 6.01701 5.59167
#
# Compressibility (1/GPa) = 0.03134926
#
# Stress axis : x y z
#
# Youngs Moduli (GPa) = 49.61517 46.35643 70.07175
#
# Poissons Ratio (x) = 0.24081 0.06105
# Poissons Ratio (y) = 0.25774 0.43854
# Poissons Ratio (z) = 0.04323 0.29012
#
# Static dielectric constant tensor:
#      x y z
#    x 2.277000 0.058890 -0.093460 
#    y 0.058890 2.248810 0.113090 
#    z -0.093460 0.113090 2.122500 
# 
# From -- ./inp_files/295998.got.cif
#   From: 2010.05.17/outbox.cif.g08.bks.cpg/sg2_148_cif.got.tgz:295998.got - 2010.06.03 11:33:40.
