data_PCOD9097494
_publ_section_title
;
Structure prediction by ZEFSAII (Michael W. Deem and Ramdas Pophale) SiO2 
 PCOD9097494
Probable space group: P -1
;
_chemical_formula_sum "Si O2"
_cell_formula_units_Z 14
_cell_length_a 6.684329
_cell_length_b 19.669048
_cell_length_c 13.167803
_cell_angle_alpha 33.184293
_cell_angle_beta 117.343789
_cell_angle_gamma 135.771463
_cell_volume 614.645393
_symmetry_space_group_name_H-M "P -1"
_symmetry_group_IT_number 2
_symmetry_cell_setting 'triclinic'
loop_
_space_group_symop_operation_xyz
x,y,z
-x,-y,-z
loop_
_atom_site_type_symbol
_atom_site_label
_atom_site_fract_x
_atom_site_fract_y
_atom_site_fract_z
Si Si1 0.480459 0.974788 0.146443
Si Si2 0.745090 0.809774 0.457800
Si Si3 0.835828 0.463945 0.614374
Si Si4 0.187474 0.264750 0.648253
Si Si5 0.082256 0.710892 0.999438
Si Si6 0.453572 0.116988 0.291208
Si Si7 0.732126 0.789163 0.707677
O O1 0.530232 0.847234 0.338614
O O2 0.159784 0.909273 0.195011
O O3 0.755099 0.144088 0.058143
O O4 0.500000 0.000000 0.000000
O O5 0.741332 0.714622 0.481179
O O6 0.660796 0.729886 0.649660
O O7 0.102156 0.989721 0.327427
O O8 0.469713 0.296363 0.725348
O O9 0.827315 0.603877 0.470726
O O10 0.000000 0.500000 0.500000
O O11 0.992114 0.441384 0.766542
O O12 0.324142 0.777279 0.882994
O O13 0.835061 0.705901 0.895020
O O14 0.514454 0.236581 0.246682
O O15 0.500000 0.000000 0.500000
O O16 0.000000 0.000000 0.500000
#
# Coordination Sequence:
#
# PCOD9097494 Si02
#       7
#     2   2   2   2   2   2   2
#     4  12  24  37  63 102 130 162 218 278 327 383
#     4  11  21  37  62  96 135 163 203 267 330 378
#     4  11  27  49  65  88 131 182 226 265 320 387
#     4  11  25  44  66  88 130 179 216 269 328 379
#     4  12  22  39  68  98 129 170 216 263 330 390
#     4  11  19  35  62 100 134 164 204 260 332 388
#     4  10  20  36  60  99 135 168 194 265 330 388
#
# _framework density 22.777360999999999
#
# number of rings (size 3 to 8) (size 9 to 14) (size 15 to 20)
#    0.000    0.857    7.143    2.571    2.000    3.429 
#    0.000    0.714    0.000    4.286    0.000    0.000 
#    0.000    0.000    0.000    0.000    0.000    0.000 
#
# Total GULP energy -78266.820749 kJ/mol
# GULP energy per Si atom -5590.487196 kJ/mol
# Density = 2.272552 g / cm^3
# Si number density = 22.777361 Si / 1000 Ang^3
#
#
#
# Elastic Constant Matrix: (Units=GPa)
#
#
# Indices 1 2 3 4 5 6 
#
# 1 142.7824 34.5552 47.8583 25.1037 1.2971 -19.2999
# 2 34.5552 68.4018 22.3588 23.1317 -2.4712 -10.9625
# 3 47.8583 22.3588 131.6510 38.1427 6.0630 -0.9405
# 4 25.1037 23.1317 38.1427 39.7532 -6.4950 -4.3627
# 5 1.2971 -2.4712 6.0630 -6.4950 29.4944 17.1649
# 6 -19.2999 -10.9625 -0.9405 -4.3627 17.1649 53.5521
#
#
#
# Elastic Compliance Matrix: (Units=1/GPa)
#
#
# Indices 1 2 3 4 5 6 
#
# 1 0.009263 -0.002769 -0.002078 -0.002312 -0.002709 0.003415
# 2 -0.002769 0.019721 0.000878 -0.010648 -0.002488 0.002985
# 3 -0.002078 0.000878 0.011656 -0.011144 -0.004849 0.000282
# 4 -0.002312 -0.010648 -0.011144 0.045322 0.013768 -0.003930
# 5 -0.002709 -0.002488 -0.004849 0.013768 0.046844 -0.015464
# 6 0.003415 0.002985 0.000282 -0.003930 -0.015464 0.025156
#
#
# Mechanical properties :
#
#
# Convention : Reuss Voigt Hill
#
# Bulk Modulus (GPa) = 30.57849 61.37551 45.97700
# Shear Modulus (GPa) = 28.28054 40.43079 34.35566
#
# Velocity S-wave (km/s) = 3.52747 4.21770 3.88793
# Velocity P-wave (km/s) = 5.48131 7.12200 6.35483
#
# Compressibility (1/GPa) = 0.03270273
#
# Stress axis : x y z
#
# Youngs Moduli (GPa) = 107.95616 50.70846 85.79147
#
# Poissons Ratio (x) = 0.14040 0.17827
# Poissons Ratio (y) = 0.29891 -0.07535
# Poissons Ratio (z) = 0.22433 -0.04454
#
# Static dielectric constant tensor:
#      x y z
#    x 1.852280 0.015860 0.017080 
#    y 0.015860 1.962840 -0.097780 
#    z 0.017080 -0.097780 1.895990 
# 
# From -- ./inp_files/369121.got.cif
#   From: 2010.05.17/outbox.cif.g08.bks.cpg/sg2_185_cif.got.tgz:369121.got - 2010.06.03 11:33:40.
