data_PCOD9097929
_publ_section_title
;
Structure prediction by ZEFSAII (Michael W. Deem and Ramdas Pophale) SiO2 
 PCOD9097929
Probable space group: P -1
;
_chemical_formula_sum "Si O2"
_cell_formula_units_Z 13
_cell_length_a 8.073700
_cell_length_b 11.113980
_cell_length_c 14.936004
_cell_angle_alpha 154.255121
_cell_angle_beta 63.918826
_cell_angle_gamma 111.093060
_cell_volume 520.620699
_symmetry_space_group_name_H-M "P -1"
_symmetry_group_IT_number 2
_symmetry_cell_setting 'triclinic'
loop_
_space_group_symop_operation_xyz
x,y,z
-x,-y,-z
loop_
_atom_site_type_symbol
_atom_site_label
_atom_site_fract_x
_atom_site_fract_y
_atom_site_fract_z
Si Si1 0.691970 0.638209 0.058802
Si Si2 0.645716 0.761796 0.346691
Si Si3 0.150358 0.639296 0.665294
Si Si4 0.843462 0.941105 0.693932
Si Si5 0.034546 0.777406 0.976575
Si Si6 0.000000 0.000000 0.500000
Si Si7 0.517068 0.233533 0.437381
O O1 0.728754 0.609092 0.136054
O O2 0.877264 0.568116 0.905596
O O3 0.638451 0.955884 0.257199
O O4 0.500000 0.500000 0.000000
O O5 0.543663 0.613765 0.352291
O O6 0.500000 0.000000 0.500000
O O7 0.794289 0.909712 0.466951
O O8 0.059409 0.351039 0.484215
O O9 0.344917 0.605035 0.545877
O O10 0.052247 0.928518 0.846380
O O11 0.156424 0.657596 0.784501
O O12 0.640705 0.878980 0.664654
O O13 0.952428 0.018132 0.632383
O O14 0.857004 0.154088 0.914528
#
# Coordination Sequence:
#
# PCOD9097929 Si02
#       7
#     2   2   2   2   2   1   2
#     4  10  20  40  61  88 125 164 207 260 321 370
#     4   9  18  36  61  83 123 161 204 260 309 369
#     4  10  22  41  61  89 124 167 207 248 313 381
#     4  11  21  40  64  89 127 164 200 264 318 363
#     4  10  22  41  62  91 125 158 213 259 300 387
#     4  10  20  36  62  94 120 156 216 258 312 386
#     4   9  21  39  59  91 121 158 215 249 305 389
#
# _framework density 24.970195
#
# number of rings (size 3 to 8) (size 9 to 14) (size 15 to 20)
#    0.000    2.154    1.538    0.923    0.000    4.308 
#   13.846    1.538    0.000    0.000    0.000    0.000 
#    0.000    0.000    0.000    0.000    0.000    0.000 
#
# Total GULP energy -72380.465937 kJ/mol
# GULP energy per Si atom -5567.728149 kJ/mol
# Density = 2.491336 g / cm^3
# Si number density = 24.970195 Si / 1000 Ang^3
#
#
#
# Elastic Constant Matrix: (Units=GPa)
#
#
# Indices 1 2 3 4 5 6 
#
# 1 74.1184 50.6484 20.2385 -15.1631 16.0316 -18.9199
# 2 50.6484 209.1839 74.9478 -52.0564 13.9267 -5.3080
# 3 20.2385 74.9478 65.1843 -36.2527 23.3160 -0.0629
# 4 -15.1631 -52.0564 -36.2527 55.4353 -13.7104 -7.4470
# 5 16.0316 13.9267 23.3160 -13.7104 44.4914 5.0442
# 6 -18.9199 -5.3080 -0.0629 -7.4470 5.0442 32.8440
#
#
#
# Elastic Compliance Matrix: (Units=1/GPa)
#
#
# Indices 1 2 3 4 5 6 
#
# 1 0.022075 -0.004935 0.004185 0.003811 -0.009036 0.014179
# 2 -0.004935 0.009862 -0.010404 0.002130 0.004975 -0.001550
# 3 0.004185 -0.010404 0.039351 0.014200 -0.015219 0.006362
# 4 0.003811 0.002130 0.014200 0.031467 -0.000900 0.009840
# 5 -0.009036 0.004975 -0.015219 -0.000900 0.032973 -0.009698
# 6 0.014179 -0.001550 0.006362 0.009840 -0.009698 0.042097
#
#
# Mechanical properties :
#
#
# Convention : Reuss Voigt Hill
#
# Bulk Modulus (GPa) = 20.41581 71.12844 45.77212
# Shear Modulus (GPa) = 23.09912 40.06426 31.58169
#
# Velocity S-wave (km/s) = 3.04479 4.00995 3.56023
# Velocity P-wave (km/s) = 4.53374 7.07013 5.93892
#
# Compressibility (1/GPa) = 0.04898165
#
# Stress axis : x y z
#
# Youngs Moduli (GPa) = 45.30110 101.39569 25.41213
#
# Poissons Ratio (x) = 0.50034 -0.10636
# Poissons Ratio (y) = 0.22354 0.26439
# Poissons Ratio (z) = -0.18960 1.05492
#
# Static dielectric constant tensor:
#      x y z
#    x 1.997610 0.023350 -0.038720 
#    y 0.023350 2.181250 0.512860 
#    z -0.038720 0.512860 3.181690 
# 
# From -- ./inp_files/59094.got.cif
#   From: 2010.05.17/outbox.cif.g08.bks.cpg/sg2_30_cif.got.tgz:59094.got - 2010.06.03 11:33:40.
