data_PCOD9097219
_publ_section_title
;
Structure prediction by ZEFSAII (Michael W. Deem and Ramdas Pophale) SiO2 
 PCOD9097219
Probable space group: P -1
;
_chemical_formula_sum "Si O2"
_cell_formula_units_Z 14
_cell_length_a 5.247724
_cell_length_b 10.104768
_cell_length_c 11.768763
_cell_angle_alpha 92.508529
_cell_angle_beta 83.284585
_cell_angle_gamma 89.918641
_cell_volume 619.173668
_symmetry_space_group_name_H-M "P -1"
_symmetry_group_IT_number 2
_symmetry_cell_setting 'triclinic'
loop_
_space_group_symop_operation_xyz
x,y,z
-x,-y,-z
loop_
_atom_site_type_symbol
_atom_site_label
_atom_site_fract_x
_atom_site_fract_y
_atom_site_fract_z
Si Si1 0.787317 0.601894 0.065697
Si Si2 0.878356 0.991939 0.633266
Si Si3 0.796434 0.514991 0.639423
Si Si4 0.538270 0.642051 0.850016
Si Si5 0.354939 0.828951 0.680138
Si Si6 0.402950 0.332612 0.533414
Si Si7 0.050842 0.255663 0.720228
O O1 0.598948 0.500594 0.136283
O O2 0.891118 0.710487 0.151628
O O3 0.639249 0.670113 0.971250
O O4 0.000000 0.500000 0.000000
O O5 0.603936 0.921875 0.652778
O O6 0.091454 0.907228 0.686438
O O7 0.000000 0.000000 0.500000
O O8 0.865046 0.136226 0.697371
O O9 0.767614 0.615101 0.749181
O O10 0.534412 0.445439 0.606280
O O11 0.828641 0.610156 0.532137
O O12 0.952537 0.395031 0.680406
O O13 0.373306 0.750434 0.795472
O O14 0.393118 0.727259 0.568385
O O15 0.297244 0.228418 0.625671
#
# Coordination Sequence:
#
# PCOD9097219 Si02
#       7
#     2   2   2   2   2   2   2
#     4  11  23  42  67  97 127 168 221 284 342 385
#     4  12  26  44  67  98 140 183 222 262 324 399
#     4  10  20  36  59  97 125 162 211 275 345 396
#     4  10  23  42  67  95 130 169 221 279 339 392
#     4  11  26  45  68  97 137 181 220 269 328 397
#     4  10  21  36  61  93 132 163 211 272 337 402
#     4  12  23  37  66  91 131 170 221 267 334 389
#
# _framework density 22.610779999999998
#
# number of rings (size 3 to 8) (size 9 to 14) (size 15 to 20)
#    0.000    1.143    4.286    1.714    4.000    0.000 
#    0.000    1.429    0.000    0.000    0.000    0.000 
#    0.000    0.000    0.000    0.000    0.000    0.000 
#
# Total GULP energy -78187.217150 kJ/mol
# GULP energy per Si atom -5584.801225 kJ/mol
# Density = 2.255932 g / cm^3
# Si number density = 22.610780 Si / 1000 Ang^3
#
#
#
# Elastic Constant Matrix: (Units=GPa)
#
#
# Indices 1 2 3 4 5 6 
#
# 1 63.9647 15.0523 22.6389 -2.5482 20.0138 4.9425
# 2 15.0523 51.5744 32.6560 -0.7558 15.4046 1.9991
# 3 22.6389 32.6560 152.2711 -5.7723 30.5648 7.1990
# 4 -2.5482 -0.7558 -5.7723 36.1028 0.6780 13.2422
# 5 20.0138 15.4046 30.5648 0.6780 18.8745 -2.4118
# 6 4.9425 1.9991 7.1990 13.2422 -2.4118 46.1789
#
#
#
# Elastic Compliance Matrix: (Units=1/GPa)
#
#
# Indices 1 2 3 4 5 6 
#
# 1 0.025832 0.001035 0.003479 0.005539 -0.034935 -0.006765
# 2 0.001035 0.026287 -0.001479 0.001721 -0.020549 -0.002585
# 3 0.003479 -0.001479 0.010886 0.003888 -0.020788 -0.004206
# 4 0.005539 0.001721 0.003888 0.033338 -0.016265 -0.011683
# 5 -0.034935 -0.020549 -0.020788 -0.016265 0.143603 0.020034
# 6 -0.006765 -0.002585 -0.004206 -0.011683 0.020034 0.027543
#
#
# Mechanical properties :
#
#
# Convention : Reuss Voigt Hill
#
# Bulk Modulus (GPa) = 14.47665 45.38940 29.93302
# Shear Modulus (GPa) = 17.57813 33.39544 25.48679
#
# Velocity S-wave (km/s) = 2.79125 3.84731 3.36102
# Velocity P-wave (km/s) = 4.09934 6.31296 5.32250
#
# Compressibility (1/GPa) = 0.06907676
#
# Stress axis : x y z
#
# Youngs Moduli (GPa) = 38.71097 38.04152 91.86022
#
# Poissons Ratio (x) = -0.03939 -0.31962
# Poissons Ratio (y) = -0.04008 0.13589
# Poissons Ratio (z) = -0.13469 0.05627
#
# Static dielectric constant tensor:
#      x y z
#    x 1.963890 -0.034150 -0.090480 
#    y -0.034150 1.921060 -0.034090 
#    z -0.090480 -0.034090 1.916280 
# 
# From -- ./inp_files/65695.got.cif
#   From: 2010.05.17/outbox.cif.g08.bks.cpg/sg2_33_cif.got.tgz:65695.got - 2010.06.03 11:33:40.
