data_PCOD9097286
_publ_section_title
;
Structure prediction by ZEFSAII (Michael W. Deem and Ramdas Pophale) SiO2 
 PCOD9097286
Probable space group: P -1
;
_chemical_formula_sum "Si O2"
_cell_formula_units_Z 12
_cell_length_a 8.440157
_cell_length_b 17.746678
_cell_length_c 5.790911
_cell_angle_alpha 87.785890
_cell_angle_beta 84.699203
_cell_angle_gamma 33.652871
_cell_volume 477.464811
_symmetry_space_group_name_H-M "P -1"
_symmetry_group_IT_number 2
_symmetry_cell_setting 'triclinic'
loop_
_space_group_symop_operation_xyz
x,y,z
-x,-y,-z
loop_
_atom_site_type_symbol
_atom_site_label
_atom_site_fract_x
_atom_site_fract_y
_atom_site_fract_z
Si Si1 0.158544 0.891720 0.690816
Si Si2 0.604568 0.337544 0.125632
Si Si3 0.856929 0.812360 0.178588
Si Si4 0.362306 0.943490 0.914247
Si Si5 0.754383 0.584632 0.210705
Si Si6 0.038882 0.605600 0.420561
O O1 0.309310 0.751157 0.661618
O O2 0.389304 0.859389 0.765337
O O3 0.000000 0.000000 0.500000
O O4 0.907872 0.968784 0.895777
O O5 0.314500 0.492937 0.224032
O O6 0.529590 0.314841 0.914592
O O7 0.864501 0.285197 0.008488
O O8 0.926294 0.734772 0.401351
O O9 0.723223 0.947433 0.227184
O O10 0.629539 0.856690 0.048934
O O11 0.799828 0.639659 0.360139
O O12 0.000000 0.500000 0.000000
O O13 0.161533 0.524008 0.649851
#
# Coordination Sequence:
#
# PCOD9097286 Si02
#       6
#     2   2   2   2   2   2
#     4  10  21  39  63  83 108 154 203 239 279 339
#     4  10  21  36  56  87 119 148 189 239 290 342
#     4  10  20  38  59  85 122 155 185 237 298 344
#     4   9  21  40  59  83 117 152 194 243 282 335
#     4   9  20  37  56  83 114 152 195 234 278 339
#     4  10  20  36  60  85 115 152 191 235 290 346
#
# _framework density 25.132743000000001
#
# number of rings (size 3 to 8) (size 9 to 14) (size 15 to 20)
#    0.000    2.333    0.000    1.500    0.000    8.667 
#    0.000   15.833    0.000    0.000    0.000    0.000 
#    0.000    0.000    0.000    0.000    0.000    0.000 
#
# Total GULP energy -67156.182881 kJ/mol
# GULP energy per Si atom -5596.348573 kJ/mol
# Density = 2.507554 g / cm^3
# Si number density = 25.132743 Si / 1000 Ang^3
#
#
#
# Elastic Constant Matrix: (Units=GPa)
#
#
# Indices 1 2 3 4 5 6 
#
# 1 121.0163 38.4718 18.9788 -9.5535 -19.3004 -18.3723
# 2 38.4718 92.6052 44.0573 -34.2699 -17.1193 11.8184
# 3 18.9788 44.0573 85.5867 -37.9890 -22.2028 18.4453
# 4 -9.5535 -34.2699 -37.9890 58.3727 10.2211 -19.2091
# 5 -19.3004 -17.1193 -22.2028 10.2211 30.9256 -9.5396
# 6 -18.3723 11.8184 18.4453 -19.2091 -9.5396 39.0615
#
#
#
# Elastic Compliance Matrix: (Units=1/GPa)
#
#
# Indices 1 2 3 4 5 6 
#
# 1 0.012569 -0.004571 0.000079 0.001261 0.007986 0.009828
# 2 -0.004571 0.017469 -0.004853 0.005462 0.000833 -0.002254
# 3 0.000079 -0.004853 0.020578 0.008380 0.008766 -0.001950
# 4 0.001261 0.005462 0.008380 0.028662 0.003411 0.009912
# 5 0.007986 0.000833 0.008766 0.003411 0.046793 0.012470
# 6 0.009828 -0.002254 -0.001950 0.009912 0.012470 0.039746
#
#
# Mechanical properties :
#
#
# Convention : Reuss Voigt Hill
#
# Bulk Modulus (GPa) = 31.32057 55.80267 43.56162
# Shear Modulus (GPa) = 25.62143 38.85198 32.23670
#
# Velocity S-wave (km/s) = 3.19634 3.93602 3.58531
# Velocity P-wave (km/s) = 5.10991 6.55040 5.87448
#
# Compressibility (1/GPa) = 0.03192790
#
# Stress axis : x y z
#
# Youngs Moduli (GPa) = 79.55979 57.24426 48.59468
#
# Poissons Ratio (x) = 0.26164 -0.00383
# Poissons Ratio (y) = 0.36364 0.23581
# Poissons Ratio (z) = -0.00627 0.27778
#
# Static dielectric constant tensor:
#      x y z
#    x 1.957450 0.025070 0.035440 
#    y 0.025070 1.989180 0.028060 
#    z 0.035440 0.028060 1.981430 
# 
# From -- ./inp_files/43553.got.cif
#   From: 2010.05.17/outbox.cif.g08.bks.cpg/sg2_22_cif.got.tgz:43553.got - 2010.06.03 11:33:40.
