data_PCOD9097606
_publ_section_title
;
Structure prediction by ZEFSAII (Michael W. Deem and Ramdas Pophale) SiO2 
 PCOD9097606
Probable space group: P -1
;
_chemical_formula_sum "Si O2"
_cell_formula_units_Z 14
_cell_length_a 13.612172
_cell_length_b 5.491232
_cell_length_c 12.719892
_cell_angle_alpha 98.293577
_cell_angle_beta 43.094784
_cell_angle_gamma 111.390898
_cell_volume 593.590070
_symmetry_space_group_name_H-M "P -1"
_symmetry_group_IT_number 2
_symmetry_cell_setting 'triclinic'
loop_
_space_group_symop_operation_xyz
x,y,z
-x,-y,-z
loop_
_atom_site_type_symbol
_atom_site_label
_atom_site_fract_x
_atom_site_fract_y
_atom_site_fract_z
Si Si1 0.860370 0.579499 0.580488
Si Si2 0.171160 0.559396 0.821389
Si Si3 0.360782 0.093592 0.100032
Si Si4 0.179537 0.016376 0.683754
Si Si5 0.497613 0.633755 0.623954
Si Si6 0.046989 0.949246 0.295732
Si Si7 0.539885 0.433679 0.796606
O O1 0.886030 0.813162 0.658699
O O2 0.688840 0.354366 0.695282
O O3 0.000000 0.500000 0.500000
O O4 0.900841 0.709376 0.441887
O O5 0.174684 0.273620 0.767005
O O6 0.337868 0.687338 0.760665
O O7 0.184146 0.773011 0.733486
O O8 0.000000 0.500000 0.000000
O O9 0.196648 0.868894 0.177141
O O10 0.383206 0.265618 0.200004
O O11 0.403812 0.285184 0.975044
O O12 0.500000 0.000000 0.000000
O O13 0.335795 0.118884 0.496270
O O14 0.018240 0.937211 0.741554
O O15 0.500000 0.500000 0.500000
O O16 0.497202 0.444925 0.710272
#
# Coordination Sequence:
#
# PCOD9097606 Si02
#       7
#     2   2   2   2   2   2   2
#     4  10  20  36  61  89 127 167 210 267 327 393
#     4  11  26  46  71  98 135 175 231 281 340 402
#     4  10  22  40  60  95 128 171 216 271 338 395
#     4  11  24  46  69 100 135 177 225 282 338 407
#     4  10  23  45  68  98 134 180 228 279 340 405
#     4  10  22  36  60  94 124 164 221 263 331 397
#     4  10  21  41  62  90 132 167 220 269 330 399
#
# _framework density 23.585301999999999
#
# number of rings (size 3 to 8) (size 9 to 14) (size 15 to 20)
#    0.000    1.714    1.429    1.714    4.000    1.143 
#   10.286    0.000    0.000    0.000    0.000    0.000 
#    0.000    0.000    0.000    0.000    0.000    0.000 
#
# Total GULP energy -77969.455542 kJ/mol
# GULP energy per Si atom -5569.246824 kJ/mol
# Density = 2.353162 g / cm^3
# Si number density = 23.585302 Si / 1000 Ang^3
#
#
#
# Elastic Constant Matrix: (Units=GPa)
#
#
# Indices 1 2 3 4 5 6 
#
# 1 140.3046 -0.6697 37.6573 -6.6400 -15.6968 -17.0879
# 2 -0.6697 38.0565 0.5022 -3.7253 9.8726 -1.5368
# 3 37.6573 0.5022 88.5767 -17.1765 -14.2181 10.3645
# 4 -6.6400 -3.7253 -17.1765 28.4255 -4.0980 1.8857
# 5 -15.6968 9.8726 -14.2181 -4.0980 51.6031 -8.2869
# 6 -17.0879 -1.5368 10.3645 1.8857 -8.2869 22.5497
#
#
#
# Elastic Compliance Matrix: (Units=1/GPa)
#
#
# Indices 1 2 3 4 5 6 
#
# 1 0.010343 -0.000295 -0.005432 -0.001178 0.003491 0.011696
# 2 -0.000295 0.027913 -0.000343 0.002631 -0.005373 -0.000358
# 3 -0.005432 -0.000343 0.017353 0.010278 0.002048 -0.012223
# 4 -0.001178 0.002631 0.010278 0.042554 0.004150 -0.007471
# 5 0.003491 -0.005373 0.002048 0.004150 0.023934 0.009786
# 6 0.011696 -0.000358 -0.012223 -0.007471 0.009786 0.063024
#
#
# Mechanical properties :
#
#
# Convention : Reuss Voigt Hill
#
# Bulk Modulus (GPa) = 23.00517 37.99082 30.49800
# Shear Modulus (GPa) = 23.61258 35.81219 29.71238
#
# Velocity S-wave (km/s) = 3.16754 3.90091 3.55319
# Velocity P-wave (km/s) = 4.81175 6.03591 5.45826
#
# Compressibility (1/GPa) = 0.04346848
#
# Stress axis : x y z
#
# Youngs Moduli (GPa) = 96.68212 35.82551 57.62681
#
# Poissons Ratio (x) = 0.01056 0.31304
# Poissons Ratio (y) = 0.02850 0.01979
# Poissons Ratio (z) = 0.52520 0.01230
#
# Static dielectric constant tensor:
#      x y z
#    x 2.519550 -0.234910 -0.839260 
#    y -0.234910 2.050970 0.347170 
#    z -0.839260 0.347170 3.060360 
# 
# From -- ./inp_files/70414.got.cif
#   From: 2010.05.17/outbox.cif.g08.bks.cpg/sg2_36_cif.got.tgz:70414.got - 2010.06.03 11:33:40.
