data_PCOD9097085
_publ_section_title
;
Structure prediction by ZEFSAII (Michael W. Deem and Ramdas Pophale) SiO2 
 PCOD9097085
Probable space group: P -1
;
_chemical_formula_sum "Si O2"
_cell_formula_units_Z 16
_cell_length_a 15.537418
_cell_length_b 15.020344
_cell_length_c 9.039900
_cell_angle_alpha 58.536288
_cell_angle_beta 144.641761
_cell_angle_gamma 137.525469
_cell_volume 807.127674
_symmetry_space_group_name_H-M "P -1"
_symmetry_group_IT_number 2
_symmetry_cell_setting 'triclinic'
loop_
_space_group_symop_operation_xyz
x,y,z
-x,-y,-z
loop_
_atom_site_type_symbol
_atom_site_label
_atom_site_fract_x
_atom_site_fract_y
_atom_site_fract_z
Si Si1 0.867262 0.064456 0.624720
Si Si2 0.442760 0.227148 0.040162
Si Si3 0.139300 0.963741 0.697339
Si Si4 0.299723 0.177826 0.199654
Si Si5 0.955593 0.644794 0.396480
Si Si6 0.564581 0.431119 0.551478
Si Si7 0.796175 0.667753 0.442851
Si Si8 0.774118 0.419505 0.117809
O O1 0.800740 0.009302 0.413494
O O2 0.888671 0.197328 0.556385
O O3 0.737723 0.947919 0.661848
O O4 0.087454 0.119657 0.899441
O O5 0.336354 0.287399 0.786130
O O6 0.319118 0.070607 0.957886
O O7 0.439051 0.231758 0.207650
O O8 0.637876 0.313904 0.147622
O O9 0.006893 0.802853 0.670483
O O10 0.000000 0.000000 0.500000
O O11 0.388751 0.298594 0.335443
O O12 0.815777 0.631400 0.335958
O O13 0.852383 0.561566 0.175370
O O14 0.055379 0.587209 0.655276
O O15 0.500000 0.500000 0.500000
O O16 0.709393 0.543417 0.536683
O O17 0.663064 0.393482 0.834289
#
# Coordination Sequence:
#
# PCOD9097085 Si02
#       8
#     2   2   2   2   2   2   2   2
#     4  10  20  36  59  86 119 153 193 240 293 346
#     4  11  20  37  60  90 118 153 196 242 287 344
#     4   9  17  34  55  85 117 151 188 236 290 340
#     4  11  22  34  59  90 119 150 193 249 288 338
#     4  10  22  44  60  84 117 163 192 232 300 354
#     4  12  24  35  57  93 119 147 197 249 289 336
#     4  10  21  37  61  84 122 151 196 236 295 345
#     4  11  24  39  62  85 121 154 197 241 289 352
#
# _framework density 19.823381999999999
#
# number of rings (size 3 to 8) (size 9 to 14) (size 15 to 20)
#    0.000    1.500    5.000    2.250    1.750    2.500 
#    0.000    6.250    0.000    0.000    0.000    0.000 
#    0.000    0.000    0.000    0.000    0.000    0.000 
#
# Total GULP energy -89317.209375 kJ/mol
# GULP energy per Si atom -5582.325586 kJ/mol
# Density = 1.977826 g / cm^3
# Si number density = 19.823382 Si / 1000 Ang^3
#
#
#
# Elastic Constant Matrix: (Units=GPa)
#
#
# Indices 1 2 3 4 5 6 
#
# 1 46.1152 24.5726 4.2960 -0.5768 -13.8441 4.8602
# 2 24.5726 79.9589 -5.2417 -5.1247 -16.2159 6.5929
# 3 4.2960 -5.2417 25.7512 2.4451 -10.2321 -2.9371
# 4 -0.5768 -5.1247 2.4451 18.9077 -2.6492 -12.5496
# 5 -13.8441 -16.2159 -10.2321 -2.6492 23.8717 3.2981
# 6 4.8602 6.5929 -2.9371 -12.5496 3.2981 37.4315
#
#
#
# Elastic Compliance Matrix: (Units=1/GPa)
#
#
# Indices 1 2 3 4 5 6 
#
# 1 0.029427 -0.006360 -0.001582 -0.001900 0.012486 -0.004562
# 2 -0.006360 0.018212 0.009535 0.004531 0.013452 -0.001300
# 3 -0.001582 0.009535 0.052145 -0.000250 0.027871 0.000078
# 4 -0.001900 0.004531 -0.000250 0.069772 0.006538 0.022245
# 5 0.012486 0.013452 0.027871 0.006538 0.071761 -0.005934
# 6 -0.004562 -0.001300 0.000078 0.022245 -0.005934 0.035524
#
#
# Mechanical properties :
#
#
# Convention : Reuss Voigt Hill
#
# Bulk Modulus (GPa) = 9.71184 22.11991 15.91588
# Shear Modulus (GPa) = 16.23480 24.58873 20.41177
#
# Velocity S-wave (km/s) = 2.86487 3.52574 3.21235
# Velocity P-wave (km/s) = 3.98160 5.26851 4.66960
#
# Compressibility (1/GPa) = 0.10296708
#
# Stress axis : x y z
#
# Youngs Moduli (GPa) = 33.98246 54.90965 19.17724
#
# Poissons Ratio (x) = 0.34925 0.03035
# Poissons Ratio (y) = 0.21614 -0.18285
# Poissons Ratio (z) = 0.05378 -0.52354
#
# Static dielectric constant tensor:
#      x y z
#    x 1.681890 0.002370 -0.006300 
#    y 0.002370 1.731590 0.009420 
#    z -0.006300 0.009420 1.720640 
# 
# From -- ./inp_files/262042.got.cif
#   From: 2010.05.17/outbox.cif.g08.bks.cpg/sg2_132_cif.got.tgz:262042.got - 2010.06.03 11:33:40.
