data_PCOD9097316
_publ_section_title
;
Structure prediction by ZEFSAII (Michael W. Deem and Ramdas Pophale) SiO2 
 PCOD9097316
Probable space group: P -1
;
_chemical_formula_sum "Si O2"
_cell_formula_units_Z 16
_cell_length_a 13.243474
_cell_length_b 7.402606
_cell_length_c 10.002611
_cell_angle_alpha 135.161298
_cell_angle_beta 72.033642
_cell_angle_gamma 112.390251
_cell_volume 638.212047
_symmetry_space_group_name_H-M "P -1"
_symmetry_group_IT_number 2
_symmetry_cell_setting 'triclinic'
loop_
_space_group_symop_operation_xyz
x,y,z
-x,-y,-z
loop_
_atom_site_type_symbol
_atom_site_label
_atom_site_fract_x
_atom_site_fract_y
_atom_site_fract_z
Si Si1 0.278911 0.107511 0.224328
Si Si2 0.290724 0.122306 0.723032
Si Si3 0.249374 0.610032 0.166257
Si Si4 0.746778 0.577656 0.336310
Si Si5 0.905468 0.712447 0.740997
Si Si6 0.124011 0.671233 0.688194
Si Si7 0.516481 0.235715 0.783631
Si Si8 0.514214 0.264358 0.272730
O O1 0.273201 0.319640 0.454583
O O2 0.189616 0.131202 0.161726
O O3 0.408826 0.188684 0.177845
O O4 0.249060 0.831450 0.171548
O O5 0.234339 0.170229 0.633739
O O6 0.421330 0.167730 0.676998
O O7 0.234272 0.853014 0.676762
O O8 0.268607 0.353990 0.948110
O O9 0.144015 0.515136 0.250876
O O10 0.355312 0.710360 0.271271
O O11 0.844724 0.435358 0.239319
O O12 0.635971 0.374383 0.224212
O O13 0.914483 0.581512 0.524571
O O14 0.029623 0.828872 0.798356
O O15 0.492257 0.992257 0.768821
O O16 0.500000 0.500000 0.000000
O O17 0.500000 0.500000 0.500000
#
# Coordination Sequence:
#
# PCOD9097316 Si02
#       8
#     2   2   2   2   2   2   2   2
#     4   9  20  38  56  86 117 148 196 242 295 343
#     4  11  22  37  60  87 120 156 194 239 296 356
#     4  10  22  39  56  87 120 154 194 238 295 354
#     4  10  20  36  60  87 116 151 193 247 293 345
#     4  10  22  40  64  80 116 159 196 245 289 346
#     4  10  22  41  60  88 112 154 205 240 290 347
#     4   9  19  37  55  85 126 158 194 237 298 368
#     4   9  17  34  57  86 118 149 198 248 289 351
#
# _framework density 25.070039999999999
#
# number of rings (size 3 to 8) (size 9 to 14) (size 15 to 20)
#    0.000    2.250    1.250    0.750    1.750    2.500 
#    0.000    9.375    0.000    0.000    0.000    0.000 
#    0.000    0.000    0.000    0.000    0.000    0.000 
#
# Total GULP energy -89464.809232 kJ/mol
# GULP energy per Si atom -5591.550577 kJ/mol
# Density = 2.501298 g / cm^3
# Si number density = 25.070040 Si / 1000 Ang^3
#
#
#
# Elastic Constant Matrix: (Units=GPa)
#
#
# Indices 1 2 3 4 5 6 
#
# 1 144.1890 34.2303 -6.7198 -9.8340 -5.9120 -30.5980
# 2 34.2303 98.2308 4.0499 14.3830 -3.2222 -21.9792
# 3 -6.7198 4.0499 78.5435 11.4419 -2.4797 -6.1117
# 4 -9.8340 14.3830 11.4419 36.9171 -0.0849 -7.0865
# 5 -5.9120 -3.2222 -2.4797 -0.0849 8.4330 2.5356
# 6 -30.5980 -21.9792 -6.1117 -7.0865 2.5356 42.0171
#
#
#
# Elastic Compliance Matrix: (Units=1/GPa)
#
#
# Indices 1 2 3 4 5 6 
#
# 1 0.009314 -0.002410 0.000896 0.004329 0.004071 0.006137
# 2 -0.002410 0.012678 0.000223 -0.004884 0.001979 0.003966
# 3 0.000896 0.000223 0.013612 -0.003697 0.004114 0.001877
# 4 0.004329 -0.004884 -0.003697 0.032361 -0.001275 0.005595
# 5 0.004071 0.001979 0.004114 -0.001275 0.124326 -0.003120
# 6 0.006137 0.003966 0.001877 0.005595 -0.003120 0.031749
#
#
# Mechanical properties :
#
#
# Convention : Reuss Voigt Hill
#
# Bulk Modulus (GPa) = 30.28258 42.67601 36.47929
# Shear Modulus (GPa) = 21.04138 36.76699 28.90418
#
# Velocity S-wave (km/s) = 2.90022 3.83374 3.39918
# Velocity P-wave (km/s) = 4.82912 6.05445 5.47617
#
# Compressibility (1/GPa) = 0.03302228
#
# Stress axis : x y z
#
# Youngs Moduli (GPa) = 107.36948 78.87554 73.46713
#
# Poissons Ratio (x) = 0.19007 -0.06586
# Poissons Ratio (y) = 0.25873 -0.01637
# Poissons Ratio (z) = -0.09625 -0.01757
#
# Static dielectric constant tensor:
#      x y z
#    x 2.037680 -0.038920 0.003590 
#    y -0.038920 1.887940 0.000380 
#    z 0.003590 0.000380 2.003670 
# 
# From -- ./inp_files/270790.got.cif
#   From: 2010.05.17/outbox.cif.g08.bks.cpg/sg2_136_cif.got.tgz:270790.got - 2010.06.03 11:33:40.
