data_PCOD9097351
_publ_section_title
;
Structure prediction by ZEFSAII (Michael W. Deem and Ramdas Pophale) SiO2 
 PCOD9097351
Probable space group: P -1
;
_chemical_formula_sum "Si O2"
_cell_formula_units_Z 15
_cell_length_a 13.540134
_cell_length_b 5.716938
_cell_length_c 20.300742
_cell_angle_alpha 81.593526
_cell_angle_beta 149.205894
_cell_angle_gamma 77.390226
_cell_volume 584.258036
_symmetry_space_group_name_H-M "P -1"
_symmetry_group_IT_number 2
_symmetry_cell_setting 'triclinic'
loop_
_space_group_symop_operation_xyz
x,y,z
-x,-y,-z
loop_
_atom_site_type_symbol
_atom_site_label
_atom_site_fract_x
_atom_site_fract_y
_atom_site_fract_z
Si Si1 0.105742 0.625750 0.513557
Si Si2 0.750367 0.153744 0.584295
Si Si3 0.000000 0.000000 0.000000
Si Si4 0.591940 0.282315 0.239323
Si Si5 0.255690 0.920902 0.272267
Si Si6 0.092142 0.281118 0.737686
Si Si7 0.603861 0.631695 0.011025
Si Si8 0.443654 0.215884 0.287652
O O1 0.360707 0.525879 0.696912
O O2 0.000000 0.500000 0.500000
O O3 0.118987 0.534579 0.449620
O O4 0.871113 0.015551 0.371458
O O5 0.500174 0.537623 0.430232
O O6 0.767880 0.988757 0.668351
O O7 0.682903 0.088994 0.478520
O O8 0.002688 0.116497 0.729425
O O9 0.982325 0.998810 0.907265
O O10 0.780635 0.396507 0.856009
O O11 0.533870 0.130902 0.266808
O O12 0.385670 0.445857 0.055807
O O13 0.324331 0.078297 0.255699
O O14 0.142996 0.454454 0.808698
O O15 0.369496 0.020643 0.869178
O O16 0.500000 0.500000 0.000000
#
# Coordination Sequence:
#
# PCOD9097351 Si02
#       8
#     2   2   1   2   2   2   2   2
#     4  10  20  36  60  88 123 160 205 259 309 382
#     4  10  22  41  63  94 126 169 224 274 324 390
#     4  10  24  42  62  90 130 166 220 272 328 392
#     4  10  22  36  59  94 121 159 215 256 315 389
#     4  10  23  41  65  93 128 166 221 278 328 389
#     4  10  21  38  60  89 126 168 208 260 321 381
#     4  10  22  39  57  91 132 166 211 261 320 398
#     4  11  22  41  66  93 130 172 221 274 331 388
#
# _framework density 25.673589
#
# number of rings (size 3 to 8) (size 9 to 14) (size 15 to 20)
#    0.000    1.867    1.333    1.600    1.867    3.200 
#    0.000    1.333    0.000    0.000    0.000    0.000 
#    0.000    0.000    0.000    0.000    0.000    0.000 
#
# Total GULP energy -83582.887398 kJ/mol
# GULP energy per Si atom -5572.192493 kJ/mol
# Density = 2.561515 g / cm^3
# Si number density = 25.673589 Si / 1000 Ang^3
#
#
#
# Elastic Constant Matrix: (Units=GPa)
#
#
# Indices 1 2 3 4 5 6 
#
# 1 141.0300 18.6469 41.0222 24.2745 -52.5045 -13.2951
# 2 18.6469 47.7830 33.9154 28.3060 -15.6819 -24.4977
# 3 41.0222 33.9154 145.1924 17.1071 -32.8611 -26.3973
# 4 24.2745 28.3060 17.1071 60.9709 -15.5838 -3.9987
# 5 -52.5045 -15.6819 -32.8611 -15.5838 45.4603 8.2940
# 6 -13.2951 -24.4977 -26.3973 -3.9987 8.2940 39.0512
#
#
#
# Elastic Compliance Matrix: (Units=1/GPa)
#
#
# Indices 1 2 3 4 5 6 
#
# 1 0.012738 0.002581 -0.000260 -0.002421 0.014123 0.002533
# 2 0.002581 0.049804 -0.003970 -0.019860 0.005705 0.026194
# 3 -0.000260 -0.003970 0.009419 0.000735 0.004875 0.002828
# 4 -0.002421 -0.019860 0.000735 0.026141 0.001758 -0.010482
# 5 0.014123 0.005705 0.004875 0.001758 0.043941 0.002530
# 6 0.002533 0.026194 0.002828 -0.010482 0.002530 0.043203
#
#
# Mechanical properties :
#
#
# Convention : Reuss Voigt Hill
#
# Bulk Modulus (GPa) = 14.56344 57.90828 36.23586
# Shear Modulus (GPa) = 23.64843 45.12454 34.38649
#
# Velocity S-wave (km/s) = 3.03829 4.19695 3.66371
# Velocity P-wave (km/s) = 4.24183 6.78899 5.66054
#
# Compressibility (1/GPa) = 0.06866511
#
# Stress axis : x y z
#
# Youngs Moduli (GPa) = 78.50388 20.07863 106.16813
#
# Poissons Ratio (x) = -0.05183 0.02759
# Poissons Ratio (y) = -0.20264 0.42144
# Poissons Ratio (z) = 0.02040 0.07970
#
# Static dielectric constant tensor:
#      x y z
#    x 2.004820 -0.038190 0.058280 
#    y -0.038190 2.152600 0.010010 
#    z 0.058280 0.010010 2.110890 
# 
# From -- ./inp_files/596649.got.cif
#   From: 2010.05.17/outbox.cif.g08.bks.cpg/sg2_299_cif.got.tgz:596649.got - 2010.06.03 11:33:40.
