data_PCOD9097232
_publ_section_title
;
Structure prediction by ZEFSAII (Michael W. Deem and Ramdas Pophale) SiO2 
 PCOD9097232
Probable space group: P -1
;
_chemical_formula_sum "Si O2"
_cell_formula_units_Z 14
_cell_length_a 13.295175
_cell_length_b 13.499791
_cell_length_c 8.213923
_cell_angle_alpha 127.455327
_cell_angle_beta 98.375675
_cell_angle_gamma 39.045851
_cell_volume 558.209894
_symmetry_space_group_name_H-M "P -1"
_symmetry_group_IT_number 2
_symmetry_cell_setting 'triclinic'
loop_
_space_group_symop_operation_xyz
x,y,z
-x,-y,-z
loop_
_atom_site_type_symbol
_atom_site_label
_atom_site_fract_x
_atom_site_fract_y
_atom_site_fract_z
Si Si1 0.252304 0.492597 0.007174
Si Si2 0.549749 0.922279 0.151578
Si Si3 0.111578 0.269336 0.891560
Si Si4 0.345288 0.808683 0.295450
Si Si5 0.955387 0.165741 0.371125
Si Si6 0.389080 0.316569 0.372959
Si Si7 0.334890 0.739089 0.573773
O O1 0.390976 0.222165 0.822001
O O2 0.411962 0.419153 0.899228
O O3 0.147142 0.666513 0.318260
O O4 0.058621 0.649399 0.011727
O O5 0.747620 0.798230 0.026558
O O6 0.373185 0.219555 0.401739
O O7 0.536194 0.832741 0.922549
O O8 0.245318 0.047571 0.569795
O O9 0.000000 0.500000 0.000000
O O10 0.332221 0.730064 0.367516
O O11 0.204492 0.916349 0.215058
O O12 0.831686 0.376954 0.413812
O O13 0.880683 0.102429 0.272387
O O14 0.574227 0.217568 0.352680
O O15 0.500000 0.500000 0.500000
#
# Coordination Sequence:
#
# PCOD9097232 Si02
#       7
#     2   2   2   2   2   2   2
#     4   9  20  34  57  89 115 140 191 233 276 335
#     4   9  16  32  57  80 112 153 182 224 280 332
#     4   9  18  33  54  85 114 147 180 223 278 336
#     4  11  20  36  60  86 112 148 186 234 285 326
#     4   9  20  37  59  81 111 149 190 232 276 331
#     4   9  17  33  58  79 109 151 189 220 277 335
#     4  10  20  36  60  81 110 153 190 229 283 334
#
# _framework density 25.080172000000001
#
# number of rings (size 3 to 8) (size 9 to 14) (size 15 to 20)
#    0.000    2.571    1.429    1.286    0.000    2.857 
#    0.000    0.714   18.857   10.286    0.000    0.000 
#    0.000    0.000    0.000    0.000    0.000    0.000 
#
# Total GULP energy -77946.864884 kJ/mol
# GULP energy per Si atom -5567.633206 kJ/mol
# Density = 2.502309 g / cm^3
# Si number density = 25.080172 Si / 1000 Ang^3
#
#
#
# Elastic Constant Matrix: (Units=GPa)
#
#
# Indices 1 2 3 4 5 6 
#
# 1 107.0688 40.1845 19.0155 9.3363 22.4749 -17.0241
# 2 40.1845 96.9114 -1.7298 17.7239 -0.1468 -30.0946
# 3 19.0155 -1.7298 60.2059 1.5406 5.2367 -8.2684
# 4 9.3363 17.7239 1.5406 15.8602 -7.2864 1.4632
# 5 22.4749 -0.1468 5.2367 -7.2864 40.7371 10.9904
# 6 -17.0241 -30.0946 -8.2684 1.4632 10.9904 64.0520
#
#
#
# Elastic Compliance Matrix: (Units=1/GPa)
#
#
# Indices 1 2 3 4 5 6 
#
# 1 0.014863 -0.002988 -0.002982 -0.010502 -0.010857 0.004265
# 2 -0.002988 0.019111 0.004004 -0.023584 -0.005776 0.010232
# 3 -0.002982 0.004004 0.018657 -0.006285 -0.002983 0.004153
# 4 -0.010502 -0.023584 -0.006285 0.113477 0.033002 -0.022939
# 5 -0.010857 -0.005776 -0.002983 0.033002 0.040495 -0.013687
# 6 0.004265 0.010232 0.004153 -0.022939 -0.013687 0.024962
#
#
# Mechanical properties :
#
#
# Convention : Reuss Voigt Hill
#
# Bulk Modulus (GPa) = 20.53373 42.12516 31.32945
# Shear Modulus (GPa) = 19.86254 37.91094 28.88674
#
# Velocity S-wave (km/s) = 2.81723 3.89214 3.39746
# Velocity P-wave (km/s) = 4.33445 6.08531 5.28291
#
# Compressibility (1/GPa) = 0.04870035
#
# Stress axis : x y z
#
# Youngs Moduli (GPa) = 67.27910 52.32591 53.59902
#
# Poissons Ratio (x) = 0.15634 0.15981
# Poissons Ratio (y) = 0.20102 -0.21460
# Poissons Ratio (z) = 0.20060 -0.20951
#
# Static dielectric constant tensor:
#      x y z
#    x 1.959230 0.020240 0.027450 
#    y 0.020240 2.124680 0.091230 
#    z 0.027450 0.091230 2.072470 
# 
# From -- ./inp_files/431820.got.cif
#   From: 2010.05.17/outbox.cif.g08.bks.cpg/sg2_216_cif.got.tgz:431820.got - 2010.06.03 11:33:40.
