data_PCOD9097457
_publ_section_title
;
Structure prediction by ZEFSAII (Michael W. Deem and Ramdas Pophale) SiO2 
 PCOD9097457
Probable space group: P -1
;
_chemical_formula_sum "Si O2"
_cell_formula_units_Z 14
_cell_length_a 7.918653
_cell_length_b 8.744955
_cell_length_c 14.847243
_cell_angle_alpha 47.708778
_cell_angle_beta 70.186587
_cell_angle_gamma 50.207383
_cell_volume 576.728046
_symmetry_space_group_name_H-M "P -1"
_symmetry_group_IT_number 2
_symmetry_cell_setting 'triclinic'
loop_
_space_group_symop_operation_xyz
x,y,z
-x,-y,-z
loop_
_atom_site_type_symbol
_atom_site_label
_atom_site_fract_x
_atom_site_fract_y
_atom_site_fract_z
Si Si1 0.065174 0.184047 0.696338
Si Si2 0.417816 0.200380 0.214737
Si Si3 0.732476 0.293409 0.865002
Si Si4 0.320687 0.553082 0.691358
Si Si5 0.787982 0.463891 0.482962
Si Si6 0.384318 0.926624 0.479985
Si Si7 0.629945 0.932193 0.096098
O O1 0.939070 0.185699 0.804453
O O2 0.931471 0.216616 0.617856
O O3 0.061561 0.437087 0.604674
O O4 0.324247 0.951942 0.739171
O O5 0.307301 0.495652 0.139335
O O6 0.461749 0.082180 0.152662
O O7 0.296193 0.118637 0.335204
O O8 0.523966 0.432559 0.775018
O O9 0.751157 0.066186 0.004800
O O10 0.328380 0.517450 0.595481
O O11 0.236242 0.849855 0.583027
O O12 0.235995 0.375874 0.798807
O O13 0.596839 0.667327 0.503385
O O14 0.500000 0.000000 0.500000
O O15 0.500000 0.000000 0.000000
#
# Coordination Sequence:
#
# PCOD9097457 Si02
#       7
#     2   2   2   2   2   2   2
#     4  10  21  37  66  95 125 166 211 255 327 373
#     4  11  22  41  64  96 128 160 213 269 306 375
#     4  11  23  40  67  88 126 175 218 247 311 380
#     4  11  20  37  63  92 126 170 205 263 316 374
#     4  10  20  36  60  93 131 162 206 262 325 374
#     4  11  19  33  65  94 121 162 207 257 325 377
#     4  10  23  39  64  92 122 174 218 252 313 373
#
# _framework density 24.274872999999999
#
# number of rings (size 3 to 8) (size 9 to 14) (size 15 to 20)
#    0.000    1.429    5.714    0.857    0.000    0.571 
#    0.000    0.714    6.286    5.143    0.000    0.000 
#    0.000    0.000    0.000    0.000    0.000    0.000 
#
# Total GULP energy -77975.369504 kJ/mol
# GULP energy per Si atom -5569.669250 kJ/mol
# Density = 2.421962 g / cm^3
# Si number density = 24.274873 Si / 1000 Ang^3
#
#
#
# Elastic Constant Matrix: (Units=GPa)
#
#
# Indices 1 2 3 4 5 6 
#
# 1 55.4141 36.1138 48.3725 -4.5762 8.1085 20.2848
# 2 36.1138 112.2541 52.0563 14.7166 -6.7306 21.7588
# 3 48.3725 52.0563 178.0369 -2.6972 -32.7157 21.6424
# 4 -4.5762 14.7166 -2.6972 34.0922 23.9286 2.5519
# 5 8.1085 -6.7306 -32.7157 23.9286 58.7916 -1.4159
# 6 20.2848 21.7588 21.6424 2.5519 -1.4159 32.5622
#
#
#
# Elastic Compliance Matrix: (Units=1/GPa)
#
#
# Indices 1 2 3 4 5 6 
#
# 1 0.052929 -0.013644 -0.013222 0.035125 -0.030977 -0.019168
# 2 -0.013644 0.015793 0.000929 -0.016016 0.010702 -0.000950
# 3 -0.013222 0.000929 0.010778 -0.009866 0.011985 0.001746
# 4 0.035125 -0.016016 -0.009866 0.069728 -0.040834 -0.011862
# 5 -0.030977 0.010702 0.011985 -0.040834 0.046022 0.009381
# 6 -0.019168 -0.000950 0.001746 -0.011862 0.009381 0.043463
#
#
# Mechanical properties :
#
#
# Convention : Reuss Voigt Hill
#
# Bulk Modulus (GPa) = 36.19664 68.75449 52.47556
# Shear Modulus (GPa) = 16.67809 39.03337 27.85573
#
# Velocity S-wave (km/s) = 2.62401 4.01431 3.39117
# Velocity P-wave (km/s) = 4.91163 7.06194 6.08256
#
# Compressibility (1/GPa) = 0.02762688
#
# Stress axis : x y z
#
# Youngs Moduli (GPa) = 18.89315 63.32103 92.78058
#
# Poissons Ratio (x) = 0.86393 1.22672
# Poissons Ratio (y) = 0.25777 -0.08619
# Poissons Ratio (z) = 0.24980 -0.05882
#
# Static dielectric constant tensor:
#      x y z
#    x 2.115480 0.003500 0.031690 
#    y 0.003500 1.932360 -0.060040 
#    z 0.031690 -0.060040 2.082890 
# 
# From -- ./inp_files/490394.got.cif
#   From: 2010.05.17/outbox.cif.g08.bks.cpg/sg2_246_cif.got.tgz:490394.got - 2010.06.03 11:33:40.
