data_PCOD9097975
_publ_section_title
;
Structure prediction by ZEFSAII (Michael W. Deem and Ramdas Pophale) SiO2 
 PCOD9097975
Probable space group: P -1
;
_chemical_formula_sum "Si O2"
_cell_formula_units_Z 16
_cell_length_a 13.902737
_cell_length_b 9.097038
_cell_length_c 11.764037
_cell_angle_alpha 79.528649
_cell_angle_beta 106.998169
_cell_angle_gamma 40.917235
_cell_volume 713.840325
_symmetry_space_group_name_H-M "P -1"
_symmetry_group_IT_number 2
_symmetry_cell_setting 'triclinic'
loop_
_space_group_symop_operation_xyz
x,y,z
-x,-y,-z
loop_
_atom_site_type_symbol
_atom_site_label
_atom_site_fract_x
_atom_site_fract_y
_atom_site_fract_z
Si Si1 0.889674 0.725335 0.326637
Si Si2 0.093546 0.851883 0.418544
Si Si3 0.503316 0.907127 0.630333
Si Si4 0.362306 0.484294 0.889873
Si Si5 0.305725 0.319748 0.715243
Si Si6 0.910369 0.310325 0.779237
Si Si7 0.318148 0.844397 0.607140
Si Si8 0.328129 0.676339 0.070905
O O1 0.778245 0.720961 0.245599
O O2 0.000000 0.500000 0.500000
O O3 0.013315 0.651993 0.283006
O O4 0.759819 0.011265 0.312920
O O5 0.161239 0.624907 0.554916
O O6 0.160790 0.720105 0.334324
O O7 0.193462 0.876779 0.496156
O O8 0.857214 0.179575 0.274944
O O9 0.731660 0.569979 0.764508
O O10 0.350506 0.966087 0.549208
O O11 0.500000 0.000000 0.500000
O O12 0.436068 0.087297 0.690627
O O13 0.398972 0.294445 0.852211
O O14 0.549656 0.348730 0.946385
O O15 0.343555 0.513089 0.015377
O O16 0.102758 0.008733 0.953905
O O17 0.542658 0.503109 0.747365
#
# Coordination Sequence:
#
# PCOD9097975 Si02
#       8
#     2   2   2   2   2   2   2   2
#     4  11  20  34  60  94 123 162 202 257 320 366
#     4  11  20  35  67  96 124 155 215 271 304 356
#     4  11  24  44  61  91 134 169 205 259 320 379
#     4  10  20  36  62  98 127 157 204 270 315 359
#     4  11  21  36  64  94 125 158 209 262 313 368
#     4  11  23  41  62  90 132 173 207 258 313 372
#     4  11  23  39  67  96 122 165 214 263 320 367
#     4  10  22  38  62  93 129 163 209 263 314 374
#
# _framework density 22.413976000000002
#
# number of rings (size 3 to 8) (size 9 to 14) (size 15 to 20)
#    0.000    1.250    3.750    4.125    0.000    1.000 
#    0.000    6.250    0.000    0.000    0.000    0.000 
#    0.000    0.000    0.000    0.000    0.000    0.000 
#
# Total GULP energy -89184.321403 kJ/mol
# GULP energy per Si atom -5574.020088 kJ/mol
# Density = 2.236296 g / cm^3
# Si number density = 22.413976 Si / 1000 Ang^3
#
#
#
# Elastic Constant Matrix: (Units=GPa)
#
#
# Indices 1 2 3 4 5 6 
#
# 1 126.1805 51.8290 18.8631 9.7149 22.1673 8.9182
# 2 51.8290 127.7223 43.2551 -1.8271 28.0213 11.5811
# 3 18.8631 43.2551 118.9249 -11.3788 22.7815 10.6493
# 4 9.7149 -1.8271 -11.3788 32.8263 8.1420 12.7653
# 5 22.1673 28.0213 22.7815 8.1420 24.7345 8.4143
# 6 8.9182 11.5811 10.6493 12.7653 8.4143 34.1070
#
#
#
# Elastic Compliance Matrix: (Units=1/GPa)
#
#
# Indices 1 2 3 4 5 6 
#
# 1 0.010237 -0.003134 0.000354 -0.001852 -0.005448 0.000314
# 2 -0.003134 0.012088 -0.001267 0.004550 -0.010539 -0.001992
# 3 0.000354 -0.001267 0.012164 0.008363 -0.011568 -0.003737
# 4 -0.001852 0.004550 0.008363 0.045367 -0.020856 -0.015506
# 5 -0.005448 -0.010539 -0.011568 -0.020856 0.075523 -0.002211
# 6 0.000314 -0.001992 -0.003737 -0.015506 -0.002211 0.037430
#
#
# Mechanical properties :
#
#
# Convention : Reuss Voigt Hill
#
# Bulk Modulus (GPa) = 37.88439 66.74689 52.31564
# Shear Modulus (GPa) = 23.84358 35.59226 29.71792
#
# Velocity S-wave (km/s) = 3.26511 3.98923 3.64519
# Velocity P-wave (km/s) = 5.58152 7.14580 6.41154
#
# Compressibility (1/GPa) = 0.02639610
#
# Stress axis : x y z
#
# Youngs Moduli (GPa) = 97.68616 82.72549 82.20940
#
# Poissons Ratio (x) = 0.25925 -0.02913
# Poissons Ratio (y) = 0.30614 0.10416
# Poissons Ratio (z) = -0.03462 0.10481
#
# Static dielectric constant tensor:
#      x y z
#    x 1.937450 0.066870 -0.023650 
#    y 0.066870 1.856350 -0.071260 
#    z -0.023650 -0.071260 1.959600 
# 
# From -- ./inp_files/528621.got.cif
#   From: 2010.05.17/outbox.cif.g08.bks.cpg/sg2_265_cif.got.tgz:528621.got - 2010.06.03 11:33:40.
