data_PCOD9097981
_publ_section_title
;
Structure prediction by ZEFSAII (Michael W. Deem and Ramdas Pophale) SiO2 
 PCOD9097981
Probable space group: P -1
;
_chemical_formula_sum "Si O2"
_cell_formula_units_Z 16
_cell_length_a 10.192761
_cell_length_b 11.727092
_cell_length_c 14.800587
_cell_angle_alpha 151.314406
_cell_angle_beta 51.214783
_cell_angle_gamma 126.068966
_cell_volume 658.293882
_symmetry_space_group_name_H-M "P -1"
_symmetry_group_IT_number 2
_symmetry_cell_setting 'triclinic'
loop_
_space_group_symop_operation_xyz
x,y,z
-x,-y,-z
loop_
_atom_site_type_symbol
_atom_site_label
_atom_site_fract_x
_atom_site_fract_y
_atom_site_fract_z
Si Si1 0.475558 0.888177 0.282993
Si Si2 0.312470 0.449508 0.580736
Si Si3 0.418019 0.345436 0.735876
Si Si4 0.692944 0.107776 0.009040
Si Si5 0.843366 0.418407 0.887983
Si Si6 0.306893 0.224949 0.057890
Si Si7 0.913681 0.990215 0.664211
Si Si8 0.974438 0.485204 0.692823
O O1 0.522775 0.760607 0.267089
O O2 0.318558 0.727615 0.193018
O O3 0.437843 0.150556 0.514650
O O4 0.624018 0.877190 0.136734
O O5 0.500000 0.500000 0.500000
O O6 0.238490 0.177796 0.436950
O O7 0.175474 0.527577 0.620453
O O8 0.304229 0.611289 0.783641
O O9 0.542534 0.587750 0.837560
O O10 0.232395 0.418292 0.890855
O O11 0.738042 0.983389 0.996295
O O12 0.822504 0.055609 0.840042
O O13 0.500000 0.000000 0.000000
O O14 0.941857 0.555842 0.859715
O O15 0.950668 0.221745 0.748491
O O16 0.148787 0.377183 0.216960
O O17 0.052126 0.807158 0.498132
#
# Coordination Sequence:
#
# PCOD9097981 Si02
#       8
#     2   2   2   2   2   2   2   2
#     4  10  20  36  62  99 132 169 207 270 330 388
#     4  10  24  45  64  90 127 172 226 273 319 391
#     4  10  20  36  63 100 130 167 214 266 326 400
#     4  12  23  43  66  92 127 175 226 262 321 392
#     4  11  19  42  67  93 135 167 214 272 329 385
#     4  11  22  40  67  94 138 171 213 276 317 390
#     4  10  25  41  64  92 128 172 219 268 323 384
#     4  10  22  45  64  94 132 169 218 273 336 380
#
# _framework density 24.305254000000001
#
# number of rings (size 3 to 8) (size 9 to 14) (size 15 to 20)
#    0.750    0.750    3.750    2.625    0.000    4.000 
#    4.500    0.625    0.000    0.000    0.000    0.000 
#    0.000    0.000    0.000    0.000    0.000    0.000 
#
# Total GULP energy -89486.719871 kJ/mol
# GULP energy per Si atom -5592.919992 kJ/mol
# Density = 2.424993 g / cm^3
# Si number density = 24.305254 Si / 1000 Ang^3
#
#
#
# Elastic Constant Matrix: (Units=GPa)
#
#
# Indices 1 2 3 4 5 6 
#
# 1 90.8372 13.0893 25.2325 -3.6949 -10.8787 -9.4950
# 2 13.0893 72.4837 11.3536 -0.5782 -5.2077 -16.2366
# 3 25.2325 11.3536 156.6594 -3.4938 3.8394 -5.4215
# 4 -3.6949 -0.5782 -3.4938 37.2957 6.3999 -5.5395
# 5 -10.8787 -5.2077 3.8394 6.3999 45.7400 0.2098
# 6 -9.4950 -16.2366 -5.4215 -5.5395 0.2098 32.8311
#
#
#
# Elastic Compliance Matrix: (Units=1/GPa)
#
#
# Indices 1 2 3 4 5 6 
#
# 1 0.012360 -0.001086 -0.001860 0.000977 0.002822 0.002877
# 2 -0.001086 0.015918 -0.000730 0.000949 0.001448 0.007589
# 3 -0.001860 -0.000730 0.006793 0.000697 -0.001195 0.000348
# 4 0.000977 0.000949 0.000697 0.028475 -0.003729 0.005696
# 5 0.002822 0.001448 -0.001195 -0.003729 0.023318 0.000557
# 6 0.002877 0.007589 0.000348 0.005696 0.000557 0.036059
#
#
# Mechanical properties :
#
#
# Convention : Reuss Voigt Hill
#
# Bulk Modulus (GPa) = 36.07631 46.59235 41.33433
# Shear Modulus (GPa) = 35.83835 41.19368 38.51602
#
# Velocity S-wave (km/s) = 3.84410 4.12132 3.98512
# Velocity P-wave (km/s) = 5.88031 6.46980 6.18208
#
# Compressibility (1/GPa) = 0.02771902
#
# Stress axis : x y z
#
# Youngs Moduli (GPa) = 80.90421 62.82140 147.21751
#
# Poissons Ratio (x) = 0.06820 0.27382
# Poissons Ratio (y) = 0.08783 0.10754
# Poissons Ratio (z) = 0.15048 0.04589
#
# Static dielectric constant tensor:
#      x y z
#    x 1.971370 0.028330 -0.003920 
#    y 0.028330 1.937210 0.020500 
#    z -0.003920 0.020500 1.957720 
# 
# From -- ./inp_files/519335.got.cif
#   From: 2010.05.17/outbox.cif.g08.bks.cpg/sg2_260_cif.got.tgz:519335.got - 2010.06.03 11:33:40.
