data_PCOD9097828
_publ_section_title
;
Structure prediction by ZEFSAII (Michael W. Deem and Ramdas Pophale) SiO2 
 PCOD9097828
Probable space group: P -1
;
_chemical_formula_sum "Si O2"
_cell_formula_units_Z 16
_cell_length_a 12.487488
_cell_length_b 17.867240
_cell_length_c 18.949429
_cell_angle_alpha 156.877397
_cell_angle_beta 151.040451
_cell_angle_gamma 24.454249
_cell_volume 668.478220
_symmetry_space_group_name_H-M "P -1"
_symmetry_group_IT_number 2
_symmetry_cell_setting 'triclinic'
loop_
_space_group_symop_operation_xyz
x,y,z
-x,-y,-z
loop_
_atom_site_type_symbol
_atom_site_label
_atom_site_fract_x
_atom_site_fract_y
_atom_site_fract_z
Si Si1 0.207262 0.415787 0.436829
Si Si2 0.860863 0.669355 0.902020
Si Si3 0.320233 0.639034 0.412373
Si Si4 0.119970 0.155009 0.783276
Si Si5 0.281337 0.434117 0.646057
Si Si6 0.069777 0.066378 0.170819
Si Si7 0.324328 0.006825 0.050948
Si Si8 0.561939 0.592672 0.046979
O O1 0.377061 0.478538 0.541122
O O2 0.382406 0.318391 0.527156
O O3 0.227539 0.208344 0.226627
O O4 0.885077 0.602723 0.421823
O O5 0.719012 0.535328 0.717544
O O6 0.697509 0.890452 0.949543
O O7 0.135031 0.501920 0.873096
O O8 0.926577 0.743766 0.077710
O O9 0.126890 0.711022 0.295389
O O10 0.224871 0.884510 0.606157
O O11 0.364830 0.168489 0.906847
O O12 0.471048 0.493771 0.845498
O O13 0.033294 0.676813 0.683366
O O14 0.374502 0.868001 0.185030
O O15 0.876002 0.071443 0.122311
O O16 0.000000 0.000000 0.000000
O O17 0.500000 0.500000 0.000000
#
# Coordination Sequence:
#
# PCOD9097828 Si02
#       8
#     2   2   2   2   2   2   2   2
#     4  10  20  39  60  90 128 153 210 255 303 371
#     4  12  24  41  65  93 128 168 202 255 322 370
#     4  10  24  41  64  94 125 169 204 259 312 362
#     4  10  24  42  63  92 126 164 213 255 296 382
#     4  10  21  36  65  92 115 168 204 255 306 368
#     4  10  20  36  62  90 110 163 207 247 302 361
#     4  11  22  41  61  89 128 157 206 258 311 366
#     4  11  21  39  61  90 126 157 201 256 313 368
#
# _framework density 23.934958999999999
#
# number of rings (size 3 to 8) (size 9 to 14) (size 15 to 20)
#    0.000    1.500    3.750    1.500    5.250    3.000 
#    2.250    0.000    0.000    4.500    0.000    0.000 
#    0.000    0.000    0.000    0.000    0.000    0.000 
#
# Total GULP energy -89274.807043 kJ/mol
# GULP energy per Si atom -5579.675440 kJ/mol
# Density = 2.388048 g / cm^3
# Si number density = 23.934959 Si / 1000 Ang^3
#
#
#
# Elastic Constant Matrix: (Units=GPa)
#
#
# Indices 1 2 3 4 5 6 
#
# 1 116.3596 7.1785 40.3768 2.0802 30.8960 -1.4434
# 2 7.1785 46.7129 3.9090 -2.4475 12.6132 -4.2151
# 3 40.3768 3.9090 67.0735 8.4937 7.1340 -5.0609
# 4 2.0802 -2.4475 8.4937 27.5195 -10.5036 9.5289
# 5 30.8960 12.6132 7.1340 -10.5036 59.1852 -7.6853
# 6 -1.4434 -4.2151 -5.0609 9.5289 -7.6853 33.5405
#
#
#
# Elastic Compliance Matrix: (Units=1/GPa)
#
#
# Indices 1 2 3 4 5 6 
#
# 1 0.012630 0.000106 -0.007033 -0.000487 -0.006083 -0.001760
# 2 0.000106 0.022855 -0.000759 -0.000108 -0.004629 0.001732
# 3 -0.007033 -0.000759 0.020399 -0.007254 0.000724 0.004907
# 4 -0.000487 -0.000108 -0.007254 0.045823 0.007675 -0.012389
# 5 -0.006083 -0.004629 0.000724 0.007675 0.022628 0.002270
# 6 -0.001760 0.001732 0.004907 -0.012389 0.002270 0.034737
#
#
# Mechanical properties :
#
#
# Convention : Reuss Voigt Hill
#
# Bulk Modulus (GPa) = 24.68464 37.00831 30.84648
# Shear Modulus (GPa) = 26.60296 35.96114 31.28205
#
# Velocity S-wave (km/s) = 3.33749 3.88035 3.61911
# Velocity P-wave (km/s) = 5.01870 5.96421 5.51177
#
# Compressibility (1/GPa) = 0.04051102
#
# Stress axis : x y z
#
# Youngs Moduli (GPa) = 79.17570 43.75393 49.02186
#
# Poissons Ratio (x) = -0.00463 0.34479
# Poissons Ratio (y) = -0.00838 0.03721
# Poissons Ratio (z) = 0.55687 0.03321
#
# Static dielectric constant tensor:
#      x y z
#    x 2.587210 -0.194690 0.108380 
#    y -0.194690 1.992320 0.043850 
#    z 0.108380 0.043850 2.210410 
# 
# From -- ./inp_files/570377.got.cif
#   From: 2010.05.17/outbox.cif.g08.bks.cpg/sg2_286_cif.got.tgz:570377.got - 2010.06.03 11:33:40.
