data_PCOD9097328
_publ_section_title
;
Structure prediction by ZEFSAII (Michael W. Deem and Ramdas Pophale) SiO2 
 PCOD9097328
Probable space group: P -1
;
_chemical_formula_sum "Si O2"
_cell_formula_units_Z 12
_cell_length_a 10.610654
_cell_length_b 9.263512
_cell_length_c 9.659160
_cell_angle_alpha 129.101183
_cell_angle_beta 72.195727
_cell_angle_gamma 134.968543
_cell_volume 504.047719
_symmetry_space_group_name_H-M "P -1"
_symmetry_group_IT_number 2
_symmetry_cell_setting 'triclinic'
loop_
_space_group_symop_operation_xyz
x,y,z
-x,-y,-z
loop_
_atom_site_type_symbol
_atom_site_label
_atom_site_fract_x
_atom_site_fract_y
_atom_site_fract_z
Si Si1 0.214695 0.384240 0.534456
Si Si2 0.475867 0.062088 0.324799
Si Si3 0.157415 0.126164 0.661223
Si Si4 0.110106 0.796000 0.118659
Si Si5 0.506938 0.719465 0.249089
Si Si6 0.193655 0.154126 0.105234
O O1 0.344791 0.688377 0.666334
O O2 0.270453 0.308383 0.599463
O O3 0.219865 0.288385 0.325763
O O4 0.994548 0.180094 0.509829
O O5 0.493266 0.170147 0.536900
O O6 0.292402 0.954919 0.247060
O O7 0.468831 0.833955 0.213427
O O8 0.289915 0.166359 0.751335
O O9 0.041424 0.191094 0.789667
O O10 0.185315 0.931984 0.024184
O O11 0.000000 0.500000 0.000000
O O12 0.360298 0.410835 0.121845
O O13 0.000000 0.000000 0.000000
#
# Coordination Sequence:
#
# PCOD9097328 Si02
#       6
#     2   2   2   2   2   2
#     4   9  19  36  61  88 114 151 192 234 284 341
#     4  10  20  36  60  87 118 152 190 231 284 350
#     4  10  20  37  61  87 115 147 195 244 284 335
#     4  11  23  40  60  83 115 155 195 239 291 343
#     4  10  20  36  60  89 117 150 190 236 285 341
#     4  10  20  37  60  85 119 155 188 230 289 348
#
# _framework density 23.807269000000002
#
# number of rings (size 3 to 8) (size 9 to 14) (size 15 to 20)
#    0.000    2.000    0.000    5.000    0.000    5.333 
#    0.000   17.500    0.000    0.000    0.000    0.000 
#    0.000    0.000    0.000    0.000    0.000    0.000 
#
# Total GULP energy -66960.801688 kJ/mol
# GULP energy per Si atom -5580.066807 kJ/mol
# Density = 2.375308 g / cm^3
# Si number density = 23.807269 Si / 1000 Ang^3
#
#
#
# Elastic Constant Matrix: (Units=GPa)
#
#
# Indices 1 2 3 4 5 6 
#
# 1 171.1307 60.6127 31.1288 29.3293 0.9256 -20.9942
# 2 60.6127 141.3778 37.7685 55.2918 -16.4711 -28.6654
# 3 31.1288 37.7685 55.5965 27.2663 -3.9486 -8.9501
# 4 29.3293 55.2918 27.2663 53.3158 -2.5693 -2.6250
# 5 0.9256 -16.4711 -3.9486 -2.5693 16.8584 0.0472
# 6 -20.9942 -28.6654 -8.9501 -2.6250 0.0472 36.0527
#
#
#
# Elastic Compliance Matrix: (Units=1/GPa)
#
#
# Indices 1 2 3 4 5 6 
#
# 1 0.007432 -0.002409 -0.002208 -0.000533 -0.003365 0.001830
# 2 -0.002409 0.019391 -0.000130 -0.017303 0.016375 0.012701
# 3 -0.002208 -0.000130 0.025933 -0.011498 0.004304 0.004206
# 4 -0.000533 -0.017303 -0.011498 0.041555 -0.013198 -0.013880
# 5 -0.003365 0.016375 0.004304 -0.013198 0.074467 0.011070
# 6 0.001830 0.012701 0.004206 -0.013880 0.011070 0.038921
#
#
# Mechanical properties :
#
#
# Convention : Reuss Voigt Hill
#
# Bulk Modulus (GPa) = 23.11480 69.68056 46.39768
# Shear Modulus (GPa) = 21.58754 37.15171 29.36962
#
# Velocity S-wave (km/s) = 3.01452 3.95463 3.51613
# Velocity P-wave (km/s) = 4.67404 7.08408 6.00129
#
# Compressibility (1/GPa) = 0.04326233
#
# Stress axis : x y z
#
# Youngs Moduli (GPa) = 134.54440 51.56965 38.56038
#
# Poissons Ratio (x) = 0.12425 0.08513
# Poissons Ratio (y) = 0.32416 0.00502
# Poissons Ratio (z) = 0.29704 0.00672
#
# Static dielectric constant tensor:
#      x y z
#    x 1.879760 0.014410 -0.044210 
#    y 0.014410 2.038960 -0.078920 
#    z -0.044210 -0.078920 1.979970 
# 
# From -- ./inp_files/146298.got.cif
#   From: 2010.05.17/outbox.cif.g08.bks.cpg/sg2_74_cif.got.tgz:146298.got - 2010.06.03 11:33:40.
