data_PCOD9097761
_publ_section_title
;
Structure prediction by ZEFSAII (Michael W. Deem and Ramdas Pophale) SiO2 
 PCOD9097761
Probable space group: P -1
;
_chemical_formula_sum "Si O2"
_cell_formula_units_Z 16
_cell_length_a 12.397944
_cell_length_b 8.484352
_cell_length_c 9.404663
_cell_angle_alpha 76.311357
_cell_angle_beta 73.772524
_cell_angle_gamma 126.320518
_cell_volume 653.771115
_symmetry_space_group_name_H-M "P -1"
_symmetry_group_IT_number 2
_symmetry_cell_setting 'triclinic'
loop_
_space_group_symop_operation_xyz
x,y,z
-x,-y,-z
loop_
_atom_site_type_symbol
_atom_site_label
_atom_site_fract_x
_atom_site_fract_y
_atom_site_fract_z
Si Si1 0.818195 0.557452 0.285498
Si Si2 0.064553 0.316897 0.496447
Si Si3 0.529922 0.184256 0.690255
Si Si4 0.263505 0.794835 0.182773
Si Si5 0.535029 0.709054 0.875377
Si Si6 0.727232 0.311736 0.104390
Si Si7 0.658653 0.719362 0.312230
Si Si8 0.222262 0.128726 0.472552
O O1 0.957615 0.704024 0.319540
O O2 0.671244 0.355128 0.488044
O O3 0.843230 0.477515 0.153379
O O4 0.759862 0.673834 0.227291
O O5 0.126424 0.552928 0.367370
O O6 0.185868 0.285403 0.437317
O O7 0.913892 0.107649 0.507263
O O8 0.593911 0.173446 0.814292
O O9 0.420440 0.224246 0.763873
O O10 0.410573 0.934544 0.719304
O O11 0.332046 0.039568 0.152656
O O12 0.222908 0.732422 0.045853
O O13 0.369172 0.632369 0.933040
O O14 0.612877 0.751679 0.684473
O O15 0.500000 0.500000 0.000000
O O16 0.500000 0.500000 0.500000
O O17 0.769143 0.903080 0.357749
#
# Coordination Sequence:
#
# PCOD9097761 Si02
#       8
#     2   2   2   2   2   2   2   2
#     4   9  18  31  53  80 110 147 191 232 274 337
#     4   9  20  40  60  83 113 153 197 233 277 337
#     4   9  17  32  50  77 112 144 183 234 284 332
#     4  10  22  37  56  82 119 156 186 230 287 346
#     4  11  22  35  56  88 115 144 190 241 292 341
#     4  11  21  33  54  83 116 150 181 231 296 342
#     4   9  17  30  53  84 111 138 185 240 281 326
#     4  10  20  36  62  86 113 151 194 237 279 338
#
# _framework density 24.473398
#
# number of rings (size 3 to 8) (size 9 to 14) (size 15 to 20)
#    0.000    2.250    0.000    4.875    0.000    7.500 
#    0.000    0.000    0.000   18.000    0.000    0.000 
#    0.000    0.000    0.000    0.000    0.000    0.000 
#
# Total GULP energy -89270.773204 kJ/mol
# GULP energy per Si atom -5579.423325 kJ/mol
# Density = 2.441770 g / cm^3
# Si number density = 24.473398 Si / 1000 Ang^3
#
#
#
# Elastic Constant Matrix: (Units=GPa)
#
#
# Indices 1 2 3 4 5 6 
#
# 1 49.8486 28.8802 12.2284 -7.7383 7.2872 -0.1936
# 2 28.8802 171.2602 49.4524 31.1553 20.6045 5.0209
# 3 12.2284 49.4524 68.6512 24.7967 3.2648 -10.8449
# 4 -7.7383 31.1553 24.7967 49.2978 -8.8965 15.6428
# 5 7.2872 20.6045 3.2648 -8.8965 16.4066 -1.9611
# 6 -0.1936 5.0209 -10.8449 15.6428 -1.9611 32.8375
#
#
#
# Elastic Compliance Matrix: (Units=1/GPa)
#
#
# Indices 1 2 3 4 5 6 
#
# 1 0.026644 -0.004926 -0.007847 0.014390 0.002716 -0.008374
# 2 -0.004926 0.011185 -0.002683 -0.009810 -0.016518 0.001061
# 3 -0.007847 -0.002683 0.029660 -0.022505 -0.008817 0.020353
# 4 0.014390 -0.009810 -0.022505 0.056499 0.037395 -0.030529
# 5 0.002716 -0.016518 -0.008817 0.037395 0.101069 -0.012148
# 6 -0.008374 0.001061 0.020353 -0.030529 -0.012148 0.050781
#
#
# Mechanical properties :
#
#
# Convention : Reuss Voigt Hill
#
# Bulk Modulus (GPa) = 27.33958 52.32020 39.82989
# Shear Modulus (GPa) = 15.67676 32.98831 24.33253
#
# Velocity S-wave (km/s) = 2.53368 3.67539 3.15658
# Velocity P-wave (km/s) = 4.44463 6.27982 5.44017
#
# Compressibility (1/GPa) = 0.03657700
#
# Stress axis : x y z
#
# Youngs Moduli (GPa) = 37.53186 89.40153 33.71529
#
# Poissons Ratio (x) = 0.44041 0.26456
# Poissons Ratio (y) = 0.18489 0.09046
# Poissons Ratio (z) = 0.29451 0.23988
#
# Static dielectric constant tensor:
#      x y z
#    x 2.049770 0.007360 -0.001590 
#    y 0.007360 2.018670 -0.017360 
#    z -0.001590 -0.017360 1.951070 
# 
# From -- ./inp_files/298232.got.cif
#   From: 2010.05.17/outbox.cif.g08.bks.cpg/sg2_150_cif.got.tgz:298232.got - 2010.06.03 11:33:40.
