data_PCOD9097465
_publ_section_title
;
Structure prediction by ZEFSAII (Michael W. Deem and Ramdas Pophale) SiO2 
 PCOD9097465
Probable space group: P -1
;
_chemical_formula_sum "Si O2"
_cell_formula_units_Z 14
_cell_length_a 8.962516
_cell_length_b 26.053501
_cell_length_c 16.560375
_cell_angle_alpha 158.902128
_cell_angle_beta 138.758641
_cell_angle_gamma 30.012456
_cell_volume 661.789138
_symmetry_space_group_name_H-M "P -1"
_symmetry_group_IT_number 2
_symmetry_cell_setting 'triclinic'
loop_
_space_group_symop_operation_xyz
x,y,z
-x,-y,-z
loop_
_atom_site_type_symbol
_atom_site_label
_atom_site_fract_x
_atom_site_fract_y
_atom_site_fract_z
Si Si1 0.638088 0.307628 0.582959
Si Si2 0.344749 0.911711 0.308737
Si Si3 0.568690 0.529430 0.440064
Si Si4 0.758408 0.559128 0.062269
Si Si5 0.641312 0.103385 0.015004
Si Si6 0.293199 0.168229 0.231913
Si Si7 0.313088 0.353741 0.097978
O O1 0.579382 0.395196 0.598318
O O2 0.391817 0.288114 0.464237
O O3 0.652686 0.441605 0.840498
O O4 0.976762 0.087768 0.407107
O O5 0.460080 0.786157 0.253314
O O6 0.500000 0.000000 0.500000
O O7 0.476960 0.768330 0.075226
O O8 0.526366 0.703373 0.715454
O O9 0.380573 0.486609 0.346544
O O10 0.931527 0.327430 0.291416
O O11 0.957388 0.493996 0.128759
O O12 0.000000 0.500000 0.000000
O O13 0.447771 0.190571 0.981168
O O14 0.655727 0.947966 0.838205
O O15 0.000000 0.000000 0.000000
O O16 0.500000 0.000000 0.000000
#
# Coordination Sequence:
#
# PCOD9097465 Si02
#       7
#     2   2   2   2   2   2   2
#     4  12  22  38  66  96 130 167 224 277 326 390
#     4  11  19  37  65  98 127 169 224 275 325 387
#     4  12  23  43  68  99 138 171 221 282 332 396
#     4  10  20  36  60  94 125 167 217 271 329 380
#     4  12  26  44  67 100 138 180 223 272 339 402
#     4  12  27  43  66 101 134 182 225 271 338 401
#     4  11  21  40  64  99 132 165 223 276 333 390
#
# _framework density 21.154775000000001
#
# number of rings (size 3 to 8) (size 9 to 14) (size 15 to 20)
#    0.000    0.571    8.571    2.571    0.000    0.000 
#    0.000    0.714    0.000    1.714    0.000    0.000 
#    0.000    0.000    0.000    0.000    0.000    0.000 
#
# Total GULP energy -78256.108495 kJ/mol
# GULP energy per Si atom -5589.722035 kJ/mol
# Density = 2.110663 g / cm^3
# Si number density = 21.154775 Si / 1000 Ang^3
#
#
#
# Elastic Constant Matrix: (Units=GPa)
#
#
# Indices 1 2 3 4 5 6 
#
# 1 45.6676 33.5069 10.7037 5.2403 25.5161 10.2462
# 2 33.5069 191.7898 36.8641 24.9635 7.8222 20.5801
# 3 10.7037 36.8641 88.3863 5.2760 19.3790 -4.3036
# 4 5.2403 24.9635 5.2760 48.7993 -3.3271 15.9359
# 5 25.5161 7.8222 19.3790 -3.3271 32.2610 1.8762
# 6 10.2462 20.5801 -4.3036 15.9359 1.8762 23.9967
#
#
#
# Elastic Compliance Matrix: (Units=1/GPa)
#
#
# Indices 1 2 3 4 5 6 
#
# 1 0.052023 -0.007029 0.005528 -0.002039 -0.042361 -0.010527
# 2 -0.007029 0.007454 -0.003732 -0.000964 0.006121 -0.003899
# 3 0.005528 -0.003732 0.015784 -0.003675 -0.013746 0.007186
# 4 -0.002039 -0.000964 -0.003675 0.028109 0.008015 -0.018255
# 5 -0.042361 0.006121 -0.013746 0.008015 0.072136 -0.000590
# 6 -0.010527 -0.003899 0.007186 -0.018255 -0.000590 0.062969
#
#
# Mechanical properties :
#
#
# Convention : Reuss Voigt Hill
#
# Bulk Modulus (GPa) = 15.43285 54.22145 34.82715
# Shear Modulus (GPa) = 18.48166 37.32933 27.90549
#
# Velocity S-wave (km/s) = 2.95895 4.20525 3.63590
# Velocity P-wave (km/s) = 4.35716 7.01892 5.84167
#
# Compressibility (1/GPa) = 0.06479686
#
# Stress axis : x y z
#
# Youngs Moduli (GPa) = 19.22213 134.16511 63.35492
#
# Poissons Ratio (x) = 0.94300 -0.35025
# Poissons Ratio (y) = 0.13511 0.23643
# Poissons Ratio (z) = -0.10627 0.50068
#
# Static dielectric constant tensor:
#      x y z
#    x 1.802800 -0.013120 0.009110 
#    y -0.013120 1.795210 -0.029090 
#    z 0.009110 -0.029090 1.813060 
# 
# From -- ./inp_files/278901.got.cif
#   From: 2010.05.17/outbox.cif.g08.bks.cpg/sg2_140_cif.got.tgz:278901.got - 2010.06.03 11:33:40.
