data_PCOD9097343
_publ_section_title
;
Structure prediction by ZEFSAII (Michael W. Deem and Ramdas Pophale) SiO2 
 PCOD9097343
Probable space group: P -1
;
_chemical_formula_sum "Si O2"
_cell_formula_units_Z 16
_cell_length_a 15.971756
_cell_length_b 10.383903
_cell_length_c 9.665060
_cell_angle_alpha 62.603295
_cell_angle_beta 86.706940
_cell_angle_gamma 38.157054
_cell_volume 731.462726
_symmetry_space_group_name_H-M "P -1"
_symmetry_group_IT_number 2
_symmetry_cell_setting 'triclinic'
loop_
_space_group_symop_operation_xyz
x,y,z
-x,-y,-z
loop_
_atom_site_type_symbol
_atom_site_label
_atom_site_fract_x
_atom_site_fract_y
_atom_site_fract_z
Si Si1 0.138535 0.116084 0.728447
Si Si2 0.818513 0.915450 0.948710
Si Si3 0.621918 0.758471 0.318348
Si Si4 0.665920 0.347840 0.550650
Si Si5 0.711202 0.637987 0.083973
Si Si6 0.153835 0.855825 0.629027
Si Si7 0.180787 0.317205 0.148558
Si Si8 0.765462 0.758679 0.513003
O O1 0.235536 0.083328 0.636931
O O2 0.951902 0.434390 0.623710
O O3 0.119655 0.998435 0.698408
O O4 0.223628 0.999198 0.929237
O O5 0.740216 0.916452 0.847846
O O6 0.781873 0.121725 0.775574
O O7 0.996437 0.574945 0.093520
O O8 0.641469 0.558968 0.446510
O O9 0.742459 0.632674 0.243632
O O10 0.652985 0.810951 0.420204
O O11 0.451566 0.052943 0.117719
O O12 0.500000 0.500000 0.500000
O O13 0.762506 0.173957 0.484545
O O14 0.716160 0.458727 0.180944
O O15 0.838880 0.508435 0.026837
O O16 0.000000 0.000000 0.500000
O O17 0.275796 0.181304 0.350571
#
# Coordination Sequence:
#
# PCOD9097343 Si02
#       8
#     2   2   2   2   2   2   2   2
#     4  10  21  38  61  89 120 157 203 253 304 359
#     4  10  21  37  60  88 120 158 201 254 305 359
#     4  10  22  39  59  85 121 162 200 246 306 369
#     4  11  23  40  63  91 126 164 203 251 307 362
#     4  10  21  38  59  84 117 158 202 246 301 363
#     4  11  23  41  65  92 123 161 204 250 303 364
#     4  10  20  36  60  88 117 155 206 255 303 356
#     4  10  21  37  60  89 121 157 202 253 304 361
#
# _framework density 21.87398
#
# number of rings (size 3 to 8) (size 9 to 14) (size 15 to 20)
#    0.000    1.750    0.000    4.500    0.000    7.500 
#    0.000    6.875    0.000    0.000    0.000    0.000 
#    0.000    0.000    0.000    0.000    0.000    0.000 
#
# Total GULP energy -89099.993816 kJ/mol
# GULP energy per Si atom -5568.749614 kJ/mol
# Density = 2.182419 g / cm^3
# Si number density = 21.873980 Si / 1000 Ang^3
#
#
#
# Elastic Constant Matrix: (Units=GPa)
#
#
# Indices 1 2 3 4 5 6 
#
# 1 79.1717 31.3445 49.3774 26.0313 -1.6234 11.3199
# 2 31.3445 75.0578 60.6397 31.9363 4.1411 19.1303
# 3 49.3774 60.6397 148.0622 29.5025 -11.6681 32.2350
# 4 26.0313 31.9363 29.5025 50.1742 3.8215 4.7785
# 5 -1.6234 4.1411 -11.6681 3.8215 28.9152 2.8111
# 6 11.3199 19.1303 32.2350 4.7785 2.8111 32.7403
#
#
#
# Elastic Compliance Matrix: (Units=1/GPa)
#
#
# Indices 1 2 3 4 5 6 
#
# 1 0.017732 -0.001649 -0.003937 -0.005825 0.000460 -0.000481
# 2 -0.001649 0.025970 -0.007122 -0.010589 -0.004738 -0.005640
# 3 -0.003937 -0.007122 0.013602 -0.001183 0.007253 -0.008320
# 4 -0.005825 -0.010589 -0.001183 0.030173 -0.003790 0.005287
# 5 0.000460 -0.004738 0.007253 -0.003790 0.039432 -0.007364
# 6 -0.000481 -0.005640 -0.008320 0.005287 -0.007364 0.042057
#
#
# Mechanical properties :
#
#
# Convention : Reuss Voigt Hill
#
# Bulk Modulus (GPa) = 31.35873 65.00166 48.18020
# Shear Modulus (GPa) = 24.38904 33.09460 28.74182
#
# Velocity S-wave (km/s) = 3.34275 3.89391 3.62881
# Velocity P-wave (km/s) = 5.40979 7.07090 6.29538
#
# Compressibility (1/GPa) = 0.03188904
#
# Stress axis : x y z
#
# Youngs Moduli (GPa) = 56.39489 38.50650 73.51847
#
# Poissons Ratio (x) = 0.06350 0.28941
# Poissons Ratio (y) = 0.09300 0.52357
# Poissons Ratio (z) = 0.22200 0.27423
#
# Static dielectric constant tensor:
#      x y z
#    x 1.916450 -0.066620 0.026800 
#    y -0.066620 1.911000 -0.012170 
#    z 0.026800 -0.012170 1.846720 
# 
# From -- ./inp_files/262094.got.cif
#   From: 2010.05.17/outbox.cif.g08.bks.cpg/sg2_132_cif.got.tgz:262094.got - 2010.06.03 11:33:40.
