data_PCOD9097899
_publ_section_title
;
Structure prediction by ZEFSAII (Michael W. Deem and Ramdas Pophale) SiO2 
 PCOD9097899
Probable space group: P -1
;
_chemical_formula_sum "Si O2"
_cell_formula_units_Z 15
_cell_length_a 24.395989
_cell_length_b 5.007443
_cell_length_c 5.316417
_cell_angle_alpha 95.780114
_cell_angle_beta 58.211802
_cell_angle_gamma 108.625079
_cell_volume 521.290266
_symmetry_space_group_name_H-M "P -1"
_symmetry_group_IT_number 2
_symmetry_cell_setting 'triclinic'
loop_
_space_group_symop_operation_xyz
x,y,z
-x,-y,-z
loop_
_atom_site_type_symbol
_atom_site_label
_atom_site_fract_x
_atom_site_fract_y
_atom_site_fract_z
Si Si1 0.701749 0.539860 0.854539
Si Si2 0.500000 0.500000 0.000000
Si Si3 0.860991 0.192071 0.698332
Si Si4 0.625659 0.821924 0.703691
Si Si5 0.554022 0.146190 0.181829
Si Si6 0.100261 0.303473 0.703781
Si Si7 0.736636 0.329527 0.249264
Si Si8 0.958188 0.117808 0.808561
O O1 0.673755 0.771406 0.805732
O O2 0.747810 0.475821 0.512029
O O3 0.634735 0.267261 0.018419
O O4 0.730092 0.547529 0.068205
O O5 0.581769 0.529008 0.657121
O O6 0.468269 0.598726 0.837791
O O7 0.868989 0.382150 0.447527
O O8 0.922246 0.308648 0.761624
O O9 0.869548 0.894708 0.566527
O O10 0.794147 0.204517 0.000787
O O11 0.669180 0.061927 0.437150
O O12 0.553915 0.883770 0.965913
O O13 0.500000 0.000000 0.500000
O O14 0.019012 0.259219 0.866030
O O15 0.099905 0.145577 0.953319
O O16 0.000000 0.000000 0.500000
#
# Coordination Sequence:
#
# PCOD9097899 Si02
#       8
#     2   1   2   2   2   2   2   2
#     4  10  25  44  65  95 131 180 227 286 347 421
#     4  10  20  36  62  92 126 166 220 278 344 412
#     4  11  25  41  69  99 139 187 240 290 356 425
#     4  10  23  41  65  96 136 176 226 287 351 424
#     4  10  21  37  62  96 130 167 219 278 350 417
#     4  10  23  42  67 104 139 183 233 294 356 426
#     4  11  26  45  67  96 137 183 236 287 350 418
#     4   9  21  42  69 103 143 180 230 294 358 421
#
# _framework density 28.774756
#
# number of rings (size 3 to 8) (size 9 to 14) (size 15 to 20)
#    0.000    1.867    0.000    1.600    3.733   17.600 
#    0.000    0.000    0.000    0.000    0.000    0.000 
#    0.000    0.000    0.000    0.000    0.000    0.000 
#
# Total GULP energy -83753.476815 kJ/mol
# GULP energy per Si atom -5583.565121 kJ/mol
# Density = 2.870926 g / cm^3
# Si number density = 28.774756 Si / 1000 Ang^3
#
#
#
# Elastic Constant Matrix: (Units=GPa)
#
#
# Indices 1 2 3 4 5 6 
#
# 1 115.6769 38.7814 55.6276 -12.7113 7.3458 -39.9750
# 2 38.7814 141.5843 50.6170 -5.2501 -8.4712 -39.5029
# 3 55.6276 50.6170 212.3298 -15.3709 -12.2541 -21.9595
# 4 -12.7113 -5.2501 -15.3709 44.9590 -7.2485 -2.0117
# 5 7.3458 -8.4712 -12.2541 -7.2485 54.7747 -3.0563
# 6 -39.9750 -39.5029 -21.9595 -2.0117 -3.0563 52.2051
#
#
#
# Elastic Compliance Matrix: (Units=1/GPa)
#
#
# Indices 1 2 3 4 5 6 
#
# 1 0.013479 -0.000255 -0.002379 0.003144 -0.001452 0.009163
# 2 -0.000255 0.009624 -0.001353 0.001169 0.001747 0.006665
# 3 -0.002379 -0.001353 0.005823 0.001404 0.001584 -0.000249
# 4 0.003144 0.001169 0.001404 0.024555 0.003604 0.005040
# 5 -0.001452 0.001747 0.001584 0.003604 0.019674 0.002167
# 6 0.009163 0.006665 -0.000249 0.005040 0.002167 0.031432
#
#
# Mechanical properties :
#
#
# Convention : Reuss Voigt Hill
#
# Bulk Modulus (GPa) = 47.72846 84.40479 66.06662
# Shear Modulus (GPa) = 41.82613 52.02543 46.92578
#
# Velocity S-wave (km/s) = 3.81671 4.25670 4.04269
# Velocity P-wave (km/s) = 6.00383 7.31819 6.69335
#
# Compressibility (1/GPa) = 0.02095186
#
# Stress axis : x y z
#
# Youngs Moduli (GPa) = 74.19179 103.90821 171.74120
#
# Poissons Ratio (x) = 0.02651 0.40856
# Poissons Ratio (y) = 0.01893 0.23230
# Poissons Ratio (z) = 0.17650 0.14055
#
# Static dielectric constant tensor:
#      x y z
#    x 2.392900 0.238880 -0.024850 
#    y 0.238880 2.575450 0.043510 
#    z -0.024850 0.043510 2.459720 
# 
# From -- ./inp_files/10014.got.cif
#   From: 2010.05.17/outbox.cif.g08.bks.cpg/sg2_6_cif.got.tgz:10014.got - 2010.06.03 11:33:40.
