data_PCOD9097353
_publ_section_title
;
Structure prediction by ZEFSAII (Michael W. Deem and Ramdas Pophale) SiO2 
 PCOD9097353
Probable space group: P -1
;
_chemical_formula_sum "Si O2"
_cell_formula_units_Z 14
_cell_length_a 5.583540
_cell_length_b 11.866924
_cell_length_c 11.556990
_cell_angle_alpha 129.021620
_cell_angle_beta 105.459157
_cell_angle_gamma 96.902553
_cell_volume 529.291759
_symmetry_space_group_name_H-M "P -1"
_symmetry_group_IT_number 2
_symmetry_cell_setting 'triclinic'
loop_
_space_group_symop_operation_xyz
x,y,z
-x,-y,-z
loop_
_atom_site_type_symbol
_atom_site_label
_atom_site_fract_x
_atom_site_fract_y
_atom_site_fract_z
Si Si1 0.269687 0.140008 0.970374
Si Si2 0.220774 0.895851 0.993509
Si Si3 0.827493 0.664830 0.501217
Si Si4 0.656826 0.602889 0.193978
Si Si5 0.950923 0.008523 0.633578
Si Si6 0.575443 0.231375 0.380225
Si Si7 0.717454 0.222281 0.661410
O O1 0.587546 0.198435 0.059691
O O2 0.060879 0.201573 0.044199
O O3 0.193907 0.120461 0.814599
O O4 0.176702 0.970447 0.915645
O O5 0.399118 0.058298 0.192193
O O6 0.688449 0.553792 0.300861
O O7 0.612862 0.667280 0.572247
O O8 0.127539 0.674683 0.576079
O O9 0.892161 0.839777 0.569527
O O10 0.482660 0.709318 0.262538
O O11 0.964480 0.671825 0.234180
O O12 0.500000 0.500000 0.000000
O O13 0.721577 0.078931 0.647925
O O14 0.000000 0.000000 0.500000
O O15 0.648092 0.207091 0.506304
#
# Coordination Sequence:
#
# PCOD9097353 Si02
#       7
#     2   2   2   2   2   2   2
#     4  10  21  28  46  65  94 142 159 195 233 287
#     4  10  17  33  43  63  95 134 172 192 230 276
#     4  10  20  29  48  73  92 132 155 196 238 292
#     4  10  20  36  48  67  98 130 168 205 238 283
#     4  12  19  34  48  76 112 131 161 193 250 310
#     4  10  16  31  44  66  94 125 165 196 227 281
#     4  10  22  30  51  74  96 134 158 199 246 303
#
# _framework density 26.450443
#
# number of rings (size 3 to 8) (size 9 to 14) (size 15 to 20)
#    0.000    1.714    5.714    0.429    0.000    4.571 
#    0.000    0.000    0.000    0.000    0.000    0.000 
#    0.000   27.429    0.000    0.000    0.000    0.000 
#
# Total GULP energy -78124.148421 kJ/mol
# GULP energy per Si atom -5580.296316 kJ/mol
# Density = 2.639024 g / cm^3
# Si number density = 26.450443 Si / 1000 Ang^3
#
#
#
# Elastic Constant Matrix: (Units=GPa)
#
#
# Indices 1 2 3 4 5 6 
#
# 1 271.9934 18.3982 41.4387 -1.8130 7.9633 -14.4398
# 2 18.3982 49.0911 27.9567 -5.1927 -2.7731 1.0659
# 3 41.4387 27.9567 155.3791 -34.2111 12.6067 -5.0182
# 4 -1.8130 -5.1927 -34.2111 31.2442 -8.2870 4.3072
# 5 7.9633 -2.7731 12.6067 -8.2870 40.8143 -4.2671
# 6 -14.4398 1.0659 -5.0182 4.3072 -4.2671 12.4696
#
#
#
# Elastic Compliance Matrix: (Units=1/GPa)
#
#
# Indices 1 2 3 4 5 6 
#
# 1 0.004205 -0.001277 -0.001140 -0.002031 -0.000437 0.005072
# 2 -0.001277 0.023515 -0.004109 0.000685 0.002793 -0.004423
# 3 -0.001140 -0.004109 0.009671 0.009641 -0.001171 -0.000808
# 4 -0.002031 0.000685 0.009641 0.045720 0.005445 -0.012460
# 5 -0.000437 0.002793 -0.001171 0.005445 0.026882 0.006102
# 6 0.005072 -0.004423 -0.000808 -0.012460 0.006102 0.092514
#
#
# Mechanical properties :
#
#
# Convention : Reuss Voigt Hill
#
# Bulk Modulus (GPa) = 41.08443 72.45010 56.76726
# Shear Modulus (GPa) = 22.35433 42.81695 32.58564
#
# Velocity S-wave (km/s) = 2.91028 4.02775 3.51372
# Velocity P-wave (km/s) = 5.18260 7.00576 6.16198
#
# Compressibility (1/GPa) = 0.02434012
#
# Stress axis : x y z
#
# Youngs Moduli (GPa) = 237.80752 42.52598 103.40440
#
# Poissons Ratio (x) = 0.05429 0.11785
# Poissons Ratio (y) = 0.30358 0.42489
# Poissons Ratio (z) = 0.27104 0.17474
#
# Static dielectric constant tensor:
#      x y z
#    x 2.232410 0.033700 -0.011700 
#    y 0.033700 2.100500 0.065710 
#    z -0.011700 0.065710 2.161720 
# 
# From -- ./inp_files/64532.got.cif
#   From: 2010.05.17/outbox.cif.g08.bks.cpg/sg2_33_cif.got.tgz:64532.got - 2010.06.03 11:33:40.
