data_PCOD9097040
_publ_section_title
;
Structure prediction by ZEFSAII (Michael W. Deem and Ramdas Pophale) SiO2 
 PCOD9097040
Probable space group: P -1
;
_chemical_formula_sum "Si O2"
_cell_formula_units_Z 14
_cell_length_a 7.201653
_cell_length_b 16.824076
_cell_length_c 8.230932
_cell_angle_alpha 51.661774
_cell_angle_beta 128.903338
_cell_angle_gamma 115.146455
_cell_volume 607.706040
_symmetry_space_group_name_H-M "P -1"
_symmetry_group_IT_number 2
_symmetry_cell_setting 'triclinic'
loop_
_space_group_symop_operation_xyz
x,y,z
-x,-y,-z
loop_
_atom_site_type_symbol
_atom_site_label
_atom_site_fract_x
_atom_site_fract_y
_atom_site_fract_z
Si Si1 0.522215 0.919707 0.305636
Si Si2 0.962141 0.194258 0.839396
Si Si3 0.647075 0.732607 0.820128
Si Si4 0.714970 0.393104 0.376405
Si Si5 0.847683 0.501689 0.651496
Si Si6 0.459166 0.656528 0.160378
Si Si7 0.602959 0.867099 0.068055
O O1 0.666999 0.894920 0.253945
O O2 0.581200 0.842190 0.577499
O O3 0.535698 0.038773 0.197877
O O4 0.245623 0.891659 0.140266
O O5 0.083422 0.245635 0.000423
O O6 0.169944 0.152228 0.895233
O O7 0.841433 0.287012 0.569391
O O8 0.558902 0.644263 0.758982
O O9 0.512406 0.691798 0.961144
O O10 0.761409 0.442633 0.513894
O O11 0.873573 0.466523 0.251762
O O12 0.684963 0.599021 0.430092
O O13 0.763517 0.423910 0.843517
O O14 0.445740 0.761348 0.116621
#
# Coordination Sequence:
#
# PCOD9097040 Si02
#       7
#     2   2   2   2   2   2   2
#     4  10  22  39  65  85 119 154 192 241 298 344
#     4  10  20  40  60  88 120 154 187 246 291 347
#     4  10  21  37  60  89 115 150 196 242 285 353
#     4  10  20  38  60  84 119 155 195 235 296 340
#     4  10  20  37  60  82 118 159 190 241 288 343
#     4  10  20  36  59  84 119 153 195 240 289 340
#     4  10  20  40  62  88 116 157 194 238 293 354
#
# _framework density 23.037454
#
# number of rings (size 3 to 8) (size 9 to 14) (size 15 to 20)
#    0.000    2.000    2.857    2.143    0.000    3.429 
#    0.000   11.429    0.000    0.000    0.000    0.000 
#    0.000    0.000    0.000    0.000    0.000    0.000 
#
# Total GULP energy -78136.492508 kJ/mol
# GULP energy per Si atom -5581.178036 kJ/mol
# Density = 2.298502 g / cm^3
# Si number density = 23.037454 Si / 1000 Ang^3
#
#
#
# Elastic Constant Matrix: (Units=GPa)
#
#
# Indices 1 2 3 4 5 6 
#
# 1 52.8477 15.2142 15.5546 -7.9860 -5.4946 4.6167
# 2 15.2142 93.8718 32.7935 -27.5831 6.5987 -0.3503
# 3 15.5546 32.7935 113.8726 -32.3366 -12.8117 9.7340
# 4 -7.9860 -27.5831 -32.3366 39.8045 8.2268 -3.0207
# 5 -5.4946 6.5987 -12.8117 8.2268 27.2142 -5.0368
# 6 4.6167 -0.3503 9.7340 -3.0207 -5.0368 28.6978
#
#
#
# Elastic Compliance Matrix: (Units=1/GPa)
#
#
# Indices 1 2 3 4 5 6 
#
# 1 0.020835 -0.003249 -0.001303 -0.000129 0.004001 -0.002261
# 2 -0.003249 0.015499 -0.002170 0.010121 -0.008299 0.001056
# 3 -0.001303 -0.002170 0.012259 0.007305 0.003341 -0.002620
# 4 -0.000129 0.010121 0.007305 0.040366 -0.011255 -0.000060
# 5 0.004001 -0.008299 0.003341 -0.011255 0.045450 0.004914
# 6 -0.002261 0.001056 -0.002620 -0.000060 0.004914 0.036967
#
#
# Mechanical properties :
#
#
# Convention : Reuss Voigt Hill
#
# Bulk Modulus (GPa) = 28.45062 43.07963 35.76512
# Shear Modulus (GPa) = 25.44051 32.27863 28.85957
#
# Velocity S-wave (km/s) = 3.32672 3.74724 3.54322
# Velocity P-wave (km/s) = 5.20890 6.12069 5.68311
#
# Compressibility (1/GPa) = 0.03514862
#
# Stress axis : x y z
#
# Youngs Moduli (GPa) = 47.99532 64.52175 81.57487
#
# Poissons Ratio (x) = 0.20963 0.10633
# Poissons Ratio (y) = 0.15594 0.17698
# Poissons Ratio (z) = 0.06256 0.13998
#
# Static dielectric constant tensor:
#      x y z
#    x 1.890780 0.015480 -0.003060 
#    y 0.015480 1.911770 0.031780 
#    z -0.003060 0.031780 1.890800 
# 
# From -- ./inp_files/212061.got.cif
#   From: 2010.05.17/outbox.cif.g08.bks.cpg/sg2_107_cif.got.tgz:212061.got - 2010.06.03 11:33:40.
