data_PCOD9097056
_publ_section_title
;
Structure prediction by ZEFSAII (Michael W. Deem and Ramdas Pophale) SiO2 
 PCOD9097056
Probable space group: P -1
;
_chemical_formula_sum "Si O2"
_cell_formula_units_Z 14
_cell_length_a 16.337510
_cell_length_b 6.063020
_cell_length_c 8.710488
_cell_angle_alpha 55.244449
_cell_angle_beta 68.759420
_cell_angle_gamma 62.236354
_cell_volume 621.695459
_symmetry_space_group_name_H-M "P -1"
_symmetry_group_IT_number 2
_symmetry_cell_setting 'triclinic'
loop_
_space_group_symop_operation_xyz
x,y,z
-x,-y,-z
loop_
_atom_site_type_symbol
_atom_site_label
_atom_site_fract_x
_atom_site_fract_y
_atom_site_fract_z
Si Si1 0.253913 0.162907 0.827960
Si Si2 0.635472 0.114950 0.414580
Si Si3 0.448161 0.364806 0.298521
Si Si4 0.939454 0.178496 0.109062
Si Si5 0.116734 0.178602 0.166540
Si Si6 0.429912 0.931738 0.960632
Si Si7 0.199946 0.811018 0.554920
O O1 0.207075 0.479484 0.665938
O O2 0.305146 0.918694 0.768540
O O3 0.182833 0.070479 0.016679
O O4 0.338102 0.182547 0.872429
O O5 0.529533 0.330159 0.382841
O O6 0.698069 0.171618 0.483652
O O7 0.619926 0.809049 0.552633
O O8 0.398395 0.687885 0.157865
O O9 0.508928 0.203455 0.175722
O O10 0.865574 0.076674 0.294258
O O11 0.013613 0.191273 0.184404
O O12 0.888158 0.493224 0.950452
O O13 0.000000 0.000000 0.000000
O O14 0.155688 0.995349 0.363241
O O15 0.500000 0.000000 0.000000
#
# Coordination Sequence:
#
# PCOD9097056 Si02
#       7
#     2   2   2   2   2   2   2
#     4  10  23  38  57  90 121 158 198 249 298 350
#     4  10  21  39  57  86 126 159 205 248 297 349
#     4   9  21  37  56  85 121 163 204 251 288 352
#     4  10  22  43  65  88 121 157 190 245 303 359
#     4  10  23  40  61  93 122 148 203 244 294 366
#     4  10  20  36  59  85 117 162 206 247 299 344
#     4  11  23  39  63  93 119 157 200 246 296 363
#
# _framework density 22.519065000000001
#
# number of rings (size 3 to 8) (size 9 to 14) (size 15 to 20)
#    0.000    2.000    0.000    2.143    4.000    1.714 
#    5.143    4.286    0.000    0.000    0.000    0.000 
#    0.000    0.000    0.000    0.000    0.000    0.000 
#
# Total GULP energy -78216.842638 kJ/mol
# GULP energy per Si atom -5586.917331 kJ/mol
# Density = 2.246781 g / cm^3
# Si number density = 22.519065 Si / 1000 Ang^3
#
#
#
# Elastic Constant Matrix: (Units=GPa)
#
#
# Indices 1 2 3 4 5 6 
#
# 1 107.1962 -7.2004 38.2647 -11.0995 11.3952 2.0696
# 2 -7.2004 39.6354 26.7519 3.0685 8.8270 -13.3981
# 3 38.2647 26.7519 130.6720 -15.3773 13.3815 -11.7693
# 4 -11.0995 3.0685 -15.3773 31.7327 -13.2844 3.2297
# 5 11.3952 8.8270 13.3815 -13.2844 41.3106 0.5324
# 6 2.0696 -13.3981 -11.7693 3.2297 0.5324 22.2900
#
#
#
# Elastic Compliance Matrix: (Units=1/GPa)
#
#
# Indices 1 2 3 4 5 6 
#
# 1 0.011533 0.005605 -0.004185 0.000213 -0.002956 0.000128
# 2 0.005605 0.044427 -0.008959 -0.014610 -0.013143 0.023884
# 3 -0.004185 -0.008959 0.011233 0.005307 0.001135 0.000139
# 4 0.000213 -0.014610 0.005307 0.043322 0.015438 -0.012645
# 5 -0.002956 -0.013143 0.001135 0.015438 0.032557 -0.010041
# 6 0.000128 0.023884 0.000139 -0.012645 -0.010041 0.061353
#
#
# Mechanical properties :
#
#
# Convention : Reuss Voigt Hill
#
# Bulk Modulus (GPa) = 19.18821 43.68179 31.43500
# Shear Modulus (GPa) = 21.10817 33.71248 27.41033
#
# Velocity S-wave (km/s) = 3.06493 3.87339 3.49263
# Velocity P-wave (km/s) = 4.58960 6.28045 5.50038
#
# Compressibility (1/GPa) = 0.05211532
#
# Stress axis : x y z
#
# Youngs Moduli (GPa) = 86.70693 22.50892 89.02115
#
# Poissons Ratio (x) = -0.12617 0.37259
# Poissons Ratio (y) = -0.48603 0.79753
# Poissons Ratio (z) = 0.36291 0.20166
#
# Static dielectric constant tensor:
#      x y z
#    x 1.871610 0.016520 -0.017510 
#    y 0.016520 1.847550 0.027800 
#    z -0.017510 0.027800 1.874690 
# 
# From -- ./inp_files/37714.got.cif
#   From: 2010.05.17/outbox.cif.g08.bks.cpg/sg2_19_cif.got.tgz:37714.got - 2010.06.03 11:33:40.
