data_PCOD9097937
_publ_section_title
;
Structure prediction by ZEFSAII (Michael W. Deem and Ramdas Pophale) SiO2 
 PCOD9097937
Probable space group: P -1
;
_chemical_formula_sum "Si O2"
_cell_formula_units_Z 14
_cell_length_a 22.189713
_cell_length_b 6.654575
_cell_length_c 14.192845
_cell_angle_alpha 94.846579
_cell_angle_beta 19.834717
_cell_angle_gamma 83.931425
_cell_volume 592.811487
_symmetry_space_group_name_H-M "P -1"
_symmetry_group_IT_number 2
_symmetry_cell_setting 'triclinic'
loop_
_space_group_symop_operation_xyz
x,y,z
-x,-y,-z
loop_
_atom_site_type_symbol
_atom_site_label
_atom_site_fract_x
_atom_site_fract_y
_atom_site_fract_z
Si Si1 0.881172 0.277188 0.311702
Si Si2 0.862021 0.129671 0.846195
Si Si3 0.277346 0.905745 0.313711
Si Si4 0.128567 0.619300 0.343512
Si Si5 0.372013 0.190700 0.335765
Si Si6 0.637213 0.099393 0.341574
Si Si7 0.427517 0.799792 0.354373
O O1 0.754218 0.284290 0.592526
O O2 0.823205 0.536883 0.374647
O O3 0.778336 0.193195 0.380307
O O4 0.126130 0.101081 0.973539
O O5 0.826718 0.260851 0.805540
O O6 0.050169 0.128451 0.622958
O O7 0.975119 0.843743 0.645615
O O8 0.677526 0.213196 0.195729
O O9 0.351957 0.018338 0.285941
O O10 0.426451 0.811457 0.999612
O O11 0.000000 0.500000 0.500000
O O12 0.362821 0.399344 0.018907
O O13 0.400212 0.056965 0.386667
O O14 0.500000 0.000000 0.500000
O O15 0.533885 0.255494 0.593687
#
# Coordination Sequence:
#
# PCOD9097937 Si02
#       7
#     2   2   2   2   2   2   2
#     4  10  22  41  64  87 125 170 211 262 316 374
#     4  10  23  42  64  92 128 167 212 261 318 375
#     4   9  19  35  60  94 124 156 209 266 314 373
#     4  11  23  41  67  96 128 167 211 263 319 379
#     4  10  20  36  62  94 125 162 208 258 318 377
#     4  11  25  44  64  93 130 170 216 262 316 381
#     4  11  24  41  64  95 130 167 211 259 313 379
#
# _framework density 23.616278999999999
#
# number of rings (size 3 to 8) (size 9 to 14) (size 15 to 20)
#    0.000    1.714    0.000    3.429    0.000   13.714 
#    0.000    4.286    0.000    0.000    0.000    0.000 
#    0.000    0.000    0.000    0.000    0.000    0.000 
#
# Total GULP energy -78189.788115 kJ/mol
# GULP energy per Si atom -5584.984865 kJ/mol
# Density = 2.356253 g / cm^3
# Si number density = 23.616279 Si / 1000 Ang^3
#
#
#
# Elastic Constant Matrix: (Units=GPa)
#
#
# Indices 1 2 3 4 5 6 
#
# 1 101.1020 22.2422 13.7577 -14.0125 4.3739 12.1778
# 2 22.2422 94.5756 19.6272 13.4899 3.2295 -2.9183
# 3 13.7577 19.6272 80.1876 1.5132 -5.3509 23.8317
# 4 -14.0125 13.4899 1.5132 23.5464 -0.5352 -7.1489
# 5 4.3739 3.2295 -5.3509 -0.5352 44.5683 -7.1083
# 6 12.1778 -2.9183 23.8317 -7.1489 -7.1083 17.0587
#
#
#
# Elastic Compliance Matrix: (Units=1/GPa)
#
#
# Indices 1 2 3 4 5 6 
#
# 1 0.013037 -0.004688 0.001771 0.007060 -0.002332 -0.010596
# 2 -0.004688 0.014233 -0.005789 -0.007220 0.000403 0.011011
# 3 0.001771 -0.005789 0.027728 -0.012011 -0.004189 -0.047771
# 4 0.007060 -0.007220 -0.012011 0.063684 0.005447 0.039462
# 5 -0.002332 0.000403 -0.004189 0.005447 0.025466 0.020480
# 6 -0.010596 0.011011 -0.047771 0.039462 0.020480 0.159879
#
#
# Mechanical properties :
#
#
# Convention : Reuss Voigt Hill
#
# Bulk Modulus (GPa) = 26.60487 43.01327 34.80907
# Shear Modulus (GPa) = 14.97148 31.71722 23.34435
#
# Velocity S-wave (km/s) = 2.52056 3.66870 3.14743
# Velocity P-wave (km/s) = 4.44533 6.01654 5.28960
#
# Compressibility (1/GPa) = 0.03758710
#
# Stress axis : x y z
#
# Youngs Moduli (GPa) = 76.70434 70.25817 36.06400
#
# Poissons Ratio (x) = 0.32937 -0.06387
# Poissons Ratio (y) = 0.35958 0.20877
# Poissons Ratio (z) = -0.13584 0.40671
#
# Static dielectric constant tensor:
#      x y z
#    x 2.005880 -0.054300 -0.020440 
#    y -0.054300 1.939640 0.003020 
#    z -0.020440 0.003020 1.928940 
# 
# From -- ./inp_files/118141.got.cif
#   From: 2010.05.17/outbox.cif.g08.bks.cpg/sg2_60_cif.got.tgz:118141.got - 2010.06.03 11:33:40.
