data_PCOD9097485
_publ_section_title
;
Structure prediction by ZEFSAII (Michael W. Deem and Ramdas Pophale) SiO2 
 PCOD9097485
Probable space group: P -1
;
_chemical_formula_sum "Si O2"
_cell_formula_units_Z 15
_cell_length_a 11.335535
_cell_length_b 13.485961
_cell_length_c 9.612366
_cell_angle_alpha 44.844404
_cell_angle_beta 127.691064
_cell_angle_gamma 147.387158
_cell_volume 558.098400
_symmetry_space_group_name_H-M "P -1"
_symmetry_group_IT_number 2
_symmetry_cell_setting 'triclinic'
loop_
_space_group_symop_operation_xyz
x,y,z
-x,-y,-z
loop_
_atom_site_type_symbol
_atom_site_label
_atom_site_fract_x
_atom_site_fract_y
_atom_site_fract_z
Si Si1 0.681343 0.517565 0.428665
Si Si2 0.169350 0.737721 0.345462
Si Si3 0.078201 0.953989 0.229127
Si Si4 0.268709 0.387644 0.205745
Si Si5 0.561223 0.353089 0.202885
Si Si6 0.817270 0.114428 0.082836
Si Si7 0.328146 0.692457 0.130835
Si Si8 0.500000 0.000000 0.500000
O O1 0.861223 0.761608 0.346120
O O2 0.438376 0.406717 0.389526
O O3 0.688750 0.488676 0.297913
O O4 0.730702 0.413145 0.655435
O O5 0.108625 0.770543 0.126901
O O6 0.000000 0.500000 0.500000
O O7 0.169582 0.859776 0.345731
O O8 0.431825 0.898300 0.388548
O O9 0.300897 0.171732 0.231505
O O10 0.000000 0.000000 0.000000
O O11 0.247515 0.521392 0.136200
O O12 0.384474 0.509086 0.023121
O O13 0.021121 0.165368 0.230937
O O14 0.605818 0.226342 0.303023
O O15 0.762323 0.213023 0.038061
O O16 0.590791 0.880384 0.126807
#
# Coordination Sequence:
#
# PCOD9097485 Si02
#       8
#     2   2   2   2   2   2   2   1
#     4  12  26  43  69 100 138 178 224 278 339 409
#     4  11  22  40  67  99 135 172 221 280 338 398
#     4  11  23  39  65 100 136 172 215 277 342 401
#     4  12  25  43  69  97 134 179 224 278 337 402
#     4  11  24  41  69 102 133 171 225 278 344 400
#     4  11  25  43  71  94 132 181 229 280 331 402
#     4  11  26  47  65  97 135 181 229 275 335 404
#     4  10  20  36  60  96 130 164 208 270 324 390
#
# _framework density 26.87698
#
# number of rings (size 3 to 8) (size 9 to 14) (size 15 to 20)
#    0.000    0.800    1.333    6.800    1.867    3.733 
#    0.000    1.333    0.000    0.000    0.000    0.000 
#    0.000    0.000    0.000    0.000    0.000    0.000 
#
# Total GULP energy -83766.581484 kJ/mol
# GULP energy per Si atom -5584.438766 kJ/mol
# Density = 2.681581 g / cm^3
# Si number density = 26.876980 Si / 1000 Ang^3
#
#
#
# Elastic Constant Matrix: (Units=GPa)
#
#
# Indices 1 2 3 4 5 6 
#
# 1 59.5240 28.9685 7.8328 -4.5162 1.0959 2.0544
# 2 28.9685 158.6693 8.3036 -10.5922 2.3458 8.3440
# 3 7.8328 8.3036 82.9685 -16.2327 4.6235 -1.1232
# 4 -4.5162 -10.5922 -16.2327 34.8603 -8.1605 7.9414
# 5 1.0959 2.3458 4.6235 -8.1605 40.9412 2.4581
# 6 2.0544 8.3440 -1.1232 7.9414 2.4581 58.6186
#
#
#
# Elastic Compliance Matrix: (Units=1/GPa)
#
#
# Indices 1 2 3 4 5 6 
#
# 1 0.018632 -0.003257 -0.001259 0.000924 0.000035 -0.000340
# 2 -0.003257 0.007093 -0.000031 0.002024 0.000158 -0.001177
# 3 -0.001259 -0.000031 0.013378 0.006122 -0.000224 -0.000515
# 4 0.000924 0.002024 0.006122 0.034968 0.006451 -0.005211
# 5 0.000035 0.000158 -0.000224 0.006451 0.025846 -0.001986
# 6 -0.000340 -0.001177 -0.000515 -0.005211 -0.001986 0.018018
#
#
# Mechanical properties :
#
#
# Convention : Reuss Voigt Hill
#
# Bulk Modulus (GPa) = 33.32285 43.48573 38.40429
# Shear Modulus (GPa) = 36.48786 43.95449 40.22118
#
# Velocity S-wave (km/s) = 3.68854 4.04839 3.87265
# Velocity P-wave (km/s) = 5.52862 6.16987 5.85803
#
# Compressibility (1/GPa) = 0.03000944
#
# Stress axis : x y z
#
# Youngs Moduli (GPa) = 53.67194 140.97803 74.74978
#
# Poissons Ratio (x) = 0.45912 0.09410
# Poissons Ratio (y) = 0.17479 0.00233
# Poissons Ratio (z) = 0.06756 0.00440
#
# Static dielectric constant tensor:
#      x y z
#    x 2.189300 -0.108480 0.026580 
#    y -0.108480 1.893470 0.039790 
#    z 0.026580 0.039790 2.169930 
# 
# From -- ./inp_files/271895.got.cif
#   From: 2010.05.17/outbox.cif.g08.bks.cpg/sg2_136_cif.got.tgz:271895.got - 2010.06.03 11:33:40.
