data_PCOD9097449
_publ_section_title
;
Structure prediction by ZEFSAII (Michael W. Deem and Ramdas Pophale) SiO2 
 PCOD9097449
Probable space group: P -1
;
_chemical_formula_sum "Si O2"
_cell_formula_units_Z 16
_cell_length_a 21.931729
_cell_length_b 9.793116
_cell_length_c 8.489651
_cell_angle_alpha 103.959540
_cell_angle_beta 73.649943
_cell_angle_gamma 154.125531
_cell_volume 763.240527
_symmetry_space_group_name_H-M "P -1"
_symmetry_group_IT_number 2
_symmetry_cell_setting 'triclinic'
loop_
_space_group_symop_operation_xyz
x,y,z
-x,-y,-z
loop_
_atom_site_type_symbol
_atom_site_label
_atom_site_fract_x
_atom_site_fract_y
_atom_site_fract_z
Si Si1 0.858980 0.680926 0.609419
Si Si2 0.717744 0.140396 0.666272
Si Si3 0.447874 0.787735 0.847525
Si Si4 0.283489 0.657617 0.689239
Si Si5 0.637724 0.877077 0.317884
Si Si6 0.763169 0.864809 0.041941
Si Si7 0.979056 0.077193 0.905520
Si Si8 0.621522 0.721609 0.837561
O O1 0.850076 0.504819 0.637342
O O2 0.738088 0.447750 0.499662
O O3 0.861551 0.787290 0.786914
O O4 0.000000 0.000000 0.500000
O O5 0.584531 0.981112 0.733496
O O6 0.692203 0.997636 0.489492
O O7 0.708619 0.029037 0.799540
O O8 0.364056 0.709076 0.755508
O O9 0.347987 0.468832 0.902562
O O10 0.500000 0.000000 0.000000
O O11 0.128109 0.381855 0.795048
O O12 0.354025 0.949482 0.709502
O O13 0.733943 0.953137 0.178472
O O14 0.474933 0.512333 0.305940
O O15 0.727572 0.824734 0.873459
O O16 0.916577 0.099924 0.018207
O O17 0.000000 0.000000 0.000000
O O18 0.500000 0.500000 0.000000
#
# Coordination Sequence:
#
# PCOD9097449 Si02
#       8
#     2   2   2   2   2   2   2   2
#     4   9  22  43  63  92 128 168 220 260 318 384
#     4  11  22  39  66  94 130 174 206 265 333 375
#     4  12  23  36  65 101 127 167 220 261 326 387
#     4  10  23  41  64  91 132 170 215 276 317 379
#     4  10  22  40  60  92 133 167 213 263 323 390
#     4  11  23  39  61  94 129 169 220 264 317 386
#     4  11  22  41  66  92 122 177 218 274 321 369
#     4  10  20  36  60  92 130 166 205 265 316 381
#
# _framework density 20.963249000000001
#
# number of rings (size 3 to 8) (size 9 to 14) (size 15 to 20)
#    0.000    1.500    3.750    1.875    1.750    3.500 
#    0.000    0.000    0.000    3.750    0.000    0.000 
#    0.000    0.000    0.000    0.000    0.000    0.000 
#
# Total GULP energy -89285.703013 kJ/mol
# GULP energy per Si atom -5580.356438 kJ/mol
# Density = 2.091554 g / cm^3
# Si number density = 20.963249 Si / 1000 Ang^3
#
#
#
# Elastic Constant Matrix: (Units=GPa)
#
#
# Indices 1 2 3 4 5 6 
#
# 1 141.8586 23.5641 38.0517 -1.9146 18.8605 -8.0266
# 2 23.5641 71.9053 15.3389 -17.9827 14.5088 -26.9506
# 3 38.0517 15.3389 73.2841 3.3506 2.3481 -9.0858
# 4 -1.9146 -17.9827 3.3506 35.1298 -12.8453 5.9231
# 5 18.8605 14.5088 2.3481 -12.8453 32.1239 -12.3226
# 6 -8.0266 -26.9506 -9.0858 5.9231 -12.3226 32.1273
#
#
#
# Elastic Compliance Matrix: (Units=1/GPa)
#
#
# Indices 1 2 3 4 5 6 
#
# 1 0.009222 -0.002506 -0.004343 -0.002030 -0.005894 -0.002913
# 2 -0.002506 0.023940 -0.002023 0.009896 0.001533 0.017648
# 3 -0.004343 -0.002023 0.016780 -0.002519 0.002534 0.003399
# 4 -0.002030 0.009896 -0.002519 0.037917 0.014191 0.005534
# 5 -0.005894 0.001533 0.002534 0.014191 0.045243 0.015267
# 6 -0.002913 0.017648 0.003399 0.005534 0.015267 0.050999
#
#
# Mechanical properties :
#
#
# Convention : Reuss Voigt Hill
#
# Bulk Modulus (GPa) = 31.05894 48.99528 40.02711
# Shear Modulus (GPa) = 23.52067 33.88242 28.70155
#
# Velocity S-wave (km/s) = 3.35325 4.02466 3.70420
# Velocity P-wave (km/s) = 5.46264 6.70968 6.11802
#
# Compressibility (1/GPa) = 0.03219685
#
# Stress axis : x y z
#
# Youngs Moduli (GPa) = 108.43646 41.77098 59.59575
#
# Poissons Ratio (x) = 0.10466 0.25885
# Poissons Ratio (y) = 0.27170 0.12059
# Poissons Ratio (z) = 0.47098 0.08452
#
# Static dielectric constant tensor:
#      x y z
#    x 1.632580 0.255660 -0.003520 
#    y 0.255660 1.066300 0.031010 
#    z -0.003520 0.031010 1.816820 
# 
# From -- ./inp_files/343652.got.cif
#   From: 2010.05.17/outbox.cif.g08.bks.cpg/sg2_172_cif.got.tgz:343652.got - 2010.06.03 11:33:40.
