data_PCOD9097234
_publ_section_title
;
Structure prediction by ZEFSAII (Michael W. Deem and Ramdas Pophale) SiO2 
 PCOD9097234
Probable space group: P -1
;
_chemical_formula_sum "Si O2"
_cell_formula_units_Z 10
_cell_length_a 13.161346
_cell_length_b 5.850391
_cell_length_c 12.353164
_cell_angle_alpha 57.380253
_cell_angle_beta 145.167961
_cell_angle_gamma 101.663075
_cell_volume 396.408054
_symmetry_space_group_name_H-M "P -1"
_symmetry_group_IT_number 2
_symmetry_cell_setting 'triclinic'
loop_
_space_group_symop_operation_xyz
x,y,z
-x,-y,-z
loop_
_atom_site_type_symbol
_atom_site_label
_atom_site_fract_x
_atom_site_fract_y
_atom_site_fract_z
Si Si1 0.940665 0.698810 0.709509
Si Si2 0.630646 0.194188 0.465074
Si Si3 0.280116 0.012620 0.178389
Si Si4 0.734543 0.653018 0.341096
Si Si5 0.821526 0.968692 0.153918
O O1 0.767460 0.802841 0.439838
O O2 0.832525 0.888198 0.674312
O O3 0.103438 0.805003 0.788129
O O4 0.061931 0.327435 0.925517
O O5 0.446869 0.125129 0.306213
O O6 0.604831 0.485430 0.298530
O O7 0.669106 0.223842 0.617753
O O8 0.277684 0.903190 0.082668
O O9 0.693575 0.870093 0.145973
O O10 0.964959 0.354763 0.599201
#
# Coordination Sequence:
#
# PCOD9097234 Si02
#       5
#     2   2   2   2   2
#     4  10  20  36  60  82 108 146 182 224 276 322
#     4  10  22  38  56  82 113 144 183 227 270 323
#     4  10  22  38  56  82 113 144 183 227 270 323
#     4   9  19  36  58  83 111 144 183 226 272 325
#     4   9  19  36  58  83 111 144 183 226 272 325
#
# _framework density 25.226531000000001
#
# number of rings (size 3 to 8) (size 9 to 14) (size 15 to 20)
#    0.000    2.400    0.000    1.200    0.000   12.800 
#    0.000    6.000    0.000    0.000    0.000    0.000 
#    0.000    0.000    0.000    0.000    0.000    0.000 
#
# Total GULP energy -55985.644124 kJ/mol
# GULP energy per Si atom -5598.564412 kJ/mol
# Density = 2.516911 g / cm^3
# Si number density = 25.226531 Si / 1000 Ang^3
#
#
#
# Elastic Constant Matrix: (Units=GPa)
#
#
# Indices 1 2 3 4 5 6 
#
# 1 87.8971 9.2947 26.6952 -2.6716 6.1081 10.5502
# 2 9.2947 56.1594 15.4223 10.6064 -2.2079 11.1447
# 3 26.6952 15.4223 75.0184 -12.8527 -7.3452 7.9415
# 4 -2.6716 10.6064 -12.8527 47.9567 6.4251 9.3834
# 5 6.1081 -2.2079 -7.3452 6.4251 26.4056 9.5310
# 6 10.5502 11.1447 7.9415 9.3834 9.5310 27.5252
#
#
#
# Elastic Compliance Matrix: (Units=1/GPa)
#
#
# Indices 1 2 3 4 5 6 
#
# 1 0.013431 -0.000738 -0.004623 0.000651 -0.003730 -0.002446
# 2 -0.000738 0.021555 -0.003794 -0.005039 0.004774 -0.007285
# 3 -0.004623 -0.003794 0.018030 0.005730 0.006585 -0.006128
# 4 0.000651 -0.005039 0.005730 0.025361 -0.002375 -0.007686
# 5 -0.003730 0.004774 0.006585 -0.002375 0.048133 -0.018260
# 6 -0.002446 -0.007285 -0.006128 -0.007686 -0.018260 0.050929
#
#
# Mechanical properties :
#
#
# Convention : Reuss Voigt Hill
#
# Bulk Modulus (GPa) = 28.81075 35.76659 32.28867
# Shear Modulus (GPa) = 24.11758 31.55501 27.83629
#
# Velocity S-wave (km/s) = 3.09534 3.54060 3.32543
# Velocity P-wave (km/s) = 4.92143 5.56088 5.25090
#
# Compressibility (1/GPa) = 0.03470927
#
# Stress axis : x y z
#
# Youngs Moduli (GPa) = 74.45190 46.39189 55.46250
#
# Poissons Ratio (x) = 0.03422 0.25639
# Poissons Ratio (y) = 0.05492 0.21040
# Poissons Ratio (z) = 0.34417 0.17599
#
# Static dielectric constant tensor:
#      x y z
#    x 2.007760 -0.006520 0.052420 
#    y -0.006520 1.917240 -0.014200 
#    z 0.052420 -0.014200 2.009090 
# 
# From -- ./inp_files/15233.got.cif
#   From: 2010.05.17/outbox.cif.g08.bks.cpg/sg2_8_cif.got.tgz:15233.got - 2010.06.03 11:33:40.
