data_PCOD9097557
_publ_section_title
;
Structure prediction by ZEFSAII (Michael W. Deem and Ramdas Pophale) SiO2 
 PCOD9097557
Probable space group: P -1
;
_chemical_formula_sum "Si O2"
_cell_formula_units_Z 14
_cell_length_a 24.365689
_cell_length_b 28.140003
_cell_length_c 10.079780
_cell_angle_alpha 146.820712
_cell_angle_beta 25.415347
_cell_angle_gamma 164.579281
_cell_volume 753.446038
_symmetry_space_group_name_H-M "P -1"
_symmetry_group_IT_number 2
_symmetry_cell_setting 'triclinic'
loop_
_space_group_symop_operation_xyz
x,y,z
-x,-y,-z
loop_
_atom_site_type_symbol
_atom_site_label
_atom_site_fract_x
_atom_site_fract_y
_atom_site_fract_z
Si Si1 0.354359 0.723741 0.596787
Si Si2 0.163664 0.475897 0.652120
Si Si3 0.161267 0.527474 0.301464
Si Si4 0.115792 0.862551 0.658972
Si Si5 0.705483 0.574212 0.322676
Si Si6 0.463176 0.416699 0.758364
Si Si7 0.217096 0.849593 0.693534
O O1 0.315015 0.622585 0.551022
O O2 0.352573 0.686876 0.364733
O O3 0.631355 0.945963 0.528239
O O4 0.080943 0.616940 0.963622
O O5 0.389877 0.582774 0.515122
O O6 0.014684 0.302380 0.507021
O O7 0.000000 0.500000 0.500000
O O8 0.935831 0.334832 0.424207
O O9 0.315394 0.543680 0.921744
O O10 0.224078 0.901988 0.660863
O O11 0.858883 0.774845 0.022730
O O12 0.500000 0.500000 0.500000
O O13 0.631033 0.553782 0.586427
O O14 0.013397 0.776378 0.069737
O O15 0.500000 0.500000 0.000000
O O16 0.500000 0.000000 0.500000
#
# Coordination Sequence:
#
# PCOD9097557 Si02
#       7
#     2   2   2   2   2   2   2
#     4  11  22  38  63  88 126 161 208 265 307 372
#     4  10  22  40  60  89 126 167 204 254 321 370
#     4  10  20  36  61  87 124 161 207 261 316 360
#     4  11  21  40  62  91 122 162 214 254 311 377
#     4  10  20  39  65  88 128 171 205 257 322 375
#     4  10  21  38  63  89 123 168 205 252 314 373
#     4  10  21  36  64  89 122 159 212 256 315 370
#
# _framework density 18.581292000000001
#
# number of rings (size 3 to 8) (size 9 to 14) (size 15 to 20)
#    0.857    0.857    2.857    2.143    4.000    0.571 
#    0.000    0.714    3.143    0.000    0.000    0.000 
#    0.000    0.000    0.000    0.000    0.000    0.000 
#
# Total GULP energy -77985.329786 kJ/mol
# GULP energy per Si atom -5570.380699 kJ/mol
# Density = 1.853900 g / cm^3
# Si number density = 18.581292 Si / 1000 Ang^3
#
#
#
# Elastic Constant Matrix: (Units=GPa)
#
#
# Indices 1 2 3 4 5 6 
#
# 1 113.3617 35.0740 36.9475 -9.0670 -12.3987 3.9718
# 2 35.0740 82.5653 23.1768 -11.2695 -9.6864 -18.3431
# 3 36.9475 23.1768 67.8688 -10.8917 -3.2929 3.5370
# 4 -9.0670 -11.2695 -10.8917 26.4297 6.7271 -1.0249
# 5 -12.3987 -9.6864 -3.2929 6.7271 41.1061 -4.7920
# 6 3.9718 -18.3431 3.5370 -1.0249 -4.7920 24.6947
#
#
#
# Elastic Compliance Matrix: (Units=1/GPa)
#
#
# Indices 1 2 3 4 5 6 
#
# 1 0.012121 -0.004638 -0.004765 -0.000395 0.001734 -0.004392
# 2 -0.004638 0.020371 -0.004353 0.004888 0.004297 0.017538
# 3 -0.004765 -0.004353 0.019801 0.005052 -0.002351 -0.005550
# 4 -0.000395 0.004888 0.005052 0.043341 -0.005217 0.003757
# 5 0.001734 0.004297 -0.002351 -0.005217 0.027504 0.008370
# 6 -0.004392 0.017538 -0.005550 0.003757 0.008370 0.056803
#
#
# Mechanical properties :
#
#
# Convention : Reuss Voigt Hill
#
# Bulk Modulus (GPa) = 40.35276 50.46582 45.40929
# Shear Modulus (GPa) = 23.17887 29.68593 26.43240
#
# Velocity S-wave (km/s) = 3.53573 4.00137 3.77573
# Velocity P-wave (km/s) = 6.19940 6.96896 6.59541
#
# Compressibility (1/GPa) = 0.02478145
#
# Stress axis : x y z
#
# Youngs Moduli (GPa) = 82.49925 49.08907 50.50230
#
# Poissons Ratio (x) = 0.22765 0.24066
# Poissons Ratio (y) = 0.38259 0.21984
# Poissons Ratio (z) = 0.39314 0.21369
#
# Static dielectric constant tensor:
#      x y z
#    x 1.641920 0.001430 -0.009470 
#    y 0.001430 1.659410 0.025200 
#    z -0.009470 0.025200 1.694540 
# 
# From -- ./inp_files/261419.got.cif
#   From: 2010.05.17/outbox.cif.g08.bks.cpg/sg2_131_cif.got.tgz:261419.got - 2010.06.03 11:33:40.
