data_PCOD9097332
_publ_section_title
;
Structure prediction by ZEFSAII (Michael W. Deem and Ramdas Pophale) SiO2 
 PCOD9097332
Probable space group: P -1
;
_chemical_formula_sum "Si O2"
_cell_formula_units_Z 16
_cell_length_a 8.330714
_cell_length_b 15.825660
_cell_length_c 8.298798
_cell_angle_alpha 77.915139
_cell_angle_beta 121.374698
_cell_angle_gamma 126.105845
_cell_volume 747.141133
_symmetry_space_group_name_H-M "P -1"
_symmetry_group_IT_number 2
_symmetry_cell_setting 'triclinic'
loop_
_space_group_symop_operation_xyz
x,y,z
-x,-y,-z
loop_
_atom_site_type_symbol
_atom_site_label
_atom_site_fract_x
_atom_site_fract_y
_atom_site_fract_z
Si Si1 0.080052 0.482550 0.375388
Si Si2 0.622203 0.566321 0.272150
Si Si3 0.862534 0.269680 0.140454
Si Si4 0.009920 0.790586 0.465116
Si Si5 0.583733 0.932029 0.996054
Si Si6 0.867269 0.580781 0.056147
Si Si7 0.516817 0.104236 0.416970
Si Si8 0.053157 0.999770 0.344166
O O1 0.923973 0.367016 0.252117
O O2 0.050186 0.555210 0.210163
O O3 0.000000 0.500000 0.500000
O O4 0.313271 0.494093 0.545100
O O5 0.760312 0.685441 0.357450
O O6 0.747584 0.580181 0.159882
O O7 0.353949 0.509249 0.126604
O O8 0.595498 0.187983 0.986879
O O9 0.927173 0.204741 0.314583
O O10 0.009251 0.317968 0.035730
O O11 0.026787 0.889514 0.360393
O O12 0.218859 0.795356 0.479249
O O13 0.550938 0.916413 0.795653
O O14 0.850704 0.989837 0.144654
O O15 0.500000 0.000000 0.000000
O O16 0.500000 0.000000 0.500000
O O17 0.312084 0.097798 0.403254
O O18 0.000000 0.000000 0.500000
#
# Coordination Sequence:
#
# PCOD9097332 Si02
#       8
#     2   2   2   2   2   2   2   2
#     4   9  19  37  58  83 120 155 195 245 298 353
#     4   9  20  37  59  83 121 158 193 248 304 358
#     4  10  21  37  59  87 118 155 199 247 300 354
#     4   9  20  38  59  84 122 156 199 249 305 362
#     4  11  23  40  63  88 125 159 203 260 303 368
#     4  10  20  36  60  87 119 155 201 245 298 366
#     4   9  19  38  61  83 116 158 196 253 303 356
#     4  11  22  38  61  89 119 162 206 251 307 367
#
# _framework density 21.414961999999999
#
# number of rings (size 3 to 8) (size 9 to 14) (size 15 to 20)
#    0.000    2.250    0.000    3.000    1.750    5.000 
#    2.250    1.250   19.250    0.000    0.000    0.000 
#    0.000    0.000    0.000    0.000    0.000    0.000 
#
# Total GULP energy -89118.014571 kJ/mol
# GULP energy per Si atom -5569.875911 kJ/mol
# Density = 2.136622 g / cm^3
# Si number density = 21.414962 Si / 1000 Ang^3
#
#
#
# Elastic Constant Matrix: (Units=GPa)
#
#
# Indices 1 2 3 4 5 6 
#
# 1 76.7356 7.2971 17.5678 -2.6458 4.2932 18.4090
# 2 7.2971 36.1553 11.5248 -4.3773 6.8221 21.7786
# 3 17.5678 11.5248 70.3514 -0.6981 15.0524 12.5802
# 4 -2.6458 -4.3773 -0.6981 30.7892 -2.5995 -2.7162
# 5 4.2932 6.8221 15.0524 -2.5995 23.4208 1.6938
# 6 18.4090 21.7786 12.5802 -2.7162 1.6938 36.7622
#
#
#
# Elastic Compliance Matrix: (Units=1/GPa)
#
#
# Indices 1 2 3 4 5 6 
#
# 1 0.015501 0.003314 -0.002534 0.000853 -0.001453 -0.008729
# 2 0.003314 0.046911 -0.001020 0.003488 -0.011181 -0.028329
# 3 -0.002534 -0.001020 0.017972 -0.001196 -0.010641 -0.003875
# 4 0.000853 0.003488 -0.001196 0.033318 0.003278 0.000226
# 5 -0.001453 -0.011181 -0.010641 0.003278 0.052787 0.008803
# 6 -0.008729 -0.028329 -0.003875 0.000226 0.008803 0.049293
#
#
# Mechanical properties :
#
#
# Convention : Reuss Voigt Hill
#
# Bulk Modulus (GPa) = 12.51472 28.44687 20.48080
# Shear Modulus (GPa) = 20.58504 27.98462 24.28483
#
# Velocity S-wave (km/s) = 3.10376 3.61886 3.37116
# Velocity P-wave (km/s) = 4.32447 5.54743 4.97368
#
# Compressibility (1/GPa) = 0.07990588
#
# Stress axis : x y z
#
# Youngs Moduli (GPa) = 64.51021 21.31708 55.64186
#
# Poissons Ratio (x) = -0.07065 0.14098
# Poissons Ratio (y) = -0.21382 0.05675
# Poissons Ratio (z) = 0.16345 0.02174
#
# Static dielectric constant tensor:
#      x y z
#    x 1.824660 0.052600 0.014300 
#    y 0.052600 1.825970 0.042860 
#    z 0.014300 0.042860 1.783700 
# 
# From -- ./inp_files/200696.got.cif
#   From: 2010.05.17/outbox.cif.g08.bks.cpg/sg2_101_cif.got.tgz:200696.got - 2010.06.03 11:33:40.
