data_PCOD9097674
_publ_section_title
;
Structure prediction by ZEFSAII (Michael W. Deem and Ramdas Pophale) SiO2 
 PCOD9097674
Probable space group: P -1
;
_chemical_formula_sum "Si O2"
_cell_formula_units_Z 16
_cell_length_a 8.845026
_cell_length_b 13.932098
_cell_length_c 18.463263
_cell_angle_alpha 158.568951
_cell_angle_beta 123.293797
_cell_angle_gamma 57.368066
_cell_volume 691.894579
_symmetry_space_group_name_H-M "P -1"
_symmetry_group_IT_number 2
_symmetry_cell_setting 'triclinic'
loop_
_space_group_symop_operation_xyz
x,y,z
-x,-y,-z
loop_
_atom_site_type_symbol
_atom_site_label
_atom_site_fract_x
_atom_site_fract_y
_atom_site_fract_z
Si Si1 0.566393 0.498486 0.116191
Si Si2 0.830590 0.351198 0.824870
Si Si3 0.930209 0.096865 0.470916
Si Si4 0.568879 0.920949 0.312208
Si Si5 0.141421 0.907868 0.866218
Si Si6 0.608595 0.594806 0.449700
Si Si7 0.733692 0.995683 0.877402
Si Si8 0.760099 0.601550 0.823485
O O1 0.358208 0.593821 0.145898
O O2 0.647487 0.757569 0.287644
O O3 0.559589 0.278723 0.897458
O O4 0.658872 0.304541 0.064563
O O5 0.780828 0.457081 0.805136
O O6 0.922239 0.053016 0.646644
O O7 0.000000 0.500000 0.000000
O O8 0.898969 0.410017 0.676804
O O9 0.729019 0.987794 0.345739
O O10 0.000000 0.000000 0.500000
O O11 0.443401 0.192090 0.478487
O O12 0.217072 0.609016 0.659974
O O13 0.930207 0.944476 0.855584
O O14 0.241104 0.024984 0.044519
O O15 0.186341 0.104137 0.951691
O O16 0.622140 0.779240 0.654533
O O17 0.437703 0.420710 0.277848
#
# Coordination Sequence:
#
# PCOD9097674 Si02
#       8
#     2   2   2   2   2   2   2   2
#     4  10  20  36  61  93 123 162 207 254 316 382
#     4  11  21  37  62  98 129 161 212 264 313 388
#     4   9  19  36  55  84 125 161 193 248 313 367
#     4   9  19  36  61  88 125 163 196 253 322 373
#     4  11  23  44  63  94 125 169 222 266 313 382
#     4  10  21  43  65  92 126 171 211 266 321 378
#     4  10  24  41  66  89 131 168 215 269 317 376
#     4  10  23  40  64  89 129 170 207 265 324 375
#
# _framework density 23.12491
#
# number of rings (size 3 to 8) (size 9 to 14) (size 15 to 20)
#    0.000    2.000    1.250    1.500    3.500    1.500 
#    6.750    6.250    0.000    0.000    0.000    0.000 
#    0.000    0.000    0.000    0.000    0.000    0.000 
#
# Total GULP energy -89168.771863 kJ/mol
# GULP energy per Si atom -5573.048241 kJ/mol
# Density = 2.307228 g / cm^3
# Si number density = 23.124910 Si / 1000 Ang^3
#
#
#
# Elastic Constant Matrix: (Units=GPa)
#
#
# Indices 1 2 3 4 5 6 
#
# 1 82.8945 23.2474 34.9266 25.8407 -20.9779 -20.2033
# 2 23.2474 48.6654 14.7002 3.0717 2.6165 -19.8763
# 3 34.9266 14.7002 94.4163 23.9671 -7.8666 -13.3764
# 4 25.8407 3.0717 23.9671 53.9714 -12.3156 -5.8235
# 5 -20.9779 2.6165 -7.8666 -12.3156 32.3910 10.8063
# 6 -20.2033 -19.8763 -13.3764 -5.8235 10.8063 29.9211
#
#
#
# Elastic Compliance Matrix: (Units=1/GPa)
#
#
# Indices 1 2 3 4 5 6 
#
# 1 0.020761 -0.008124 -0.003952 -0.005101 0.010514 0.002065
# 2 -0.008124 0.034893 -0.000736 0.001186 -0.015552 0.023213
# 3 -0.003952 -0.000736 0.013455 -0.004140 -0.001695 0.002665
# 4 -0.005101 0.001186 -0.004140 0.023740 0.005211 -0.001769
# 5 0.010514 -0.015552 -0.001695 0.005211 0.047186 -0.020017
# 6 0.002065 0.023213 0.002665 -0.001769 -0.020017 0.058312
#
#
# Mechanical properties :
#
#
# Convention : Reuss Voigt Hill
#
# Bulk Modulus (GPa) = 22.99540 41.30273 32.14907
# Shear Modulus (GPa) = 20.96743 33.46351 27.21547
#
# Velocity S-wave (km/s) = 3.01442 3.80817 3.43430
# Velocity P-wave (km/s) = 4.69906 6.10211 5.44596
#
# Compressibility (1/GPa) = 0.04348696
#
# Stress axis : x y z
#
# Youngs Moduli (GPa) = 48.16760 28.65877 74.32154
#
# Poissons Ratio (x) = 0.23281 0.29369
# Poissons Ratio (y) = 0.39129 0.05469
# Poissons Ratio (z) = 0.19034 0.02109
#
# Static dielectric constant tensor:
#      x y z
#    x 1.899390 0.010090 -0.029460 
#    y 0.010090 1.950460 -0.013320 
#    z -0.029460 -0.013320 1.924590 
# 
# From -- ./inp_files/590548.got.cif
#   From: 2010.05.17/outbox.cif.g08.bks.cpg/sg2_296_cif.got.tgz:590548.got - 2010.06.03 11:33:40.
