data_PCOD9097661
_publ_section_title
;
Structure prediction by ZEFSAII (Michael W. Deem and Ramdas Pophale) SiO2 
 PCOD9097661
Probable space group: P -1
;
_chemical_formula_sum "Si O2"
_cell_formula_units_Z 16
_cell_length_a 9.944042
_cell_length_b 18.532899
_cell_length_c 10.648769
_cell_angle_alpha 24.510522
_cell_angle_beta 107.760433
_cell_angle_gamma 105.656022
_cell_volume 775.206763
_symmetry_space_group_name_H-M "P -1"
_symmetry_group_IT_number 2
_symmetry_cell_setting 'triclinic'
loop_
_space_group_symop_operation_xyz
x,y,z
-x,-y,-z
loop_
_atom_site_type_symbol
_atom_site_label
_atom_site_fract_x
_atom_site_fract_y
_atom_site_fract_z
Si Si1 0.606008 0.753789 0.628247
Si Si2 0.922209 0.367447 0.775630
Si Si3 0.355103 0.107435 0.310466
Si Si4 0.351584 0.629179 0.629140
Si Si5 0.039199 0.003776 0.357659
Si Si6 0.128265 0.281837 0.386728
Si Si7 0.382127 0.492148 0.585795
Si Si8 0.053512 0.560115 0.727082
O O1 0.649169 0.867384 0.579644
O O2 0.445946 0.764908 0.516133
O O3 0.713493 0.780459 0.501846
O O4 0.624681 0.558822 0.999428
O O5 0.760173 0.424021 0.645419
O O6 0.000000 0.500000 0.500000
O O7 0.996492 0.404892 0.870534
O O8 0.958013 0.182795 0.017872
O O9 0.208404 0.019585 0.368767
O O10 0.500000 0.000000 0.500000
O O11 0.361506 0.294890 0.944617
O O12 0.406553 0.603155 0.544190
O O13 0.182873 0.655806 0.545949
O O14 0.000000 0.000000 0.500000
O O15 0.977520 0.850201 0.500934
O O16 0.074823 0.317572 0.455464
O O17 0.116604 0.466295 0.017519
O O18 0.500000 0.500000 0.500000
#
# Coordination Sequence:
#
# PCOD9097661 Si02
#       8
#     2   2   2   2   2   2   2   2
#     4   9  18  35  56  85 122 156 194 254 305 354
#     4  12  22  43  67  87 128 171 208 258 310 375
#     4  11  24  40  62  94 127 159 207 261 309 366
#     4   9  18  36  56  83 121 157 200 249 301 362
#     4  12  22  41  66  95 124 165 212 260 311 363
#     4  10  21  35  61  95 121 153 213 259 303 365
#     4  11  25  40  63  93 123 167 210 250 312 377
#     4  10  20  36  61  92 121 161 206 255 307 368
#
# _framework density 20.639654
#
# number of rings (size 3 to 8) (size 9 to 14) (size 15 to 20)
#    0.000    1.500    5.000    0.750    5.250    0.000 
#    0.000    0.625    2.750    1.500    0.000    0.000 
#    0.000    0.000    0.000    0.000    0.000    0.000 
#
# Total GULP energy -89193.094632 kJ/mol
# GULP energy per Si atom -5574.568414 kJ/mol
# Density = 2.059268 g / cm^3
# Si number density = 20.639654 Si / 1000 Ang^3
#
#
#
# Elastic Constant Matrix: (Units=GPa)
#
#
# Indices 1 2 3 4 5 6 
#
# 1 158.7885 34.2997 14.0915 -1.7640 2.1267 -2.4804
# 2 34.2997 61.8266 -6.3636 -6.8608 -12.6668 -3.2203
# 3 14.0915 -6.3636 32.8893 -0.7913 0.4980 -2.5411
# 4 -1.7640 -6.8608 -0.7913 22.7446 0.2090 -1.2505
# 5 2.1267 -12.6668 0.4980 0.2090 25.3703 1.4049
# 6 -2.4804 -3.2203 -2.5411 -1.2505 1.4049 38.1198
#
#
#
# Elastic Compliance Matrix: (Units=1/GPa)
#
#
# Indices 1 2 3 4 5 6 
#
# 1 0.007966 -0.005732 -0.004514 -0.001247 -0.003421 -0.000182
# 2 -0.005732 0.023370 0.007107 0.006846 0.011850 0.001863
# 3 -0.004514 0.007107 0.033939 0.003087 0.003094 0.002556
# 4 -0.001247 0.006846 0.003087 0.046131 0.002965 0.002107
# 5 -0.003421 0.011850 0.003094 0.002965 0.045567 -0.000597
# 6 -0.000182 0.001863 0.002556 0.002107 -0.000597 0.026640
#
#
# Mechanical properties :
#
#
# Convention : Reuss Voigt Hill
#
# Bulk Modulus (GPa) = 16.95027 37.50663 27.22845
# Shear Modulus (GPa) = 23.85972 31.34539 27.60256
#
# Velocity S-wave (km/s) = 3.40371 3.90127 3.66095
# Velocity P-wave (km/s) = 4.86593 6.20523 5.57594
#
# Compressibility (1/GPa) = 0.05899612
#
# Stress axis : x y z
#
# Youngs Moduli (GPa) = 125.53832 42.78915 29.46435
#
# Poissons Ratio (x) = 0.24529 0.13301
# Poissons Ratio (y) = 0.71965 -0.20941
# Poissons Ratio (z) = 0.56672 -0.30411
#
# Static dielectric constant tensor:
#      x y z
#    x 1.769090 -0.054500 0.058570 
#    y -0.054500 1.985060 -0.271490 
#    z 0.058570 -0.271490 2.128650 
# 
# From -- ./inp_files/239309.got.cif
#   From: 2010.05.17/outbox.cif.g08.bks.cpg/sg2_120_cif.got.tgz:239309.got - 2010.06.03 11:33:40.
