data_PCOD9097933
_publ_section_title
;
Structure prediction by ZEFSAII (Michael W. Deem and Ramdas Pophale) SiO2 
 PCOD9097933
Probable space group: P -1
;
_chemical_formula_sum "Si O2"
_cell_formula_units_Z 15
_cell_length_a 11.926224
_cell_length_b 6.736106
_cell_length_c 12.779277
_cell_angle_alpha 133.570559
_cell_angle_beta 56.755850
_cell_angle_gamma 126.318451
_cell_volume 581.843826
_symmetry_space_group_name_H-M "P -1"
_symmetry_group_IT_number 2
_symmetry_cell_setting 'triclinic'
loop_
_space_group_symop_operation_xyz
x,y,z
-x,-y,-z
loop_
_atom_site_type_symbol
_atom_site_label
_atom_site_fract_x
_atom_site_fract_y
_atom_site_fract_z
Si Si1 0.982857 0.324134 0.641325
Si Si2 0.914607 0.985020 0.144595
Si Si3 0.454545 0.438871 0.671629
Si Si4 0.297784 0.360523 0.522600
Si Si5 0.387262 0.961145 0.952393
Si Si6 0.886325 0.015257 0.785095
Si Si7 0.604488 0.932596 0.242688
Si Si8 0.000000 0.500000 0.500000
O O1 0.053299 0.678422 0.711558
O O2 0.127024 0.247772 0.554865
O O3 0.897223 0.272413 0.558083
O O4 0.899254 0.228510 0.757020
O O5 0.977422 0.850291 0.157296
O O6 0.750264 0.862806 0.155094
O O7 0.000000 0.000000 0.000000
O O8 0.365332 0.262060 0.553724
O O9 0.606356 0.665742 0.634102
O O10 0.353995 0.621665 0.820052
O O11 0.484529 0.255033 0.684135
O O12 0.348713 0.718230 0.635870
O O13 0.443912 0.126496 0.874019
O O14 0.500000 0.000000 0.000000
O O15 0.251906 0.025155 0.089008
O O16 0.898733 0.710969 0.629388
#
# Coordination Sequence:
#
# PCOD9097933 Si02
#       8
#     2   2   2   2   2   2   2   1
#     4  10  22  39  63  92 119 159 197 259 311 353
#     4  10  20  36  62  94 124 149 196 260 299 364
#     4  10  21  38  64  87 121 167 196 247 305 355
#     4   9  20  39  61  93 124 147 208 251 296 369
#     4  11  26  41  57  90 127 164 205 246 294 377
#     4  11  23  42  65  89 123 159 207 255 314 356
#     4  10  20  40  62  92 121 159 204 246 309 353
#     4  10  24  42  60  88 118 158 210 258 292 364
#
# _framework density 25.780114999999999
#
# number of rings (size 3 to 8) (size 9 to 14) (size 15 to 20)
#    0.000    1.867    1.333    1.600    3.733    1.067 
#    2.400    0.000    0.000    0.000    0.000    0.000 
#    0.000    0.000    0.000    0.000    0.000    0.000 
#
# Total GULP energy -83502.794993 kJ/mol
# GULP energy per Si atom -5566.853000 kJ/mol
# Density = 2.572144 g / cm^3
# Si number density = 25.780115 Si / 1000 Ang^3
#
#
#
# Elastic Constant Matrix: (Units=GPa)
#
#
# Indices 1 2 3 4 5 6 
#
# 1 111.4448 31.7362 15.2389 -18.1691 5.3989 -20.5892
# 2 31.7362 110.2818 9.8755 -29.2884 26.5940 -49.4489
# 3 15.2389 9.8755 56.7636 -17.3454 -17.2885 -13.1583
# 4 -18.1691 -29.2884 -17.3454 34.6027 -17.2905 11.1983
# 5 5.3989 26.5940 -17.2885 -17.2905 35.7057 -15.8241
# 6 -20.5892 -49.4489 -13.1583 11.1983 -15.8241 47.6649
#
#
#
# Elastic Compliance Matrix: (Units=1/GPa)
#
#
# Indices 1 2 3 4 5 6 
#
# 1 0.010672 -0.000333 0.002778 0.008146 0.006221 0.005183
# 2 -0.000333 0.022659 0.012407 0.022744 0.011372 0.025220
# 3 0.002778 0.012407 0.071384 0.073617 0.079562 0.042896
# 4 0.008146 0.022744 0.073617 0.122385 0.099685 0.051778
# 5 0.006221 0.011372 0.079562 0.099685 0.130344 0.056302
# 6 0.005183 0.025220 0.042896 0.051778 0.056302 0.067751
#
#
# Mechanical properties :
#
#
# Convention : Reuss Voigt Hill
#
# Bulk Modulus (GPa) = 7.43935 43.57684 25.50809
# Shear Modulus (GPa) = 11.35599 38.37062 24.86330
#
# Velocity S-wave (km/s) = 2.10107 3.86214 3.10891
# Velocity P-wave (km/s) = 2.96276 6.06862 4.77525
#
# Compressibility (1/GPa) = 0.13442042
#
# Stress axis : x y z
#
# Youngs Moduli (GPa) = 93.70160 44.13310 14.00878
#
# Poissons Ratio (x) = 0.01468 -0.03892
# Poissons Ratio (y) = 0.03117 -0.17381
# Poissons Ratio (z) = -0.26034 -0.54756
#
# Static dielectric constant tensor:
#      x y z
#    x 2.012280 0.057400 0.107680 
#    y 0.057400 2.135750 0.033800 
#    z 0.107680 0.033800 2.297170 
# 
# From -- ./inp_files/118644.got.cif
#   From: 2010.05.17/outbox.cif.g08.bks.cpg/sg2_60_cif.got.tgz:118644.got - 2010.06.03 11:33:40.
