data_PCOD9097459
_publ_section_title
;
Structure prediction by ZEFSAII (Michael W. Deem and Ramdas Pophale) SiO2 
 PCOD9097459
Probable space group: P -1
;
_chemical_formula_sum "Si O2"
_cell_formula_units_Z 14
_cell_length_a 12.765020
_cell_length_b 13.061373
_cell_length_c 10.262997
_cell_angle_alpha 77.939621
_cell_angle_beta 135.902797
_cell_angle_gamma 64.667655
_cell_volume 614.845712
_symmetry_space_group_name_H-M "P -1"
_symmetry_group_IT_number 2
_symmetry_cell_setting 'triclinic'
loop_
_space_group_symop_operation_xyz
x,y,z
-x,-y,-z
loop_
_atom_site_type_symbol
_atom_site_label
_atom_site_fract_x
_atom_site_fract_y
_atom_site_fract_z
Si Si1 0.282312 0.252639 0.602206
Si Si2 0.881091 0.441103 0.541653
Si Si3 0.682113 0.128976 0.793459
Si Si4 0.642017 0.300566 0.161807
Si Si5 0.159342 0.130974 0.650022
Si Si6 0.483865 0.453222 0.634934
Si Si7 0.665015 0.252866 0.479826
O O1 0.060495 0.472577 0.394511
O O2 0.450179 0.191813 0.639407
O O3 0.151489 0.214023 0.498171
O O4 0.530377 0.091978 0.974353
O O5 0.818133 0.419441 0.626801
O O6 0.059486 0.264653 0.648241
O O7 0.563335 0.629314 0.144994
O O8 0.683728 0.235520 0.851291
O O9 0.603033 0.208121 0.553091
O O10 0.010220 0.901126 0.157554
O O11 0.645337 0.233809 0.316879
O O12 0.960221 0.147888 0.452119
O O13 0.500000 0.500000 0.000000
O O14 0.500000 0.500000 0.500000
O O15 0.525779 0.529020 0.742712
#
# Coordination Sequence:
#
# PCOD9097459 Si02
#       7
#     2   2   2   2   2   2   2
#     4  10  19  32  49  75  94 126 166 197 237 284
#     4  10  19  32  48  73  98 126 159 199 241 286
#     4   9  18  28  48  71  93 123 165 200 234 276
#     4  10  18  31  51  73  98 132 155 194 252 288
#     4  10  19  32  49  71 100 128 157 198 244 284
#     4   9  16  27  45  69  94 120 156 197 237 274
#     4  10  16  31  46  69  99 124 156 203 239 276
#
# _framework density 22.769942
#
# number of rings (size 3 to 8) (size 9 to 14) (size 15 to 20)
#    0.000    2.286    4.286    0.429    0.000    0.571 
#    0.000    0.000    0.000    3.429    3.714    2.000 
#    0.000    0.000    0.000    0.000    0.000    0.000 
#
# Total GULP energy -77944.884008 kJ/mol
# GULP energy per Si atom -5567.491715 kJ/mol
# Density = 2.271812 g / cm^3
# Si number density = 22.769942 Si / 1000 Ang^3
#
#
#
# Elastic Constant Matrix: (Units=GPa)
#
#
# Indices 1 2 3 4 5 6 
#
# 1 165.4956 31.0942 12.8648 1.4606 -21.5706 -1.6650
# 2 31.0942 58.4708 9.9852 -21.3797 -4.1581 9.2972
# 3 12.8648 9.9852 38.0604 -5.8235 -0.4432 0.0040
# 4 1.4606 -21.3797 -5.8235 23.1651 -1.1765 -5.3083
# 5 -21.5706 -4.1581 -0.4432 -1.1765 33.0091 -0.9342
# 6 -1.6650 9.2972 0.0040 -5.3083 -0.9342 28.0383
#
#
#
# Elastic Compliance Matrix: (Units=1/GPa)
#
#
# Indices 1 2 3 4 5 6 
#
# 1 0.007946 -0.006013 -0.001976 -0.005994 0.004236 0.001472
# 2 -0.006013 0.031845 -0.002023 0.028028 0.000896 -0.005580
# 3 -0.001976 -0.002023 0.028334 0.005700 -0.000917 0.001598
# 4 -0.005994 0.028028 0.005700 0.071893 0.002366 0.004039
# 5 0.004236 0.000896 -0.000917 0.002366 0.033291 0.001512
# 6 0.001472 -0.005580 0.001598 0.004039 0.001512 0.038418
#
#
# Mechanical properties :
#
#
# Convention : Reuss Voigt Hill
#
# Bulk Modulus (GPa) = 20.78956 41.10167 30.94562
# Shear Modulus (GPa) = 20.17899 30.71468 25.44684
#
# Velocity S-wave (km/s) = 2.98016 3.67674 3.34662
# Velocity P-wave (km/s) = 4.58169 6.00954 5.34352
#
# Compressibility (1/GPa) = 0.04810106
#
# Stress axis : x y z
#
# Youngs Moduli (GPa) = 125.85526 31.40254 35.29328
#
# Poissons Ratio (x) = 0.18881 0.06975
# Poissons Ratio (y) = 0.75671 0.07139
# Poissons Ratio (z) = 0.24873 0.06352
#
# Static dielectric constant tensor:
#      x y z
#    x 2.001270 -0.008800 0.023390 
#    y -0.008800 1.911840 -0.031640 
#    z 0.023390 -0.031640 1.846610 
# 
# From -- ./inp_files/386693.got.cif
#   From: 2010.05.17/outbox.cif.g08.bks.cpg/sg2_194_cif.got.tgz:386693.got - 2010.06.03 11:33:40.
