data_PCOD9097998
_publ_section_title
;
Structure prediction by ZEFSAII (Michael W. Deem and Ramdas Pophale) SiO2 
 PCOD9097998
Probable space group: P -1
;
_chemical_formula_sum "Si O2"
_cell_formula_units_Z 16
_cell_length_a 14.306599
_cell_length_b 14.165953
_cell_length_c 7.956164
_cell_angle_alpha 104.012872
_cell_angle_beta 66.961564
_cell_angle_gamma 46.235978
_cell_volume 681.608685
_symmetry_space_group_name_H-M "P -1"
_symmetry_group_IT_number 2
_symmetry_cell_setting 'triclinic'
loop_
_space_group_symop_operation_xyz
x,y,z
-x,-y,-z
loop_
_atom_site_type_symbol
_atom_site_label
_atom_site_fract_x
_atom_site_fract_y
_atom_site_fract_z
Si Si1 0.312705 0.160955 0.348350
Si Si2 0.443998 0.630814 0.227802
Si Si3 0.009682 0.405879 0.133769
Si Si4 0.441248 0.783297 0.054723
Si Si5 0.274471 0.603275 0.508602
Si Si6 0.272414 0.489901 0.807139
Si Si7 0.590971 0.795901 0.224410
Si Si8 0.893399 0.808900 0.715005
O O1 0.204020 0.356882 0.547397
O O2 0.115209 0.261768 0.461415
O O3 0.417259 0.021729 0.379682
O O4 0.500000 0.000000 0.000000
O O5 0.321810 0.822753 0.303443
O O6 0.319795 0.679155 0.483976
O O7 0.666267 0.490249 0.076282
O O8 0.500000 0.500000 0.000000
O O9 0.943472 0.388629 0.023773
O O10 0.103600 0.260390 0.153288
O O11 0.193187 0.328984 0.938460
O O12 0.601573 0.719033 0.015859
O O13 0.311055 0.957254 0.093123
O O14 0.543120 0.614071 0.800667
O O15 0.275334 0.558906 0.675065
O O16 0.071430 0.738818 0.601484
O O17 0.439832 0.258244 0.628534
#
# Coordination Sequence:
#
# PCOD9097998 Si02
#       8
#     2   2   2   2   2   2   2   2
#     4  11  22  35  59  87 120 161 201 237 280 344
#     4   9  19  40  64  86 113 154 195 247 302 350
#     4  11  22  35  58  84 124 162 194 235 294 339
#     4   9  20  36  60  88 118 156 199 241 283 346
#     4  10  20  36  63  85 119 152 192 248 299 341
#     4  10  22  36  58  90 118 156 198 238 299 350
#     4  10  21  38  56  83 127 160 197 235 279 350
#     4  10  21  32  56  92 116 153 201 231 284 344
#
# _framework density 23.473880000000001
#
# number of rings (size 3 to 8) (size 9 to 14) (size 15 to 20)
#    0.000    2.000    1.250    1.875    7.000    1.000 
#    0.000    2.500    0.000   27.750    0.000    0.000 
#    0.000    0.000    0.000    0.000    0.000    0.000 
#
# Total GULP energy -89080.935249 kJ/mol
# GULP energy per Si atom -5567.558453 kJ/mol
# Density = 2.342045 g / cm^3
# Si number density = 23.473880 Si / 1000 Ang^3
#
#
#
# Elastic Constant Matrix: (Units=GPa)
#
#
# Indices 1 2 3 4 5 6 
#
# 1 146.6208 53.2222 22.8077 6.2138 -10.8648 -13.3036
# 2 53.2222 234.6503 21.5683 -15.4285 -11.2421 29.9581
# 3 22.8077 21.5683 38.6644 1.9220 -1.9658 -2.4422
# 4 6.2138 -15.4285 1.9220 15.0726 -4.3857 -6.7203
# 5 -10.8648 -11.2421 -1.9658 -4.3857 20.5545 0.0595
# 6 -13.3036 29.9581 -2.4422 -6.7203 0.0595 54.9781
#
#
#
# Elastic Compliance Matrix: (Units=1/GPa)
#
#
# Indices 1 2 3 4 5 6 
#
# 1 0.008690 -0.002101 -0.003495 -0.003404 0.002376 0.002674
# 2 -0.002101 0.005969 -0.002453 0.006931 0.003407 -0.003026
# 3 -0.003495 -0.002453 0.029535 -0.004685 -0.001367 0.001232
# 4 -0.003404 0.006931 -0.004685 0.083463 0.019336 0.005373
# 5 0.002376 0.003407 -0.001367 0.019336 0.055763 0.000961
# 6 0.002674 -0.003026 0.001232 0.005373 0.000961 0.021196
#
#
# Mechanical properties :
#
#
# Convention : Reuss Voigt Hill
#
# Bulk Modulus (GPa) = 35.59277 68.34800 51.97039
# Shear Modulus (GPa) = 21.73186 39.61018 30.67102
#
# Velocity S-wave (km/s) = 3.04598 4.11227 3.61862
# Velocity P-wave (km/s) = 5.25036 7.19219 6.29658
#
# Compressibility (1/GPa) = 0.02809559
#
# Stress axis : x y z
#
# Youngs Moduli (GPa) = 115.08109 167.53259 33.85853
#
# Poissons Ratio (x) = 0.35199 0.11833
# Poissons Ratio (y) = 0.24179 0.08305
# Poissons Ratio (z) = 0.40220 0.41093
#
# Static dielectric constant tensor:
#      x y z
#    x 1.898640 0.034340 -0.065300 
#    y 0.034340 1.974240 -0.124790 
#    z -0.065300 -0.124790 1.904140 
# 
# From -- ./inp_files/315404.got.cif
#   From: 2010.05.17/outbox.cif.g08.bks.cpg/sg2_158_cif.got.tgz:315404.got - 2010.06.03 11:33:40.
