data_PCOD9097476
_publ_section_title
;
Structure prediction by ZEFSAII (Michael W. Deem and Ramdas Pophale) SiO2 
 PCOD9097476
Probable space group: P -1
;
_chemical_formula_sum "Si O2"
_cell_formula_units_Z 16
_cell_length_a 18.219969
_cell_length_b 8.984456
_cell_length_c 11.577495
_cell_angle_alpha 50.069911
_cell_angle_beta 149.150201
_cell_angle_gamma 133.249606
_cell_volume 700.530127
_symmetry_space_group_name_H-M "P -1"
_symmetry_group_IT_number 2
_symmetry_cell_setting 'triclinic'
loop_
_space_group_symop_operation_xyz
x,y,z
-x,-y,-z
loop_
_atom_site_type_symbol
_atom_site_label
_atom_site_fract_x
_atom_site_fract_y
_atom_site_fract_z
Si Si1 0.172102 0.138171 0.990741
Si Si2 0.347322 0.299862 0.911232
Si Si3 0.184151 0.701873 0.296272
Si Si4 0.353631 0.993625 0.730259
Si Si5 0.919655 0.329119 0.570745
Si Si6 0.526201 0.614736 0.600995
Si Si7 0.483409 0.996315 0.671488
Si Si8 0.734429 0.658629 0.466244
O O1 0.296831 0.266491 0.189996
O O2 0.151097 0.895018 0.095086
O O3 0.251465 0.250447 0.923837
O O4 0.013439 0.171777 0.776234
O O5 0.250236 0.314644 0.663159
O O6 0.500000 0.500000 0.000000
O O7 0.399814 0.101452 0.071677
O O8 0.092617 0.629580 0.329863
O O9 0.175819 0.500650 0.309623
O O10 0.356671 0.817575 0.520349
O O11 0.247957 0.765898 0.664254
O O12 0.411626 0.078515 0.640275
O O13 0.246894 0.114480 0.575227
O O14 0.500000 0.000000 0.000000
O O15 0.000000 0.500000 0.500000
O O16 0.500000 0.500000 0.500000
O O17 0.453008 0.797155 0.418196
O O18 0.437623 0.458153 0.659810
#
# Coordination Sequence:
#
# PCOD9097476 Si02
#       8
#     2   2   2   2   2   2   2   2
#     4  11  24  43  67  96 140 184 231 277 338 415
#     4  12  21  35  65 100 136 177 230 281 335 396
#     4  10  22  42  65  95 132 181 228 279 331 410
#     4  11  24  41  68 101 137 172 222 289 339 400
#     4  11  26  45  72  99 134 185 232 272 346 414
#     4  11  22  36  63 100 133 176 223 282 339 395
#     4  10  20  36  60  95 132 172 225 269 334 398
#     4  12  22  38  67  99 136 168 230 286 338 386
#
# _framework density 22.839846999999999
#
# number of rings (size 3 to 8) (size 9 to 14) (size 15 to 20)
#    0.000    1.000    5.000    1.875    3.500    2.000 
#    0.000    3.125    0.000    0.000    0.000    0.000 
#    0.000    0.000    0.000    0.000    0.000    0.000 
#
# Total GULP energy -89173.798250 kJ/mol
# GULP energy per Si atom -5573.362391 kJ/mol
# Density = 2.278786 g / cm^3
# Si number density = 22.839847 Si / 1000 Ang^3
#
#
#
# Elastic Constant Matrix: (Units=GPa)
#
#
# Indices 1 2 3 4 5 6 
#
# 1 130.3028 14.1738 15.9636 -6.3556 -6.3857 -9.9969
# 2 14.1738 44.7143 13.3678 -17.5121 0.3335 -1.1743
# 3 15.9636 13.3678 79.8290 -18.9407 2.0667 -6.8669
# 4 -6.3556 -17.5121 -18.9407 30.3813 -3.0111 1.9953
# 5 -6.3857 0.3335 2.0667 -3.0111 27.7868 -11.2332
# 6 -9.9969 -1.1743 -6.8669 1.9953 -11.2332 38.7886
#
#
#
# Elastic Compliance Matrix: (Units=1/GPa)
#
#
# Indices 1 2 3 4 5 6 
#
# 1 0.008437 -0.002347 -0.001179 -0.000194 0.003176 0.002824
# 2 -0.002347 0.029676 -0.000694 0.016285 0.000737 -0.000454
# 3 -0.001179 -0.000694 0.015099 0.008671 0.000366 0.002008
# 4 -0.000194 0.016285 0.008671 0.048074 0.004671 0.000858
# 5 0.003176 0.000737 0.000366 0.004671 0.042424 0.012951
# 6 0.002824 -0.000454 0.002008 0.000858 0.012951 0.030557
#
#
# Mechanical properties :
#
#
# Convention : Reuss Voigt Hill
#
# Bulk Modulus (GPa) = 22.33613 37.98407 30.16010
# Shear Modulus (GPa) = 25.29941 33.48074 29.39007
#
# Velocity S-wave (km/s) = 3.33180 3.83285 3.59108
# Velocity P-wave (km/s) = 4.96003 6.02116 5.51617
#
# Compressibility (1/GPa) = 0.04477051
#
# Stress axis : x y z
#
# Youngs Moduli (GPa) = 118.52425 33.69696 66.22741
#
# Poissons Ratio (x) = 0.07910 0.07811
# Poissons Ratio (y) = 0.27822 0.04599
# Poissons Ratio (z) = 0.13979 0.02340
#
# Static dielectric constant tensor:
#      x y z
#    x 1.953710 -0.001730 -0.011930 
#    y -0.001730 1.974760 -0.029390 
#    z -0.011930 -0.029390 1.837860 
# 
# From -- ./inp_files/279424.got.cif
#   From: 2010.05.17/outbox.cif.g08.bks.cpg/sg2_140_cif.got.tgz:279424.got - 2010.06.03 11:33:40.
