data_PCOD9097907
_publ_section_title
;
Structure prediction by ZEFSAII (Michael W. Deem and Ramdas Pophale) SiO2 
 PCOD9097907
Probable space group: P -1
;
_chemical_formula_sum "Si O2"
_cell_formula_units_Z 16
_cell_length_a 9.040193
_cell_length_b 9.866974
_cell_length_c 15.745897
_cell_angle_alpha 133.695034
_cell_angle_beta 77.854581
_cell_angle_gamma 73.966507
_cell_volume 796.909470
_symmetry_space_group_name_H-M "P -1"
_symmetry_group_IT_number 2
_symmetry_cell_setting 'triclinic'
loop_
_space_group_symop_operation_xyz
x,y,z
-x,-y,-z
loop_
_atom_site_type_symbol
_atom_site_label
_atom_site_fract_x
_atom_site_fract_y
_atom_site_fract_z
Si Si1 0.689435 0.882503 0.980801
Si Si2 0.667948 0.759594 0.555796
Si Si3 0.253929 0.540406 0.102860
Si Si4 0.494798 0.716311 0.395509
Si Si5 0.934243 0.871376 0.396596
Si Si6 0.516566 0.696924 0.190165
Si Si7 0.542198 0.674065 0.697984
Si Si8 0.071747 0.444657 0.319832
O O1 0.713064 0.674454 0.941397
O O2 0.857662 0.775126 0.845501
O O3 0.500000 0.000000 0.000000
O O4 0.639736 0.086641 0.137895
O O5 0.612965 0.746640 0.461300
O O6 0.555459 0.709140 0.612167
O O7 0.890959 0.552283 0.447681
O O8 0.603149 0.023670 0.693357
O O9 0.387621 0.608637 0.151242
O O10 0.046169 0.766194 0.249266
O O11 0.312520 0.451759 0.961217
O O12 0.574293 0.655543 0.263893
O O13 0.469805 0.527655 0.355360
O O14 0.285781 0.953886 0.515994
O O15 0.996412 0.655972 0.355371
O O16 0.000000 0.000000 0.500000
O O17 0.738663 0.619148 0.686042
#
# Coordination Sequence:
#
# PCOD9097907 Si02
#       8
#     2   2   2   2   2   2   2   2
#     4   9  18  35  59  89 117 153 198 250 304 347
#     4  12  24  40  58  95 126 157 200 252 305 361
#     4  10  20  36  62  93 117 152 205 258 292 349
#     4  12  24  40  62  87 129 167 192 243 315 362
#     4  11  18  37  63  92 117 154 206 246 297 362
#     4  11  21  37  60  89 123 153 199 254 298 347
#     4  11  22  41  62  86 122 162 207 244 296 366
#     4  10  20  36  64  89 116 155 207 253 297 347
#
# _framework density 20.077560999999999
#
# number of rings (size 3 to 8) (size 9 to 14) (size 15 to 20)
#    0.000    1.250    5.000    2.625    0.000    0.000 
#    0.000    2.500    0.000    0.000    0.000    0.000 
#    0.000    0.000    0.000    0.000    0.000    0.000 
#
# Total GULP energy -89272.523302 kJ/mol
# GULP energy per Si atom -5579.532706 kJ/mol
# Density = 2.003186 g / cm^3
# Si number density = 20.077561 Si / 1000 Ang^3
#
#
#
# Elastic Constant Matrix: (Units=GPa)
#
#
# Indices 1 2 3 4 5 6 
#
# 1 36.0338 10.9293 29.4321 -6.9133 0.5833 -9.0582
# 2 10.9293 78.8424 44.2919 -6.6834 8.7885 3.9052
# 3 29.4321 44.2919 160.3590 -19.3341 -6.7876 1.7231
# 4 -6.9133 -6.6834 -19.3341 26.9520 -4.5328 0.4593
# 5 0.5833 8.7885 -6.7876 -4.5328 12.1109 -3.0503
# 6 -9.0582 3.9052 1.7231 0.4593 -3.0503 27.0495
#
#
#
# Elastic Compliance Matrix: (Units=1/GPa)
#
#
# Indices 1 2 3 4 5 6 
#
# 1 0.037405 -0.002503 -0.005615 0.005078 0.002143 0.013401
# 2 -0.002503 0.018359 -0.005760 -0.003326 -0.018986 -0.005206
# 3 -0.005615 -0.005760 0.010180 0.006544 0.012505 -0.000398
# 4 0.005078 -0.003326 0.006544 0.046262 0.024081 0.003694
# 5 0.002143 -0.018986 0.012505 0.024081 0.116131 0.015349
# 6 0.013401 -0.005206 -0.000398 0.003694 0.015349 0.043902
#
#
# Mechanical properties :
#
#
# Convention : Reuss Voigt Hill
#
# Bulk Modulus (GPa) = 26.18620 49.39351 37.78985
# Shear Modulus (GPa) = 15.98849 25.92795 20.95822
#
# Velocity S-wave (km/s) = 2.82500 3.59749 3.23439
# Velocity P-wave (km/s) = 4.86947 6.47384 5.72810
#
# Compressibility (1/GPa) = 0.03818805
#
# Stress axis : x y z
#
# Youngs Moduli (GPa) = 26.73410 54.47027 98.23111
#
# Poissons Ratio (x) = 0.13634 0.55157
# Poissons Ratio (y) = 0.06692 0.56581
# Poissons Ratio (z) = 0.15011 0.31375
#
# Static dielectric constant tensor:
#      x y z
#    x 1.780090 -0.019900 0.022700 
#    y -0.019900 1.727160 -0.053260 
#    z 0.022700 -0.053260 1.790510 
# 
# From -- ./inp_files/270491.got.cif
#   From: 2010.05.17/outbox.cif.g08.bks.cpg/sg2_136_cif.got.tgz:270491.got - 2010.06.03 11:33:40.
