data_PCOD9097411
_publ_section_title
;
Structure prediction by ZEFSAII (Michael W. Deem and Ramdas Pophale) SiO2 
 PCOD9097411
Probable space group: P -1
;
_chemical_formula_sum "Si O2"
_cell_formula_units_Z 16
_cell_length_a 13.936189
_cell_length_b 13.966801
_cell_length_c 10.955006
_cell_angle_alpha 46.276721
_cell_angle_beta 31.229136
_cell_angle_gamma 46.698569
_cell_volume 772.949567
_symmetry_space_group_name_H-M "P -1"
_symmetry_group_IT_number 2
_symmetry_cell_setting 'triclinic'
loop_
_space_group_symop_operation_xyz
x,y,z
-x,-y,-z
loop_
_atom_site_type_symbol
_atom_site_label
_atom_site_fract_x
_atom_site_fract_y
_atom_site_fract_z
Si Si1 0.844433 0.950585 0.371774
Si Si2 0.933199 0.733545 0.673068
Si Si3 0.540741 0.564847 0.772378
Si Si4 0.531131 0.839772 0.451570
Si Si5 0.990768 0.523908 0.344510
Si Si6 0.648815 0.395060 0.580063
Si Si7 0.050339 0.177531 0.886363
Si Si8 0.636986 0.679365 0.226085
O O1 0.868707 0.868665 0.542959
O O2 0.940588 0.852612 0.242018
O O3 0.625339 0.017961 0.514595
O O4 0.944339 0.075784 0.155240
O O5 0.908364 0.608707 0.723865
O O6 0.156474 0.701415 0.494219
O O7 0.804842 0.729042 0.934211
O O8 0.452155 0.727456 0.713810
O O9 0.767132 0.553127 0.529531
O O10 0.512202 0.471989 0.770948
O O11 0.500000 0.500000 0.000000
O O12 0.731395 0.852559 0.277327
O O13 0.568585 0.770384 0.338988
O O14 0.048497 0.662615 0.126636
O O15 0.000000 0.500000 0.500000
O O16 0.701456 0.520519 0.338904
O O17 0.534089 0.317921 0.685030
#
# Coordination Sequence:
#
# PCOD9097411 Si02
#       8
#     2   2   2   2   2   2   2   2
#     4  11  24  39  63  91 123 166 195 244 318 365
#     4  11  23  39  64  93 120 157 206 251 300 363
#     4   9  20  33  59  91 119 155 197 253 305 352
#     4  10  23  41  58  87 123 164 206 243 301 366
#     4  10  20  36  60  91 118 149 199 248 300 354
#     4   9  21  39  59  91 123 156 204 256 304 355
#     4  10  23  42  61  88 128 159 196 252 308 364
#     4  10  22  40  63  86 122 165 205 252 303 348
#
# _framework density 20.699928
#
# number of rings (size 3 to 8) (size 9 to 14) (size 15 to 20)
#    0.000    2.000    1.250    1.500    3.500    5.500 
#    0.000    1.250    0.000    0.000    0.000    0.000 
#    0.000    0.000    0.000    0.000    0.000    0.000 
#
# Total GULP energy -89420.598030 kJ/mol
# GULP energy per Si atom -5588.787377 kJ/mol
# Density = 2.065281 g / cm^3
# Si number density = 20.699928 Si / 1000 Ang^3
#
#
#
# Elastic Constant Matrix: (Units=GPa)
#
#
# Indices 1 2 3 4 5 6 
#
# 1 83.0961 7.3900 11.9138 -10.5893 -0.9662 -5.3194
# 2 7.3900 57.9723 17.6361 -14.9091 8.8570 -14.3412
# 3 11.9138 17.6361 70.2757 -13.9232 9.6287 -5.0201
# 4 -10.5893 -14.9091 -13.9232 18.7515 -1.2681 1.0626
# 5 -0.9662 8.8570 9.6287 -1.2681 36.4336 -2.0415
# 6 -5.3194 -14.3412 -5.0201 1.0626 -2.0415 38.0862
#
#
#
# Elastic Compliance Matrix: (Units=1/GPa)
#
#
# Indices 1 2 3 4 5 6 
#
# 1 0.013160 0.000848 -0.000960 0.007338 0.000757 0.001867
# 2 0.000848 0.025233 -0.001548 0.018592 -0.004570 0.008652
# 3 -0.000960 -0.001548 0.017553 0.010938 -0.003846 0.001085
# 4 0.007338 0.018592 0.010938 0.079705 -0.004048 0.007027
# 5 0.000757 -0.004570 -0.003846 -0.004048 0.029430 -0.000432
# 6 0.001867 0.008652 0.001085 0.007027 -0.000432 0.029699
#
#
# Mechanical properties :
#
#
# Convention : Reuss Voigt Hill
#
# Bulk Modulus (GPa) = 19.00276 31.69153 25.34715
# Shear Modulus (GPa) = 23.18669 30.28121 26.73395
#
# Velocity S-wave (km/s) = 3.35047 3.82889 3.59764
# Velocity P-wave (km/s) = 4.91605 5.90681 5.43406
#
# Compressibility (1/GPa) = 0.05262394
#
# Stress axis : x y z
#
# Youngs Moduli (GPa) = 75.98814 39.63138 56.97146
#
# Poissons Ratio (x) = -0.03360 0.05471
# Poissons Ratio (y) = -0.06443 0.08821
# Poissons Ratio (z) = 0.07297 0.06136
#
# Static dielectric constant tensor:
#      x y z
#    x 1.770430 -0.017940 -0.004730 
#    y -0.017940 1.767760 -0.032120 
#    z -0.004730 -0.032120 1.764770 
# 
# From -- ./inp_files/454458.got.cif
#   From: 2010.05.17/outbox.cif.g08.bks.cpg/sg2_228_cif.got.tgz:454458.got - 2010.06.03 11:33:40.
