data_PCOD9097480
_publ_section_title
;
Structure prediction by ZEFSAII (Michael W. Deem and Ramdas Pophale) SiO2 
 PCOD9097480
Probable space group: P -1
;
_chemical_formula_sum "Si O2"
_cell_formula_units_Z 16
_cell_length_a 11.602993
_cell_length_b 22.139637
_cell_length_c 7.808065
_cell_angle_alpha 62.955457
_cell_angle_beta 115.487241
_cell_angle_gamma 156.733883
_cell_volume 705.201871
_symmetry_space_group_name_H-M "P -1"
_symmetry_group_IT_number 2
_symmetry_cell_setting 'triclinic'
loop_
_space_group_symop_operation_xyz
x,y,z
-x,-y,-z
loop_
_atom_site_type_symbol
_atom_site_label
_atom_site_fract_x
_atom_site_fract_y
_atom_site_fract_z
Si Si1 0.178700 0.817917 0.553961
Si Si2 0.236454 0.269920 0.742415
Si Si3 0.123614 0.000545 0.956653
Si Si4 0.629989 0.775888 0.397274
Si Si5 0.316836 0.431857 0.206770
Si Si6 0.719839 0.279037 0.186086
Si Si7 0.003449 0.469603 0.789650
Si Si8 0.603485 0.439443 0.245936
O O1 0.197753 0.747476 0.619879
O O2 0.976497 0.769295 0.375357
O O3 0.017486 0.744026 0.732565
O O4 0.500000 0.000000 0.500000
O O5 0.241016 0.216738 0.664596
O O6 0.551429 0.454169 0.716751
O O7 0.110867 0.171509 0.956845
O O8 0.203352 0.074039 0.732107
O O9 0.419527 0.121980 0.093044
O O10 0.000000 0.000000 0.000000
O O11 0.612480 0.726049 0.627107
O O12 0.295184 0.633995 0.312690
O O13 0.502980 0.451248 0.295147
O O14 0.378153 0.505513 0.982927
O O15 0.742602 0.355456 0.224212
O O16 0.943509 0.401475 0.016724
O O17 0.097865 0.461378 0.715545
#
# Coordination Sequence:
#
# PCOD9097480 Si02
#       8
#     2   2   2   2   2   2   2   2
#     4  12  22  39  68  94 126 160 213 267 304 363
#     4  11  22  41  67  93 122 165 217 259 305 365
#     4   9  20  36  61  90 126 156 206 265 307 357
#     4  10  21  38  63  94 125 162 212 258 311 374
#     4  11  25  41  65  94 127 168 211 255 311 383
#     4  10  20  36  60  96 118 162 216 256 305 367
#     4  10  21  36  63  88 127 164 207 260 308 368
#     4  11  23  40  62  93 132 166 203 259 321 371
#
# _framework density 22.68854
#
# number of rings (size 3 to 8) (size 9 to 14) (size 15 to 20)
#    0.000    1.500    3.750    1.500    7.000    0.000 
#    0.000    0.625    5.500    6.000    0.000    0.000 
#    0.000    0.000    0.000    0.000    0.000    0.000 
#
# Total GULP energy -89069.374015 kJ/mol
# GULP energy per Si atom -5566.835876 kJ/mol
# Density = 2.263690 g / cm^3
# Si number density = 22.688540 Si / 1000 Ang^3
#
#
#
# Elastic Constant Matrix: (Units=GPa)
#
#
# Indices 1 2 3 4 5 6 
#
# 1 84.9762 37.3760 26.5240 -11.8171 22.3447 9.7007
# 2 37.3760 103.9449 37.5171 -29.5332 8.7701 6.9376
# 3 26.5240 37.5171 150.1628 -47.4892 24.8523 -3.0994
# 4 -11.8171 -29.5332 -47.4892 36.6241 -0.1484 5.4656
# 5 22.3447 8.7701 24.8523 -0.1484 37.3461 -4.8991
# 6 9.7007 6.9376 -3.0994 5.4656 -4.8991 17.9904
#
#
#
# Elastic Compliance Matrix: (Units=1/GPa)
#
#
# Indices 1 2 3 4 5 6 
#
# 1 0.019075 -0.002905 0.002199 0.008896 -0.014172 -0.015349
# 2 -0.002905 0.015444 0.002252 0.015926 -0.004650 -0.010106
# 3 0.002199 0.002252 0.015159 0.023653 -0.013178 -0.010217
# 4 0.008896 0.015926 0.023653 0.079394 -0.029609 -0.039047
# 5 -0.014172 -0.004650 -0.013178 -0.029609 0.048865 0.029467
# 6 -0.015349 -0.010106 -0.010217 -0.039047 0.029467 0.085885
#
#
# Mechanical properties :
#
#
# Convention : Reuss Voigt Hill
#
# Bulk Modulus (GPa) = 18.95012 60.21314 39.58163
# Shear Modulus (GPa) = 17.96488 34.23657 26.10073
#
# Velocity S-wave (km/s) = 2.81695 3.88877 3.39542
# Velocity P-wave (km/s) = 4.35324 6.83813 5.73196
#
# Compressibility (1/GPa) = 0.05277012
#
# Stress axis : x y z
#
# Youngs Moduli (GPa) = 52.42385 64.75053 65.96867
#
# Poissons Ratio (x) = 0.18808 -0.14504
# Poissons Ratio (y) = 0.15227 -0.14858
# Poissons Ratio (z) = -0.11526 -0.14583
#
# Static dielectric constant tensor:
#      x y z
#    x 1.845810 -0.026340 -0.012930 
#    y -0.026340 2.071270 0.071530 
#    z -0.012930 0.071530 1.949010 
# 
# From -- ./inp_files/285158.got.cif
#   From: 2010.05.17/outbox.cif.g08.bks.cpg/sg2_143_cif.got.tgz:285158.got - 2010.06.03 11:33:40.
