data_PCOD9097942
_publ_section_title
;
Structure prediction by ZEFSAII (Michael W. Deem and Ramdas Pophale) SiO2 
 PCOD9097942
Probable space group: P -1
;
_chemical_formula_sum "Si O2"
_cell_formula_units_Z 14
_cell_length_a 5.247901
_cell_length_b 11.817291
_cell_length_c 22.095404
_cell_angle_alpha 30.677617
_cell_angle_beta 90.808044
_cell_angle_gamma 109.394200
_cell_volume 544.498151
_symmetry_space_group_name_H-M "P -1"
_symmetry_group_IT_number 2
_symmetry_cell_setting 'triclinic'
loop_
_space_group_symop_operation_xyz
x,y,z
-x,-y,-z
loop_
_atom_site_type_symbol
_atom_site_label
_atom_site_fract_x
_atom_site_fract_y
_atom_site_fract_z
Si Si1 0.256685 0.763089 0.267495
Si Si2 0.703621 0.312523 0.939423
Si Si3 0.788292 0.878611 0.713208
Si Si4 0.866449 0.877523 0.285305
Si Si5 0.832395 0.562385 0.699670
Si Si6 0.822128 0.543206 0.030760
Si Si7 0.616241 0.872343 0.580161
O O1 0.172652 0.532175 0.324208
O O2 0.960253 0.698048 0.336229
O O3 0.540717 0.816054 0.286991
O O4 0.396292 0.037089 0.098647
O O5 0.771425 0.604355 0.826648
O O6 0.738031 0.341749 0.854535
O O7 0.993444 0.332757 0.961890
O O8 0.105087 0.115393 0.644701
O O9 0.490899 0.764917 0.809032
O O10 0.695955 0.933899 0.623645
O O11 0.159854 0.205425 0.113919
O O12 0.523329 0.567364 0.702627
O O13 0.250619 0.804177 0.600636
O O14 0.000000 0.500000 0.000000
O O15 0.000000 0.000000 0.500000
#
# Coordination Sequence:
#
# PCOD9097942 Si02
#       7
#     2   2   2   2   2   2   2
#     4  11  24  41  63  96 136 166 203 258 329 389
#     4  10  20  36  62  94 127 164 204 260 318 377
#     4  11  20  37  62  94 124 164 217 257 310 375
#     4  11  23  38  61  98 130 171 201 257 324 382
#     4  10  23  43  62  90 122 166 215 263 315 376
#     4  11  19  33  59  95 134 159 202 262 314 380
#     4  10  23  43  68  87 116 166 221 272 307 364
#
# _framework density 25.711752000000001
#
# number of rings (size 3 to 8) (size 9 to 14) (size 15 to 20)
#    0.000    1.429    2.857    3.429    2.000    0.000 
#    0.000    3.571    0.000    0.000    0.000    0.000 
#    0.000    0.000    0.000    0.000    0.000    0.000 
#
# Total GULP energy -78035.314231 kJ/mol
# GULP energy per Si atom -5573.951016 kJ/mol
# Density = 2.565323 g / cm^3
# Si number density = 25.711752 Si / 1000 Ang^3
#
#
#
# Elastic Constant Matrix: (Units=GPa)
#
#
# Indices 1 2 3 4 5 6 
#
# 1 146.2244 76.9910 55.8092 25.7705 26.0316 -8.1154
# 2 76.9910 147.6490 27.5576 28.6983 25.4870 -6.3914
# 3 55.8092 27.5576 80.9158 15.0544 10.3106 8.1435
# 4 25.7705 28.6983 15.0544 29.9507 8.7387 5.3166
# 5 26.0316 25.4870 10.3106 8.7387 38.4937 8.2818
# 6 -8.1154 -6.3914 8.1435 5.3166 8.2818 31.9092
#
#
#
# Elastic Compliance Matrix: (Units=1/GPa)
#
#
# Indices 1 2 3 4 5 6 
#
# 1 0.013662 -0.003751 -0.007382 -0.004092 -0.005282 0.006660
# 2 -0.003751 0.010779 0.000331 -0.006716 -0.003862 0.003242
# 3 -0.007382 0.000331 0.018223 -0.002512 0.001866 -0.006528
# 4 -0.004092 -0.006716 -0.002512 0.046452 -0.000654 -0.009315
# 5 -0.005282 -0.003862 0.001866 -0.000654 0.034201 -0.011361
# 6 0.006660 0.003242 -0.006528 -0.009315 -0.011361 0.039849
#
#
# Mechanical properties :
#
#
# Convention : Reuss Voigt Hill
#
# Bulk Modulus (GPa) = 47.47696 77.27831 62.37764
# Shear Modulus (GPa) = 26.07033 34.36615 30.21824
#
# Velocity S-wave (km/s) = 3.18771 3.65991 3.43194
# Velocity P-wave (km/s) = 5.66161 6.92682 6.32592
#
# Compressibility (1/GPa) = 0.02106285
#
# Stress axis : x y z
#
# Youngs Moduli (GPa) = 73.19413 92.77022 54.87469
#
# Poissons Ratio (x) = 0.34797 0.40506
# Poissons Ratio (y) = 0.27454 -0.01818
# Poissons Ratio (z) = 0.54028 -0.03074
#
# Static dielectric constant tensor:
#      x y z
#    x 2.082850 0.100460 -0.186730 
#    y 0.100460 1.977460 -0.030230 
#    z -0.186730 -0.030230 2.069050 
# 
# From -- ./inp_files/82629.got.cif
#   From: 2010.05.17/outbox.cif.g08.bks.cpg/sg2_42_cif.got.tgz:82629.got - 2010.06.03 11:33:40.
