data_PCOD9097167
_publ_section_title
;
Structure prediction by ZEFSAII (Michael W. Deem and Ramdas Pophale) SiO2 
 PCOD9097167
Probable space group: P -1
;
_chemical_formula_sum "Si O2"
_cell_formula_units_Z 16
_cell_length_a 13.630779
_cell_length_b 14.036475
_cell_length_c 9.041672
_cell_angle_alpha 62.923190
_cell_angle_beta 87.250893
_cell_angle_gamma 34.908134
_cell_volume 678.426559
_symmetry_space_group_name_H-M "P -1"
_symmetry_group_IT_number 2
_symmetry_cell_setting 'triclinic'
loop_
_space_group_symop_operation_xyz
x,y,z
-x,-y,-z
loop_
_atom_site_type_symbol
_atom_site_label
_atom_site_fract_x
_atom_site_fract_y
_atom_site_fract_z
Si Si1 0.695694 0.491183 0.856330
Si Si2 0.070701 0.242084 0.419659
Si Si3 0.725119 0.748797 0.077419
Si Si4 0.740656 0.182552 0.269133
Si Si5 0.137340 0.176228 0.113043
Si Si6 0.493081 0.100728 0.314383
Si Si7 0.479559 0.357846 0.564744
Si Si8 0.182841 0.796665 0.427724
O O1 0.520968 0.588905 0.896294
O O2 0.597389 0.705419 0.738278
O O3 0.643830 0.511395 0.677076
O O4 0.951799 0.265931 0.033313
O O5 0.111177 0.229783 0.250910
O O6 0.848143 0.521640 0.285132
O O7 0.130981 0.057455 0.548338
O O8 0.257865 0.113345 0.598888
O O9 0.881562 0.700633 0.076501
O O10 0.652727 0.788836 0.889829
O O11 0.500000 0.000000 0.000000
O O12 0.769215 0.217976 0.395612
O O13 0.917552 0.061336 0.228238
O O14 0.382474 0.886726 0.271012
O O15 0.500000 0.000000 0.500000
O O16 0.295101 0.572460 0.544392
O O17 0.674352 0.256608 0.634902
#
# Coordination Sequence:
#
# PCOD9097167 Si02
#       8
#     2   2   2   2   2   2   2   2
#     4  10  20  36  59  90 115 157 209 243 295 374
#     4  11  21  39  65  86 118 169 205 246 304 375
#     4  12  27  40  59  96 128 157 208 263 304 360
#     4   9  19  38  63  90 117 161 204 249 310 360
#     4  12  21  40  63  87 123 164 204 245 309 376
#     4  11  19  38  65  84 116 166 210 244 299 371
#     4  10  20  38  63  90 120 162 200 252 309 360
#     4   9  18  37  65  86 122 157 201 256 305 362
#
# _framework density 23.583981999999999
#
# number of rings (size 3 to 8) (size 9 to 14) (size 15 to 20)
#    0.000    1.500    6.250    1.125    1.750    0.500 
#    4.500    6.250    0.000    0.000    0.000    0.000 
#    0.000    0.000    0.000    0.000    0.000    0.000 
#
# Total GULP energy -89262.741446 kJ/mol
# GULP energy per Si atom -5578.921340 kJ/mol
# Density = 2.353030 g / cm^3
# Si number density = 23.583982 Si / 1000 Ang^3
#
#
#
# Elastic Constant Matrix: (Units=GPa)
#
#
# Indices 1 2 3 4 5 6 
#
# 1 105.8470 32.1010 13.8285 1.6160 12.1303 -4.7289
# 2 32.1010 102.4716 5.0128 -45.4432 11.9730 0.3971
# 3 13.8285 5.0128 46.5252 -28.9144 20.4959 -6.3026
# 4 1.6160 -45.4432 -28.9144 26.4239 -7.4863 -3.5341
# 5 12.1303 11.9730 20.4959 -7.4863 33.8309 -11.7503
# 6 -4.7289 0.3971 -6.3026 -3.5341 -11.7503 31.7138
#
#
#
# Elastic Compliance Matrix: (Units=1/GPa)
#
#
# Indices 1 2 3 4 5 6 
#
# 1 0.007880 0.003431 0.007839 0.012820 -0.005189 0.002196
# 2 0.003431 -0.003357 -0.020967 -0.028283 0.004651 -0.005042
# 3 0.007839 -0.020967 -0.004451 -0.043433 -0.004357 -0.005907
# 4 0.012820 -0.028283 -0.043433 -0.054961 0.017475 -0.006016
# 5 -0.005189 0.004651 -0.004357 0.017475 0.041738 0.015714
# 6 0.002196 -0.005042 -0.005907 -0.006016 0.015714 0.035900
#
#
# Mechanical properties :
#
#
# Convention : Reuss Voigt Hill
#
# Bulk Modulus (GPa) = -51.75336 39.63649 -6.05844
# Shear Modulus (GPa) = 140.04020 31.98714 86.01367
#
# Velocity S-wave (km/s) = 7.71416 3.68680 6.04569
# Velocity P-wave (km/s) = 7.57314 5.91324 6.79407
#
# Compressibility (1/GPa) = -0.01932242
#
# Stress axis : x y z
#
# Youngs Moduli (GPa) = 126.90299 -297.89357 -224.68583
#
# Poissons Ratio (x) = 1.02205 1.76127
# Poissons Ratio (y) = -0.43540 -4.71104
# Poissons Ratio (z) = -0.99477 -6.24600
#
# Static dielectric constant tensor:
#      x y z
#    x 1.894150 -0.051300 -0.054820 
#    y -0.051300 1.903050 -0.083110 
#    z -0.054820 -0.083110 1.903840 
# 
# From -- ./inp_files/314905.got.cif
#   From: 2010.05.17/outbox.cif.g08.bks.cpg/sg2_158_cif.got.tgz:314905.got - 2010.06.03 11:33:40.
