data_PCOD9097688
_publ_section_title
;
Structure prediction by ZEFSAII (Michael W. Deem and Ramdas Pophale) SiO2 
 PCOD9097688
Probable space group: P -1
;
_chemical_formula_sum "Si O2"
_cell_formula_units_Z 14
_cell_length_a 11.454456
_cell_length_b 17.496943
_cell_length_c 7.925546
_cell_angle_alpha 105.647637
_cell_angle_beta 127.714148
_cell_angle_gamma 31.375474
_cell_volume 516.791948
_symmetry_space_group_name_H-M "P -1"
_symmetry_group_IT_number 2
_symmetry_cell_setting 'triclinic'
loop_
_space_group_symop_operation_xyz
x,y,z
-x,-y,-z
loop_
_atom_site_type_symbol
_atom_site_label
_atom_site_fract_x
_atom_site_fract_y
_atom_site_fract_z
Si Si1 0.535667 0.203199 0.375626
Si Si2 0.184706 0.404561 0.841677
Si Si3 0.690908 0.296265 0.671129
Si Si4 0.903815 0.302407 0.604628
Si Si5 0.729374 0.791235 0.410631
Si Si6 0.375691 0.486215 0.995185
Si Si7 0.950557 0.933619 0.856950
O O1 0.731337 0.192111 0.556583
O O2 0.795131 0.013885 0.578668
O O3 0.187509 0.385256 0.290123
O O4 0.398878 0.260553 0.100068
O O5 0.154467 0.351529 0.643386
O O6 0.393556 0.380629 0.948956
O O7 0.951759 0.231902 0.777635
O O8 0.300651 0.516750 0.430755
O O9 0.728935 0.265712 0.888322
O O10 0.604026 0.396159 0.305995
O O11 0.195855 0.182501 0.657361
O O12 0.349988 0.961985 0.240497
O O13 0.967250 0.695925 0.724826
O O14 0.500000 0.500000 0.000000
O O15 0.000000 0.000000 0.000000
#
# Coordination Sequence:
#
# PCOD9097688 Si02
#       7
#     2   2   2   2   2   2   2
#     4  10  20  36  61  94 124 157 203 257 303 354
#     4  11  20  36  67  90 119 159 214 251 291 369
#     4  10  20  39  61  89 127 161 200 254 311 363
#     4  10  21  39  66  90 119 164 210 250 304 364
#     4  11  22  39  65  92 118 166 210 250 304 366
#     4  10  21  34  59  95 121 146 207 264 292 347
#     4  10  23  39  59  90 131 158 201 259 314 356
#
# _framework density 27.090206999999999
#
# number of rings (size 3 to 8) (size 9 to 14) (size 15 to 20)
#    0.000    1.714    4.286    0.429    0.000    1.714 
#    0.000    3.571    9.429    0.000    0.000    0.000 
#    0.000    0.000    0.000    0.000    0.000    0.000 
#
# Total GULP energy -78181.581461 kJ/mol
# GULP energy per Si atom -5584.398676 kJ/mol
# Density = 2.702855 g / cm^3
# Si number density = 27.090207 Si / 1000 Ang^3
#
#
#
# Elastic Constant Matrix: (Units=GPa)
#
#
# Indices 1 2 3 4 5 6 
#
# 1 184.8356 12.6155 41.9785 -12.4648 -11.7911 12.4971
# 2 12.6155 45.0452 13.3395 12.9429 1.8034 9.3064
# 3 41.9785 13.3395 117.4001 -4.8943 -18.7536 5.4157
# 4 -12.4648 12.9429 -4.8943 32.9176 14.1960 5.9573
# 5 -11.7911 1.8034 -18.7536 14.1960 55.5631 -7.5280
# 6 12.4971 9.3064 5.4157 5.9573 -7.5280 23.8376
#
#
#
# Elastic Compliance Matrix: (Units=1/GPa)
#
#
# Indices 1 2 3 4 5 6 
#
# 1 0.006382 -0.001536 -0.001899 0.003627 -0.000627 -0.003419
# 2 -0.001536 0.027949 -0.002814 -0.010541 -0.000434 -0.006970
# 3 -0.001899 -0.002814 0.009989 0.000440 0.003039 0.000674
# 4 0.003627 -0.010541 0.000440 0.043104 -0.011414 -0.012263
# 5 -0.000627 -0.000434 0.003039 -0.011414 0.023172 0.009978
# 6 -0.003419 -0.006970 0.000674 -0.012263 0.009978 0.052527
#
#
# Mechanical properties :
#
#
# Convention : Reuss Voigt Hill
#
# Bulk Modulus (GPa) = 31.42278 53.68308 42.55293
# Shear Modulus (GPa) = 26.84873 41.08682 33.96777
#
# Velocity S-wave (km/s) = 3.15157 3.89867 3.54485
# Velocity P-wave (km/s) = 4.98675 6.33447 5.70058
#
# Compressibility (1/GPa) = 0.03182405
#
# Stress axis : x y z
#
# Youngs Moduli (GPa) = 156.68881 35.77894 100.10831
#
# Poissons Ratio (x) = 0.05495 0.19007
# Poissons Ratio (y) = 0.24065 0.28169
# Poissons Ratio (z) = 0.29750 0.10067
#
# Static dielectric constant tensor:
#      x y z
#    x 2.161170 -0.063320 -0.118650 
#    y -0.063320 2.315880 -0.000850 
#    z -0.118650 -0.000850 2.273970 
# 
# From -- ./inp_files/261515.got.cif
#   From: 2010.05.17/outbox.cif.g08.bks.cpg/sg2_131_cif.got.tgz:261515.got - 2010.06.03 11:33:40.
