data_PCOD9097526
_publ_section_title
;
Structure prediction by ZEFSAII (Michael W. Deem and Ramdas Pophale) SiO2 
 PCOD9097526
Probable space group: P -1
;
_chemical_formula_sum "Si O2"
_cell_formula_units_Z 16
_cell_length_a 7.101446
_cell_length_b 22.792143
_cell_length_c 8.028582
_cell_angle_alpha 146.931470
_cell_angle_beta 69.931729
_cell_angle_gamma 117.789172
_cell_volume 624.224653
_symmetry_space_group_name_H-M "P -1"
_symmetry_group_IT_number 2
_symmetry_cell_setting 'triclinic'
loop_
_space_group_symop_operation_xyz
x,y,z
-x,-y,-z
loop_
_atom_site_type_symbol
_atom_site_label
_atom_site_fract_x
_atom_site_fract_y
_atom_site_fract_z
Si Si1 0.639710 0.292085 0.717241
Si Si2 0.990876 0.743293 0.286653
Si Si3 0.083857 0.988469 0.762023
Si Si4 0.006727 0.387710 0.317272
Si Si5 0.240638 0.808824 0.886421
Si Si6 0.631120 0.528229 0.356714
Si Si7 0.780419 0.767323 0.745066
Si Si8 0.381817 0.045108 0.298993
O O1 0.862567 0.316467 0.806350
O O2 0.652345 0.239257 0.407957
O O3 0.490763 0.181733 0.603398
O O4 0.592680 0.409114 0.992528
O O5 0.130434 0.871283 0.485166
O O6 0.834623 0.754540 0.504845
O O7 0.879367 0.669545 0.986315
O O8 0.864524 0.965333 0.674560
O O9 0.000000 0.000000 0.000000
O O10 0.253478 0.110510 0.945430
O O11 0.124270 0.428897 0.552520
O O12 0.000000 0.500000 0.500000
O O13 0.794846 0.280426 0.165631
O O14 0.002471 0.793898 0.847732
O O15 0.358831 0.944184 0.198313
O O16 0.500000 0.500000 0.500000
O O17 0.616709 0.643281 0.552980
O O18 0.500000 0.000000 0.000000
#
# Coordination Sequence:
#
# PCOD9097526 Si02
#       8
#     2   2   2   2   2   2   2   2
#     4  10  20  37  61  82 111 154 185 225 280 342
#     4  10  20  36  61  86 109 147 189 232 283 321
#     4   9  17  34  60  87 110 141 190 235 271 324
#     4  11  22  38  57  83 114 144 190 240 273 327
#     4   8  18  35  59  84 106 146 192 225 272 335
#     4  11  24  40  55  80 117 150 188 228 282 335
#     4   8  18  37  60  81 108 150 189 222 271 343
#     4   9  17  34  57  86 113 143 187 227 276 334
#
# _framework density 25.631799000000001
#
# number of rings (size 3 to 8) (size 9 to 14) (size 15 to 20)
#    0.000    2.500    1.250    2.250    3.500    1.500 
#    2.250    9.375    0.000    0.000    0.000    0.000 
#    0.000    0.000    0.000    0.000    0.000    0.000 
#
# Total GULP energy -89224.813094 kJ/mol
# GULP energy per Si atom -5576.550818 kJ/mol
# Density = 2.557346 g / cm^3
# Si number density = 25.631799 Si / 1000 Ang^3
#
#
#
# Elastic Constant Matrix: (Units=GPa)
#
#
# Indices 1 2 3 4 5 6 
#
# 1 53.7411 2.4493 5.9907 8.8083 -10.5454 -6.4922
# 2 2.4493 139.4902 56.3431 59.6157 -13.4702 -5.3045
# 3 5.9907 56.3431 147.1598 39.7984 -8.3304 -7.2602
# 4 8.8083 59.6157 39.7984 41.9688 -10.2491 -1.3856
# 5 -10.5454 -13.4702 -8.3304 -10.2491 23.4074 7.6656
# 6 -6.4922 -5.3045 -7.2602 -1.3856 7.6656 17.6574
#
#
#
# Elastic Compliance Matrix: (Units=1/GPa)
#
#
# Indices 1 2 3 4 5 6 
#
# 1 0.021894 0.004267 0.000731 -0.009591 0.006379 0.006110
# 2 0.004267 0.019419 0.000465 -0.029069 -0.001404 0.005923
# 3 0.000731 0.000465 0.009413 -0.010054 -0.001863 0.004299
# 4 -0.009591 -0.029069 -0.010054 0.080008 0.015991 -0.017057
# 5 0.006379 -0.001404 -0.001863 0.015991 0.058678 -0.023062
# 6 0.006110 0.005923 0.004299 -0.017057 -0.023062 0.071100
#
#
# Mechanical properties :
#
#
# Convention : Reuss Voigt Hill
#
# Bulk Modulus (GPa) = 16.21958 52.21748 34.21853
# Shear Modulus (GPa) = 18.50925 34.98059 26.74492
#
# Velocity S-wave (km/s) = 2.69015 3.69824 3.23372
# Velocity P-wave (km/s) = 3.99885 6.21710 5.22700
#
# Compressibility (1/GPa) = 0.06165389
#
# Stress axis : x y z
#
# Youngs Moduli (GPa) = 45.67558 51.49519 106.23641
#
# Poissons Ratio (x) = -0.21975 -0.07767
# Poissons Ratio (y) = -0.19492 -0.04945
# Poissons Ratio (z) = -0.03339 -0.02397
#
# Static dielectric constant tensor:
#      x y z
#    x 2.185580 0.043380 0.067290 
#    y 0.043380 2.066780 0.022930 
#    z 0.067290 0.022930 2.060670 
# 
# From -- ./inp_files/176682.got.cif
#   From: 2010.05.17/outbox.cif.g08.bks.cpg/sg2_89_cif.got.tgz:176682.got - 2010.06.03 11:33:40.
