data_PCOD9097677
_publ_section_title
;
Structure prediction by ZEFSAII (Michael W. Deem and Ramdas Pophale) SiO2 
 PCOD9097677
Probable space group: P -1
;
_chemical_formula_sum "Si O2"
_cell_formula_units_Z 16
_cell_length_a 29.642388
_cell_length_b 9.856424
_cell_length_c 9.048690
_cell_angle_alpha 147.014613
_cell_angle_beta 29.228536
_cell_angle_gamma 151.969654
_cell_volume 578.996842
_symmetry_space_group_name_H-M "P -1"
_symmetry_group_IT_number 2
_symmetry_cell_setting 'triclinic'
loop_
_space_group_symop_operation_xyz
x,y,z
-x,-y,-z
loop_
_atom_site_type_symbol
_atom_site_label
_atom_site_fract_x
_atom_site_fract_y
_atom_site_fract_z
Si Si1 0.601632 0.863548 0.525043
Si Si2 0.429803 0.013251 0.574256
Si Si3 0.214055 0.204541 0.204011
Si Si4 0.609425 0.649760 0.595267
Si Si5 0.212597 0.431195 0.114090
Si Si6 0.749314 0.977149 0.780231
Si Si7 0.995573 0.586505 0.257202
Si Si8 0.054818 0.879687 0.835941
O O1 0.500000 0.500000 0.500000
O O2 0.571878 0.034972 0.646490
O O3 0.625803 0.906816 0.671519
O O4 0.713144 0.906599 0.180177
O O5 0.483396 0.374248 0.737989
O O6 0.500000 0.000000 0.500000
O O7 0.302370 0.853657 0.845866
O O8 0.082124 0.943282 0.346444
O O9 0.228199 0.432830 0.248469
O O10 0.252284 0.249259 0.303491
O O11 0.666806 0.800131 0.720260
O O12 0.669699 0.489161 0.214618
O O13 0.129713 0.540215 0.447053
O O14 0.132298 0.114972 0.960695
O O15 0.869949 0.162949 0.531796
O O16 0.035197 0.425790 0.102215
O O17 0.000000 0.500000 0.000000
O O18 0.000000 0.000000 0.000000
#
# Coordination Sequence:
#
# PCOD9097677 Si02
#       8
#     2   2   2   2   2   2   2   2
#     4   8  17  37  62  85 118 165 207 250 319 378
#     4  10  20  36  61  93 125 158 207 268 314 372
#     4  10  20  39  63  92 124 168 211 266 315 380
#     4   9  19  39  64  87 122 171 207 252 322 379
#     4  10  22  41  65  90 131 165 215 264 317 386
#     4  10  22  38  63  87 127 164 212 256 321 380
#     4  12  25  40  68  93 128 171 219 265 323 384
#     4  11  25  43  63  95 127 169 215 264 325 381
#
# _framework density 27.634001000000001
#
# number of rings (size 3 to 8) (size 9 to 14) (size 15 to 20)
#    0.000    2.000    1.250    1.500    3.500    2.000 
#    6.750    0.625    0.000    0.000    0.000    0.000 
#    0.000    0.000    0.000    0.000    0.000    0.000 
#
# Total GULP energy -89270.604246 kJ/mol
# GULP energy per Si atom -5579.412765 kJ/mol
# Density = 2.757110 g / cm^3
# Si number density = 27.634001 Si / 1000 Ang^3
#
#
#
# Elastic Constant Matrix: (Units=GPa)
#
#
# Indices 1 2 3 4 5 6 
#
# 1 221.8661 39.8905 38.9262 -4.2251 16.1577 -51.7466
# 2 39.8905 57.8208 39.5986 -18.3689 0.6594 -32.8505
# 3 38.9262 39.5986 137.9669 -20.5237 -13.8039 -13.1279
# 4 -4.2251 -18.3689 -20.5237 32.8438 6.9542 -0.9283
# 5 16.1577 0.6594 -13.8039 6.9542 48.6440 -9.0866
# 6 -51.7466 -32.8505 -13.1279 -0.9283 -9.0866 67.4566
#
#
#
# Elastic Compliance Matrix: (Units=1/GPa)
#
#
# Indices 1 2 3 4 5 6 
#
# 1 0.005855 -0.001459 -0.001122 -0.000337 -0.001570 0.003346
# 2 -0.001459 0.037110 -0.006287 0.017368 -0.001336 0.015789
# 3 -0.001122 -0.006287 0.009750 0.001823 0.002657 -0.001642
# 4 -0.000337 0.017368 0.001823 0.042358 -0.004057 0.008591
# 5 -0.001570 -0.001336 0.002657 -0.004057 0.022743 0.001670
# 6 0.003346 0.015789 -0.001642 0.008591 0.001670 0.025104
#
#
# Mechanical properties :
#
#
# Convention : Reuss Voigt Hill
#
# Bulk Modulus (GPa) = 28.58879 72.72047 50.65463
# Shear Modulus (GPa) = 29.01655 49.73810 39.37733
#
# Velocity S-wave (km/s) = 3.24393 4.24711 3.77896
# Velocity P-wave (km/s) = 4.93951 7.10094 6.11646
#
# Compressibility (1/GPa) = 0.03497875
#
# Stress axis : x y z
#
# Youngs Moduli (GPa) = 170.80114 26.94698 102.56351
#
# Poissons Ratio (x) = 0.03930 0.11508
# Poissons Ratio (y) = 0.24913 0.64486
# Poissons Ratio (z) = 0.19164 0.16943
#
# Static dielectric constant tensor:
#      x y z
#    x 2.326630 0.042660 0.008600 
#    y 0.042660 2.188660 0.086590 
#    z 0.008600 0.086590 2.195050 
# 
# From -- ./inp_files/89874.got.cif
#   From: 2010.05.17/outbox.cif.g08.bks.cpg/sg2_45_cif.got.tgz:89874.got - 2010.06.03 11:33:40.
