data_PCOD9097501
_publ_section_title
;
Structure prediction by ZEFSAII (Michael W. Deem and Ramdas Pophale) SiO2 
 PCOD9097501
Probable space group: P -1
;
_chemical_formula_sum "Si O2"
_cell_formula_units_Z 12
_cell_length_a 12.462123
_cell_length_b 11.892954
_cell_length_c 9.096525
_cell_angle_alpha 37.353000
_cell_angle_beta 36.799611
_cell_angle_gamma 41.231103
_cell_volume 464.570266
_symmetry_space_group_name_H-M "P -1"
_symmetry_group_IT_number 2
_symmetry_cell_setting 'triclinic'
loop_
_space_group_symop_operation_xyz
x,y,z
-x,-y,-z
loop_
_atom_site_type_symbol
_atom_site_label
_atom_site_fract_x
_atom_site_fract_y
_atom_site_fract_z
Si Si1 0.650605 0.249644 0.965677
Si Si2 0.757868 0.565610 0.686508
Si Si3 0.136687 0.715148 0.658658
Si Si4 0.058207 0.166134 0.952561
Si Si5 0.177629 0.039905 0.456695
Si Si6 0.357836 0.361591 0.949346
O O1 0.461890 0.292548 0.228414
O O2 0.566297 0.333787 0.810380
O O3 0.760926 0.025410 0.060687
O O4 0.765076 0.381809 0.770597
O O5 0.894992 0.682528 0.364503
O O6 0.764591 0.522759 0.897499
O O7 0.012911 0.796653 0.565968
O O8 0.238009 0.870283 0.444036
O O9 0.269808 0.494875 0.769041
O O10 0.973208 0.756822 0.924485
O O11 0.885716 0.072446 0.222488
O O12 0.324792 0.152953 0.202213
#
# Coordination Sequence:
#
# PCOD9097501 Si02
#       6
#     2   2   2   2   2   2
#     4   9  21  39  55  82 114 151 177 223 280 332
#     4   9  21  37  58  81 117 143 180 227 284 319
#     4   9  21  38  57  82 113 147 179 234 273 319
#     4  10  20  36  61  80 112 148 181 226 279 330
#     4   9  21  38  59  80 114 145 185 226 280 318
#     4  10  20  37  60  81 111 146 186 226 276 325
#
# _framework density 25.830324999999998
#
# number of rings (size 3 to 8) (size 9 to 14) (size 15 to 20)
#    2.000    0.667    0.000    1.000    2.333    4.000 
#    0.000    1.667    0.000    0.000    0.000    0.000 
#    0.000    0.000    0.000    0.000    0.000    0.000 
#
# Total GULP energy -66983.049181 kJ/mol
# GULP energy per Si atom -5581.920765 kJ/mol
# Density = 2.577153 g / cm^3
# Si number density = 25.830325 Si / 1000 Ang^3
#
#
#
# Elastic Constant Matrix: (Units=GPa)
#
#
# Indices 1 2 3 4 5 6 
#
# 1 80.0905 16.0550 67.5084 -12.2474 -4.6303 7.2914
# 2 16.0550 57.8026 6.9861 -11.9385 9.6179 -1.2500
# 3 67.5084 6.9861 154.8612 -32.7688 6.5370 -1.7045
# 4 -12.2474 -11.9385 -32.7688 30.8740 -5.0072 6.7603
# 5 -4.6303 9.6179 6.5370 -5.0072 43.8407 -3.9644
# 6 7.2914 -1.2500 -1.7045 6.7603 -3.9644 26.0395
#
#
#
# Elastic Compliance Matrix: (Units=1/GPa)
#
#
# Indices 1 2 3 4 5 6 
#
# 1 0.023188 -0.006580 -0.010604 -0.002504 0.004632 -0.006148
# 2 -0.006580 0.021348 0.004047 0.009138 -0.004937 0.000008
# 3 -0.010604 0.004047 0.013324 0.010890 -0.002678 0.000801
# 4 -0.002504 0.009138 0.010890 0.048960 0.000727 -0.010747
# 5 0.004632 -0.004937 -0.002678 0.000727 0.025038 0.001914
# 6 -0.006148 0.000008 0.000801 -0.010747 0.001914 0.043259
#
#
# Mechanical properties :
#
#
# Convention : Reuss Voigt Hill
#
# Bulk Modulus (GPa) = 31.65971 52.65037 42.15504
# Shear Modulus (GPa) = 23.59401 33.63117 28.61259
#
# Velocity S-wave (km/s) = 3.02557 3.61224 3.33184
# Velocity P-wave (km/s) = 4.94862 6.15021 5.58184
#
# Compressibility (1/GPa) = 0.03158588
#
# Stress axis : x y z
#
# Youngs Moduli (GPa) = 43.12589 46.84338 75.05341
#
# Poissons Ratio (x) = 0.30822 0.79590
# Poissons Ratio (y) = 0.28376 -0.30377
# Poissons Ratio (z) = 0.45733 -0.18959
#
# Static dielectric constant tensor:
#      x y z
#    x 2.014910 -0.027430 0.021040 
#    y -0.027430 2.157060 0.091120 
#    z 0.021040 0.091120 2.068050 
# 
# From -- ./inp_files/249095.got.cif
#   From: 2010.05.17/outbox.cif.g08.bks.cpg/sg2_125_cif.got.tgz:249095.got - 2010.06.03 11:33:40.
