data_PCOD9097473
_publ_section_title
;
Structure prediction by ZEFSAII (Michael W. Deem and Ramdas Pophale) SiO2 
 PCOD9097473
Probable space group: P -1
;
_chemical_formula_sum "Si O2"
_cell_formula_units_Z 16
_cell_length_a 9.428850
_cell_length_b 19.008543
_cell_length_c 19.645993
_cell_angle_alpha 158.373290
_cell_angle_beta 136.737797
_cell_angle_gamma 41.463811
_cell_volume 852.057924
_symmetry_space_group_name_H-M "P -1"
_symmetry_group_IT_number 2
_symmetry_cell_setting 'triclinic'
loop_
_space_group_symop_operation_xyz
x,y,z
-x,-y,-z
loop_
_atom_site_type_symbol
_atom_site_label
_atom_site_fract_x
_atom_site_fract_y
_atom_site_fract_z
Si Si1 0.703015 0.275385 0.448652
Si Si2 0.314495 0.748692 0.989659
Si Si3 0.710324 0.352690 0.365060
Si Si4 0.540479 0.267676 0.821808
Si Si5 0.427019 0.094331 0.265588
Si Si6 0.798500 0.642933 0.448837
Si Si7 0.128419 0.030292 0.005184
Si Si8 0.800328 0.858404 0.501700
O O1 0.688386 0.258652 0.346689
O O2 0.507129 0.475135 0.573045
O O3 0.652548 0.114900 0.337420
O O4 0.952226 0.260353 0.533236
O O5 0.434091 0.736423 0.091774
O O6 0.419500 0.877700 0.092627
O O7 0.289398 0.546505 0.766045
O O8 0.061283 0.868353 0.021669
O O9 0.940608 0.406171 0.494225
O O10 0.739017 0.179222 0.165004
O O11 0.346356 0.195186 0.656455
O O12 0.745790 0.097850 0.708500
O O13 0.500000 0.500000 0.000000
O O14 0.315843 0.239063 0.418450
O O15 0.284689 0.148508 0.195358
O O16 0.745406 0.777629 0.483307
O O17 0.000000 0.000000 0.000000
#
# Coordination Sequence:
#
# PCOD9097473 Si02
#       8
#     2   2   2   2   2   2   2   2
#     4  10  23  39  59  92 133 169 193 256 318 374
#     4  11  21  36  61  97 118 158 217 259 300 355
#     4  10  20  40  61  90 129 171 213 240 309 372
#     4  11  21  41  71  93 112 157 220 268 310 354
#     4  11  23  38  58  96 130 169 198 246 315 376
#     4  11  20  37  67  88 127 165 208 260 290 370
#     4  10  20  36  60  95 125 162 208 254 290 370
#     4  10  22  43  65  93 120 155 211 268 313 359
#
# _framework density 18.778065999999999
#
# number of rings (size 3 to 8) (size 9 to 14) (size 15 to 20)
#    0.000    1.500    5.000    1.500    3.500    1.500 
#    2.250    0.625    0.000    1.500    0.000    0.000 
#    0.000    0.000    0.000    0.000    0.000    0.000 
#
# Total GULP energy -89123.579929 kJ/mol
# GULP energy per Si atom -5570.223746 kJ/mol
# Density = 1.873533 g / cm^3
# Si number density = 18.778066 Si / 1000 Ang^3
#
#
#
# Elastic Constant Matrix: (Units=GPa)
#
#
# Indices 1 2 3 4 5 6 
#
# 1 85.5293 27.2388 53.9406 -2.1864 3.9973 -1.9192
# 2 27.2388 92.8095 41.9830 -10.1476 -3.8958 7.2226
# 3 53.9406 41.9830 136.4101 6.9861 -15.8793 4.2788
# 4 -2.1864 -10.1476 6.9861 33.0740 4.9536 -1.5417
# 5 3.9973 -3.8958 -15.8793 4.9536 21.8413 4.4118
# 6 -1.9192 7.2226 4.2788 -1.5417 4.4118 21.9964
#
#
#
# Elastic Compliance Matrix: (Units=1/GPa)
#
#
# Indices 1 2 3 4 5 6 
#
# 1 0.018667 -0.002129 -0.008630 0.004594 -0.012493 0.006834
# 2 -0.002129 0.013793 -0.003530 0.004669 -0.000029 -0.003695
# 3 -0.008630 -0.003530 0.013966 -0.006930 0.013799 -0.005564
# 4 0.004594 0.004669 -0.006930 0.035838 -0.014304 0.005596
# 5 -0.012493 -0.000029 0.013799 -0.014304 0.064936 -0.017791
# 6 0.006834 -0.003695 -0.005564 0.005596 -0.017791 0.052315
#
#
# Mechanical properties :
#
#
# Convention : Reuss Voigt Hill
#
# Bulk Modulus (GPa) = 56.02845 62.34151 59.18498
# Shear Modulus (GPa) = 21.36363 28.15479 24.75921
#
# Velocity S-wave (km/s) = 3.37663 3.87634 3.63508
# Velocity P-wave (km/s) = 6.71596 7.30109 7.01463
#
# Compressibility (1/GPa) = 0.01784808
#
# Stress axis : x y z
#
# Youngs Moduli (GPa) = 53.56937 72.49979 71.60425
#
# Poissons Ratio (x) = 0.15433 0.61797
# Poissons Ratio (y) = 0.11403 0.25276
# Poissons Ratio (z) = 0.46232 0.25592
#
# Static dielectric constant tensor:
#      x y z
#    x 1.647590 0.015840 0.030040 
#    y 0.015840 1.692950 0.028130 
#    z 0.030040 0.028130 1.677720 
# 
# From -- ./inp_files/591806.got.cif
#   From: 2010.05.17/outbox.cif.g08.bks.cpg/sg2_296_cif.got.tgz:591806.got - 2010.06.03 11:33:40.
