data_PCOD9097267
_publ_section_title
;
Structure prediction by ZEFSAII (Michael W. Deem and Ramdas Pophale) SiO2 
 PCOD9097267
Probable space group: P -1
;
_chemical_formula_sum "Si O2"
_cell_formula_units_Z 16
_cell_length_a 18.274005
_cell_length_b 8.348400
_cell_length_c 10.642858
_cell_angle_alpha 43.956525
_cell_angle_beta 48.981680
_cell_angle_gamma 40.186750
_cell_volume 706.431248
_symmetry_space_group_name_H-M "P -1"
_symmetry_group_IT_number 2
_symmetry_cell_setting 'triclinic'
loop_
_space_group_symop_operation_xyz
x,y,z
-x,-y,-z
loop_
_atom_site_type_symbol
_atom_site_label
_atom_site_fract_x
_atom_site_fract_y
_atom_site_fract_z
Si Si1 0.830888 0.771843 0.938981
Si Si2 0.787043 0.980864 0.604495
Si Si3 0.214700 0.285732 0.586859
Si Si4 0.599126 0.862238 0.860129
Si Si5 0.944571 0.832656 0.023887
Si Si6 0.153307 0.563793 0.237667
Si Si7 0.716575 0.543796 0.331410
Si Si8 0.532590 0.071149 0.556045
O O1 0.874085 0.857617 0.961350
O O2 0.725603 0.741400 0.112261
O O3 0.802770 0.971571 0.741508
O O4 0.931791 0.455173 0.968164
O O5 0.660859 0.032262 0.692997
O O6 0.874007 0.664289 0.640943
O O7 0.794852 0.217888 0.399566
O O8 0.123026 0.210674 0.765485
O O9 0.176518 0.503800 0.393834
O O10 0.237695 0.405920 0.618108
O O11 0.338004 0.004308 0.569324
O O12 0.719835 0.553594 0.906883
O O13 0.548922 0.884824 0.764524
O O14 0.500000 0.000000 0.000000
O O15 0.934874 0.120475 0.878389
O O16 0.583658 0.636039 0.444403
O O17 0.500000 0.000000 0.500000
#
# Coordination Sequence:
#
# PCOD9097267 Si02
#       8
#     2   2   2   2   2   2   2   2
#     4  10  22  39  59  88 111 150 204 242 292 344
#     4  10  22  36  55  85 118 151 187 239 295 349
#     4   9  19  38  58  85 114 149 197 238 293 344
#     4   9  19  36  55  87 123 154 197 238 295 357
#     4  10  21  39  63  81 113 155 197 248 287 346
#     4   9  21  37  55  83 116 152 189 238 293 350
#     4  10  20  36  60  84 117 152 190 243 288 352
#     4   9  18  35  60  87 115 153 198 241 292 354
#
# _framework density 22.649056000000002
#
# number of rings (size 3 to 8) (size 9 to 14) (size 15 to 20)
#    0.750    1.750    0.000    1.500    0.000    4.000 
#    0.000    5.000    0.000   11.250    0.000    0.000 
#    0.000    0.000    0.000    0.000    0.000    0.000 
#
# Total GULP energy -89135.872183 kJ/mol
# GULP energy per Si atom -5570.992011 kJ/mol
# Density = 2.259751 g / cm^3
# Si number density = 22.649056 Si / 1000 Ang^3
#
#
#
# Elastic Constant Matrix: (Units=GPa)
#
#
# Indices 1 2 3 4 5 6 
#
# 1 47.0312 7.9681 4.4156 5.0324 13.3012 -8.7344
# 2 7.9681 71.7322 19.0482 -0.5042 -10.6858 -0.5305
# 3 4.4156 19.0482 42.7507 -1.3267 2.2905 -1.8044
# 4 5.0324 -0.5042 -1.3267 41.5932 5.7186 -0.5650
# 5 13.3012 -10.6858 2.2905 5.7186 28.6342 3.0282
# 6 -8.7344 -0.5305 -1.8044 -0.5650 3.0282 16.6626
#
#
#
# Elastic Compliance Matrix: (Units=1/GPa)
#
#
# Indices 1 2 3 4 5 6 
#
# 1 0.031430 -0.006602 0.001528 -0.000938 -0.019100 0.019870
# 2 -0.006602 0.018591 -0.008495 -0.000907 0.011490 -0.005908
# 3 0.001528 -0.008495 0.027644 0.001612 -0.006925 0.004837
# 4 -0.000938 -0.000907 0.001612 0.024925 -0.005161 0.001437
# 5 -0.019100 0.011490 -0.006925 -0.005161 0.051781 -0.019982
# 6 0.019870 -0.005908 0.004837 0.001437 -0.019982 0.074446
#
#
# Mechanical properties :
#
#
# Convention : Reuss Voigt Hill
#
# Bulk Modulus (GPa) = 19.79113 24.93088 22.36101
# Shear Modulus (GPa) = 18.32859 26.05015 22.18937
#
# Velocity S-wave (km/s) = 2.84781 3.39509 3.13342
# Velocity P-wave (km/s) = 4.42385 5.13811 4.79430
#
# Compressibility (1/GPa) = 0.05052769
#
# Stress axis : x y z
#
# Youngs Moduli (GPa) = 31.81701 53.78806 36.17444
#
# Poissons Ratio (x) = 0.35511 -0.05528
# Poissons Ratio (y) = 0.21005 0.30730
# Poissons Ratio (z) = -0.04862 0.45693
#
# Static dielectric constant tensor:
#      x y z
#    x 1.896350 -0.008210 0.047350 
#    y -0.008210 1.889790 0.025340 
#    z 0.047350 0.025340 1.816160 
# 
# From -- ./inp_files/468535.got.cif
#   From: 2010.05.17/outbox.cif.g08.bks.cpg/sg2_235_cif.got.tgz:468535.got - 2010.06.03 11:33:40.
