data_PCOD9097309
_publ_section_title
;
Structure prediction by ZEFSAII (Michael W. Deem and Ramdas Pophale) SiO2 
 PCOD9097309
Probable space group: P -1
;
_chemical_formula_sum "Si O2"
_cell_formula_units_Z 16
_cell_length_a 13.497747
_cell_length_b 13.010044
_cell_length_c 5.001525
_cell_angle_alpha 76.994970
_cell_angle_beta 64.432084
_cell_angle_gamma 66.671169
_cell_volume 725.964260
_symmetry_space_group_name_H-M "P -1"
_symmetry_group_IT_number 2
_symmetry_cell_setting 'triclinic'
loop_
_space_group_symop_operation_xyz
x,y,z
-x,-y,-z
loop_
_atom_site_type_symbol
_atom_site_label
_atom_site_fract_x
_atom_site_fract_y
_atom_site_fract_z
Si Si1 0.722861 0.669063 0.241778
Si Si2 0.949518 0.225594 0.328538
Si Si3 0.948163 0.610335 0.668805
Si Si4 0.892092 0.114192 0.987954
Si Si5 0.838011 0.815376 0.262753
Si Si6 0.637947 0.105679 0.158734
Si Si7 0.414619 0.264583 0.136047
Si Si8 0.647732 0.964289 0.707936
O O1 0.742893 0.787225 0.206982
O O2 0.673839 0.652576 0.596709
O O3 0.848204 0.603111 0.996867
O O4 0.622699 0.680070 0.138600
O O5 0.935925 0.168986 0.653487
O O6 0.956381 0.348450 0.312720
O O7 0.866077 0.199973 0.220889
O O8 0.071572 0.170120 0.062372
O O9 0.891397 0.709063 0.459382
O O10 0.000000 0.500000 0.500000
O O11 0.768634 0.104506 0.053296
O O12 0.000000 0.000000 0.000000
O O13 0.779450 0.916338 0.469451
O O14 0.547004 0.225332 0.103815
O O15 0.358580 0.981172 0.030844
O O16 0.589332 0.063146 0.505365
O O17 0.392104 0.144244 0.205656
#
# Coordination Sequence:
#
# PCOD9097309 Si02
#       8
#     2   2   2   2   2   2   2   2
#     4  10  20  36  60  86 126 152 189 246 316 380
#     4  11  24  42  59  89 126 169 202 262 301 362
#     4  11  23  41  69 100 125 155 201 258 337 395
#     4  12  26  40  60  87 127 174 226 249 294 356
#     4  10  21  37  61  88 129 160 195 247 331 370
#     4  12  25  36  57  86 119 172 221 249 285 363
#     4  11  21  38  56  85 123 166 204 253 310 360
#     4  11  21  35  56  85 122 161 206 256 303 356
#
# _framework density 22.039653999999999
#
# number of rings (size 3 to 8) (size 9 to 14) (size 15 to 20)
#    0.000    1.000    3.750    4.875    3.500    2.000 
#    0.000    0.000    0.000    0.000    0.000    5.250 
#    0.000    0.000    0.000    0.000    0.000    0.000 
#
# Total GULP energy -89297.483403 kJ/mol
# GULP energy per Si atom -5581.092713 kJ/mol
# Density = 2.198949 g / cm^3
# Si number density = 22.039654 Si / 1000 Ang^3
#
#
#
# Elastic Constant Matrix: (Units=GPa)
#
#
# Indices 1 2 3 4 5 6 
#
# 1 93.1374 22.9627 37.0298 10.3297 10.7498 5.2576
# 2 22.9627 64.7140 35.3134 23.9186 5.0799 10.0482
# 3 37.0298 35.3134 101.1515 18.5029 21.0706 8.2709
# 4 10.3297 23.9186 18.5029 37.1635 1.5201 9.1606
# 5 10.7498 5.0799 21.0706 1.5201 40.8191 6.0740
# 6 5.2576 10.0482 8.2709 9.1606 6.0740 14.0407
#
#
#
# Elastic Compliance Matrix: (Units=1/GPa)
#
#
# Indices 1 2 3 4 5 6 
#
# 1 0.012935 -0.002444 -0.003585 -0.000087 -0.001187 -0.000412
# 2 -0.002444 0.024099 -0.005417 -0.010451 0.001893 -0.007140
# 3 -0.003585 -0.005417 0.014798 -0.002885 -0.006063 0.001007
# 4 -0.000087 -0.010451 -0.002885 0.039433 0.004064 -0.018274
# 5 -0.001187 0.001893 -0.006063 0.004064 0.029448 -0.012729
# 6 -0.000412 -0.007140 0.001007 -0.018274 -0.012729 0.093321
#
#
# Mechanical properties :
#
#
# Convention : Reuss Voigt Hill
#
# Bulk Modulus (GPa) = 34.55521 49.95718 42.25620
# Shear Modulus (GPa) = 20.27801 29.31779 24.79790
#
# Velocity S-wave (km/s) = 3.03656 3.65119 3.35796
# Velocity P-wave (km/s) = 5.29216 6.36326 5.85226
#
# Compressibility (1/GPa) = 0.02893920
#
# Stress axis : x y z
#
# Youngs Moduli (GPa) = 77.31161 41.49602 67.57629
#
# Poissons Ratio (x) = 0.10141 0.24226
# Poissons Ratio (y) = 0.18894 0.36607
# Poissons Ratio (z) = 0.27716 0.22479
#
# Static dielectric constant tensor:
#      x y z
#    x 1.949860 -0.023620 -0.010390 
#    y -0.023620 1.830730 -0.010920 
#    z -0.010390 -0.010920 1.845910 
# 
# From -- ./inp_files/74140.got.cif
#   From: 2010.05.17/outbox.cif.g08.bks.cpg/sg2_38_cif.got.tgz:74140.got - 2010.06.03 11:33:40.
