data_PCOD9097023
_publ_section_title
;
Structure prediction by ZEFSAII (Michael W. Deem and Ramdas Pophale) SiO2 
 PCOD9097023
Probable space group: P -1
;
_chemical_formula_sum "Si O2"
_cell_formula_units_Z 14
_cell_length_a 11.991192
_cell_length_b 12.086814
_cell_length_c 10.877469
_cell_angle_alpha 97.094828
_cell_angle_beta 69.401396
_cell_angle_gamma 38.255952
_cell_volume 661.583166
_symmetry_space_group_name_H-M "P -1"
_symmetry_group_IT_number 2
_symmetry_cell_setting 'triclinic'
loop_
_space_group_symop_operation_xyz
x,y,z
-x,-y,-z
loop_
_atom_site_type_symbol
_atom_site_label
_atom_site_fract_x
_atom_site_fract_y
_atom_site_fract_z
Si Si1 0.551999 0.139049 0.401927
Si Si2 0.328230 0.632300 0.210900
Si Si3 0.229292 0.474266 0.347049
Si Si4 0.310644 0.256730 0.065908
Si Si5 0.273774 0.834453 0.473942
Si Si6 0.673010 0.000391 0.699980
Si Si7 0.230133 0.267700 0.739795
O O1 0.460013 0.242739 0.315588
O O2 0.594462 0.222184 0.464176
O O3 0.341953 0.241045 0.574286
O O4 0.792154 0.848847 0.275039
O O5 0.293656 0.533669 0.255814
O O6 0.408478 0.627895 0.308054
O O7 0.500000 0.500000 0.000000
O O8 0.034004 0.930014 0.343515
O O9 0.186295 0.416990 0.254136
O O10 0.961890 0.708657 0.562603
O O11 0.063937 0.437714 0.097412
O O12 0.500000 0.000000 0.000000
O O13 0.517213 0.164593 0.904259
O O14 0.280380 0.934680 0.395502
O O15 0.464078 0.095754 0.723448
#
# Coordination Sequence:
#
# PCOD9097023 Si02
#       7
#     2   2   2   2   2   2   2
#     4  10  20  37  58  85 119 155 191 231 286 343
#     4  10  20  39  62  83 109 146 193 242 291 339
#     4  11  23  38  58  85 119 151 190 244 288 335
#     4  12  23  35  57  88 117 153 195 235 282 341
#     4   9  20  37  60  82 108 150 190 232 289 345
#     4  10  21  38  58  84 116 153 195 234 283 343
#     4  10  20  36  59  83 118 159 191 232 283 338
#
# _framework density 21.161362
#
# number of rings (size 3 to 8) (size 9 to 14) (size 15 to 20)
#    0.000    1.714    0.000    6.429    0.000    2.286 
#    0.000    3.571    0.000    0.000    0.000    0.000 
#    0.000    0.000    0.000    0.000    0.000    0.000 
#
# Total GULP energy -77961.871078 kJ/mol
# GULP energy per Si atom -5568.705077 kJ/mol
# Density = 2.111320 g / cm^3
# Si number density = 21.161362 Si / 1000 Ang^3
#
#
#
# Elastic Constant Matrix: (Units=GPa)
#
#
# Indices 1 2 3 4 5 6 
#
# 1 91.9870 18.1685 8.6793 5.6749 14.1464 -7.4419
# 2 18.1685 86.8995 12.8021 7.5732 -4.8865 -10.0329
# 3 8.6793 12.8021 95.9665 4.9511 -17.0359 0.8789
# 4 5.6749 7.5732 4.9511 29.0044 2.3043 4.1516
# 5 14.1464 -4.8865 -17.0359 2.3043 22.2071 0.0498
# 6 -7.4419 -10.0329 0.8789 4.1516 0.0498 20.5626
#
#
#
# Elastic Compliance Matrix: (Units=1/GPa)
#
#
# Indices 1 2 3 4 5 6 
#
# 1 0.013825 -0.002515 -0.002929 -0.001234 -0.011489 0.004178
# 2 -0.002515 0.013502 -0.000612 -0.004226 0.004528 0.006546
# 3 -0.002929 -0.000612 0.013017 -0.002225 0.011951 -0.001495
# 4 -0.001234 -0.004226 -0.002225 0.038106 -0.005782 -0.010093
# 5 -0.011489 0.004528 0.011951 -0.005782 0.063116 -0.001445
# 6 0.004178 0.006546 -0.001495 -0.010093 -0.001445 0.055443
#
#
# Mechanical properties :
#
#
# Convention : Reuss Voigt Hill
#
# Bulk Modulus (GPa) = 35.42052 39.35031 37.38542
# Shear Modulus (GPa) = 22.87989 30.03504 26.45746
#
# Velocity S-wave (km/s) = 3.29174 3.77149 3.53975
# Velocity P-wave (km/s) = 5.58767 6.13199 5.86615
#
# Compressibility (1/GPa) = 0.02823222
#
# Stress axis : x y z
#
# Youngs Moduli (GPa) = 72.33200 74.06222 76.82358
#
# Poissons Ratio (x) = 0.18627 0.22501
# Poissons Ratio (y) = 0.18192 0.04701
# Poissons Ratio (z) = 0.21185 0.04532
#
# Static dielectric constant tensor:
#      x y z
#    x 1.871510 -0.046230 0.077870 
#    y -0.046230 1.772170 -0.012810 
#    z 0.077870 -0.012810 1.883410 
# 
# From -- ./inp_files/426165.got.cif
#   From: 2010.05.17/outbox.cif.g08.bks.cpg/sg2_214_cif.got.tgz:426165.got - 2010.06.03 11:33:40.
