data_PCOD9097914
_publ_section_title
;
Structure prediction by ZEFSAII (Michael W. Deem and Ramdas Pophale) SiO2 
 PCOD9097914
Probable space group: P -1
;
_chemical_formula_sum "Si O2"
_cell_formula_units_Z 16
_cell_length_a 13.921620
_cell_length_b 14.785588
_cell_length_c 9.159498
_cell_angle_alpha 44.698228
_cell_angle_beta 113.178289
_cell_angle_gamma 140.772625
_cell_volume 784.639733
_symmetry_space_group_name_H-M "P -1"
_symmetry_group_IT_number 2
_symmetry_cell_setting 'triclinic'
loop_
_space_group_symop_operation_xyz
x,y,z
-x,-y,-z
loop_
_atom_site_type_symbol
_atom_site_label
_atom_site_fract_x
_atom_site_fract_y
_atom_site_fract_z
Si Si1 0.801192 0.559936 0.482232
Si Si2 0.199960 0.779099 0.866347
Si Si3 0.564961 0.930006 0.544693
Si Si4 0.127184 0.424621 0.161194
Si Si5 0.833776 0.316296 0.703466
Si Si6 0.341149 0.477887 0.009569
Si Si7 0.813429 0.070112 0.769623
Si Si8 0.349814 0.350491 0.868205
O O1 0.806189 0.552730 0.667713
O O2 0.748967 0.375290 0.590324
O O3 0.688576 0.568906 0.353411
O O4 0.991624 0.756105 0.326444
O O5 0.065679 0.752628 0.761849
O O6 0.375598 0.990989 0.675913
O O7 0.177274 0.621747 0.949110
O O8 0.158037 0.712937 0.086702
O O9 0.441528 0.695267 0.758244
O O10 0.500000 0.000000 0.500000
O O11 0.724417 0.038386 0.608034
O O12 0.198904 0.403220 0.104508
O O13 0.762838 0.127031 0.795549
O O14 0.000000 0.500000 0.500000
O O15 0.286522 0.338226 0.003159
O O16 0.464612 0.513456 0.144230
O O17 0.742021 0.862834 0.994293
#
# Coordination Sequence:
#
# PCOD9097914 Si02
#       8
#     2   2   2   2   2   2   2   2
#     4  10  20  37  62  92 122 159 205 260 301 364
#     4  10  20  37  61  98 128 154 201 265 306 372
#     4  11  21  37  65  90 127 161 200 253 314 363
#     4  10  20  36  62  93 123 157 207 254 312 364
#     4   9  21  35  62  97 122 154 203 255 314 357
#     4  10  23  40  61  89 121 172 206 247 314 373
#     4  10  21  40  59  93 122 162 206 251 309 370
#     4  10  23  41  61  83 128 169 209 246 308 373
#
# _framework density 20.391525000000001
#
# number of rings (size 3 to 8) (size 9 to 14) (size 15 to 20)
#    0.000    2.000    2.500    0.375    7.000    0.500 
#    0.000    7.500    0.000    0.000    0.000    0.000 
#    0.000    0.000    0.000    0.000    0.000    0.000 
#
# Total GULP energy -89258.516746 kJ/mol
# GULP energy per Si atom -5578.657297 kJ/mol
# Density = 2.034511 g / cm^3
# Si number density = 20.391525 Si / 1000 Ang^3
#
#
#
# Elastic Constant Matrix: (Units=GPa)
#
#
# Indices 1 2 3 4 5 6 
#
# 1 108.2707 26.0112 59.4875 1.3206 11.0579 -11.8017
# 2 26.0112 55.3468 23.8412 -6.6751 12.5313 -16.0409
# 3 59.4875 23.8412 85.3487 7.2653 17.0646 4.2132
# 4 1.3206 -6.6751 7.2653 16.8494 -2.7308 10.4250
# 5 11.0579 12.5313 17.0646 -2.7308 36.0299 -0.6911
# 6 -11.8017 -16.0409 4.2132 10.4250 -0.6911 32.0940
#
#
#
# Elastic Compliance Matrix: (Units=1/GPa)
#
#
# Indices 1 2 3 4 5 6 
#
# 1 0.016727 -0.000853 -0.011871 -0.001139 0.000846 0.007671
# 2 -0.000853 0.026764 -0.006904 0.005305 -0.005142 0.012136
# 3 -0.011871 -0.006904 0.024264 -0.007991 -0.006217 -0.008539
# 4 -0.001139 0.005305 -0.007991 0.080269 0.007939 -0.022621
# 5 0.000846 -0.005142 -0.006217 0.007939 0.032766 -0.003316
# 6 0.007671 0.012136 -0.008539 -0.022621 -0.003316 0.048442
#
#
# Mechanical properties :
#
#
# Convention : Reuss Voigt Hill
#
# Bulk Modulus (GPa) = 35.08986 51.96066 43.52526
# Shear Modulus (GPa) = 17.98627 26.30308 22.14467
#
# Velocity S-wave (km/s) = 2.97315 3.59542 3.29899
# Velocity P-wave (km/s) = 5.38809 6.54010 5.99185
#
# Compressibility (1/GPa) = 0.02849826
#
# Stress axis : x y z
#
# Youngs Moduli (GPa) = 59.78255 37.36342 41.21277
#
# Poissons Ratio (x) = 0.03188 0.48925
# Poissons Ratio (y) = 0.05101 0.28454
# Poissons Ratio (z) = 0.70970 0.25796
#
# Static dielectric constant tensor:
#      x y z
#    x 1.698770 0.008300 -0.007910 
#    y 0.008300 1.753270 0.002450 
#    z -0.007910 0.002450 1.755060 
# 
# From -- ./inp_files/312417.got.cif
#   From: 2010.05.17/outbox.cif.g08.bks.cpg/sg2_157_cif.got.tgz:312417.got - 2010.06.03 11:33:40.
