data_PCOD9097824
_publ_section_title
;
Structure prediction by ZEFSAII (Michael W. Deem and Ramdas Pophale) SiO2 
 PCOD9097824
Probable space group: P -1
;
_chemical_formula_sum "Si O2"
_cell_formula_units_Z 14
_cell_length_a 9.065826
_cell_length_b 11.953702
_cell_length_c 8.313422
_cell_angle_alpha 56.700553
_cell_angle_beta 107.658362
_cell_angle_gamma 114.202327
_cell_volume 683.190430
_symmetry_space_group_name_H-M "P -1"
_symmetry_group_IT_number 2
_symmetry_cell_setting 'triclinic'
loop_
_space_group_symop_operation_xyz
x,y,z
-x,-y,-z
loop_
_atom_site_type_symbol
_atom_site_label
_atom_site_fract_x
_atom_site_fract_y
_atom_site_fract_z
Si Si1 0.145567 0.179706 0.055298
Si Si2 0.475128 0.337839 0.163157
Si Si3 0.806872 0.354111 0.392375
Si Si4 0.977367 0.394407 0.927730
Si Si5 0.332104 0.305227 0.499430
Si Si6 0.670946 0.380298 0.679792
Si Si7 0.010595 0.143313 0.677338
O O1 0.077348 0.182496 0.850391
O O2 0.069386 0.278536 0.060055
O O3 0.340264 0.242806 0.074970
O O4 0.084806 0.021039 0.222726
O O5 0.653257 0.320101 0.247451
O O6 0.394790 0.303788 0.340251
O O7 0.500000 0.500000 0.000000
O O8 0.736714 0.370599 0.530598
O O9 0.934830 0.501848 0.269167
O O10 0.894871 0.235434 0.519269
O O11 0.787465 0.328895 0.876727
O O12 0.000000 0.500000 0.000000
O O13 0.479316 0.301964 0.669544
O O14 0.306916 0.457446 0.398634
O O15 0.167049 0.186590 0.580011
#
# Coordination Sequence:
#
# PCOD9097824 Si02
#       7
#     2   2   2   2   2   2   2
#     4  11  25  42  65  92 136 163 212 260 321 374
#     4  11  24  40  63  98 130 160 211 275 315 357
#     4  11  22  39  65  90 125 166 213 255 317 375
#     4  12  22  36  63  98 123 161 214 269 310 361
#     4  10  22  37  63  95 122 169 210 257 320 371
#     4  10  20  36  62  89 122 160 214 261 300 373
#     4  11  24  44  66  91 127 181 204 251 320 391
#
# _framework density 20.492089
#
# number of rings (size 3 to 8) (size 9 to 14) (size 15 to 20)
#    0.000    1.143    4.286    2.143    4.000    1.143 
#    0.000    0.714    0.000    0.000    0.000    0.000 
#    0.000    0.000    0.000    0.000    0.000    0.000 
#
# Total GULP energy -78286.675404 kJ/mol
# GULP energy per Si atom -5591.905386 kJ/mol
# Density = 2.044545 g / cm^3
# Si number density = 20.492089 Si / 1000 Ang^3
#
#
#
# Elastic Constant Matrix: (Units=GPa)
#
#
# Indices 1 2 3 4 5 6 
#
# 1 96.4436 25.4668 38.7716 -4.5494 18.9512 22.9915
# 2 25.4668 81.2417 32.5616 -9.1819 13.4727 17.9287
# 3 38.7716 32.5616 68.5528 -16.1035 15.5594 18.8323
# 4 -4.5494 -9.1819 -16.1035 31.9290 5.0151 1.1275
# 5 18.9512 13.4727 15.5594 5.0151 44.5170 12.5172
# 6 22.9915 17.9287 18.8323 1.1275 12.5172 38.2559
#
#
#
# Elastic Compliance Matrix: (Units=1/GPa)
#
#
# Indices 1 2 3 4 5 6 
#
# 1 0.014617 -0.000743 -0.006300 -0.000766 -0.002440 -0.004514
# 2 -0.000743 0.016061 -0.005121 0.002369 -0.001894 -0.004010
# 3 -0.006300 -0.005121 0.025810 0.011557 -0.004584 -0.005360
# 4 -0.000766 0.002369 0.011557 0.039063 -0.007406 -0.005067
# 5 -0.002440 -0.001894 -0.004584 -0.007406 0.027703 -0.004235
# 6 -0.004514 -0.004010 -0.005360 -0.005067 -0.004235 0.034906
#
#
# Mechanical properties :
#
#
# Convention : Reuss Voigt Hill
#
# Bulk Modulus (GPa) = 31.09270 48.87090 39.98180
# Shear Modulus (GPa) = 25.87894 32.90294 29.39094
#
# Velocity S-wave (km/s) = 3.55755 4.01139 3.79127
# Velocity P-wave (km/s) = 5.66400 6.73465 6.22239
#
# Compressibility (1/GPa) = 0.03216189
#
# Stress axis : x y z
#
# Youngs Moduli (GPa) = 68.41257 62.26293 38.74400
#
# Poissons Ratio (x) = 0.04623 0.24409
# Poissons Ratio (y) = 0.05080 0.19839
# Poissons Ratio (z) = 0.43101 0.31882
#
# Static dielectric constant tensor:
#      x y z
#    x 1.735300 0.012370 0.006100 
#    y 0.012370 1.727550 0.068770 
#    z 0.006100 0.068770 1.742940 
# 
# From -- ./inp_files/159835.got.cif
#   From: 2010.05.17/outbox.cif.g08.bks.cpg/sg2_80_cif.got.tgz:159835.got - 2010.06.03 11:33:40.
