data_PCOD9097823
_publ_section_title
;
Structure prediction by ZEFSAII (Michael W. Deem and Ramdas Pophale) SiO2 
 PCOD9097823
Probable space group: P -1
;
_chemical_formula_sum "Si O2"
_cell_formula_units_Z 14
_cell_length_a 12.580548
_cell_length_b 11.211187
_cell_length_c 12.181426
_cell_angle_alpha 42.766977
_cell_angle_beta 114.916208
_cell_angle_gamma 82.419664
_cell_volume 738.142241
_symmetry_space_group_name_H-M "P -1"
_symmetry_group_IT_number 2
_symmetry_cell_setting 'triclinic'
loop_
_space_group_symop_operation_xyz
x,y,z
-x,-y,-z
loop_
_atom_site_type_symbol
_atom_site_label
_atom_site_fract_x
_atom_site_fract_y
_atom_site_fract_z
Si Si1 0.860079 0.582230 0.298859
Si Si2 0.635552 0.005048 0.058637
Si Si3 0.058122 0.085971 0.382091
Si Si4 0.510738 0.466449 0.396875
Si Si5 0.839325 0.193263 0.598579
Si Si6 0.882743 0.671385 0.595237
Si Si7 0.171006 0.637629 0.101300
O O1 0.721117 0.877991 0.063284
O O2 0.819019 0.425980 0.422575
O O3 0.000000 0.500000 0.500000
O O4 0.934203 0.504359 0.262290
O O5 0.756980 0.843204 0.324013
O O6 0.500000 0.000000 0.000000
O O7 0.558758 0.276668 0.854754
O O8 0.134172 0.165792 0.427695
O O9 0.898638 0.316992 0.082880
O O10 0.000000 0.000000 0.500000
O O11 0.178826 0.870745 0.487963
O O12 0.500000 0.500000 0.500000
O O13 0.701222 0.254450 0.577030
O O14 0.365409 0.483456 0.291508
O O15 0.035506 0.931306 0.887399
O O16 0.856082 0.506709 0.741600
#
# Coordination Sequence:
#
# PCOD9097823 Si02
#       7
#     2   2   2   2   2   2   2
#     4  10  20  36  62  89 121 164 215 251 314 375
#     4  11  22  38  60  91 130 159 212 262 312 375
#     4  10  20  42  67  91 125 166 219 259 313 380
#     4  12  25  42  62  95 135 164 210 264 319 382
#     4  10  23  42  64  94 127 167 217 256 321 374
#     4  11  21  41  66  91 123 173 207 263 320 374
#     4  10  24  40  64  92 131 162 213 259 319 374
#
# _framework density 18.966532999999998
#
# number of rings (size 3 to 8) (size 9 to 14) (size 15 to 20)
#    0.857    0.571    2.857    3.857    4.000    0.571 
#    0.000    5.000    0.000    0.000    0.000    0.000 
#    0.000    0.000    0.000    0.000    0.000    0.000 
#
# Total GULP energy -77944.710278 kJ/mol
# GULP energy per Si atom -5567.479306 kJ/mol
# Density = 1.892336 g / cm^3
# Si number density = 18.966533 Si / 1000 Ang^3
#
#
#
# Elastic Constant Matrix: (Units=GPa)
#
#
# Indices 1 2 3 4 5 6 
#
# 1 107.2122 23.9260 2.5765 5.6253 2.7925 -5.2024
# 2 23.9260 95.4243 2.8188 9.8222 9.7876 -2.4128
# 3 2.5765 2.8188 31.0693 16.1166 -7.1691 1.2915
# 4 5.6253 9.8222 16.1166 29.1409 -1.0040 -1.9163
# 5 2.7925 9.7876 -7.1691 -1.0040 34.2517 -2.5456
# 6 -5.2024 -2.4128 1.2915 -1.9163 -2.5456 36.3061
#
#
#
# Elastic Compliance Matrix: (Units=1/GPa)
#
#
# Indices 1 2 3 4 5 6 
#
# 1 0.009969 -0.002353 -0.000202 -0.000943 -0.000119 0.001221
# 2 -0.002353 0.011782 0.000375 -0.003835 -0.003209 0.000005
# 3 -0.000202 0.000375 0.048131 -0.026559 0.009020 -0.002486
# 4 -0.000943 -0.003835 -0.026559 0.050587 -0.002678 0.003037
# 5 -0.000119 -0.003209 0.009020 -0.002678 0.032047 0.001554
# 6 0.001221 0.000005 -0.002486 0.003037 0.001554 0.028077
#
#
# Mechanical properties :
#
#
# Convention : Reuss Voigt Hill
#
# Bulk Modulus (GPa) = 15.26246 32.48315 23.87281
# Shear Modulus (GPa) = 24.17852 33.56537 28.87194
#
# Velocity S-wave (km/s) = 3.57431 4.21136 3.90584
# Velocity P-wave (km/s) = 5.00986 6.38836 5.74064
#
# Compressibility (1/GPa) = 0.06552022
#
# Stress axis : x y z
#
# Youngs Moduli (GPa) = 100.30881 84.87193 20.77679
#
# Poissons Ratio (x) = 0.19974 0.00420
# Poissons Ratio (y) = 0.23607 -0.00778
# Poissons Ratio (z) = 0.02029 -0.03180
#
# Static dielectric constant tensor:
#      x y z
#    x 1.755030 -0.141620 0.172190 
#    y -0.141620 1.817840 -0.226630 
#    z 0.172190 -0.226630 1.939340 
# 
# From -- ./inp_files/270211.got.cif
#   From: 2010.05.17/outbox.cif.g08.bks.cpg/sg2_136_cif.got.tgz:270211.got - 2010.06.03 11:33:40.
