data_PCOD9097634
_publ_section_title
;
Structure prediction by ZEFSAII (Michael W. Deem and Ramdas Pophale) SiO2 
 PCOD9097634
Probable space group: P -1
;
_chemical_formula_sum "Si O2"
_cell_formula_units_Z 16
_cell_length_a 15.715641
_cell_length_b 10.431817
_cell_length_c 8.680894
_cell_angle_alpha 56.617271
_cell_angle_beta 132.669943
_cell_angle_gamma 98.636183
_cell_volume 814.222911
_symmetry_space_group_name_H-M "P -1"
_symmetry_group_IT_number 2
_symmetry_cell_setting 'triclinic'
loop_
_space_group_symop_operation_xyz
x,y,z
-x,-y,-z
loop_
_atom_site_type_symbol
_atom_site_label
_atom_site_fract_x
_atom_site_fract_y
_atom_site_fract_z
Si Si1 0.495467 0.139113 0.585190
Si Si2 0.667062 0.777890 0.943821
Si Si3 0.355910 0.355080 0.681305
Si Si4 0.196146 0.585389 0.061140
Si Si5 0.689842 0.916470 0.373228
Si Si6 0.397591 0.722000 0.098188
Si Si7 0.087057 0.391559 0.811154
Si Si8 0.976349 0.686816 0.906950
O O1 0.433780 0.236488 0.292092
O O2 0.383828 0.093991 0.556029
O O3 0.540117 0.245650 0.688697
O O4 0.606199 0.968326 0.795920
O O5 0.684962 0.649781 0.190723
O O6 0.797793 0.742130 0.044870
O O7 0.261941 0.470651 0.364313
O O8 0.372337 0.170242 0.767761
O O9 0.486821 0.376274 0.804271
O O10 0.297946 0.643332 0.069902
O O11 0.147690 0.492551 0.930777
O O12 0.078174 0.725608 0.903882
O O13 0.835771 0.807967 0.626346
O O14 0.667862 0.100545 0.177622
O O15 0.000000 0.500000 0.500000
O O16 0.011873 0.323834 0.886581
O O17 0.000000 0.500000 0.000000
#
# Coordination Sequence:
#
# PCOD9097634 Si02
#       8
#     2   2   2   2   2   2   2   2
#     4  10  20  36  61  91 119 153 195 248 293 345
#     4  11  20  34  62  93 114 148 207 240 293 340
#     4  11  19  37  62  89 114 160 198 237 283 356
#     4  11  24  40  59  88 120 157 200 245 292 344
#     4  11  18  38  63  86 115 155 210 238 277 352
#     4  11  22  38  60  89 124 154 195 243 297 348
#     4  11  22  37  61  86 116 154 202 244 289 350
#     4  10  20  38  60  81 112 156 205 243 273 346
#
# _framework density 19.650638000000001
#
# number of rings (size 3 to 8) (size 9 to 14) (size 15 to 20)
#    0.000    1.250    6.250    2.625    1.750    0.500 
#    0.000    3.750    0.000    1.500    0.000    0.000 
#    0.000    0.000    0.000    0.000    0.000    0.000 
#
# Total GULP energy -89230.601922 kJ/mol
# GULP energy per Si atom -5576.912620 kJ/mol
# Density = 1.960591 g / cm^3
# Si number density = 19.650638 Si / 1000 Ang^3
#
#
#
# Elastic Constant Matrix: (Units=GPa)
#
#
# Indices 1 2 3 4 5 6 
#
# 1 126.8202 16.4411 27.8829 0.0138 8.9673 -11.1532
# 2 16.4411 19.4942 8.7666 3.4516 -4.8499 2.5939
# 3 27.8829 8.7666 100.8426 3.2416 -1.4190 -4.6711
# 4 0.0138 3.4516 3.2416 15.5785 -10.8143 1.7766
# 5 8.9673 -4.8499 -1.4190 -10.8143 42.9000 -4.7790
# 6 -11.1532 2.5939 -4.6711 1.7766 -4.7790 30.2612
#
#
#
# Elastic Compliance Matrix: (Units=1/GPa)
#
#
# Indices 1 2 3 4 5 6 
#
# 1 0.009940 -0.008715 -0.001858 0.000005 -0.002712 0.003695
# 2 -0.008715 0.064091 -0.003164 -0.008519 0.005951 -0.007754
# 3 -0.001858 -0.003164 0.010823 -0.001612 0.000135 0.001373
# 4 0.000005 -0.008519 -0.001612 0.079698 0.018939 -0.001205
# 5 -0.002712 0.005951 0.000135 0.018939 0.029559 0.002068
# 6 0.003695 -0.007754 0.001373 -0.001205 0.002068 0.035681
#
#
# Mechanical properties :
#
#
# Convention : Reuss Voigt Hill
#
# Bulk Modulus (GPa) = 17.42754 39.25982 28.34368
# Shear Modulus (GPa) = 18.09026 30.68571 24.38799
#
# Velocity S-wave (km/s) = 3.03742 3.95595 3.52672
# Velocity P-wave (km/s) = 4.60317 6.39440 5.57124
#
# Compressibility (1/GPa) = 0.05738043
#
# Stress axis : x y z
#
# Youngs Moduli (GPa) = 100.60128 15.60283 92.40001
#
# Poissons Ratio (x) = 0.13598 0.17168
# Poissons Ratio (y) = 0.87675 0.29231
# Poissons Ratio (z) = 0.18692 0.04936
#
# Static dielectric constant tensor:
#      x y z
#    x 1.765700 -0.008330 0.000890 
#    y -0.008330 1.692120 -0.000620 
#    z 0.000890 -0.000620 1.742330 
# 
# From -- ./inp_files/218561.got.cif
#   From: 2010.05.17/outbox.cif.g08.bks.cpg/sg2_110_cif.got.tgz:218561.got - 2010.06.03 11:33:40.
