data_PCOD9097389
_publ_section_title
;
Structure prediction by ZEFSAII (Michael W. Deem and Ramdas Pophale) SiO2 
 PCOD9097389
Probable space group: P -1
;
_chemical_formula_sum "Si O2"
_cell_formula_units_Z 16
_cell_length_a 5.136672
_cell_length_b 17.818180
_cell_length_c 20.167620
_cell_angle_alpha 159.665398
_cell_angle_beta 108.795820
_cell_angle_gamma 70.003666
_cell_volume 602.765216
_symmetry_space_group_name_H-M "P -1"
_symmetry_group_IT_number 2
_symmetry_cell_setting 'triclinic'
loop_
_space_group_symop_operation_xyz
x,y,z
-x,-y,-z
loop_
_atom_site_type_symbol
_atom_site_label
_atom_site_fract_x
_atom_site_fract_y
_atom_site_fract_z
Si Si1 0.785706 0.182994 0.236879
Si Si2 0.221724 0.656784 0.125225
Si Si3 0.581093 0.269479 0.664358
Si Si4 0.500071 0.764035 0.870759
Si Si5 0.504898 0.867893 0.597799
Si Si6 0.757178 0.156489 0.955715
Si Si7 0.976230 0.417920 0.085077
Si Si8 0.119840 0.623808 0.458971
O O1 0.732289 0.274502 0.234881
O O2 0.765398 0.337953 0.426572
O O3 0.083015 0.045190 0.158586
O O4 0.562717 0.012006 0.083807
O O5 0.283571 0.808693 0.317979
O O6 0.500000 0.500000 0.000000
O O7 0.099521 0.734485 0.108853
O O8 0.000000 0.500000 0.000000
O O9 0.562987 0.110058 0.468104
O O10 0.282547 0.398557 0.765518
O O11 0.774892 0.448396 0.803053
O O12 0.778184 0.624901 0.753048
O O13 0.405028 0.701147 0.883391
O O14 0.278191 0.752889 0.523877
O O15 0.801103 0.719144 0.505628
O O16 0.549951 0.080124 0.820185
O O17 0.984324 0.262347 0.019611
#
# Coordination Sequence:
#
# PCOD9097389 Si02
#       8
#     2   2   2   2   2   2   2   2
#     4  10  24  43  60  92 124 162 212 268 318 373
#     4   8  16  33  54  87 121 153 201 256 295 360
#     4  10  20  36  60  90 121 163 206 252 303 371
#     4  11  23  42  66  86 122 170 211 262 320 380
#     4  11  24  40  60  92 132 160 209 263 313 368
#     4  11  24  40  60  92 129 164 206 269 315 375
#     4  10  21  35  64  89 119 161 211 248 311 370
#     4  11  24  43  64  92 123 169 211 262 315 379
#
# _framework density 26.544331
#
# number of rings (size 3 to 8) (size 9 to 14) (size 15 to 20)
#    0.000    1.750    1.250    2.250    7.000    0.000 
#    0.000    2.500    0.000    0.000    0.000   13.125 
#    0.000    0.000    0.000    0.375    0.000    0.000 
#
# Total GULP energy -89612.222002 kJ/mol
# GULP energy per Si atom -5600.763875 kJ/mol
# Density = 2.648392 g / cm^3
# Si number density = 26.544331 Si / 1000 Ang^3
#
#
#
# Elastic Constant Matrix: (Units=GPa)
#
#
# Indices 1 2 3 4 5 6 
#
# 1 130.0058 23.0951 16.3828 -1.4499 -13.3913 6.3003
# 2 23.0951 119.1988 60.7365 -61.4483 -14.0378 5.3644
# 3 16.3828 60.7365 142.1223 -65.7453 -9.2923 6.5165
# 4 -1.4499 -61.4483 -65.7453 64.5334 1.8211 -0.8805
# 5 -13.3913 -14.0378 -9.2923 1.8211 28.8151 -7.5476
# 6 6.3003 5.3644 6.5165 -0.8805 -7.5476 32.6381
#
#
#
# Elastic Compliance Matrix: (Units=1/GPa)
#
#
# Indices 1 2 3 4 5 6 
#
# 1 0.008564 -0.002597 -0.001494 -0.003876 0.002350 -0.000489
# 2 -0.002597 0.018970 0.001753 0.019579 0.007158 -0.000783
# 3 -0.001494 0.001753 0.014094 0.015880 0.003275 -0.001628
# 4 -0.003876 0.019579 0.015880 0.049942 0.009130 -0.002182
# 5 0.002350 0.007158 0.003275 0.009130 0.041758 0.007619
# 6 -0.000489 -0.000783 -0.001628 -0.002182 0.007619 0.032890
#
#
# Mechanical properties :
#
#
# Convention : Reuss Voigt Hill
#
# Bulk Modulus (GPa) = 27.06229 65.75063 46.40646
# Shear Modulus (GPa) = 27.29072 44.60481 35.94776
#
# Velocity S-wave (km/s) = 3.20991 4.10370 3.68401
# Velocity P-wave (km/s) = 4.89441 6.87588 5.96796
#
# Compressibility (1/GPa) = 0.03695178
#
# Stress axis : x y z
#
# Youngs Moduli (GPa) = 116.76542 52.71350 70.95293
#
# Poissons Ratio (x) = 0.13692 0.10602
# Poissons Ratio (y) = 0.30329 -0.12440
# Poissons Ratio (z) = 0.17447 -0.09242
#
# Static dielectric constant tensor:
#      x y z
#    x 2.036320 -0.026220 0.025740 
#    y -0.026220 2.123740 -0.032010 
#    z 0.025740 -0.032010 2.105600 
# 
# From -- ./inp_files/584235.got.cif
#   From: 2010.05.17/outbox.cif.g08.bks.cpg/sg2_293_cif.got.tgz:584235.got - 2010.06.03 11:33:40.
