data_PCOD9097991
_publ_section_title
;
Structure prediction by ZEFSAII (Michael W. Deem and Ramdas Pophale) SiO2 
 PCOD9097991
Probable space group: P -1
;
_chemical_formula_sum "Si O2"
_cell_formula_units_Z 14
_cell_length_a 11.837039
_cell_length_b 7.476458
_cell_length_c 11.250937
_cell_angle_alpha 119.698663
_cell_angle_beta 110.286589
_cell_angle_gamma 37.335601
_cell_volume 522.440485
_symmetry_space_group_name_H-M "P -1"
_symmetry_group_IT_number 2
_symmetry_cell_setting 'triclinic'
loop_
_space_group_symop_operation_xyz
x,y,z
-x,-y,-z
loop_
_atom_site_type_symbol
_atom_site_label
_atom_site_fract_x
_atom_site_fract_y
_atom_site_fract_z
Si Si1 0.281922 0.719322 0.302417
Si Si2 0.059533 0.770051 0.813050
Si Si3 0.658960 0.026033 0.181990
Si Si4 0.852750 0.803637 0.424376
Si Si5 0.228946 0.426186 0.355015
Si Si6 0.540376 0.764132 0.176127
Si Si7 0.174262 0.147835 0.061811
O O1 0.475112 0.399546 0.209546
O O2 0.268701 0.597388 0.375475
O O3 0.107198 0.910074 0.215253
O O4 0.264246 0.971745 0.430813
O O5 0.977284 0.808363 0.924208
O O6 0.103499 0.493676 0.673657
O O7 0.266388 0.593378 0.834491
O O8 0.744840 0.996687 0.326522
O O9 0.595695 0.872202 0.136205
O O10 0.801366 0.850593 0.067398
O O11 0.055802 0.647867 0.453034
O O12 0.149327 0.398258 0.203981
O O13 0.425062 0.052009 0.326361
O O14 0.379064 0.832160 0.087849
#
# Coordination Sequence:
#
# PCOD9097991 Si02
#       7
#     2   2   2   2   2   2   2
#     4  11  21  36  56  88 119 147 188 238 283 333
#     4  10  21  37  60  85 117 152 182 234 295 336
#     4  10  20  36  63  82 113 150 195 237 274 333
#     4  10  20  38  59  83 113 157 192 227 280 343
#     4   8  19  36  60  81 114 144 196 241 267 335
#     4   8  18  36  58  83 111 146 187 230 282 335
#     4   9  19  39  62  83 113 147 196 228 286 341
#
# _framework density 26.797312999999999
#
# number of rings (size 3 to 8) (size 9 to 14) (size 15 to 20)
#    0.857    1.714    0.000    1.714    0.000    5.714 
#    2.571    1.429    0.000    0.000    0.000    0.000 
#    0.000    0.000    0.000    0.000    0.000    0.000 
#
# Total GULP energy -78302.916800 kJ/mol
# GULP energy per Si atom -5593.065486 kJ/mol
# Density = 2.673632 g / cm^3
# Si number density = 26.797313 Si / 1000 Ang^3
#
#
#
# Elastic Constant Matrix: (Units=GPa)
#
#
# Indices 1 2 3 4 5 6 
#
# 1 109.1996 12.9535 21.6281 6.2033 -15.9370 -15.1390
# 2 12.9535 171.0086 42.4347 12.4023 -14.4277 -35.1059
# 3 21.6281 42.4347 93.8316 4.7780 -10.7075 -0.3383
# 4 6.2033 12.4023 4.7780 40.5685 -0.3339 -0.5960
# 5 -15.9370 -14.4277 -10.7075 -0.3339 25.8725 1.8150
# 6 -15.1390 -35.1059 -0.3383 -0.5960 1.8150 40.2653
#
#
#
# Elastic Compliance Matrix: (Units=1/GPa)
#
#
# Indices 1 2 3 4 5 6 
#
# 1 0.011202 0.001473 -0.002417 -0.001750 0.006336 0.005164
# 2 0.001473 0.008781 -0.003746 -0.002321 0.003664 0.007979
# 3 -0.002417 -0.003746 0.013143 -0.000077 0.002153 -0.004162
# 4 -0.001750 -0.002321 -0.000077 0.025588 -0.001919 -0.002217
# 5 0.006336 0.003664 0.002153 -0.001919 0.045216 0.003528
# 6 0.005164 0.007979 -0.004162 -0.002217 0.003528 0.033506
#
#
# Mechanical properties :
#
#
# Convention : Reuss Voigt Hill
#
# Bulk Modulus (GPa) = 42.11275 58.67471 50.39373
# Shear Modulus (GPa) = 32.31428 41.14281 36.72855
#
# Velocity S-wave (km/s) = 3.47634 3.92258 3.70619
# Velocity P-wave (km/s) = 5.64470 6.51604 6.09596
#
# Compressibility (1/GPa) = 0.02374578
#
# Stress axis : x y z
#
# Youngs Moduli (GPa) = 89.27253 113.88367 76.08605
#
# Poissons Ratio (x) = -0.16775 0.18392
# Poissons Ratio (y) = -0.13149 0.28498
# Poissons Ratio (z) = 0.21580 0.42655
#
# Static dielectric constant tensor:
#      x y z
#    x 2.090540 0.006880 0.047860 
#    y 0.006880 2.117910 0.016960 
#    z 0.047860 0.016960 2.120390 
# 
# From -- ./inp_files/335579.got.cif
#   From: 2010.05.17/outbox.cif.g08.bks.cpg/sg2_168_cif.got.tgz:335579.got - 2010.06.03 11:33:40.
