data_PCOD9097902
_publ_section_title
;
Structure prediction by ZEFSAII (Michael W. Deem and Ramdas Pophale) SiO2 
 PCOD9097902
Probable space group: P -1
;
_chemical_formula_sum "Si O2"
_cell_formula_units_Z 16
_cell_length_a 9.636900
_cell_length_b 8.557903
_cell_length_c 16.446206
_cell_angle_alpha 122.918559
_cell_angle_beta 50.777400
_cell_angle_gamma 82.129411
_cell_volume 594.249164
_symmetry_space_group_name_H-M "P -1"
_symmetry_group_IT_number 2
_symmetry_cell_setting 'triclinic'
loop_
_space_group_symop_operation_xyz
x,y,z
-x,-y,-z
loop_
_atom_site_type_symbol
_atom_site_label
_atom_site_fract_x
_atom_site_fract_y
_atom_site_fract_z
Si Si1 0.579912 0.764658 0.603830
Si Si2 0.689531 0.474297 0.734093
Si Si3 0.407496 0.357022 0.007426
Si Si4 0.292214 0.912144 0.592659
Si Si5 0.788708 0.018322 0.044994
Si Si6 0.987381 0.786296 0.625881
Si Si7 0.167463 0.439877 0.783916
Si Si8 0.583185 0.700145 0.192750
O O1 0.406399 0.798774 0.608554
O O2 0.862516 0.459527 0.434518
O O3 0.418605 0.863213 0.773776
O O4 0.567704 0.990124 0.648113
O O5 0.894301 0.343518 0.545799
O O6 0.630592 0.300072 0.719613
O O7 0.394304 0.773273 0.901595
O O8 0.744833 0.519674 0.815122
O O9 0.300379 0.388686 0.966399
O O10 0.500000 0.500000 0.000000
O O11 0.671627 0.024453 0.819064
O O12 0.074288 0.929839 0.655844
O O13 0.550597 0.681295 0.377442
O O14 0.210230 0.188045 0.686483
O O15 0.953182 0.703718 0.881590
O O16 0.000000 0.000000 0.000000
O O17 0.166822 0.502583 0.896065
#
# Coordination Sequence:
#
# PCOD9097902 Si02
#       8
#     2   2   2   2   2   2   2   2
#     4  10  24  36  65  92 124 163 204 257 318 372
#     4  10  22  42  63  96 123 165 210 256 314 370
#     4  10  25  40  67  89 121 171 214 253 308 369
#     4  10  21  37  60  95 125 161 204 250 321 379
#     4  11  21  37  62  92 127 160 199 262 316 366
#     4  11  22  42  63  93 127 162 210 262 310 365
#     4  10  20  36  62  92 130 160 196 259 315 369
#     4  10  20  43  59  88 128 161 214 254 301 375
#
# _framework density 26.92473
#
# number of rings (size 3 to 8) (size 9 to 14) (size 15 to 20)
#    0.000    1.750    2.500    1.125    3.500    6.500 
#    0.000    2.500    2.750    0.000    0.000    0.000 
#    0.000    0.000    0.000    0.000    0.000    0.000 
#
# Total GULP energy -89669.912665 kJ/mol
# GULP energy per Si atom -5604.369542 kJ/mol
# Density = 2.686345 g / cm^3
# Si number density = 26.924730 Si / 1000 Ang^3
#
#
#
# Elastic Constant Matrix: (Units=GPa)
#
#
# Indices 1 2 3 4 5 6 
#
# 1 130.7954 24.4369 24.3871 1.3291 31.1745 -16.4812
# 2 24.4369 86.9682 21.1834 19.1448 9.0780 -7.2198
# 3 24.3871 21.1834 98.7537 6.7554 2.9780 -23.6198
# 4 1.3291 19.1448 6.7554 46.1449 -10.8902 2.3239
# 5 31.1745 9.0780 2.9780 -10.8902 42.4445 -3.9765
# 6 -16.4812 -7.2198 -23.6198 2.3239 -3.9765 45.4728
#
#
#
# Elastic Compliance Matrix: (Units=1/GPa)
#
#
# Indices 1 2 3 4 5 6 
#
# 1 0.010160 -0.001273 -0.001399 -0.001379 -0.007240 0.002191
# 2 -0.001273 0.014193 -0.001998 -0.006433 -0.003539 0.000773
# 3 -0.001399 -0.001998 0.012306 -0.001015 0.000865 0.005695
# 4 -0.001379 -0.006433 -0.001015 0.026806 0.009092 -0.002623
# 5 -0.007240 -0.003539 0.000865 0.009092 0.031868 -0.000415
# 6 0.002191 0.000773 0.005695 -0.002623 -0.000415 0.025964
#
#
# Mechanical properties :
#
#
# Convention : Reuss Voigt Hill
#
# Bulk Modulus (GPa) = 36.60651 50.72578 43.66614
# Shear Modulus (GPa) = 35.77988 43.24644 39.51316
#
# Velocity S-wave (km/s) = 3.64934 4.01209 3.83501
# Velocity P-wave (km/s) = 5.60199 6.35163 5.98855
#
# Compressibility (1/GPa) = 0.02731755
#
# Stress axis : x y z
#
# Youngs Moduli (GPa) = 98.42499 70.45933 81.26186
#
# Poissons Ratio (x) = 0.08968 0.11371
# Poissons Ratio (y) = 0.12528 0.16239
# Poissons Ratio (z) = 0.13773 0.14080
#
# Static dielectric constant tensor:
#      x y z
#    x 2.218760 -0.038430 -0.022100 
#    y -0.038430 2.167560 -0.012600 
#    z -0.022100 -0.012600 2.122150 
# 
# From -- ./inp_files/467143.got.cif
#   From: 2010.05.17/outbox.cif.g08.bks.cpg/sg2_234_cif.got.tgz:467143.got - 2010.06.03 11:33:40.
