data_PCOD9097156
_publ_section_title
;
Structure prediction by ZEFSAII (Michael W. Deem and Ramdas Pophale) SiO2 
 PCOD9097156
Probable space group: P -1
;
_chemical_formula_sum "Si O2"
_cell_formula_units_Z 15
_cell_length_a 19.090145
_cell_length_b 20.948479
_cell_length_c 12.243944
_cell_angle_alpha 29.717851
_cell_angle_beta 152.016182
_cell_angle_gamma 164.080538
_cell_volume 623.080790
_symmetry_space_group_name_H-M "P -1"
_symmetry_group_IT_number 2
_symmetry_cell_setting 'triclinic'
loop_
_space_group_symop_operation_xyz
x,y,z
-x,-y,-z
loop_
_atom_site_type_symbol
_atom_site_label
_atom_site_fract_x
_atom_site_fract_y
_atom_site_fract_z
Si Si1 0.933467 0.326802 0.096595
Si Si2 0.345114 0.980258 0.143660
Si Si3 0.207257 0.238009 0.864931
Si Si4 0.333857 0.252884 0.781381
Si Si5 0.420803 0.028337 0.682976
Si Si6 0.135005 0.279200 0.288646
Si Si7 0.000000 0.500000 0.500000
Si Si8 0.302032 0.539457 0.683907
O O1 0.161442 0.418901 0.203089
O O2 0.811229 0.142929 0.291909
O O3 0.695125 0.193971 0.882726
O O4 0.000000 0.500000 0.000000
O O5 0.587774 0.087286 0.251186
O O6 0.193164 0.760245 0.330046
O O7 0.134615 0.885022 0.905955
O O8 0.416479 0.161101 0.040159
O O9 0.188519 0.191612 0.781617
O O10 0.168430 0.355131 0.680270
O O11 0.521302 0.426713 0.045759
O O12 0.000000 0.000000 0.000000
O O13 0.151042 0.165921 0.555764
O O14 0.613676 0.531509 0.729474
O O15 0.478079 0.206153 0.444721
O O16 0.102118 0.480622 0.568512
#
# Coordination Sequence:
#
# PCOD9097156 Si02
#       8
#     2   2   2   2   2   2   1   2
#     4  10  20  36  59  89 123 159 204 258 307 377
#     4  10  20  41  62  91 124 164 208 264 317 373
#     4  11  25  42  64  95 129 169 216 263 325 384
#     4  11  23  40  62  92 126 166 215 256 312 385
#     4   9  21  37  59  88 120 159 205 252 322 364
#     4  10  23  39  60  93 126 167 210 255 318 374
#     4  10  20  42  72  88 126 172 214 262 324 384
#     4  10  23  43  63  93 128 166 209 271 317 381
#
# _framework density 24.073924999999999
#
# number of rings (size 3 to 8) (size 9 to 14) (size 15 to 20)
#    0.000    1.867    0.000    2.800    3.733    1.067 
#    4.800   14.667    0.000    0.000    0.000    0.000 
#    0.000    0.000    0.000    0.000    0.000    0.000 
#
# Total GULP energy -83627.228087 kJ/mol
# GULP energy per Si atom -5575.148539 kJ/mol
# Density = 2.401913 g / cm^3
# Si number density = 24.073925 Si / 1000 Ang^3
#
#
#
# Elastic Constant Matrix: (Units=GPa)
#
#
# Indices 1 2 3 4 5 6 
#
# 1 142.0454 33.8642 42.8865 -24.0553 18.9495 10.9040
# 2 33.8642 18.4727 13.6739 -2.8600 4.4831 6.2070
# 3 42.8865 13.6739 85.7729 -20.6466 10.0154 6.6961
# 4 -24.0553 -2.8600 -20.6466 32.2403 -6.1974 1.8081
# 5 18.9495 4.4831 10.0154 -6.1974 39.1518 -12.7949
# 6 10.9040 6.2070 6.6961 1.8081 -12.7949 31.6660
#
#
#
# Elastic Compliance Matrix: (Units=1/GPa)
#
#
# Indices 1 2 3 4 5 6 
#
# 1 0.015097 -0.023892 -0.001269 0.007737 -0.003741 -0.002201
# 2 -0.023892 0.106195 -0.006507 -0.012842 -0.005057 -0.012523
# 3 -0.001269 -0.006507 0.015858 0.008346 -0.002383 -0.003081
# 4 0.007737 -0.012842 0.008346 0.041380 0.000857 -0.003928
# 5 -0.003741 -0.005057 -0.002383 0.000857 0.034069 0.016501
# 6 -0.002201 -0.012523 -0.003081 -0.003928 0.016501 0.042335
#
#
# Mechanical properties :
#
#
# Convention : Reuss Voigt Hill
#
# Bulk Modulus (GPa) = 13.54721 47.46003 30.50362
# Shear Modulus (GPa) = 14.58255 31.00272 22.79263
#
# Velocity S-wave (km/s) = 2.46385 3.59250 3.08031
# Velocity P-wave (km/s) = 3.70589 6.07990 5.03482
#
# Compressibility (1/GPa) = 0.07381594
#
# Stress axis : x y z
#
# Youngs Moduli (GPa) = 66.23751 9.41660 63.05862
#
# Poissons Ratio (x) = 0.22498 0.08001
# Poissons Ratio (y) = 1.58252 0.41032
# Poissons Ratio (z) = 0.08404 0.06127
#
# Static dielectric constant tensor:
#      x y z
#    x 1.909930 -0.073060 0.005220 
#    y -0.073060 1.945580 0.060980 
#    z 0.005220 0.060980 1.984150 
# 
# From -- ./inp_files/68891.got.cif
#   From: 2010.05.17/outbox.cif.g08.bks.cpg/sg2_35_cif.got.tgz:68891.got - 2010.06.03 11:33:40.
