data_PCOD9097544
_publ_section_title
;
Structure prediction by ZEFSAII (Michael W. Deem and Ramdas Pophale) SiO2 
 PCOD9097544
Probable space group: P -1
;
_chemical_formula_sum "Si O2"
_cell_formula_units_Z 14
_cell_length_a 9.857936
_cell_length_b 9.411953
_cell_length_c 16.617761
_cell_angle_alpha 42.348096
_cell_angle_beta 31.263897
_cell_angle_gamma 57.795725
_cell_volume 517.055073
_symmetry_space_group_name_H-M "P -1"
_symmetry_group_IT_number 2
_symmetry_cell_setting 'triclinic'
loop_
_space_group_symop_operation_xyz
x,y,z
-x,-y,-z
loop_
_atom_site_type_symbol
_atom_site_label
_atom_site_fract_x
_atom_site_fract_y
_atom_site_fract_z
Si Si1 0.207120 0.525096 0.250799
Si Si2 0.144395 0.138903 0.684305
Si Si3 0.403559 0.226326 0.759702
Si Si4 0.688520 0.852985 0.566273
Si Si5 0.621881 0.799783 0.036950
Si Si6 0.200287 0.845194 0.921567
Si Si7 0.930538 0.214953 0.405124
O O1 0.121152 0.302266 0.441824
O O2 0.502953 0.650120 0.084125
O O3 0.009813 0.676081 0.305560
O O4 0.172875 0.429428 0.217184
O O5 0.373050 0.189836 0.478372
O O6 0.220432 0.061697 0.763796
O O7 0.936366 0.917930 0.845084
O O8 0.477366 0.295527 0.784795
O O9 0.674337 0.283275 0.545409
O O10 0.307890 0.958258 0.905029
O O11 0.118817 0.285901 0.861948
O O12 0.424997 0.765832 0.793737
O O13 0.830978 0.104038 0.416568
O O14 0.500000 0.000000 0.000000
O O15 0.000000 0.000000 0.500000
#
# Coordination Sequence:
#
# PCOD9097544 Si02
#       7
#     2   2   2   2   2   2   2
#     4  10  21  36  59  88 114 153 196 237 288 344
#     4  10  20  36  61  87 118 148 195 238 291 338
#     4   9  18  35  58  80 112 155 196 219 290 344
#     4  10  20  36  61  87 118 148 195 238 291 338
#     4   9  20  33  58  86 116 148 189 237 285 341
#     4   9  19  38  60  80 117 161 188 232 290 347
#     4   9  20  33  58  86 116 148 189 237 285 341
#
# _framework density 27.076418
#
# number of rings (size 3 to 8) (size 9 to 14) (size 15 to 20)
#    0.000    2.571    0.000    0.857   10.000    0.000 
#    0.000    6.429   22.000    0.000    0.000    0.000 
#    0.000    0.000    0.000    0.000    0.000    0.000 
#
# Total GULP energy -78043.995193 kJ/mol
# GULP energy per Si atom -5574.571085 kJ/mol
# Density = 2.701479 g / cm^3
# Si number density = 27.076418 Si / 1000 Ang^3
#
#
#
# Elastic Constant Matrix: (Units=GPa)
#
#
# Indices 1 2 3 4 5 6 
#
# 1 104.1016 49.0557 32.1416 5.7016 -12.5948 16.5135
# 2 49.0557 150.6078 48.5145 -7.3494 -4.1002 17.8622
# 3 32.1416 48.5145 84.6535 4.6978 -25.3781 23.2192
# 4 5.7016 -7.3494 4.6978 40.3811 14.3934 -5.9728
# 5 -12.5948 -4.1002 -25.3781 14.3934 41.8391 5.0638
# 6 16.5135 17.8622 23.2192 -5.9728 5.0638 37.3494
#
#
#
# Elastic Compliance Matrix: (Units=1/GPa)
#
#
# Indices 1 2 3 4 5 6 
#
# 1 0.013587 -0.004421 0.002469 -0.007211 0.008572 -0.007743
# 2 -0.004421 0.010385 -0.008454 0.007186 -0.008463 0.004540
# 3 0.002469 -0.008454 0.032102 -0.019523 0.029015 -0.024061
# 4 -0.007211 0.007186 -0.019523 0.043911 -0.031215 0.023143
# 5 0.008572 -0.008463 0.029015 -0.031215 0.057693 -0.030595
# 6 -0.007743 0.004540 -0.024061 0.023143 -0.030595 0.050833
#
#
# Mechanical properties :
#
#
# Convention : Reuss Voigt Hill
#
# Bulk Modulus (GPa) = 28.35970 66.53182 47.44576
# Shear Modulus (GPa) = 20.74020 37.89068 29.31544
#
# Velocity S-wave (km/s) = 2.77065 3.74491 3.29400
# Velocity P-wave (km/s) = 4.55324 6.58212 5.65935
#
# Compressibility (1/GPa) = 0.03526131
#
# Stress axis : x y z
#
# Youngs Moduli (GPa) = 73.59709 96.29469 31.15091
#
# Poissons Ratio (x) = 0.42572 -0.07690
# Poissons Ratio (y) = 0.32538 0.26335
# Poissons Ratio (z) = -0.18169 0.81407
#
# Static dielectric constant tensor:
#      x y z
#    x 2.252880 0.043190 0.032960 
#    y 0.043190 2.299140 -0.095370 
#    z 0.032960 -0.095370 2.325240 
# 
# From -- ./inp_files/179149.got.cif
#   From: 2010.05.17/outbox.cif.g08.bks.cpg/sg2_90_cif.got.tgz:179149.got - 2010.06.03 11:33:40.
