data_PCOD9097618
_publ_section_title
;
Structure prediction by ZEFSAII (Michael W. Deem and Ramdas Pophale) SiO2 
 PCOD9097618
Probable space group: P -1
;
_chemical_formula_sum "Si O2"
_cell_formula_units_Z 15
_cell_length_a 19.350470
_cell_length_b 20.660188
_cell_length_c 5.883320
_cell_angle_alpha 76.747055
_cell_angle_beta 77.272453
_cell_angle_gamma 14.068617
_cell_volume 556.499216
_symmetry_space_group_name_H-M "P -1"
_symmetry_group_IT_number 2
_symmetry_cell_setting 'triclinic'
loop_
_space_group_symop_operation_xyz
x,y,z
-x,-y,-z
loop_
_atom_site_type_symbol
_atom_site_label
_atom_site_fract_x
_atom_site_fract_y
_atom_site_fract_z
Si Si1 0.778388 0.049785 0.165666
Si Si2 0.238804 0.192994 0.969778
Si Si3 0.296798 0.486607 0.781591
Si Si4 0.092970 0.863192 0.851357
Si Si5 0.399545 0.685685 0.534360
Si Si6 0.138403 0.162498 0.832419
Si Si7 0.810278 0.542569 0.399101
Si Si8 0.000000 0.500000 0.500000
O O1 0.697991 0.170753 0.329000
O O2 0.774189 0.976071 0.283969
O O3 0.539173 0.272055 0.967457
O O4 0.070826 0.812514 0.033343
O O5 0.343109 0.031776 0.892874
O O6 0.054504 0.403009 0.756581
O O7 0.065916 0.329282 0.209204
O O8 0.500000 0.000000 0.000000
O O9 0.315547 0.539288 0.588497
O O10 0.352017 0.367909 0.696838
O O11 0.006635 0.739457 0.923378
O O12 0.378703 0.632470 0.714076
O O13 0.845232 0.091555 0.658666
O O14 0.000000 0.000000 0.000000
O O15 0.913633 0.407438 0.651196
O O16 0.752864 0.668602 0.438442
#
# Coordination Sequence:
#
# PCOD9097618 Si02
#       8
#     2   2   2   2   2   2   2   1
#     4  10  20  36  61  90 119 166 206 257 316 371
#     4  10  23  43  62  91 123 165 207 264 320 384
#     4  10  21  38  59  86 124 162 206 259 315 369
#     4   8  16  32  57  87 123 159 207 251 306 376
#     4   9  17  33  59  89 118 163 208 254 310 369
#     4  10  23  40  58  91 126 158 210 259 310 385
#     4  10  22  42  59  86 121 159 202 259 313 380
#     4  10  22  40  64  88 120 162 208 256 318 378
#
# _framework density 26.954214
#
# number of rings (size 3 to 8) (size 9 to 14) (size 15 to 20)
#    0.000    2.400    0.000    1.200    1.867    6.400 
#    9.600    0.667    0.000   32.800    0.000    0.000 
#    0.000    0.000    0.000    0.000    0.000    0.000 
#
# Total GULP energy -83585.175339 kJ/mol
# GULP energy per Si atom -5572.345023 kJ/mol
# Density = 2.689286 g / cm^3
# Si number density = 26.954214 Si / 1000 Ang^3
#
#
#
# Elastic Constant Matrix: (Units=GPa)
#
#
# Indices 1 2 3 4 5 6 
#
# 1 186.2567 33.4722 43.9484 -1.1301 23.2457 -36.0517
# 2 33.4722 57.2725 34.1476 11.2328 -1.1498 -19.9047
# 3 43.9484 34.1476 101.7250 20.3757 1.7784 -20.6731
# 4 -1.1301 11.2328 20.3757 31.4165 -7.6732 0.8426
# 5 23.2457 -1.1498 1.7784 -7.6732 53.9827 -10.4489
# 6 -36.0517 -19.9047 -20.6731 0.8426 -10.4489 38.6102
#
#
#
# Elastic Compliance Matrix: (Units=1/GPa)
#
#
# Indices 1 2 3 4 5 6 
#
# 1 0.007246 -0.002032 -0.001898 0.001601 -0.002079 0.004104
# 2 -0.002032 0.026130 -0.004737 -0.005960 0.002654 0.009885
# 3 -0.001898 -0.004737 0.014602 -0.007988 -0.000178 0.003730
# 4 0.001601 -0.005960 -0.007988 0.040351 0.004093 -0.005628
# 5 -0.002079 0.002654 -0.000178 0.004093 0.021018 0.004930
# 6 0.004104 0.009885 0.003730 -0.005628 0.004930 0.038282
#
#
# Mechanical properties :
#
#
# Convention : Reuss Voigt Hill
#
# Bulk Modulus (GPa) = 32.63444 63.15450 47.89447
# Shear Modulus (GPa) = 28.54229 40.38095 34.46162
#
# Velocity S-wave (km/s) = 3.25763 3.87477 3.57953
# Velocity P-wave (km/s) = 5.12671 6.59542 5.90689
#
# Compressibility (1/GPa) = 0.03064247
#
# Stress axis : x y z
#
# Youngs Moduli (GPa) = 138.01538 38.26965 68.48373
#
# Poissons Ratio (x) = 0.07777 0.13001
# Poissons Ratio (y) = 0.28046 0.32442
# Poissons Ratio (z) = 0.26201 0.18129
#
# Static dielectric constant tensor:
#      x y z
#    x 2.241730 -0.013700 0.035650 
#    y -0.013700 2.168780 0.029980 
#    z 0.035650 0.029980 2.166790 
# 
# From -- ./inp_files/103663.got.cif
#   From: 2010.05.17/outbox.cif.g08.bks.cpg/sg2_52_cif.got.tgz:103663.got - 2010.06.03 11:33:40.
