data_PCOD9097768
_publ_section_title
;
Structure prediction by ZEFSAII (Michael W. Deem and Ramdas Pophale) SiO2 
 PCOD9097768
Probable space group: P -1
;
_chemical_formula_sum "Si O2"
_cell_formula_units_Z 14
_cell_length_a 11.093429
_cell_length_b 13.976379
_cell_length_c 10.954253
_cell_angle_alpha 29.359230
_cell_angle_beta 54.176048
_cell_angle_gamma 65.788011
_cell_volume 653.457439
_symmetry_space_group_name_H-M "P -1"
_symmetry_group_IT_number 2
_symmetry_cell_setting 'triclinic'
loop_
_space_group_symop_operation_xyz
x,y,z
-x,-y,-z
loop_
_atom_site_type_symbol
_atom_site_label
_atom_site_fract_x
_atom_site_fract_y
_atom_site_fract_z
Si Si1 0.633331 0.948421 0.061268
Si Si2 0.171843 0.286543 0.300742
Si Si3 0.159595 0.776138 0.525793
Si Si4 0.401168 0.538503 0.681774
Si Si5 0.734445 0.091652 0.415089
Si Si6 0.436450 0.763431 0.044819
Si Si7 0.656269 0.451614 0.909983
O O1 0.546719 0.729763 0.406398
O O2 0.500000 0.000000 0.000000
O O3 0.778149 0.007706 0.819919
O O4 0.670004 0.118189 0.955505
O O5 0.176712 0.056040 0.536919
O O6 0.012334 0.315065 0.313224
O O7 0.307125 0.424436 0.981894
O O8 0.210700 0.358525 0.335659
O O9 0.271397 0.628639 0.594231
O O10 0.181030 0.819754 0.608605
O O11 0.476648 0.365687 0.776106
O O12 0.697739 0.264335 0.162404
O O13 0.570903 0.944071 0.711497
O O14 0.361950 0.615066 0.145384
O O15 0.500000 0.500000 0.000000
#
# Coordination Sequence:
#
# PCOD9097768 Si02
#       7
#     2   2   2   2   2   2   2
#     4  10  21  38  58  85 121 158 194 238 289 351
#     4  11  23  37  58  92 120 154 189 249 297 341
#     4  11  21  40  58  88 128 149 194 240 301 349
#     4  10  20  36  62  86 118 152 196 242 287 340
#     4  11  21  37  61  89 119 150 194 251 295 338
#     4  11  21  36  60  91 112 155 205 240 284 347
#     4  12  22  36  60  90 118 153 197 246 293 344
#
# _framework density 21.424502
#
# number of rings (size 3 to 8) (size 9 to 14) (size 15 to 20)
#    0.000    1.143    7.143    1.286    0.000    2.286 
#    0.000    0.714    0.000    1.714    0.000    0.000 
#    0.000    0.000    0.000    0.000    0.000    0.000 
#
# Total GULP energy -78063.931567 kJ/mol
# GULP energy per Si atom -5575.995112 kJ/mol
# Density = 2.137574 g / cm^3
# Si number density = 21.424502 Si / 1000 Ang^3
#
#
#
# Elastic Constant Matrix: (Units=GPa)
#
#
# Indices 1 2 3 4 5 6 
#
# 1 116.7914 40.2282 23.7558 -7.1045 -7.1210 8.1189
# 2 40.2282 71.4407 32.1386 -34.0056 12.8646 5.6496
# 3 23.7558 32.1386 65.9301 -7.1012 -7.3150 -11.6512
# 4 -7.1045 -34.0056 -7.1012 24.4057 -2.4440 6.6470
# 5 -7.1210 12.8646 -7.3150 -2.4440 18.2119 -12.5602
# 6 8.1189 5.6496 -11.6512 6.6470 -12.5602 29.5796
#
#
#
# Elastic Compliance Matrix: (Units=1/GPa)
#
#
# Indices 1 2 3 4 5 6 
#
# 1 0.009712 0.002479 -0.006492 0.006438 -0.006538 -0.009919
# 2 0.002479 -0.024171 0.019873 -0.033173 0.049251 0.040132
# 3 -0.006492 0.019873 0.006092 0.029597 -0.020474 -0.014959
# 4 0.006438 -0.033173 0.029597 -0.000273 0.069341 0.045732
# 5 -0.006538 0.049251 -0.020474 0.069341 -0.004121 -0.033009
# 6 -0.009919 0.040132 -0.014959 0.045732 -0.033009 -0.001321
#
#
# Mechanical properties :
#
#
# Convention : Reuss Voigt Hill
#
# Bulk Modulus (GPa) = 42.82456 49.60082 46.21269
# Shear Modulus (GPa) = -131.51857 24.97541 -53.27158
#
# Velocity S-wave (km/s) = -7.84349 3.41800 -4.99187
# Velocity P-wave (km/s) = 7.87369 6.22725 3.40708
#
# Compressibility (1/GPa) = 0.02335109
#
# Stress axis : x y z
#
# Youngs Moduli (GPa) = 102.96875 -41.37162 164.14731
#
# Poissons Ratio (x) = 0.10254 1.06572
# Poissons Ratio (y) = -0.25521 -3.26212
# Poissons Ratio (z) = 0.66852 0.82218
#
# Static dielectric constant tensor:
#      x y z
#    x 1.771770 0.036230 0.026790 
#    y 0.036230 1.894830 0.042910 
#    z 0.026790 0.042910 1.879450 
# 
# From -- ./inp_files/432232.got.cif
#   From: 2010.05.17/outbox.cif.g08.bks.cpg/sg2_217_cif.got.tgz:432232.got - 2010.06.03 11:33:40.
