data_PCOD9097491
_publ_section_title
;
Structure prediction by ZEFSAII (Michael W. Deem and Ramdas Pophale) SiO2 
 PCOD9097491
Probable space group: P -1
;
_chemical_formula_sum "Si O2"
_cell_formula_units_Z 13
_cell_length_a 5.221328
_cell_length_b 19.189152
_cell_length_c 11.464010
_cell_angle_alpha 153.684866
_cell_angle_beta 83.853877
_cell_angle_gamma 95.243247
_cell_volume 506.234646
_symmetry_space_group_name_H-M "P -1"
_symmetry_group_IT_number 2
_symmetry_cell_setting 'triclinic'
loop_
_space_group_symop_operation_xyz
x,y,z
-x,-y,-z
loop_
_atom_site_type_symbol
_atom_site_label
_atom_site_fract_x
_atom_site_fract_y
_atom_site_fract_z
Si Si1 0.699851 0.331396 0.627327
Si Si2 0.366145 0.379197 0.086787
Si Si3 0.844846 0.322270 0.121075
Si Si4 0.394257 0.862755 0.444760
Si Si5 0.219290 0.164207 0.276887
Si Si6 0.388607 0.894449 0.019227
Si Si7 0.000000 0.000000 0.500000
O O1 0.694037 0.509973 0.853826
O O2 0.697374 0.283462 0.691152
O O3 0.442195 0.257695 0.475539
O O4 0.952430 0.251701 0.440306
O O5 0.625130 0.416548 0.201530
O O6 0.410535 0.204877 0.765404
O O7 0.126972 0.393621 0.207844
O O8 0.741182 0.259979 0.155175
O O9 0.884948 0.165061 0.806655
O O10 0.549945 0.983547 0.697718
O O11 0.151207 0.957140 0.551162
O O12 0.222064 0.992748 0.080844
O O13 0.340176 0.146508 0.116795
#
# Coordination Sequence:
#
# PCOD9097491 Si02
#       7
#     2   2   2   2   2   2   1
#     4  11  23  44  64  92 129 173 212 255 309 375
#     4  11  24  40  61  94 130 169 209 248 312 390
#     4  11  22  38  61  90 130 165 203 261 312 375
#     4  10  22  40  68  96 130 164 205 269 321 376
#     4  10  24  42  69  93 124 164 218 268 306 373
#     4  10  22  42  66  97 124 163 213 267 327 360
#     4  10  20  36  60  98 126 156 204 254 326 374
#
# _framework density 25.679793
#
# number of rings (size 3 to 8) (size 9 to 14) (size 15 to 20)
#    0.000    1.538    0.000    4.154    0.000   15.385 
#    0.000   12.308    0.000    0.000    0.000    0.000 
#    0.000    0.000    0.000    0.000    0.000    0.000 
#
# Total GULP energy -72623.776335 kJ/mol
# GULP energy per Si atom -5586.444333 kJ/mol
# Density = 2.562134 g / cm^3
# Si number density = 25.679793 Si / 1000 Ang^3
#
#
#
# Elastic Constant Matrix: (Units=GPa)
#
#
# Indices 1 2 3 4 5 6 
#
# 1 101.3784 98.4097 30.7130 -24.6461 -39.8484 -17.4307
# 2 98.4097 49.4056 35.2951 65.6692 -33.4937 36.3041
# 3 30.7130 35.2951 61.4765 -4.4867 -25.6202 -9.0908
# 4 -24.6461 65.6692 -4.4867 8.5054 -7.9618 -23.7762
# 5 -39.8484 -33.4937 -25.6202 -7.9618 35.0055 2.2159
# 6 -17.4307 36.3041 -9.0908 -23.7762 2.2159 20.3899
#
#
#
# Elastic Compliance Matrix: (Units=1/GPa)
#
#
# Indices 1 2 3 4 5 6 
#
# 1 0.009554 0.002945 -0.003633 -0.005792 0.010132 -0.006550
# 2 0.002945 0.003558 0.002155 0.008640 0.009910 0.006140
# 3 -0.003633 0.002155 0.022732 -0.001231 0.014271 0.000207
# 4 -0.005792 0.008640 -0.001231 0.010015 0.003658 -0.009602
# 5 0.010132 0.009910 0.014271 0.003658 0.061177 -0.005003
# 6 -0.006550 0.006140 0.000207 -0.009602 -0.005003 0.021951
#
#
# Mechanical properties :
#
#
# Convention : Reuss Voigt Hill
#
# Bulk Modulus (GPa) = 25.78759 60.12179 42.95469
# Shear Modulus (GPa) = 35.97633 15.96966 25.97299
#
# Velocity S-wave (km/s) = 3.74700 2.49645 3.18373
# Velocity P-wave (km/s) = 5.36505 5.63672 5.50256
#
# Compressibility (1/GPa) = 0.03877834
#
# Stress axis : x y z
#
# Youngs Moduli (GPa) = 104.66350 281.04907 43.99013
#
# Poissons Ratio (x) = -0.82763 0.15980
# Poissons Ratio (y) = -0.30821 -0.09478
# Poissons Ratio (z) = 0.38020 -0.60552
#
# Static dielectric constant tensor:
#      x y z
#    x 1.962570 0.035450 0.039970 
#    y 0.035450 2.041650 -0.005490 
#    z 0.039970 -0.005490 1.992280 
# 
# From -- ./inp_files/361781.got.cif
#   From: 2010.05.17/outbox.cif.g08.bks.cpg/sg2_181_cif.got.tgz:361781.got - 2010.06.03 11:33:40.
