data_PCOD9097242
_publ_section_title
;
Structure prediction by ZEFSAII (Michael W. Deem and Ramdas Pophale) SiO2 
 PCOD9097242
Probable space group: P -1
;
_chemical_formula_sum "Si O2"
_cell_formula_units_Z 16
_cell_length_a 15.534302
_cell_length_b 9.127770
_cell_length_c 8.875053
_cell_angle_alpha 133.863693
_cell_angle_beta 124.142819
_cell_angle_gamma 80.280668
_cell_volume 697.981161
_symmetry_space_group_name_H-M "P -1"
_symmetry_group_IT_number 2
_symmetry_cell_setting 'triclinic'
loop_
_space_group_symop_operation_xyz
x,y,z
-x,-y,-z
loop_
_atom_site_type_symbol
_atom_site_label
_atom_site_fract_x
_atom_site_fract_y
_atom_site_fract_z
Si Si1 0.962032 0.741890 0.782642
Si Si2 0.461434 0.237527 0.790291
Si Si3 0.662720 0.208224 0.164549
Si Si4 0.659771 0.765314 0.920741
Si Si5 0.193493 0.449893 0.233060
Si Si6 0.825653 0.374200 0.181893
Si Si7 0.483629 0.666424 0.416429
Si Si8 0.287824 0.801070 0.360305
O O1 0.911382 0.659887 0.839546
O O2 0.871631 0.615149 0.473952
O O3 0.068468 0.679338 0.805645
O O4 0.000000 0.000000 0.000000
O O5 0.478166 0.199764 0.602329
O O6 0.335877 0.063584 0.579128
O O7 0.500000 0.500000 0.000000
O O8 0.552154 0.194001 0.956515
O O9 0.708626 0.428008 0.463186
O O10 0.756621 0.223991 0.142844
O O11 0.660852 0.005947 0.121689
O O12 0.771203 0.717688 0.954960
O O13 0.586690 0.702528 0.651787
O O14 0.588006 0.593027 0.852037
O O15 0.191224 0.650706 0.269577
O O16 0.745189 0.315817 0.918078
O O17 0.396607 0.748797 0.475232
#
# Coordination Sequence:
#
# PCOD9097242 Si02
#       8
#     2   2   2   2   2   2   2   2
#     4  10  22  44  68  93 119 155 216 266 322 389
#     4  12  24  35  59  92 130 173 221 254 303 369
#     4  11  21  39  63  88 129 169 215 251 309 370
#     4  10  20  36  60  82 127 172 206 255 307 361
#     4  10  24  39  62  97 123 166 213 263 315 373
#     4  10  22  40  68  91 119 169 205 259 331 370
#     4  10  20  37  54  86 122 171 213 247 305 367
#     4  11  22  41  60  89 136 164 210 264 314 371
#
# _framework density 22.923255000000001
#
# number of rings (size 3 to 8) (size 9 to 14) (size 15 to 20)
#    0.000    1.500    2.500    2.625    1.750    3.000 
#    0.000    0.625    0.000    0.000    0.000    0.000 
#    0.000    0.000    0.000    0.000    0.000    0.000 
#
# Total GULP energy -89262.580278 kJ/mol
# GULP energy per Si atom -5578.911267 kJ/mol
# Density = 2.287108 g / cm^3
# Si number density = 22.923255 Si / 1000 Ang^3
#
#
#
# Elastic Constant Matrix: (Units=GPa)
#
#
# Indices 1 2 3 4 5 6 
#
# 1 84.8462 37.0634 20.2269 15.6347 -2.4373 19.2933
# 2 37.0634 116.5083 45.9466 30.3277 -0.6312 28.0229
# 3 20.2269 45.9466 82.4130 33.1843 -0.6269 6.4732
# 4 15.6347 30.3277 33.1843 45.5988 -0.2678 -3.8963
# 5 -2.4373 -0.6312 -0.6269 -0.2678 23.2390 3.4094
# 6 19.2933 28.0229 6.4732 -3.8963 3.4094 41.6362
#
#
#
# Elastic Compliance Matrix: (Units=1/GPa)
#
#
# Indices 1 2 3 4 5 6 
#
# 1 0.014965 -0.002118 -0.000429 -0.003909 0.002336 -0.005999
# 2 -0.002118 0.014958 -0.004334 -0.006843 0.001332 -0.009162
# 3 -0.000429 -0.004334 0.019154 -0.010986 0.000362 -0.000920
# 4 -0.003909 -0.006843 -0.010986 0.036808 -0.002192 0.011749
# 5 0.002336 0.001332 0.000362 -0.002192 0.044156 -0.005856
# 6 -0.005999 -0.009162 -0.000920 0.011749 -0.005856 0.034686
#
#
# Mechanical properties :
#
#
# Convention : Reuss Voigt Hill
#
# Bulk Modulus (GPa) = 28.31705 54.47124 41.39415
# Shear Modulus (GPa) = 26.27942 34.13018 30.20480
#
# Velocity S-wave (km/s) = 3.38954 3.86280 3.63388
# Velocity P-wave (km/s) = 5.26293 6.61128 5.97526
#
# Compressibility (1/GPa) = 0.03531441
#
# Stress axis : x y z
#
# Youngs Moduli (GPa) = 66.82148 66.85179 52.20717
#
# Poissons Ratio (x) = 0.14162 0.02239
# Poissons Ratio (y) = 0.14156 0.22629
# Poissons Ratio (z) = 0.02866 0.28977
#
# Static dielectric constant tensor:
#      x y z
#    x 1.895780 0.015030 -0.035060 
#    y 0.015030 1.902760 0.031840 
#    z -0.035060 0.031840 1.945310 
# 
# From -- ./inp_files/297508.got.cif
#   From: 2010.05.17/outbox.cif.g08.bks.cpg/sg2_149_cif.got.tgz:297508.got - 2010.06.03 11:33:40.
