data_PCOD9097072
_publ_section_title
;
Structure prediction by ZEFSAII (Michael W. Deem and Ramdas Pophale) SiO2 
 PCOD9097072
Probable space group: P -1
;
_chemical_formula_sum "Si O2"
_cell_formula_units_Z 16
_cell_length_a 12.328376
_cell_length_b 14.900071
_cell_length_c 8.915488
_cell_angle_alpha 79.416125
_cell_angle_beta 149.257490
_cell_angle_gamma 109.629437
_cell_volume 769.519742
_symmetry_space_group_name_H-M "P -1"
_symmetry_group_IT_number 2
_symmetry_cell_setting 'triclinic'
loop_
_space_group_symop_operation_xyz
x,y,z
-x,-y,-z
loop_
_atom_site_type_symbol
_atom_site_label
_atom_site_fract_x
_atom_site_fract_y
_atom_site_fract_z
Si Si1 0.195006 0.603001 0.359215
Si Si2 0.667601 0.706916 0.065238
Si Si3 0.341659 0.769336 0.246806
Si Si4 0.387625 0.448025 0.536642
Si Si5 0.814178 0.871261 0.953014
Si Si6 0.362971 0.245779 0.642984
Si Si7 0.934363 0.094206 0.057522
Si Si8 0.155843 0.451649 0.785666
O O1 0.213884 0.671174 0.217250
O O2 0.214762 0.500018 0.367251
O O3 0.978536 0.591273 0.207410
O O4 0.422608 0.655612 0.711458
O O5 0.632659 0.735960 0.182072
O O6 0.798079 0.630713 0.233084
O O7 0.807228 0.800784 0.103625
O O8 0.581858 0.818751 0.602120
O O9 0.402183 0.747145 0.157942
O O10 0.216963 0.846264 0.082752
O O11 0.500000 0.500000 0.500000
O O12 0.295012 0.331410 0.455431
O O13 0.596374 0.474671 0.895030
O O14 0.014004 0.885983 0.065045
O O15 0.830054 0.978538 0.989723
O O16 0.174503 0.141920 0.411664
O O17 0.000000 0.500000 0.500000
#
# Coordination Sequence:
#
# PCOD9097072 Si02
#       8
#     2   2   2   2   2   2   2   2
#     4  10  21  38  61  82 112 160 196 233 283 352
#     4  10  22  40  59  83 123 152 190 241 291 345
#     4  10  20  36  59  86 113 144 195 240 285 340
#     4  11  23  39  57  86 125 155 192 246 291 340
#     4   9  20  40  61  84 110 153 191 237 294 343
#     4  11  23  37  55  85 120 151 187 240 297 336
#     4  10  21  37  62  85 113 146 195 243 286 346
#     4  11  23  38  61  88 116 159 204 234 289 354
#
# _framework density 20.792189
#
# number of rings (size 3 to 8) (size 9 to 14) (size 15 to 20)
#    0.000    1.750    1.250    2.625    3.500    6.000 
#    0.000    0.625    0.000    0.000    0.000    0.000 
#    0.000    0.000    0.000    0.000    0.000    0.000 
#
# Total GULP energy -89493.330408 kJ/mol
# GULP energy per Si atom -5593.333150 kJ/mol
# Density = 2.074486 g / cm^3
# Si number density = 20.792189 Si / 1000 Ang^3
#
#
#
# Elastic Constant Matrix: (Units=GPa)
#
#
# Indices 1 2 3 4 5 6 
#
# 1 134.2276 39.2905 21.2288 -10.5626 0.8274 -19.7949
# 2 39.2905 106.2745 25.8980 5.5312 0.5207 -7.5454
# 3 21.2288 25.8980 51.2059 -6.2690 -0.4452 -0.9694
# 4 -10.5626 5.5312 -6.2690 28.2649 -2.1813 6.8102
# 5 0.8274 0.5207 -0.4452 -2.1813 23.0891 -6.1845
# 6 -19.7949 -7.5454 -0.9694 6.8102 -6.1845 34.3609
#
#
#
# Elastic Compliance Matrix: (Units=1/GPa)
#
#
# Indices 1 2 3 4 5 6 
#
# 1 0.009461 -0.002818 -0.002080 0.002640 0.001126 0.004453
# 2 -0.002818 0.012222 -0.005612 -0.005163 -0.000268 0.001877
# 3 -0.002080 -0.005612 0.023959 0.006379 0.000480 -0.002932
# 4 0.002640 -0.005163 0.006379 0.040667 0.002080 -0.007119
# 5 0.001126 -0.000268 0.000480 0.002080 0.045738 0.008424
# 6 0.004453 0.001877 -0.002932 -0.007119 0.008424 0.034924
#
#
# Mechanical properties :
#
#
# Convention : Reuss Voigt Hill
#
# Bulk Modulus (GPa) = 40.61266 51.61585 46.11425
# Shear Modulus (GPa) = 25.48422 30.82904 28.15663
#
# Velocity S-wave (km/s) = 3.50475 3.85479 3.68393
# Velocity P-wave (km/s) = 5.99606 6.68514 6.34995
#
# Compressibility (1/GPa) = 0.02462287
#
# Stress axis : x y z
#
# Youngs Moduli (GPa) = 105.69450 81.81775 41.73737
#
# Poissons Ratio (x) = 0.23055 0.08681
# Poissons Ratio (y) = 0.29783 0.23424
# Poissons Ratio (z) = 0.21984 0.45918
#
# Static dielectric constant tensor:
#      x y z
#    x 1.756050 0.011510 -0.003470 
#    y 0.011510 1.716060 0.014270 
#    z -0.003470 0.014270 1.753660 
# 
# From -- ./inp_files/37429.got.cif
#   From: 2010.05.17/outbox.cif.g08.bks.cpg/sg2_19_cif.got.tgz:37429.got - 2010.06.03 11:33:40.
