data_PCOD9097504
_publ_section_title
;
Structure prediction by ZEFSAII (Michael W. Deem and Ramdas Pophale) SiO2 
 PCOD9097504
Probable space group: P -1
;
_chemical_formula_sum "Si O2"
_cell_formula_units_Z 16
_cell_length_a 9.598479
_cell_length_b 7.548670
_cell_length_c 11.127008
_cell_angle_alpha 118.454655
_cell_angle_beta 96.394207
_cell_angle_gamma 72.025439
_cell_volume 673.612018
_symmetry_space_group_name_H-M "P -1"
_symmetry_group_IT_number 2
_symmetry_cell_setting 'triclinic'
loop_
_space_group_symop_operation_xyz
x,y,z
-x,-y,-z
loop_
_atom_site_type_symbol
_atom_site_label
_atom_site_fract_x
_atom_site_fract_y
_atom_site_fract_z
Si Si1 0.785591 0.584348 0.978055
Si Si2 0.145564 0.552433 0.413067
Si Si3 0.870165 0.726545 0.269414
Si Si4 0.258263 0.768180 0.301746
Si Si5 0.829399 0.859706 0.850128
Si Si6 0.518083 0.107814 0.911309
Si Si7 0.021397 0.897083 0.688933
Si Si8 0.455859 0.121597 0.658257
O O1 0.804841 0.369241 0.841340
O O2 0.824532 0.745489 0.938963
O O3 0.611900 0.674638 0.023865
O O4 0.873233 0.580148 0.106969
O O5 0.255818 0.664889 0.398167
O O6 0.199528 0.306221 0.306680
O O7 0.999406 0.635707 0.344841
O O8 0.099384 0.662244 0.572061
O O9 0.713975 0.756381 0.324960
O O10 0.884730 0.948025 0.290336
O O11 0.422902 0.754679 0.280007
O O12 0.136371 0.995538 0.358245
O O13 0.692278 0.070482 0.906214
O O14 0.976813 0.896483 0.824103
O O15 0.476281 0.003851 0.751639
O O16 0.500000 0.000000 0.000000
O O17 0.500000 0.000000 0.500000
#
# Coordination Sequence:
#
# PCOD9097504 Si02
#       8
#     2   2   2   2   2   2   2   2
#     4   9  21  39  60  86 117 150 198 248 295 338
#     4  10  21  37  59  86 121 152 193 244 296 348
#     4  10  22  36  58  85 123 145 191 261 288 332
#     4  10  20  36  63  89 109 156 200 239 292 356
#     4  10  20  36  61  81 113 165 195 226 292 372
#     4   9  19  37  59  85 117 158 193 239 294 350
#     4  11  20  36  57  89 116 156 194 236 296 359
#     4  11  20  36  63  91 114 151 203 249 294 343
#
# _framework density 23.752547
#
# number of rings (size 3 to 8) (size 9 to 14) (size 15 to 20)
#    0.000    2.000    1.250    3.375    0.000    7.000 
#    0.000    0.000   16.500    9.750    0.000    0.000 
#    0.000    0.000    0.000    0.000    0.000    0.000 
#
# Total GULP energy -89303.575734 kJ/mol
# GULP energy per Si atom -5581.473483 kJ/mol
# Density = 2.369848 g / cm^3
# Si number density = 23.752547 Si / 1000 Ang^3
#
#
#
# Elastic Constant Matrix: (Units=GPa)
#
#
# Indices 1 2 3 4 5 6 
#
# 1 143.8199 19.5635 18.7008 -2.1582 -19.8824 6.0453
# 2 19.5635 51.7792 4.5578 -2.2221 -7.5278 7.9340
# 3 18.7008 4.5578 116.5018 -8.0119 -23.6977 1.5612
# 4 -2.1582 -2.2221 -8.0119 26.1427 0.3181 -8.6612
# 5 -19.8824 -7.5278 -23.6977 0.3181 40.8922 -0.2981
# 6 6.0453 7.9340 1.5612 -8.6612 -0.2981 33.3319
#
#
#
# Elastic Compliance Matrix: (Units=1/GPa)
#
#
# Indices 1 2 3 4 5 6 
#
# 1 0.007794 -0.002332 -0.000531 -0.000024 0.003047 -0.000813
# 2 -0.002332 0.021303 0.000194 0.000119 0.002866 -0.004601
# 3 -0.000531 0.000194 0.009999 0.003116 0.005551 0.000441
# 4 -0.000024 0.000119 0.003116 0.042831 0.001563 0.010974
# 5 0.003047 0.002866 0.005551 0.001563 0.029662 -0.000823
# 6 -0.000813 -0.004601 0.000441 0.010974 -0.000823 0.034067
#
#
# Mechanical properties :
#
#
# Convention : Reuss Voigt Hill
#
# Bulk Modulus (GPa) = 29.62223 44.19389 36.90806
# Shear Modulus (GPa) = 30.81708 38.02530 34.42119
#
# Velocity S-wave (km/s) = 3.60588 4.00546 3.81091
# Velocity P-wave (km/s) = 5.46212 6.32755 5.91070
#
# Compressibility (1/GPa) = 0.03375844
#
# Stress axis : x y z
#
# Youngs Moduli (GPa) = 128.29730 46.94103 100.01347
#
# Poissons Ratio (x) = 0.10945 0.05309
# Poissons Ratio (y) = 0.29915 -0.01936
# Poissons Ratio (z) = 0.06811 -0.00909
#
# Static dielectric constant tensor:
#      x y z
#    x 1.992590 0.022910 -0.027040 
#    y 0.022910 1.941250 -0.029410 
#    z -0.027040 -0.029410 1.941210 
# 
# From -- ./inp_files/380390.got.cif
#   From: 2010.05.17/outbox.cif.g08.bks.cpg/sg2_191_cif.got.tgz:380390.got - 2010.06.03 11:33:40.
