data_PCOD9097394
_publ_section_title
;
Structure prediction by ZEFSAII (Michael W. Deem and Ramdas Pophale) SiO2 
 PCOD9097394
Probable space group: P -1
;
_chemical_formula_sum "Si O2"
_cell_formula_units_Z 16
_cell_length_a 9.471239
_cell_length_b 14.842602
_cell_length_c 11.327041
_cell_angle_alpha 41.420854
_cell_angle_beta 123.197465
_cell_angle_gamma 103.420529
_cell_volume 834.457584
_symmetry_space_group_name_H-M "P -1"
_symmetry_group_IT_number 2
_symmetry_cell_setting 'triclinic'
loop_
_space_group_symop_operation_xyz
x,y,z
-x,-y,-z
loop_
_atom_site_type_symbol
_atom_site_label
_atom_site_fract_x
_atom_site_fract_y
_atom_site_fract_z
Si Si1 0.545473 0.845684 0.521501
Si Si2 0.185981 0.464205 0.690328
Si Si3 0.279163 0.669839 0.169499
Si Si4 0.893155 0.704703 0.718064
Si Si5 0.001421 0.477529 0.824968
Si Si6 0.452231 0.607310 0.556185
Si Si7 0.448958 0.166352 0.182824
Si Si8 0.168929 0.856040 0.724614
O O1 0.729240 0.840749 0.545496
O O2 0.491753 0.723369 0.546582
O O3 0.573166 0.811271 0.707562
O O4 0.423692 0.012197 0.295637
O O5 0.130230 0.503385 0.761450
O O6 0.300971 0.554307 0.598906
O O7 0.000000 0.500000 0.500000
O O8 0.310447 0.297096 0.920071
O O9 0.386935 0.674671 0.331650
O O10 0.391147 0.540559 0.260757
O O11 0.106577 0.625025 0.169692
O O12 0.224677 0.814072 0.926853
O O13 0.866926 0.627776 0.662436
O O14 0.078016 0.736573 0.761539
O O15 0.901850 0.599989 0.936566
O O16 0.652357 0.155443 0.253772
O O17 0.000000 0.000000 0.500000
#
# Coordination Sequence:
#
# PCOD9097394 Si02
#       8
#     2   2   2   2   2   2   2   2
#     4  11  23  42  65  92 133 166 206 262 324 377
#     4  12  24  41  65  92 128 168 214 260 311 375
#     4  10  21  39  64  90 127 163 212 264 314 371
#     4  10  20  36  61  95 121 159 207 259 315 364
#     4  10  20  36  60  90 123 159 207 261 310 364
#     4  11  23  40  64  94 124 170 212 261 316 370
#     4  11  25  43  63  94 130 168 210 260 319 375
#     4  11  22  39  65  93 126 166 212 260 313 378
#
# _framework density 19.174132
#
# number of rings (size 3 to 8) (size 9 to 14) (size 15 to 20)
#    0.000    1.250    6.250    0.000    1.750    0.500 
#    0.000    2.500    0.000    0.000    0.000    0.000 
#    0.000    0.000    0.000    0.000    0.000    0.000 
#
# Total GULP energy -89172.863067 kJ/mol
# GULP energy per Si atom -5573.303942 kJ/mol
# Density = 1.913049 g / cm^3
# Si number density = 19.174132 Si / 1000 Ang^3
#
#
#
# Elastic Constant Matrix: (Units=GPa)
#
#
# Indices 1 2 3 4 5 6 
#
# 1 101.0692 24.0421 23.8178 -13.5034 5.3989 1.6660
# 2 24.0421 94.9349 45.3992 -9.7980 1.2079 -4.2640
# 3 23.8178 45.3992 121.7884 -6.2073 9.4464 -5.9508
# 4 -13.5034 -9.7980 -6.2073 11.9845 1.7015 6.1180
# 5 5.3989 1.2079 9.4464 1.7015 23.6000 -1.6336
# 6 1.6660 -4.2640 -5.9508 6.1180 -1.6336 27.7486
#
#
#
# Elastic Compliance Matrix: (Units=1/GPa)
#
#
# Indices 1 2 3 4 5 6 
#
# 1 0.012895 -0.001217 -0.001192 0.016013 -0.003910 -0.004978
# 2 -0.001217 0.013800 -0.004603 0.007626 0.000835 -0.000426
# 3 -0.001192 -0.004603 0.010515 0.000152 -0.003617 0.001373
# 4 0.016013 0.007626 0.000152 0.124240 -0.015013 -0.028033
# 5 -0.003910 0.000835 -0.003617 -0.015013 0.046143 0.005614
# 6 -0.004978 -0.000426 0.001373 -0.028033 0.005614 0.043077
#
#
# Mechanical properties :
#
#
# Convention : Reuss Voigt Hill
#
# Bulk Modulus (GPa) = 43.12850 56.03452 49.58151
# Shear Modulus (GPa) = 18.35377 27.63552 22.99464
#
# Velocity S-wave (km/s) = 3.09725 3.80055 3.46678
# Velocity P-wave (km/s) = 5.94411 6.96752 6.47607
#
# Compressibility (1/GPa) = 0.02318652
#
# Stress axis : x y z
#
# Youngs Moduli (GPa) = 77.55012 72.46186 95.09817
#
# Poissons Ratio (x) = 0.08816 0.11337
# Poissons Ratio (y) = 0.09435 0.43777
# Poissons Ratio (z) = 0.09245 0.33357
#
# Static dielectric constant tensor:
#      x y z
#    x 1.693650 0.011990 0.031260 
#    y 0.011990 1.686720 -0.019140 
#    z 0.031260 -0.019140 1.728930 
# 
# From -- ./inp_files/283264.got.cif
#   From: 2010.05.17/outbox.cif.g08.bks.cpg/sg2_142_cif.got.tgz:283264.got - 2010.06.03 11:33:40.
