data_PCOD9097554
_publ_section_title
;
Structure prediction by ZEFSAII (Michael W. Deem and Ramdas Pophale) SiO2 
 PCOD9097554
Probable space group: P -1
;
_chemical_formula_sum "Si O2"
_cell_formula_units_Z 16
_cell_length_a 23.231481
_cell_length_b 9.031350
_cell_length_c 17.345275
_cell_angle_alpha 144.977969
_cell_angle_beta 160.949031
_cell_angle_gamma 36.708979
_cell_volume 674.272199
_symmetry_space_group_name_H-M "P -1"
_symmetry_group_IT_number 2
_symmetry_cell_setting 'triclinic'
loop_
_space_group_symop_operation_xyz
x,y,z
-x,-y,-z
loop_
_atom_site_type_symbol
_atom_site_label
_atom_site_fract_x
_atom_site_fract_y
_atom_site_fract_z
Si Si1 0.057721 0.169282 0.762897
Si Si2 0.779163 0.081761 0.008968
Si Si3 0.789001 0.045923 0.733267
Si Si4 0.558540 0.585732 0.025877
Si Si5 0.924956 0.661447 0.317306
Si Si6 0.618960 0.350533 0.784505
Si Si7 0.703026 0.516706 0.470337
Si Si8 0.843887 0.870245 0.566318
O O1 0.899208 0.384916 0.681314
O O2 0.098857 0.245847 0.761136
O O3 0.983490 0.892838 0.540132
O O4 0.214511 0.134903 0.009345
O O5 0.985589 0.068739 0.238929
O O6 0.686380 0.341305 0.045945
O O7 0.675326 0.096199 0.802796
O O8 0.710075 0.791164 0.554041
O O9 0.781180 0.064183 0.639278
O O10 0.684699 0.276309 0.750624
O O11 0.000000 0.000000 0.000000
O O12 0.390020 0.645586 0.781231
O O13 0.500000 0.500000 0.000000
O O14 0.675906 0.816367 0.281425
O O15 0.076589 0.408849 0.411408
O O16 0.742197 0.556307 0.060713
O O17 0.418307 0.454790 0.595583
#
# Coordination Sequence:
#
# PCOD9097554 Si02
#       8
#     2   2   2   2   2   2   2   2
#     4  11  21  37  59  91 130 158 198 243 319 370
#     4  10  22  35  62  90 119 160 205 251 286 364
#     4  12  20  40  68  86 119 164 218 244 292 364
#     4  11  20  36  57  92 125 152 198 255 304 350
#     4  10  20  36  61  87 123 165 198 239 304 375
#     4  10  23  41  63  89 118 162 214 254 288 355
#     4  11  24  38  61  96 123 157 197 262 313 353
#     4  11  20  39  62  92 117 163 213 244 291 368
#
# _framework density 23.729289999999999
#
# number of rings (size 3 to 8) (size 9 to 14) (size 15 to 20)
#    0.000    1.250    6.250    0.750    5.250    0.500 
#    0.000    0.625    0.000    0.750    0.000    0.000 
#    0.000    0.000    0.000    0.000    0.000    0.000 
#
# Total GULP energy -89452.918143 kJ/mol
# GULP energy per Si atom -5590.807384 kJ/mol
# Density = 2.367528 g / cm^3
# Si number density = 23.729290 Si / 1000 Ang^3
#
#
#
# Elastic Constant Matrix: (Units=GPa)
#
#
# Indices 1 2 3 4 5 6 
#
# 1 148.1309 14.6068 7.2720 -5.6123 6.0412 -21.3265
# 2 14.6068 21.3831 -13.0480 0.9868 -3.7708 10.2044
# 3 7.2720 -13.0480 50.7698 8.6427 0.1208 -3.6055
# 4 -5.6123 0.9868 8.6427 21.2774 0.5000 -6.7211
# 5 6.0412 -3.7708 0.1208 0.5000 35.5819 -9.1753
# 6 -21.3265 10.2044 -3.6055 -6.7211 -9.1753 27.1352
#
#
#
# Elastic Compliance Matrix: (Units=1/GPa)
#
#
# Indices 1 2 3 4 5 6 
#
# 1 0.014545 -0.029537 -0.010867 0.017742 0.000833 0.025772
# 2 -0.029537 0.135211 0.042905 -0.057718 -0.001430 -0.083140
# 3 -0.010867 0.042905 0.035066 -0.027606 -0.000289 -0.026952
# 4 0.017742 -0.057718 -0.027606 0.082422 0.003635 0.053625
# 5 0.000833 -0.001430 -0.000289 0.003635 0.030993 0.012534
# 6 0.025772 -0.083140 -0.026952 0.053625 0.012534 0.102313
#
#
# Mechanical properties :
#
#
# Convention : Reuss Voigt Hill
#
# Bulk Modulus (GPa) = 5.26802 26.43838 15.85320
# Shear Modulus (GPa) = 10.89745 30.89574 20.89659
#
# Velocity S-wave (km/s) = 2.14531 3.61225 2.97075
# Velocity P-wave (km/s) = 2.89160 5.34450 4.29680
#
# Compressibility (1/GPa) = 0.18982482
#
# Stress axis : x y z
#
# Youngs Moduli (GPa) = 68.75009 7.39585 28.51752
#
# Poissons Ratio (x) = 0.21845 0.30989
# Poissons Ratio (y) = 2.03069 -1.22355
# Poissons Ratio (z) = 0.74708 -0.31732
#
# Static dielectric constant tensor:
#      x y z
#    x 1.905490 0.008260 -0.021070 
#    y 0.008260 1.912810 0.041410 
#    z -0.021070 0.041410 1.937990 
# 
# From -- ./inp_files/187395.got.cif
#   From: 2010.05.17/outbox.cif.g08.bks.cpg/sg2_94_cif.got.tgz:187395.got - 2010.06.03 11:33:40.
