data_PCOD9097199
_publ_section_title
;
Structure prediction by ZEFSAII (Michael W. Deem and Ramdas Pophale) SiO2 
 PCOD9097199
Probable space group: P -1
;
_chemical_formula_sum "Si O2"
_cell_formula_units_Z 14
_cell_length_a 10.003982
_cell_length_b 9.192829
_cell_length_c 18.251924
_cell_angle_alpha 83.578176
_cell_angle_beta 152.385603
_cell_angle_gamma 92.370611
_cell_volume 767.051685
_symmetry_space_group_name_H-M "P -1"
_symmetry_group_IT_number 2
_symmetry_cell_setting 'triclinic'
loop_
_space_group_symop_operation_xyz
x,y,z
-x,-y,-z
loop_
_atom_site_type_symbol
_atom_site_label
_atom_site_fract_x
_atom_site_fract_y
_atom_site_fract_z
Si Si1 0.314415 0.821908 0.086431
Si Si2 0.520501 0.745735 0.353132
Si Si3 0.606192 0.434289 0.477337
Si Si4 0.268667 0.195088 0.254730
Si Si5 0.834238 0.803644 0.238090
Si Si6 0.979165 0.926288 0.153200
Si Si7 0.150857 0.993950 0.494879
O O1 0.456982 0.788196 0.235493
O O2 0.538707 0.769045 0.133859
O O3 0.217327 0.996271 0.012330
O O4 0.010996 0.754837 0.934058
O O5 0.607887 0.573563 0.416981
O O6 0.224126 0.801094 0.250005
O O7 0.764145 0.845105 0.492430
O O8 0.500000 0.500000 0.500000
O O9 0.382784 0.324626 0.347578
O O10 0.919024 0.336520 0.637573
O O11 0.541654 0.112255 0.347856
O O12 0.151687 0.064148 0.253241
O O13 0.804865 0.870317 0.138749
O O14 0.958951 0.922775 0.345454
O O15 0.000000 0.000000 0.500000
#
# Coordination Sequence:
#
# PCOD9097199 Si02
#       7
#     2   2   2   2   2   2   2
#     4  10  21  38  60  86 117 148 198 234 294 333
#     4  11  21  36  63  83 120 152 191 237 287 347
#     4  11  23  39  58  85 116 158 193 232 292 344
#     4   8  22  37  59  82 117 152 194 229 291 339
#     4  11  21  38  63  86 120 147 194 243 285 341
#     4   9  20  37  62  85 112 152 194 240 283 333
#     4  10  20  36  59  93 113 146 196 242 284 335
#
# _framework density 18.251705000000001
#
# number of rings (size 3 to 8) (size 9 to 14) (size 15 to 20)
#    0.857    1.143    2.857    0.857    2.000    2.857 
#    0.000    0.714    3.143    0.000    0.000    0.000 
#    0.000    0.000    0.000    0.000    0.000    0.000 
#
# Total GULP energy -78012.898205 kJ/mol
# GULP energy per Si atom -5572.349872 kJ/mol
# Density = 1.821016 g / cm^3
# Si number density = 18.251705 Si / 1000 Ang^3
#
#
#
# Elastic Constant Matrix: (Units=GPa)
#
#
# Indices 1 2 3 4 5 6 
#
# 1 84.8684 18.8093 8.2046 1.5407 0.8326 3.3976
# 2 18.8093 96.3946 21.4810 -2.8433 -7.3969 1.4674
# 3 8.2046 21.4810 51.1255 -1.3024 7.3301 5.7833
# 4 1.5407 -2.8433 -1.3024 18.3158 4.4190 -6.1645
# 5 0.8326 -7.3969 7.3301 4.4190 25.1437 -7.4289
# 6 3.3976 1.4674 5.7833 -6.1645 -7.4289 21.3006
#
#
#
# Elastic Compliance Matrix: (Units=1/GPa)
#
#
# Indices 1 2 3 4 5 6 
#
# 1 0.012542 -0.002465 -0.000504 -0.002064 -0.001458 -0.002800
# 2 -0.002465 0.012751 -0.006315 0.001480 0.006581 0.003953
# 3 -0.000504 -0.006315 0.025274 0.000286 -0.012387 -0.010584
# 4 -0.002064 0.001480 0.000286 0.061797 -0.005699 0.016046
# 5 -0.001458 0.006581 -0.012387 -0.005699 0.052187 0.019694
# 6 -0.002800 0.003953 -0.010584 0.016046 0.019694 0.061507
#
#
# Mechanical properties :
#
#
# Convention : Reuss Voigt Hill
#
# Bulk Modulus (GPa) = 31.25063 36.59759 33.92411
# Shear Modulus (GPa) = 19.58540 25.21162 22.39851
#
# Velocity S-wave (km/s) = 3.27933 3.72066 3.50694
# Velocity P-wave (km/s) = 5.61230 6.20909 5.91822
#
# Compressibility (1/GPa) = 0.03199935
#
# Stress axis : x y z
#
# Youngs Moduli (GPa) = 79.73301 78.42651 39.56594
#
# Poissons Ratio (x) = 0.19333 0.01993
# Poissons Ratio (y) = 0.19655 0.24985
# Poissons Ratio (z) = 0.04017 0.49525
#
# Static dielectric constant tensor:
#      x y z
#    x 1.623350 0.006650 0.004070 
#    y 0.006650 1.623410 0.001120 
#    z 0.004070 0.001120 1.655210 
# 
# From -- ./inp_files/557283.got.cif
#   From: 2010.05.17/outbox.cif.g08.bks.cpg/sg2_279_cif.got.tgz:557283.got - 2010.06.03 11:33:40.
