data_PCOD9097908
_publ_section_title
;
Structure prediction by ZEFSAII (Michael W. Deem and Ramdas Pophale) SiO2 
 PCOD9097908
Probable space group: P -1
;
_chemical_formula_sum "Si O2"
_cell_formula_units_Z 16
_cell_length_a 8.882442
_cell_length_b 15.327461
_cell_length_c 7.113219
_cell_angle_alpha 106.207711
_cell_angle_beta 106.756993
_cell_angle_gamma 127.016583
_cell_volume 596.674364
_symmetry_space_group_name_H-M "P -1"
_symmetry_group_IT_number 2
_symmetry_cell_setting 'triclinic'
loop_
_space_group_symop_operation_xyz
x,y,z
-x,-y,-z
loop_
_atom_site_type_symbol
_atom_site_label
_atom_site_fract_x
_atom_site_fract_y
_atom_site_fract_z
Si Si1 0.520688 0.237545 0.182093
Si Si2 0.138022 0.764273 0.360328
Si Si3 0.794017 0.170414 0.172237
Si Si4 0.358724 0.043216 0.314642
Si Si5 0.523294 0.601578 0.193408
Si Si6 0.097965 0.129574 0.712822
Si Si7 0.881915 0.475114 0.214338
Si Si8 0.153384 0.406944 0.197521
O O1 0.627483 0.188687 0.107396
O O2 0.417500 0.164259 0.303572
O O3 0.742323 0.399816 0.316333
O O4 0.301779 0.187105 0.964957
O O5 0.187028 0.846029 0.611553
O O6 0.398684 0.867739 0.432601
O O7 0.951228 0.690152 0.081961
O O8 0.053432 0.634571 0.355954
O O9 0.054494 0.309384 0.278761
O O10 0.696633 0.050301 0.931511
O O11 0.133991 0.938726 0.301488
O O12 0.770934 0.750955 0.320653
O O13 0.500000 0.500000 0.000000
O O14 0.331468 0.591258 0.041647
O O15 0.426314 0.538611 0.329036
O O16 0.000000 0.000000 0.500000
O O17 0.012761 0.441572 0.172881
#
# Coordination Sequence:
#
# PCOD9097908 Si02
#       8
#     2   2   2   2   2   2   2   2
#     4   9  20  41  62  82 126 159 197 257 309 351
#     4  10  20  36  62  93 118 155 208 243 319 357
#     4  10  22  40  60  96 125 157 204 261 305 372
#     4  11  23  39  61  87 128 161 200 257 309 364
#     4  10  20  39  59  85 126 155 202 259 305 350
#     4  11  25  40  61  91 121 168 214 242 305 391
#     4   9  20  37  64  90 118 156 208 256 300 375
#     4  10  21  38  67  86 123 163 198 263 305 358
#
# _framework density 26.815296
#
# number of rings (size 3 to 8) (size 9 to 14) (size 15 to 20)
#    0.000    2.000    0.000    4.125    7.000    5.000 
#   11.250    0.000    0.000    6.750    0.000    0.000 
#    0.000    0.000    0.000    0.000    0.000    0.000 
#
# Total GULP energy -89496.343897 kJ/mol
# GULP energy per Si atom -5593.521494 kJ/mol
# Density = 2.675426 g / cm^3
# Si number density = 26.815296 Si / 1000 Ang^3
#
#
#
# Elastic Constant Matrix: (Units=GPa)
#
#
# Indices 1 2 3 4 5 6 
#
# 1 104.9566 34.5813 31.5463 13.8930 21.4181 40.8736
# 2 34.5813 218.5856 29.4149 31.0889 8.7653 50.1977
# 3 31.5463 29.4149 75.7350 20.9957 0.8083 22.5193
# 4 13.8930 31.0889 20.9957 58.0502 4.6728 7.5880
# 5 21.4181 8.7653 0.8083 4.6728 42.4223 5.5508
# 6 40.8736 50.1977 22.5193 7.5880 5.5508 53.7391
#
#
#
# Elastic Compliance Matrix: (Units=1/GPa)
#
#
# Indices 1 2 3 4 5 6 
#
# 1 0.015905 0.000789 -0.003421 -0.001078 -0.006627 -0.010564
# 2 0.000789 0.006232 -0.000272 -0.002610 -0.000625 -0.005874
# 3 -0.003421 -0.000272 0.017253 -0.004964 0.002516 -0.003933
# 4 -0.001078 -0.002610 -0.004964 0.020452 -0.001415 0.002596
# 5 -0.006627 -0.000625 0.002516 -0.001415 0.026895 0.001991
# 6 -0.010564 -0.005874 -0.003933 0.002596 0.001991 0.033206
#
#
# Mechanical properties :
#
#
# Convention : Reuss Voigt Hill
#
# Bulk Modulus (GPa) = 29.77768 65.59579 47.68673
# Shear Modulus (GPa) = 36.51091 51.09129 43.80110
#
# Velocity S-wave (km/s) = 3.69395 4.36971 4.04596
# Velocity P-wave (km/s) = 5.41503 7.06926 6.29670
#
# Compressibility (1/GPa) = 0.03358220
#
# Stress axis : x y z
#
# Youngs Moduli (GPa) = 62.87348 160.46422 57.95997
#
# Poissons Ratio (x) = -0.12663 0.19827
# Poissons Ratio (y) = -0.04962 0.01578
# Poissons Ratio (z) = 0.21508 0.04369
#
# Static dielectric constant tensor:
#      x y z
#    x 2.177520 -0.045130 -0.057790 
#    y -0.045130 2.182990 0.000680 
#    z -0.057790 0.000680 1.977510 
# 
# From -- ./inp_files/218312.got.cif
#   From: 2010.05.17/outbox.cif.g08.bks.cpg/sg2_110_cif.got.tgz:218312.got - 2010.06.03 11:33:40.
