data_PCOD9097629
_publ_section_title
;
Structure prediction by ZEFSAII (Michael W. Deem and Ramdas Pophale) SiO2 
 PCOD9097629
Probable space group: P -1
;
_chemical_formula_sum "Si O2"
_cell_formula_units_Z 16
_cell_length_a 13.587230
_cell_length_b 13.448566
_cell_length_c 11.055882
_cell_angle_alpha 103.826270
_cell_angle_beta 21.505608
_cell_angle_gamma 104.537390
_cell_volume 716.804548
_symmetry_space_group_name_H-M "P -1"
_symmetry_group_IT_number 2
_symmetry_cell_setting 'triclinic'
loop_
_space_group_symop_operation_xyz
x,y,z
-x,-y,-z
loop_
_atom_site_type_symbol
_atom_site_label
_atom_site_fract_x
_atom_site_fract_y
_atom_site_fract_z
Si Si1 0.832736 0.056418 0.019433
Si Si2 0.692450 0.464568 0.873092
Si Si3 0.742845 0.786255 0.388817
Si Si4 0.678594 0.627709 0.141843
Si Si5 0.926844 0.110281 0.660925
Si Si6 0.411112 0.160365 0.688320
Si Si7 0.913373 0.388620 0.116559
Si Si8 0.501985 0.763331 0.899785
O O1 0.689861 0.114257 0.311426
O O2 0.760926 0.937056 0.088832
O O3 0.772705 0.090630 0.961273
O O4 0.143389 0.097378 0.678266
O O5 0.000000 0.500000 0.500000
O O6 0.500000 0.500000 0.000000
O O7 0.644987 0.529363 0.066223
O O8 0.613826 0.343529 0.942524
O O9 0.682971 0.799502 0.321544
O O10 0.529186 0.744472 0.718621
O O11 0.970739 0.705254 0.114993
O O12 0.634710 0.736174 0.154102
O O13 0.406511 0.619277 0.529082
O O14 0.951054 0.622274 0.907894
O O15 0.200879 0.187261 0.385300
O O16 0.722760 0.155849 0.813250
O O17 0.000000 0.000000 0.500000
O O18 0.000000 0.500000 0.000000
#
# Coordination Sequence:
#
# PCOD9097629 Si02
#       8
#     2   2   2   2   2   2   2   2
#     4  10  20  36  61  90 132 170 215 264 337 394
#     4  12  27  48  70  95 132 184 235 288 341 400
#     4  10  20  37  61  93 130 169 211 264 343 405
#     4  11  24  42  62  96 129 168 224 271 331 406
#     4  11  24  44  68 100 133 179 228 278 330 405
#     4  10  20  37  60  93 130 170 208 274 331 402
#     4  11  22  37  63  95 131 164 208 270 335 405
#     4  11  24  43  70  94 133 173 225 280 343 399
#
# _framework density 22.321287000000002
#
# number of rings (size 3 to 8) (size 9 to 14) (size 15 to 20)
#    0.000    1.250    2.500    3.375    0.000    5.000 
#    0.000    0.000    0.000    0.000    0.000    0.000 
#    0.000    0.000    0.000    0.000    0.000    0.000 
#
# Total GULP energy -89147.806066 kJ/mol
# GULP energy per Si atom -5571.737879 kJ/mol
# Density = 2.227048 g / cm^3
# Si number density = 22.321287 Si / 1000 Ang^3
#
#
#
# Elastic Constant Matrix: (Units=GPa)
#
#
# Indices 1 2 3 4 5 6 
#
# 1 40.6077 6.2529 6.6685 -8.8098 -10.0646 -7.4851
# 2 6.2529 167.5302 42.9326 -31.5587 -4.4388 -15.9122
# 3 6.6685 42.9326 81.6964 -16.1913 -14.5373 -16.9858
# 4 -8.8098 -31.5587 -16.1913 45.3039 4.9531 4.8939
# 5 -10.0646 -4.4388 -14.5373 4.9531 20.6833 2.4222
# 6 -7.4851 -15.9122 -16.9858 4.8939 2.4222 27.2703
#
#
#
# Elastic Compliance Matrix: (Units=1/GPa)
#
#
# Indices 1 2 3 4 5 6 
#
# 1 0.030207 0.000199 0.002546 0.004481 0.014533 0.007898
# 2 0.000199 0.007706 -0.003105 0.004266 -0.001687 0.002002
# 3 0.002546 -0.003105 0.018036 0.002576 0.011622 0.008627
# 4 0.004481 0.004266 0.002576 0.026945 -0.001620 0.000632
# 5 0.014533 -0.001687 0.011622 -0.001620 0.063037 0.004935
# 6 0.007898 0.002002 0.008627 0.000632 0.004935 0.044828
#
#
# Mechanical properties :
#
#
# Convention : Reuss Voigt Hill
#
# Bulk Modulus (GPa) = 18.10578 44.61581 31.36079
# Shear Modulus (GPa) = 23.82214 34.25017 29.03615
#
# Velocity S-wave (km/s) = 3.27041 3.92141 3.61061
# Velocity P-wave (km/s) = 4.73179 6.36669 5.60912
#
# Compressibility (1/GPa) = 0.05523098
#
# Stress axis : x y z
#
# Youngs Moduli (GPa) = 33.10479 129.76541 55.44341
#
# Poissons Ratio (x) = -0.02588 -0.14115
# Poissons Ratio (y) = -0.00660 0.17213
# Poissons Ratio (z) = -0.08428 0.40287
#
# Static dielectric constant tensor:
#      x y z
#    x 2.001650 0.114080 0.047430 
#    y 0.114080 1.909470 0.046190 
#    z 0.047430 0.046190 1.922310 
# 
# From -- ./inp_files/69583.got.cif
#   From: 2010.05.17/outbox.cif.g08.bks.cpg/sg2_35_cif.got.tgz:69583.got - 2010.06.03 11:33:40.
