data_PCOD9097798
_publ_section_title
;
Structure prediction by ZEFSAII (Michael W. Deem and Ramdas Pophale) SiO2 
 PCOD9097798
Probable space group: P -1
;
_chemical_formula_sum "Si O2"
_cell_formula_units_Z 16
_cell_length_a 14.479276
_cell_length_b 9.653318
_cell_length_c 13.106232
_cell_angle_alpha 59.062209
_cell_angle_beta 38.160431
_cell_angle_gamma 49.904935
_cell_volume 865.737087
_symmetry_space_group_name_H-M "P -1"
_symmetry_group_IT_number 2
_symmetry_cell_setting 'triclinic'
loop_
_space_group_symop_operation_xyz
x,y,z
-x,-y,-z
loop_
_atom_site_type_symbol
_atom_site_label
_atom_site_fract_x
_atom_site_fract_y
_atom_site_fract_z
Si Si1 0.813782 0.640243 0.870342
Si Si2 0.488929 0.742259 0.574056
Si Si3 0.144699 0.967383 0.467911
Si Si4 0.273038 0.535225 0.812789
Si Si5 0.163634 0.598947 0.664243
Si Si6 0.523721 0.867650 0.174427
Si Si7 0.856543 0.688955 0.585137
Si Si8 0.467724 0.083089 0.335588
O O1 0.791719 0.652885 0.763996
O O2 0.994355 0.625729 0.745589
O O3 0.803593 0.479047 0.005837
O O4 0.659858 0.815805 0.986835
O O5 0.355200 0.669874 0.692312
O O6 0.673214 0.573461 0.457620
O O7 0.462640 0.818776 0.683821
O O8 0.466340 0.912874 0.460391
O O9 0.176034 0.785294 0.568138
O O10 0.331330 0.934105 0.283994
O O11 0.084615 0.154794 0.510166
O O12 0.000000 0.000000 0.500000
O O13 0.155229 0.572176 0.803203
O O14 0.418899 0.329889 0.748987
O O15 0.543566 0.999053 0.191023
O O16 0.715728 0.766378 0.592313
O O17 0.000000 0.500000 0.500000
#
# Coordination Sequence:
#
# PCOD9097798 Si02
#       8
#     2   2   2   2   2   2   2   2
#     4  10  22  38  62  88 123 163 195 252 307 363
#     4  11  20  38  63  91 122 153 206 258 296 355
#     4  11  22  37  63  93 115 162 207 246 293 355
#     4  10  20  36  62  88 118 158 198 249 302 354
#     4  12  19  37  64  91 119 159 208 252 296 360
#     4   9  20  39  57  88 122 151 204 241 301 358
#     4  11  23  42  60  88 125 158 200 251 307 365
#     4  10  22  35  61  91 117 164 201 246 306 355
#
# _framework density 18.481361
#
# number of rings (size 3 to 8) (size 9 to 14) (size 15 to 20)
#    0.750    0.750    3.750    3.000    0.000    2.000 
#    0.000    1.875    0.000    8.250    0.000    0.000 
#    0.000    0.000    0.000    0.000    0.000    0.000 
#
# Total GULP energy -89080.377792 kJ/mol
# GULP energy per Si atom -5567.523612 kJ/mol
# Density = 1.843930 g / cm^3
# Si number density = 18.481361 Si / 1000 Ang^3
#
#
#
# Elastic Constant Matrix: (Units=GPa)
#
#
# Indices 1 2 3 4 5 6 
#
# 1 75.9505 12.8322 14.1481 6.9824 4.8899 -9.0348
# 2 12.8322 104.0655 26.2473 4.7094 11.0768 -12.4647
# 3 14.1481 26.2473 63.5143 7.0187 6.1049 -2.5971
# 4 6.9824 4.7094 7.0187 28.0860 2.7928 3.6068
# 5 4.8899 11.0768 6.1049 2.7928 23.5277 0.9380
# 6 -9.0348 -12.4647 -2.5971 3.6068 0.9380 28.7556
#
#
#
# Elastic Compliance Matrix: (Units=1/GPa)
#
#
# Indices 1 2 3 4 5 6 
#
# 1 0.014672 -0.000257 -0.002388 -0.003413 -0.002094 0.004779
# 2 -0.000257 0.011786 -0.004058 -0.001085 -0.004511 0.004945
# 3 -0.002388 -0.004058 0.018472 -0.003093 -0.002004 -0.000388
# 4 -0.003413 -0.001085 -0.003093 0.038480 -0.002283 -0.006574
# 5 -0.002094 -0.004511 -0.002004 -0.002283 0.046013 -0.004009
# 6 0.004779 0.004945 -0.000388 -0.006574 -0.004009 0.039341
#
#
# Mechanical properties :
#
#
# Convention : Reuss Voigt Hill
#
# Bulk Modulus (GPa) = 31.72186 38.88728 35.30457
# Shear Modulus (GPa) = 25.95017 28.76068 27.35542
#
# Velocity S-wave (km/s) = 3.75123 3.94915 3.85146
# Velocity P-wave (km/s) = 5.99699 6.47158 6.23880
#
# Compressibility (1/GPa) = 0.03152400
#
# Stress axis : x y z
#
# Youngs Moduli (GPa) = 68.15758 84.84669 54.13648
#
# Poissons Ratio (x) = 0.02181 0.12929
# Poissons Ratio (y) = 0.01752 0.21967
# Poissons Ratio (z) = 0.16277 0.34428
#
# Static dielectric constant tensor:
#      x y z
#    x 1.648010 -0.019340 0.029200 
#    y -0.019340 1.648880 -0.002230 
#    z 0.029200 -0.002230 1.643070 
# 
# From -- ./inp_files/528257.got.cif
#   From: 2010.05.17/outbox.cif.g08.bks.cpg/sg2_265_cif.got.tgz:528257.got - 2010.06.03 11:33:40.
