data_PCOD9097645
_publ_section_title
;
Structure prediction by ZEFSAII (Michael W. Deem and Ramdas Pophale) SiO2 
 PCOD9097645
Probable space group: P -1
;
_chemical_formula_sum "Si O2"
_cell_formula_units_Z 16
_cell_length_a 12.361372
_cell_length_b 8.376477
_cell_length_c 13.073429
_cell_angle_alpha 62.547474
_cell_angle_beta 37.050104
_cell_angle_gamma 84.494579
_cell_volume 623.113243
_symmetry_space_group_name_H-M "P -1"
_symmetry_group_IT_number 2
_symmetry_cell_setting 'triclinic'
loop_
_space_group_symop_operation_xyz
x,y,z
-x,-y,-z
loop_
_atom_site_type_symbol
_atom_site_label
_atom_site_fract_x
_atom_site_fract_y
_atom_site_fract_z
Si Si1 0.569956 0.214584 0.117632
Si Si2 0.494871 0.864523 0.415587
Si Si3 0.953963 0.269366 0.122000
Si Si4 0.235586 0.561292 0.292357
Si Si5 0.868646 0.890997 0.501569
Si Si6 0.844508 0.860479 0.279832
Si Si7 0.777099 0.425888 0.472121
Si Si8 0.144716 0.333905 0.174800
O O1 0.659223 0.255586 0.923761
O O2 0.642571 0.449855 0.031107
O O3 0.322219 0.076896 0.336416
O O4 0.626399 0.092444 0.194619
O O5 0.294566 0.849274 0.628629
O O6 0.625691 0.801827 0.408965
O O7 0.395349 0.706383 0.442616
O O8 0.103365 0.310501 0.092411
O O9 0.983150 0.108802 0.075490
O O10 0.000000 0.500000 0.000000
O O11 0.204819 0.342635 0.337394
O O12 0.320072 0.611610 0.329415
O O13 0.000000 0.500000 0.500000
O O14 0.857536 0.872352 0.391557
O O15 0.082996 0.094811 0.315954
O O16 0.880254 0.668724 0.292987
O O17 0.963072 0.374966 0.341638
#
# Coordination Sequence:
#
# PCOD9097645 Si02
#       8
#     2   2   2   2   2   2   2   2
#     4  12  22  41  70  95 132 177 221 269 333 383
#     4  11  22  39  62  97 132 170 219 268 327 399
#     4  10  20  36  61  91 128 174 218 263 320 392
#     4  11  24  44  70  93 133 175 221 280 330 381
#     4  10  23  44  68 100 130 169 228 269 321 403
#     4  10  20  38  66  91 133 169 211 269 328 385
#     4  10  21  43  60  92 133 170 216 275 321 385
#     4  10  21  40  65  93 133 170 217 272 325 389
#
# _framework density 25.677513000000001
#
# number of rings (size 3 to 8) (size 9 to 14) (size 15 to 20)
#    0.000    1.500    5.000    1.875    1.750    1.000 
#    0.000    9.375    0.000    0.000    0.000    0.000 
#    0.000    0.000    0.000    0.000    0.000    0.000 
#
# Total GULP energy -89335.601349 kJ/mol
# GULP energy per Si atom -5583.475084 kJ/mol
# Density = 2.561907 g / cm^3
# Si number density = 25.677513 Si / 1000 Ang^3
#
#
#
# Elastic Constant Matrix: (Units=GPa)
#
#
# Indices 1 2 3 4 5 6 
#
# 1 85.0670 23.1730 19.0135 -16.4218 3.3478 6.9386
# 2 23.1730 106.8691 23.7795 -36.8205 -3.3242 8.2528
# 3 19.0135 23.7795 98.4447 -28.9119 14.3898 -3.3313
# 4 -16.4218 -36.8205 -28.9119 34.7861 -4.4105 3.7120
# 5 3.3478 -3.3242 14.3898 -4.4105 48.6281 -12.8466
# 6 6.9386 8.2528 -3.3313 3.7120 -12.8466 41.9585
#
#
#
# Elastic Compliance Matrix: (Units=1/GPa)
#
#
# Indices 1 2 3 4 5 6 
#
# 1 0.013399 -0.000840 -0.000904 0.004860 -0.001029 -0.002867
# 2 -0.000840 0.015815 0.001308 0.018030 0.001315 -0.004060
# 3 -0.000904 0.001308 0.014077 0.012368 -0.003171 -0.001055
# 4 0.004860 0.018030 0.012368 0.061393 0.000524 -0.008639
# 5 -0.001029 0.001315 -0.003171 0.000524 0.023510 0.006812
# 6 -0.002867 -0.004060 -0.001055 -0.008639 0.006812 0.027872
#
#
# Mechanical properties :
#
#
# Convention : Reuss Voigt Hill
#
# Bulk Modulus (GPa) = 23.57538 46.92364 35.24951
# Shear Modulus (GPa) = 29.22633 40.03555 34.63094
#
# Velocity S-wave (km/s) = 3.37739 3.95291 3.67643
# Velocity P-wave (km/s) = 4.94068 6.25683 5.63730
#
# Compressibility (1/GPa) = 0.04241713
#
# Stress axis : x y z
#
# Youngs Moduli (GPa) = 74.63237 63.23141 71.03929
#
# Poissons Ratio (x) = 0.05314 0.06424
# Poissons Ratio (y) = 0.06272 -0.09291
# Poissons Ratio (z) = 0.06748 -0.08269
#
# Static dielectric constant tensor:
#      x y z
#    x 2.073150 0.004920 0.099630 
#    y 0.004920 2.101700 -0.012310 
#    z 0.099630 -0.012310 2.121700 
# 
# From -- ./inp_files/528263.got.cif
#   From: 2010.05.17/outbox.cif.g08.bks.cpg/sg2_265_cif.got.tgz:528263.got - 2010.06.03 11:33:40.
