data_PCOD9097255
_publ_section_title
;
Structure prediction by ZEFSAII (Michael W. Deem and Ramdas Pophale) SiO2 
 PCOD9097255
Probable space group: P -1
;
_chemical_formula_sum "Si O2"
_cell_formula_units_Z 16
_cell_length_a 23.025505
_cell_length_b 9.731244
_cell_length_c 16.067533
_cell_angle_alpha 139.877947
_cell_angle_beta 159.873197
_cell_angle_gamma 41.948822
_cell_volume 792.914167
_symmetry_space_group_name_H-M "P -1"
_symmetry_group_IT_number 2
_symmetry_cell_setting 'triclinic'
loop_
_space_group_symop_operation_xyz
x,y,z
-x,-y,-z
loop_
_atom_site_type_symbol
_atom_site_label
_atom_site_fract_x
_atom_site_fract_y
_atom_site_fract_z
Si Si1 0.640706 0.121563 0.624013
Si Si2 0.475018 0.667243 0.970265
Si Si3 0.170863 0.043545 0.704660
Si Si4 0.295238 0.068830 0.202945
Si Si5 0.706520 0.015130 0.489126
Si Si6 0.918684 0.106556 0.658796
Si Si7 0.415198 0.371152 0.211917
Si Si8 0.644167 0.478658 0.426083
O O1 0.458375 0.026691 0.342662
O O2 0.616047 0.377753 0.693320
O O3 0.710580 0.085769 0.796211
O O4 0.747380 0.001418 0.636346
O O5 0.631772 0.808541 0.254305
O O6 0.500000 0.500000 0.000000
O O7 0.440413 0.523353 0.777830
O O8 0.313716 0.850697 0.834347
O O9 0.142081 0.041834 0.565301
O O10 0.242998 0.262619 0.928564
O O11 0.000000 0.000000 0.500000
O O12 0.328120 0.294263 0.393451
O O13 0.120739 0.088310 0.927427
O O14 0.848865 0.067762 0.639547
O O15 0.553225 0.212332 0.374466
O O16 0.826335 0.337190 0.612464
O O17 0.511105 0.364264 0.249310
#
# Coordination Sequence:
#
# PCOD9097255 Si02
#       8
#     2   2   2   2   2   2   2   2
#     4  10  21  37  56  84 115 154 188 227 283 341
#     4  10  20  36  60  85 112 152 192 236 282 343
#     4  10  22  40  58  86 115 149 191 242 288 339
#     4  10  21  36  57  83 119 149 185 234 282 335
#     4  10  20  36  60  84 111 150 192 232 280 342
#     4  10  21  37  58  84 111 148 190 237 286 330
#     4   9  19  37  58  79 109 152 189 228 279 344
#     4   9  18  37  58  83 111 148 193 227 278 338
#
# _framework density 20.178726999999999
#
# number of rings (size 3 to 8) (size 9 to 14) (size 15 to 20)
#    0.000    2.250    0.000    2.250    3.500    3.500 
#    6.750    0.625    0.000    0.000    0.000    0.000 
#    0.000    0.000    0.000    0.000    0.000    0.000 
#
# Total GULP energy -89154.316337 kJ/mol
# GULP energy per Si atom -5572.144771 kJ/mol
# Density = 2.013280 g / cm^3
# Si number density = 20.178727 Si / 1000 Ang^3
#
#
#
# Elastic Constant Matrix: (Units=GPa)
#
#
# Indices 1 2 3 4 5 6 
#
# 1 85.7167 5.5087 21.7077 -3.0734 -16.2894 11.8220
# 2 5.5087 48.4239 22.1894 16.1609 -5.5075 14.0422
# 3 21.7077 22.1894 76.3414 -0.4620 -3.9508 8.6559
# 4 -3.0734 16.1609 -0.4620 17.6746 4.7131 0.2576
# 5 -16.2894 -5.5075 -3.9508 4.7131 20.3502 -5.4962
# 6 11.8220 14.0422 8.6559 0.2576 -5.4962 21.5345
#
#
#
# Elastic Compliance Matrix: (Units=1/GPa)
#
#
# Indices 1 2 3 4 5 6 
#
# 1 0.015691 0.006039 -0.004766 -0.006206 0.012731 -0.007312
# 2 0.006039 0.055403 -0.013877 -0.055598 0.022602 -0.027431
# 3 -0.004766 -0.013877 0.017935 0.014063 -0.006646 0.002592
# 4 -0.006206 -0.055598 0.014063 0.116526 -0.038089 0.022893
# 5 0.012731 0.022602 -0.006646 -0.038089 0.072986 0.000028
# 6 -0.007312 -0.027431 0.002592 0.022893 0.000028 0.067030
#
#
# Mechanical properties :
#
#
# Convention : Reuss Voigt Hill
#
# Bulk Modulus (GPa) = 15.66923 34.36594 25.01758
# Shear Modulus (GPa) = 12.75338 22.65030 17.70184
#
# Velocity S-wave (km/s) = 2.51673 3.35398 2.96506
# Velocity P-wave (km/s) = 4.02832 5.66275 4.91396
#
# Compressibility (1/GPa) = 0.06381936
#
# Stress axis : x y z
#
# Youngs Moduli (GPa) = 63.73206 18.04952 55.75642
#
# Poissons Ratio (x) = -0.10900 0.26576
# Poissons Ratio (y) = -0.38486 0.77374
# Poissons Ratio (z) = 0.30378 0.25047
#
# Static dielectric constant tensor:
#      x y z
#    x 1.786610 0.012880 -0.023530 
#    y 0.012880 1.727630 -0.014810 
#    z -0.023530 -0.014810 1.699160 
# 
# From -- ./inp_files/181830.got.cif
#   From: 2010.05.17/outbox.cif.g08.bks.cpg/sg2_91_cif.got.tgz:181830.got - 2010.06.03 11:33:40.
