data_PCOD9097918
_publ_section_title
;
Structure prediction by ZEFSAII (Michael W. Deem and Ramdas Pophale) SiO2 
 PCOD9097918
Probable space group: P -1
;
_chemical_formula_sum "Si O2"
_cell_formula_units_Z 16
_cell_length_a 17.280475
_cell_length_b 12.629065
_cell_length_c 9.245438
_cell_angle_alpha 69.130971
_cell_angle_beta 111.416040
_cell_angle_gamma 155.805212
_cell_volume 768.412701
_symmetry_space_group_name_H-M "P -1"
_symmetry_group_IT_number 2
_symmetry_cell_setting 'triclinic'
loop_
_space_group_symop_operation_xyz
x,y,z
-x,-y,-z
loop_
_atom_site_type_symbol
_atom_site_label
_atom_site_fract_x
_atom_site_fract_y
_atom_site_fract_z
Si Si1 0.034857 0.434751 0.650752
Si Si2 0.693569 0.384333 0.829290
Si Si3 0.722125 0.845073 0.052037
Si Si4 0.005931 0.058909 0.316519
Si Si5 0.022401 0.639386 0.034789
Si Si6 0.522112 0.051513 0.318079
Si Si7 0.584611 0.357875 0.053911
Si Si8 0.973243 0.112729 0.807156
O O1 0.259417 0.702670 0.688944
O O2 0.968736 0.227383 0.663654
O O3 0.000000 0.500000 0.500000
O O4 0.936275 0.335966 0.783982
O O5 0.839143 0.651122 0.726208
O O6 0.825047 0.464264 0.977069
O O7 0.595811 0.183679 0.742543
O O8 0.567349 0.295626 0.905166
O O9 0.799994 0.851418 0.219947
O O10 0.821568 0.084952 0.053484
O O11 0.831680 0.949397 0.926364
O O12 0.509278 0.632662 0.991302
O O13 0.000000 0.000000 0.500000
O O14 0.070088 0.042874 0.252665
O O15 0.000000 0.500000 0.000000
O O16 0.494968 0.148756 0.196941
O O17 0.500000 0.000000 0.500000
O O18 0.810637 0.638952 0.107625
#
# Coordination Sequence:
#
# PCOD9097918 Si02
#       8
#     2   2   2   2   2   2   2   2
#     4  10  23  39  62  96 130 170 206 274 336 380
#     4  11  23  44  64  93 134 173 218 275 325 389
#     4  10  22  40  69  94 122 178 219 265 327 389
#     4  11  25  45  68  91 134 176 217 276 330 385
#     4  10  20  36  62  93 126 173 216 256 326 396
#     4  11  25  39  64 100 136 168 211 276 332 385
#     4  11  22  43  71  98 131 170 222 272 326 395
#     4  10  22  46  65  93 133 172 223 267 324 390
#
# _framework density 20.822144999999999
#
# number of rings (size 3 to 8) (size 9 to 14) (size 15 to 20)
#    0.000    1.500    5.000    1.500   10.500    1.500 
#    0.000    0.625    0.000    0.000    0.000    0.000 
#    0.000    0.000    0.000    0.000    0.000    0.000 
#
# Total GULP energy -89308.421186 kJ/mol
# GULP energy per Si atom -5581.776324 kJ/mol
# Density = 2.077475 g / cm^3
# Si number density = 20.822145 Si / 1000 Ang^3
#
#
#
# Elastic Constant Matrix: (Units=GPa)
#
#
# Indices 1 2 3 4 5 6 
#
# 1 123.4903 33.6214 49.7621 -5.6585 15.5123 7.6243
# 2 33.6214 76.7790 29.7275 -6.4685 -1.4357 0.9165
# 3 49.7621 29.7275 145.3262 -15.8207 19.6881 2.7178
# 4 -5.6585 -6.4685 -15.8207 22.0690 -1.6683 2.0245
# 5 15.5123 -1.4357 19.6881 -1.6683 37.6449 1.8116
# 6 7.6243 0.9165 2.7178 2.0245 1.8116 43.5074
#
#
#
# Elastic Compliance Matrix: (Units=1/GPa)
#
#
# Indices 1 2 3 4 5 6 
#
# 1 0.010575 -0.003755 -0.002420 -0.000228 -0.003174 -0.001480
# 2 -0.003755 0.015756 -0.002140 0.002356 0.003362 0.000210
# 3 -0.002420 -0.002140 0.009201 0.005089 -0.003662 -0.000190
# 4 -0.000228 0.002356 0.005089 0.049824 -0.000142 -0.002640
# 5 -0.003174 0.003362 -0.003662 -0.000142 0.029934 -0.000526
# 6 -0.001480 0.000210 -0.000190 -0.002640 -0.000526 0.023396
#
#
# Mechanical properties :
#
#
# Convention : Reuss Voigt Hill
#
# Bulk Modulus (GPa) = 52.90401 63.53525 58.21963
# Shear Modulus (GPa) = 30.93729 36.14322 33.54025
#
# Velocity S-wave (km/s) = 3.85877 4.17082 4.01783
# Velocity P-wave (km/s) = 6.73173 7.33307 7.03883
#
# Compressibility (1/GPa) = 0.01890216
#
# Stress axis : x y z
#
# Youngs Moduli (GPa) = 94.56372 63.46773 108.68119
#
# Poissons Ratio (x) = 0.23830 0.26303
# Poissons Ratio (y) = 0.35505 0.23260
# Poissons Ratio (z) = 0.22886 0.13584
#
# Static dielectric constant tensor:
#      x y z
#    x 1.838390 -0.021950 0.021840 
#    y -0.021950 1.858220 -0.002290 
#    z 0.021840 -0.002290 1.791040 
# 
# From -- ./inp_files/307132.got.cif
#   From: 2010.05.17/outbox.cif.g08.bks.cpg/sg2_154_cif.got.tgz:307132.got - 2010.06.03 11:33:40.
