data_PCOD9097447
_publ_section_title
;
Structure prediction by ZEFSAII (Michael W. Deem and Ramdas Pophale) SiO2 
 PCOD9097447
Probable space group: P -1
;
_chemical_formula_sum "Si O2"
_cell_formula_units_Z 15
_cell_length_a 7.750205
_cell_length_b 18.252281
_cell_length_c 20.158830
_cell_angle_alpha 21.598604
_cell_angle_beta 140.914781
_cell_angle_gamma 147.717056
_cell_volume 559.939388
_symmetry_space_group_name_H-M "P -1"
_symmetry_group_IT_number 2
_symmetry_cell_setting 'triclinic'
loop_
_space_group_symop_operation_xyz
x,y,z
-x,-y,-z
loop_
_atom_site_type_symbol
_atom_site_label
_atom_site_fract_x
_atom_site_fract_y
_atom_site_fract_z
Si Si1 0.751889 0.326205 0.421757
Si Si2 0.500000 0.000000 0.500000
Si Si3 0.717629 0.087357 0.169975
Si Si4 0.515592 0.707065 0.869500
Si Si5 0.230682 0.218749 0.972769
Si Si6 0.286528 0.531381 0.507801
Si Si7 0.479617 0.159655 0.915849
Si Si8 0.175040 0.889039 0.681886
O O1 0.674767 0.247808 0.388261
O O2 0.667609 0.526027 0.237558
O O3 0.539474 0.112601 0.589431
O O4 0.113795 0.441233 0.460495
O O5 0.387885 0.102990 0.319365
O O6 0.557177 0.807792 0.350920
O O7 0.961343 0.165551 0.238662
O O8 0.466710 0.140551 0.084807
O O9 0.757522 0.207690 0.010436
O O10 0.186419 0.682419 0.822248
O O11 0.500000 0.500000 0.000000
O O12 0.739298 0.774066 0.944616
O O13 0.872543 0.032420 0.998662
O O14 0.442949 0.379080 0.703035
O O15 0.000000 0.500000 0.500000
O O16 0.500000 0.000000 0.000000
O O17 0.000000 0.000000 0.500000
#
# Coordination Sequence:
#
# PCOD9097447 Si02
#       8
#     2   1   2   2   2   2   2   2
#     4  11  21  39  72  95 126 179 228 270 326 398
#     4  10  20  36  60  92 128 166 222 264 320 380
#     4  11  23  43  73  94 131 186 223 265 336 416
#     4  10  20  40  63  91 123 173 224 265 317 394
#     4  11  21  42  70  97 130 174 236 269 323 413
#     4  12  21  43  75  97 127 178 229 272 324 409
#     4  12  26  43  62 105 140 164 218 286 342 388
#     4  10  23  43  63  99 136 168 224 278 333 395
#
# _framework density 26.788613000000002
#
# number of rings (size 3 to 8) (size 9 to 14) (size 15 to 20)
#    0.000    1.067    5.333    2.800    0.000    0.533 
#   12.000    2.667    0.000    0.000    0.000    0.000 
#    0.000    0.000    0.000    0.000    0.000    0.000 
#
# Total GULP energy -83639.342832 kJ/mol
# GULP energy per Si atom -5575.956189 kJ/mol
# Density = 2.672764 g / cm^3
# Si number density = 26.788613 Si / 1000 Ang^3
#
#
#
# Elastic Constant Matrix: (Units=GPa)
#
#
# Indices 1 2 3 4 5 6 
#
# 1 99.4114 40.1640 29.5991 8.9242 14.5291 -24.5794
# 2 40.1640 111.6549 46.0053 10.0466 16.3330 -40.5280
# 3 29.5991 46.0053 233.0370 4.3146 4.0994 -24.2634
# 4 8.9242 10.0466 4.3146 49.1781 -7.8558 -12.2884
# 5 14.5291 16.3330 4.0994 -7.8558 23.8388 -2.5503
# 6 -24.5794 -40.5280 -24.2634 -12.2884 -2.5503 36.9763
#
#
#
# Elastic Compliance Matrix: (Units=1/GPa)
#
#
# Indices 1 2 3 4 5 6 
#
# 1 0.013459 -0.001076 -0.000688 -0.001766 -0.007263 0.006228
# 2 -0.001076 0.017353 -0.001390 -0.000599 -0.009422 0.016544
# 3 -0.000688 -0.001390 0.004771 0.000467 0.000851 0.001364
# 4 -0.001766 -0.000599 0.000467 0.024155 0.010137 0.007202
# 5 -0.007263 -0.009422 0.000851 0.010137 0.055231 -0.007419
# 6 0.006228 0.016544 0.001364 0.007202 -0.007419 0.052094
#
#
# Mechanical properties :
#
#
# Convention : Reuss Voigt Hill
#
# Bulk Modulus (GPa) = 34.15842 75.07110 54.61476
# Shear Modulus (GPa) = 27.30314 43.88763 35.59539
#
# Velocity S-wave (km/s) = 3.19597 4.05198 3.64916
# Velocity P-wave (km/s) = 5.13787 7.06935 6.17954
#
# Compressibility (1/GPa) = 0.02927536
#
# Stress axis : x y z
#
# Youngs Moduli (GPa) = 74.30177 57.62720 209.58460
#
# Poissons Ratio (x) = 0.06200 0.14423
# Poissons Ratio (y) = 0.07994 0.29127
# Poissons Ratio (z) = 0.05113 0.08009
#
# Static dielectric constant tensor:
#      x y z
#    x 2.259630 0.029730 -0.122950 
#    y 0.029730 2.218590 -0.054940 
#    z -0.122950 -0.054940 2.234060 
# 
# From -- ./inp_files/590955.got.cif
#   From: 2010.05.17/outbox.cif.g08.bks.cpg/sg2_296_cif.got.tgz:590955.got - 2010.06.03 11:33:40.
