data_PCOD9097718
_publ_section_title
;
Structure prediction by ZEFSAII (Michael W. Deem and Ramdas Pophale) SiO2 
 PCOD9097718
Probable space group: P -1
;
_chemical_formula_sum "Si O2"
_cell_formula_units_Z 16
_cell_length_a 11.741160
_cell_length_b 19.235387
_cell_length_c 9.332767
_cell_angle_alpha 137.701391
_cell_angle_beta 37.584235
_cell_angle_gamma 140.634270
_cell_volume 770.222299
_symmetry_space_group_name_H-M "P -1"
_symmetry_group_IT_number 2
_symmetry_cell_setting 'triclinic'
loop_
_space_group_symop_operation_xyz
x,y,z
-x,-y,-z
loop_
_atom_site_type_symbol
_atom_site_label
_atom_site_fract_x
_atom_site_fract_y
_atom_site_fract_z
Si Si1 0.063694 0.626816 0.562974
Si Si2 0.504178 0.327849 0.316157
Si Si3 0.043318 0.159880 0.602329
Si Si4 0.580087 0.526877 0.190865
Si Si5 0.843149 0.443022 0.936897
Si Si6 0.687474 0.211317 0.183604
Si Si7 0.745765 0.916305 0.465494
Si Si8 0.680133 0.685246 0.062710
O O1 0.099221 0.615533 0.342035
O O2 0.238675 0.710759 0.627372
O O3 0.000000 0.500000 0.500000
O O4 0.888780 0.671317 0.811904
O O5 0.250975 0.254498 0.459018
O O6 0.553772 0.454381 0.523025
O O7 0.606503 0.270267 0.233258
O O8 0.623806 0.350523 0.082919
O O9 0.144796 0.117773 0.564728
O O10 0.901558 0.048730 0.476071
O O11 0.876964 0.193653 0.898491
O O12 0.482387 0.403915 0.022853
O O13 0.798758 0.542619 0.059353
O O14 0.603057 0.624047 0.201065
O O15 0.000000 0.500000 0.000000
O O16 0.478013 0.099698 0.277203
O O17 0.710776 0.815335 0.232382
#
# Coordination Sequence:
#
# PCOD9097718 Si02
#       8
#     2   2   2   2   2   2   2   2
#     4  12  22  36  60  91 126 164 208 257 305 375
#     4  11  24  40  61  92 132 168 204 255 317 379
#     4  10  21  38  62  91 127 159 210 265 314 367
#     4  11  21  39  60  90 129 164 204 253 313 380
#     4  12  26  38  60  92 133 173 207 248 315 383
#     4  11  20  39  66  93 124 161 213 260 311 363
#     4  10  20  36  61  98 120 160 209 268 316 355
#     4  11  20  37  64  93 126 161 206 267 311 360
#
# _framework density 20.773223000000002
#
# number of rings (size 3 to 8) (size 9 to 14) (size 15 to 20)
#    0.000    1.000    5.000    3.750    1.750    0.000 
#    0.000    0.000    0.000    3.750    0.000    0.000 
#    0.000    0.000    0.000    0.000    0.000    0.000 
#
# Total GULP energy -89277.690384 kJ/mol
# GULP energy per Si atom -5579.855649 kJ/mol
# Density = 2.072594 g / cm^3
# Si number density = 20.773223 Si / 1000 Ang^3
#
#
#
# Elastic Constant Matrix: (Units=GPa)
#
#
# Indices 1 2 3 4 5 6 
#
# 1 85.5257 31.4717 30.8578 -6.1424 3.1515 17.2125
# 2 31.4717 113.1949 66.2471 3.0124 9.0729 29.3553
# 3 30.8578 66.2471 147.5649 -16.1453 9.3290 14.1703
# 4 -6.1424 3.0124 -16.1453 34.2063 8.0419 4.4742
# 5 3.1515 9.0729 9.3290 8.0419 32.5326 -7.7329
# 6 17.2125 29.3553 14.1703 4.4742 -7.7329 21.3916
#
#
#
# Elastic Compliance Matrix: (Units=1/GPa)
#
#
# Indices 1 2 3 4 5 6 
#
# 1 0.015920 0.001190 -0.000995 0.006346 -0.007384 -0.017780
# 2 0.001190 0.020491 -0.005470 0.002659 -0.012145 -0.030400
# 3 -0.000995 -0.005470 0.010390 0.006057 -0.003082 -0.000956
# 4 0.006346 0.002659 0.006057 0.041504 -0.020185 -0.028744
# 5 -0.007384 -0.012145 -0.003082 -0.020185 0.052049 0.047686
# 6 -0.017780 -0.030400 -0.000956 -0.028744 0.047686 0.126654
#
#
# Mechanical properties :
#
#
# Convention : Reuss Voigt Hill
#
# Bulk Modulus (GPa) = 27.58573 67.04872 47.31723
# Shear Modulus (GPa) = 17.26274 32.14003 24.70139
#
# Velocity S-wave (km/s) = 2.88585 3.93770 3.45207
# Velocity P-wave (km/s) = 4.94090 7.28152 6.22226
#
# Compressibility (1/GPa) = 0.03625063
#
# Stress axis : x y z
#
# Youngs Moduli (GPa) = 62.81578 48.80107 96.24821
#
# Poissons Ratio (x) = -0.05807 0.09574
# Poissons Ratio (y) = -0.07474 0.52650
# Poissons Ratio (z) = 0.06248 0.26695
#
# Static dielectric constant tensor:
#      x y z
#    x 1.764640 0.049350 -0.027550 
#    y 0.049350 1.820830 -0.006030 
#    z -0.027550 -0.006030 1.812070 
# 
# From -- ./inp_files/282404.got.cif
#   From: 2010.05.17/outbox.cif.g08.bks.cpg/sg2_142_cif.got.tgz:282404.got - 2010.06.03 11:33:40.
