data_PCOD9097409
_publ_section_title
;
Structure prediction by ZEFSAII (Michael W. Deem and Ramdas Pophale) SiO2 
 PCOD9097409
Probable space group: P -1
;
_chemical_formula_sum "Si O2"
_cell_formula_units_Z 14
_cell_length_a 8.349809
_cell_length_b 8.338139
_cell_length_c 11.728527
_cell_angle_alpha 128.144375
_cell_angle_beta 113.889441
_cell_angle_gamma 56.796353
_cell_volume 534.569193
_symmetry_space_group_name_H-M "P -1"
_symmetry_group_IT_number 2
_symmetry_cell_setting 'triclinic'
loop_
_space_group_symop_operation_xyz
x,y,z
-x,-y,-z
loop_
_atom_site_type_symbol
_atom_site_label
_atom_site_fract_x
_atom_site_fract_y
_atom_site_fract_z
Si Si1 0.537093 0.823094 0.831856
Si Si2 0.599042 0.717717 0.309962
Si Si3 0.140061 0.292550 0.292674
Si Si4 0.812059 0.949235 0.577878
Si Si5 0.875382 0.348372 0.802626
Si Si6 0.835728 0.449199 0.080487
Si Si7 0.320301 0.585743 0.573667
O O1 0.655683 0.859658 0.775438
O O2 0.691868 0.577169 0.814364
O O3 0.341991 0.806008 0.724721
O O4 0.500000 0.000000 0.000000
O O5 0.753677 0.825858 0.407047
O O6 0.636402 0.581208 0.144760
O O7 0.643951 0.564633 0.368735
O O8 0.391888 0.904097 0.356094
O O9 0.082206 0.209730 0.356225
O O10 0.165727 0.522658 0.431472
O O11 0.980923 0.315954 0.163931
O O12 0.888357 0.131029 0.643979
O O13 0.068038 0.386388 0.863332
O O14 0.841370 0.310802 0.909342
O O15 0.500000 0.500000 0.500000
#
# Coordination Sequence:
#
# PCOD9097409 Si02
#       7
#     2   2   2   2   2   2   2
#     4  10  20  36  60  91 116 156 210 250 297 353
#     4  10  21  38  64  95 118 157 208 251 299 362
#     4   9  21  39  60  86 125 158 196 255 299 362
#     4  10  21  38  65  90 119 156 210 254 296 353
#     4  10  22  42  61  85 130 167 195 251 305 361
#     4  10  23  41  59  87 132 165 196 242 312 363
#     4   9  18  37  61  87 117 155 197 255 297 348
#
# _framework density 26.189312999999999
#
# number of rings (size 3 to 8) (size 9 to 14) (size 15 to 20)
#    0.000    2.286    1.429    0.000    2.000    5.143 
#    0.000    7.143    0.000    0.000    0.000    0.000 
#    0.000    0.000    0.000    0.000    0.000    0.000 
#
# Total GULP energy -78248.925771 kJ/mol
# GULP energy per Si atom -5589.208984 kJ/mol
# Density = 2.612970 g / cm^3
# Si number density = 26.189313 Si / 1000 Ang^3
#
#
#
# Elastic Constant Matrix: (Units=GPa)
#
#
# Indices 1 2 3 4 5 6 
#
# 1 56.7944 9.9437 27.4149 15.6441 -13.2114 -5.5041
# 2 9.9437 57.9508 12.8669 -11.5709 3.6982 3.0560
# 3 27.4149 12.8669 142.7748 9.4769 -6.4444 7.9377
# 4 15.6441 -11.5709 9.4769 27.1501 12.4915 7.0601
# 5 -13.2114 3.6982 -6.4444 12.4915 49.7039 1.4234
# 6 -5.5041 3.0560 7.9377 7.0601 1.4234 29.9259
#
#
#
# Elastic Compliance Matrix: (Units=1/GPa)
#
#
# Indices 1 2 3 4 5 6 
#
# 1 0.043932 -0.019229 -0.003537 -0.049048 0.024363 0.021394
# 2 -0.019229 0.029553 -0.001246 0.034980 -0.015870 -0.013722
# 3 -0.003537 -0.001246 0.008012 -0.000870 0.000481 -0.002466
# 4 -0.049048 0.034980 -0.000870 0.109075 -0.042131 -0.036091
# 5 0.024363 -0.015870 0.000481 -0.042131 0.038023 0.014105
# 6 0.021394 -0.013722 -0.002466 -0.036091 0.014105 0.047250
#
#
# Mechanical properties :
#
#
# Convention : Reuss Voigt Hill
#
# Bulk Modulus (GPa) = 29.87529 39.77457 34.82493
# Shear Modulus (GPa) = 14.92418 35.17562 25.04990
#
# Velocity S-wave (km/s) = 2.38976 3.66885 3.09608
# Velocity P-wave (km/s) = 4.36426 5.75913 5.10952
#
# Compressibility (1/GPa) = 0.03347248
#
# Stress axis : x y z
#
# Youngs Moduli (GPa) = 22.76225 33.83754 124.81263
#
# Poissons Ratio (x) = 0.65067 0.44144
# Poissons Ratio (y) = 0.43770 0.15556
# Poissons Ratio (z) = 0.08051 0.04217
#
# Static dielectric constant tensor:
#      x y z
#    x 2.087710 -0.036910 0.036310 
#    y -0.036910 2.148680 0.026980 
#    z 0.036310 0.026980 2.012170 
# 
# From -- ./inp_files/158378.got.cif
#   From: 2010.05.17/outbox.cif.g08.bks.cpg/sg2_80_cif.got.tgz:158378.got - 2010.06.03 11:33:40.
