data_PCOD9097543
_publ_section_title
;
Structure prediction by ZEFSAII (Michael W. Deem and Ramdas Pophale) SiO2 
 PCOD9097543
Probable space group: P -1
;
_chemical_formula_sum "Si O2"
_cell_formula_units_Z 14
_cell_length_a 12.099764
_cell_length_b 6.999438
_cell_length_c 19.335084
_cell_angle_alpha 48.357529
_cell_angle_beta 34.024624
_cell_angle_gamma 53.109675
_cell_volume 679.907823
_symmetry_space_group_name_H-M "P -1"
_symmetry_group_IT_number 2
_symmetry_cell_setting 'triclinic'
loop_
_space_group_symop_operation_xyz
x,y,z
-x,-y,-z
loop_
_atom_site_type_symbol
_atom_site_label
_atom_site_fract_x
_atom_site_fract_y
_atom_site_fract_z
Si Si1 0.295623 0.580109 0.877854
Si Si2 0.917088 0.882013 0.944469
Si Si3 0.977849 0.391587 0.461554
Si Si4 0.166119 0.108729 0.655001
Si Si5 0.482111 0.983482 0.403316
Si Si6 0.330066 0.948396 0.346679
Si Si7 0.606615 0.316561 0.046748
O O1 0.453844 0.735733 0.718651
O O2 0.362373 0.539174 0.932022
O O3 0.088011 0.770491 0.936009
O O4 0.240806 0.321683 0.933114
O O5 0.032851 0.907378 0.805912
O O6 0.812089 0.160978 0.951968
O O7 0.969295 0.629801 0.356361
O O8 0.000000 0.500000 0.500000
O O9 0.155463 0.169461 0.407635
O O10 0.773636 0.268326 0.586093
O O11 0.290499 0.013340 0.545173
O O12 0.333058 0.149226 0.616258
O O13 0.441064 0.854160 0.382741
O O14 0.472476 0.093545 0.190386
O O15 0.500000 0.500000 0.000000
#
# Coordination Sequence:
#
# PCOD9097543 Si02
#       7
#     2   2   2   2   2   2   2
#     4   9  21  40  62  84 117 155 195 239 289 347
#     4  10  21  39  61  87 116 156 193 238 295 339
#     4  11  22  38  59  83 118 154 188 240 293 341
#     4  10  20  36  61  87 116 151 191 242 286 336
#     4   9  19  39  60  87 115 146 199 241 281 343
#     4  10  23  39  58  87 113 156 198 232 290 351
#     4  11  23  38  59  87 120 152 196 240 287 353
#
# _framework density 20.591027
#
# number of rings (size 3 to 8) (size 9 to 14) (size 15 to 20)
#    0.000    2.000    1.429    1.286    2.000    2.286 
#    2.571    0.000    0.000    0.000    0.000    0.000 
#    0.000    0.000    0.000    0.000    0.000    0.000 
#
# Total GULP energy -78184.686662 kJ/mol
# GULP energy per Si atom -5584.620476 kJ/mol
# Density = 2.054416 g / cm^3
# Si number density = 20.591027 Si / 1000 Ang^3
#
#
#
# Elastic Constant Matrix: (Units=GPa)
#
#
# Indices 1 2 3 4 5 6 
#
# 1 120.8290 20.7996 32.3286 -8.9502 26.3633 4.5912
# 2 20.7996 42.7677 -8.6437 4.7035 7.2465 -0.2817
# 3 32.3286 -8.6437 77.1789 5.9407 4.2550 23.2925
# 4 -8.9502 4.7035 5.9407 21.0735 0.5501 -1.6076
# 5 26.3633 7.2465 4.2550 0.5501 35.5159 -9.8435
# 6 4.5912 -0.2817 23.2925 -1.6076 -9.8435 25.9185
#
#
#
# Elastic Compliance Matrix: (Units=1/GPa)
#
#
# Indices 1 2 3 4 5 6 
#
# 1 0.014150 -0.008412 -0.008034 0.010534 -0.007293 0.002506
# 2 -0.008412 0.032318 0.012137 -0.014984 -0.004853 -0.011838
# 3 -0.008034 0.012137 0.027280 -0.015657 -0.006897 -0.026552
# 4 0.010534 -0.014984 -0.015657 0.060893 0.000620 0.016055
# 5 -0.007293 -0.004853 -0.006897 0.000620 0.041855 0.023372
# 6 0.002506 -0.011838 -0.026552 0.016055 0.023372 0.071744
#
#
# Mechanical properties :
#
#
# Convention : Reuss Voigt Hill
#
# Bulk Modulus (GPa) = 15.35384 36.63829 25.99606
# Shear Modulus (GPa) = 17.94884 29.58766 23.76825
#
# Velocity S-wave (km/s) = 2.95563 3.79478 3.40119
# Velocity P-wave (km/s) = 4.37269 6.08543 5.29872
#
# Compressibility (1/GPa) = 0.06513030
#
# Stress axis : x y z
#
# Youngs Moduli (GPa) = 70.67066 30.94230 36.65645
#
# Poissons Ratio (x) = 0.26028 0.29450
# Poissons Ratio (y) = 0.59446 -0.44489
# Poissons Ratio (z) = 0.56778 -0.37554
#
# Static dielectric constant tensor:
#      x y z
#    x 1.721620 -0.012590 -0.013020 
#    y -0.012590 1.734360 0.023760 
#    z -0.013020 0.023760 1.739630 
# 
# From -- ./inp_files/67982.got.cif
#   From: 2010.05.17/outbox.cif.g08.bks.cpg/sg2_34_cif.got.tgz:67982.got - 2010.06.03 11:33:40.
