data_PCOD9097034
_publ_section_title
;
Structure prediction by ZEFSAII (Michael W. Deem and Ramdas Pophale) SiO2 
 PCOD9097034
Probable space group: P -1
;
_chemical_formula_sum "Si O2"
_cell_formula_units_Z 16
_cell_length_a 25.959130
_cell_length_b 11.416742
_cell_length_c 14.073336
_cell_angle_alpha 150.048229
_cell_angle_beta 159.149230
_cell_angle_gamma 25.409045
_cell_volume 630.148044
_symmetry_space_group_name_H-M "P -1"
_symmetry_group_IT_number 2
_symmetry_cell_setting 'triclinic'
loop_
_space_group_symop_operation_xyz
x,y,z
-x,-y,-z
loop_
_atom_site_type_symbol
_atom_site_label
_atom_site_fract_x
_atom_site_fract_y
_atom_site_fract_z
Si Si1 0.217063 0.567550 0.536368
Si Si2 0.478821 0.250172 0.206914
Si Si3 0.809498 0.294625 0.778980
Si Si4 0.656220 0.798910 0.326510
Si Si5 0.325668 0.674208 0.092771
Si Si6 0.845850 0.941916 0.089840
Si Si7 0.988057 0.680790 0.696680
Si Si8 0.650110 0.646839 0.576774
O O1 0.286203 0.308235 0.543410
O O2 0.337591 0.492125 0.600825
O O3 0.029588 0.681614 0.250170
O O4 0.196321 0.819177 0.739204
O O5 0.638041 0.292263 0.501665
O O6 0.328765 0.537387 0.103221
O O7 0.506725 0.108612 0.259118
O O8 0.500000 0.000000 0.000000
O O9 0.787951 0.430190 0.735911
O O10 0.953635 0.971657 0.803602
O O11 0.861211 0.437126 0.049098
O O12 0.823653 0.743805 0.519552
O O13 0.613662 0.586423 0.055885
O O14 0.472586 0.741957 0.387117
O O15 0.165048 0.926082 0.939991
O O16 0.701914 0.868082 0.800524
O O17 0.000000 0.500000 0.500000
#
# Coordination Sequence:
#
# PCOD9097034 Si02
#       8
#     2   2   2   2   2   2   2   2
#     4  10  22  37  58  88 119 158 198 242 298 357
#     4   8  15  33  58  78 109 154 192 241 297 340
#     4   9  20  34  55  87 112 147 203 243 289 364
#     4   9  18  35  57  83 116 151 198 247 296 355
#     4   9  19  35  58  84 115 158 199 244 299 357
#     4  10  21  36  54  83 120 153 198 248 291 346
#     4  10  20  36  59  84 115 153 194 252 308 348
#     4  11  21  37  60  85 119 159 197 238 297 362
#
# _framework density 25.390858999999999
#
# number of rings (size 3 to 8) (size 9 to 14) (size 15 to 20)
#    0.000    2.500    0.000    1.500    0.000    6.000 
#    0.000    5.000    0.000   33.750    0.000    0.000 
#    0.000    0.000    0.000    0.000    0.000    0.000 
#
# Total GULP energy -89466.457164 kJ/mol
# GULP energy per Si atom -5591.653573 kJ/mol
# Density = 2.533307 g / cm^3
# Si number density = 25.390859 Si / 1000 Ang^3
#
#
#
# Elastic Constant Matrix: (Units=GPa)
#
#
# Indices 1 2 3 4 5 6 
#
# 1 125.3623 68.3847 32.4789 -8.9615 -27.1006 35.2896
# 2 68.3847 167.4349 43.4764 -26.7373 -17.7911 49.7634
# 3 32.4789 43.4764 121.9063 -0.0835 -8.5389 3.1711
# 4 -8.9615 -26.7373 -0.0835 40.2317 11.3402 -12.4720
# 5 -27.1006 -17.7911 -8.5389 11.3402 38.8873 -6.6429
# 6 35.2896 49.7634 3.1711 -12.4720 -6.6429 54.7359
#
#
#
# Elastic Compliance Matrix: (Units=1/GPa)
#
#
# Indices 1 2 3 4 5 6 
#
# 1 0.012851 -0.002891 -0.001757 -0.002719 0.007134 -0.005309
# 2 -0.002891 0.010508 -0.002819 0.004362 -0.000219 -0.006559
# 3 -0.001757 -0.002819 0.009638 -0.001508 0.000530 0.002858
# 4 -0.002719 0.004362 -0.001508 0.030745 -0.008539 0.003844
# 5 0.007134 -0.000219 0.000530 -0.008539 0.032784 -0.002398
# 6 -0.005309 -0.006559 0.002858 0.003844 -0.002398 0.028075
#
#
# Mechanical properties :
#
#
# Convention : Reuss Voigt Hill
#
# Bulk Modulus (GPa) = 55.35939 78.15372 66.75655
# Shear Modulus (GPa) = 34.35113 44.79520 39.57316
#
# Velocity S-wave (km/s) = 3.68216 4.20483 3.95214
# Velocity P-wave (km/s) = 6.31886 7.37707 6.86837
#
# Compressibility (1/GPa) = 0.01806378
#
# Stress axis : x y z
#
# Youngs Moduli (GPa) = 77.81262 95.16779 103.75297
#
# Poissons Ratio (x) = 0.27511 0.18230
# Poissons Ratio (y) = 0.22494 0.29248
# Poissons Ratio (z) = 0.13672 0.26828
#
# Static dielectric constant tensor:
#      x y z
#    x 2.035570 -0.061260 -0.032240 
#    y -0.061260 2.051010 -0.038070 
#    z -0.032240 -0.038070 2.023600 
# 
# From -- ./inp_files/544978.got.cif
#   From: 2010.05.17/outbox.cif.g08.bks.cpg/sg2_273_cif.got.tgz:544978.got - 2010.06.03 11:33:40.
