data_PCOD9097279
_publ_section_title
;
Structure prediction by ZEFSAII (Michael W. Deem and Ramdas Pophale) SiO2 
 PCOD9097279
Probable space group: P -1
;
_chemical_formula_sum "Si O2"
_cell_formula_units_Z 16
_cell_length_a 12.616478
_cell_length_b 9.945505
_cell_length_c 13.160764
_cell_angle_alpha 147.591024
_cell_angle_beta 112.797956
_cell_angle_gamma 53.440172
_cell_volume 684.901031
_symmetry_space_group_name_H-M "P -1"
_symmetry_group_IT_number 2
_symmetry_cell_setting 'triclinic'
loop_
_space_group_symop_operation_xyz
x,y,z
-x,-y,-z
loop_
_atom_site_type_symbol
_atom_site_label
_atom_site_fract_x
_atom_site_fract_y
_atom_site_fract_z
Si Si1 0.609626 0.708966 0.415538
Si Si2 0.115201 0.501781 0.711664
Si Si3 0.422710 0.717500 0.016403
Si Si4 0.396699 0.303219 0.093811
Si Si5 0.881192 0.779330 0.267422
Si Si6 0.141504 0.981724 0.163811
Si Si7 0.431843 0.722668 0.523297
Si Si8 0.902120 0.280229 0.825297
O O1 0.754513 0.662694 0.418390
O O2 0.613165 0.435856 0.185507
O O3 0.547661 0.756373 0.534813
O O4 0.500000 0.000000 0.500000
O O5 0.102901 0.286198 0.648193
O O6 0.138349 0.721861 0.932565
O O7 0.985229 0.709405 0.726686
O O8 0.531500 0.767419 0.034416
O O9 0.500000 0.500000 0.000000
O O10 0.278144 0.961750 0.166126
O O11 0.399465 0.559569 0.319410
O O12 0.234371 0.459205 0.117317
O O13 0.500000 0.000000 0.000000
O O14 0.971410 0.884563 0.311746
O O15 0.717966 0.993275 0.324230
O O16 0.937260 0.459302 0.032307
O O17 0.132374 0.910027 0.232916
O O18 0.500000 0.500000 0.500000
#
# Coordination Sequence:
#
# PCOD9097279 Si02
#       8
#     2   2   2   2   2   2   2   2
#     4  10  20  36  60  85 112 147 191 240 288 344
#     4   9  18  33  56  84 112 144 186 236 283 334
#     4  10  20  36  60  85 112 147 191 240 288 344
#     4  11  24  39  59  86 119 156 197 242 291 347
#     4  10  21  37  60  86 116 154 195 237 287 348
#     4   9  18  33  56  84 112 144 186 236 283 334
#     4  11  24  39  59  86 119 156 197 242 291 347
#     4  10  21  37  60  86 116 154 195 237 287 348
#
# _framework density 23.361038000000001
#
# number of rings (size 3 to 8) (size 9 to 14) (size 15 to 20)
#    0.000    2.000    2.500    0.750    3.500    1.500 
#    0.000    0.000    0.000    1.500    0.000    0.000 
#    0.000    0.000    0.000    0.000    0.000    0.000 
#
# Total GULP energy -89346.488008 kJ/mol
# GULP energy per Si atom -5584.155501 kJ/mol
# Density = 2.330787 g / cm^3
# Si number density = 23.361038 Si / 1000 Ang^3
#
#
#
# Elastic Constant Matrix: (Units=GPa)
#
#
# Indices 1 2 3 4 5 6 
#
# 1 150.1045 57.5454 48.4841 2.5080 -65.1762 5.2562
# 2 57.5454 134.7157 21.9011 7.4545 -55.0318 14.0743
# 3 48.4841 21.9011 99.9962 -19.5426 -34.0833 0.2048
# 4 2.5080 7.4545 -19.5426 36.0496 -9.4413 -11.3008
# 5 -65.1762 -55.0318 -34.0833 -9.4413 60.0003 -5.7462
# 6 5.2562 14.0743 0.2048 -11.3008 -5.7462 38.6043
#
#
#
# Elastic Compliance Matrix: (Units=1/GPa)
#
#
# Indices 1 2 3 4 5 6 
#
# 1 0.013023 0.000162 -0.000997 0.002576 0.014234 0.001046
# 2 0.000162 0.012315 0.001520 0.000676 0.012202 -0.002506
# 3 -0.000997 0.001520 0.017354 0.014315 0.012959 0.005609
# 4 0.002576 0.000676 0.014315 0.045359 0.020182 0.015609
# 5 0.014234 0.012202 0.012959 0.020182 0.054583 0.007577
# 6 0.001046 -0.002506 0.005609 0.015609 0.007577 0.032342
#
#
# Mechanical properties :
#
#
# Convention : Reuss Voigt Hill
#
# Bulk Modulus (GPa) = 22.69468 71.18639 46.94053
# Shear Modulus (GPa) = 26.55437 44.05658 35.30547
#
# Velocity S-wave (km/s) = 3.37515 4.34741 3.89176
# Velocity P-wave (km/s) = 4.99246 7.46581 6.35071
#
# Compressibility (1/GPa) = 0.04406320
#
# Stress axis : x y z
#
# Youngs Moduli (GPa) = 76.78917 81.19864 57.62400
#
# Poissons Ratio (x) = -0.01316 0.05744
# Poissons Ratio (y) = -0.01245 -0.08761
# Poissons Ratio (z) = 0.07655 -0.12345
#
# Static dielectric constant tensor:
#      x y z
#    x 1.871910 0.031430 0.034220 
#    y 0.031430 1.813360 -0.008950 
#    z 0.034220 -0.008950 1.919190 
# 
# From -- ./inp_files/281417.got.cif
#   From: 2010.05.17/outbox.cif.g08.bks.cpg/sg2_141_cif.got.tgz:281417.got - 2010.06.03 11:33:40.
