data_PCOD9097882
_publ_section_title
;
Structure prediction by ZEFSAII (Michael W. Deem and Ramdas Pophale) SiO2 
 PCOD9097882
Probable space group: P -1
;
_chemical_formula_sum "Si O2"
_cell_formula_units_Z 16
_cell_length_a 7.433297
_cell_length_b 11.245555
_cell_length_c 12.223192
_cell_angle_alpha 114.333917
_cell_angle_beta 51.023802
_cell_angle_gamma 119.525301
_cell_volume 683.253469
_symmetry_space_group_name_H-M "P -1"
_symmetry_group_IT_number 2
_symmetry_cell_setting 'triclinic'
loop_
_space_group_symop_operation_xyz
x,y,z
-x,-y,-z
loop_
_atom_site_type_symbol
_atom_site_label
_atom_site_fract_x
_atom_site_fract_y
_atom_site_fract_z
Si Si1 0.428793 0.206044 0.299274
Si Si2 0.178238 0.963085 0.671319
Si Si3 0.322504 0.454400 0.448680
Si Si4 0.678282 0.916912 0.930030
Si Si5 0.907554 0.333721 0.302258
Si Si6 0.434366 0.714191 0.121558
Si Si7 0.477597 0.474633 0.149593
Si Si8 0.692200 0.073783 0.625493
O O1 0.245665 0.289809 0.431817
O O2 0.401736 0.198645 0.177113
O O3 0.706106 0.287938 0.264938
O O4 0.359398 0.054587 0.320305
O O5 0.148720 0.805924 0.658601
O O6 0.162449 0.962297 0.545986
O O7 0.959043 0.997959 0.827641
O O8 0.436643 0.059921 0.654712
O O9 0.500000 0.500000 0.500000
O O10 0.143359 0.542903 0.564585
O O11 0.461745 0.483493 0.290009
O O12 0.629306 0.847961 0.040721
O O13 0.500000 0.000000 0.000000
O O14 0.195263 0.389576 0.187800
O O15 0.530020 0.628472 0.140624
O O16 0.248338 0.782212 0.276129
O O17 0.359287 0.602780 0.007148
#
# Coordination Sequence:
#
# PCOD9097882 Si02
#       8
#     2   2   2   2   2   2   2   2
#     4  10  21  37  60  90 131 162 215 265 326 381
#     4  10  22  41  66  93 127 166 227 267 318 393
#     4  10  20  36  62  91 127 163 206 267 326 377
#     4  12  23  42  63  94 132 175 206 270 335 387
#     4  10  20  38  64  90 120 172 215 267 315 382
#     4  11  23  39  65  92 129 169 216 267 323 384
#     4  11  22  39  63  91 124 171 221 263 314 395
#     4  10  22  41  64  95 125 168 218 276 318 382
#
# _framework density 23.417372
#
# number of rings (size 3 to 8) (size 9 to 14) (size 15 to 20)
#    0.000    1.500    3.750    1.125    0.000    4.000 
#    2.250    0.625    0.000    0.000    0.000    0.000 
#    0.000    0.000    0.000    0.000    0.000    0.000 
#
# Total GULP energy -89212.346721 kJ/mol
# GULP energy per Si atom -5575.771670 kJ/mol
# Density = 2.336407 g / cm^3
# Si number density = 23.417372 Si / 1000 Ang^3
#
#
#
# Elastic Constant Matrix: (Units=GPa)
#
#
# Indices 1 2 3 4 5 6 
#
# 1 68.2537 -6.9085 13.7087 -6.6847 6.8014 15.2628
# 2 -6.9085 72.5509 16.5490 15.5096 -5.0137 -21.5912
# 3 13.7087 16.5490 106.1268 1.0644 5.4028 -9.4461
# 4 -6.6847 15.5096 1.0644 45.8458 -14.7161 -2.9400
# 5 6.8014 -5.0137 5.4028 -14.7161 39.4464 5.3524
# 6 15.2628 -21.5912 -9.4461 -2.9400 5.3524 34.3340
#
#
#
# Elastic Compliance Matrix: (Units=1/GPa)
#
#
# Indices 1 2 3 4 5 6 
#
# 1 0.017376 -0.000773 -0.002882 0.002063 -0.000748 -0.008710
# 2 -0.000773 0.018656 -0.001695 -0.005992 -0.001026 0.011256
# 3 -0.002882 -0.001695 0.010450 -0.000443 -0.001767 0.003328
# 4 0.002063 -0.005992 -0.000443 0.026958 0.009541 -0.003986
# 5 -0.000748 -0.001026 -0.001767 0.009541 0.029778 -0.004624
# 6 -0.008710 0.011256 0.003328 -0.003986 -0.004624 0.041371
#
#
# Mechanical properties :
#
#
# Convention : Reuss Voigt Hill
#
# Bulk Modulus (GPa) = 27.94653 32.62553 30.28603
# Shear Modulus (GPa) = 29.90126 38.83070 34.36598
#
# Velocity S-wave (km/s) = 3.57723 4.07652 3.83501
# Velocity P-wave (km/s) = 5.38721 6.00997 5.70709
#
# Compressibility (1/GPa) = 0.03578262
#
# Stress axis : x y z
#
# Youngs Moduli (GPa) = 57.55015 53.60067 95.69515
#
# Poissons Ratio (x) = 0.04143 0.27578
# Poissons Ratio (y) = 0.04448 0.16222
# Poissons Ratio (z) = 0.16585 0.09086
#
# Static dielectric constant tensor:
#      x y z
#    x 1.919230 -0.023490 -0.065860 
#    y -0.023490 2.085960 0.145910 
#    z -0.065860 0.145910 2.033720 
# 
# From -- ./inp_files/392712.got.cif
#   From: 2010.05.17/outbox.cif.g08.bks.cpg/sg2_197_cif.got.tgz:392712.got - 2010.06.03 11:33:40.
