data_PCOD9097215
_publ_section_title
;
Structure prediction by ZEFSAII (Michael W. Deem and Ramdas Pophale) SiO2 
 PCOD9097215
Probable space group: P -1
;
_chemical_formula_sum "Si O2"
_cell_formula_units_Z 16
_cell_length_a 11.124435
_cell_length_b 13.587178
_cell_length_c 13.560524
_cell_angle_alpha 157.604286
_cell_angle_beta 60.874435
_cell_angle_gamma 120.383277
_cell_volume 672.537417
_symmetry_space_group_name_H-M "P -1"
_symmetry_group_IT_number 2
_symmetry_cell_setting 'triclinic'
loop_
_space_group_symop_operation_xyz
x,y,z
-x,-y,-z
loop_
_atom_site_type_symbol
_atom_site_label
_atom_site_fract_x
_atom_site_fract_y
_atom_site_fract_z
Si Si1 0.190675 0.745725 0.034080
Si Si2 0.635529 0.483677 0.000175
Si Si3 0.895219 0.808270 0.432555
Si Si4 0.542578 0.931361 0.531345
Si Si5 0.064534 0.470140 0.167334
Si Si6 0.874864 0.800997 0.913036
Si Si7 0.706050 0.264042 0.411434
Si Si8 0.406336 0.728859 0.756980
O O1 0.163953 0.475412 0.855763
O O2 0.289478 0.689338 0.852967
O O3 0.965954 0.250235 0.940295
O O4 0.223066 0.028530 0.333091
O O5 0.774881 0.465222 0.867837
O O6 0.591419 0.210591 0.821530
O O7 0.500000 0.500000 0.000000
O O8 0.657309 0.751317 0.299840
O O9 0.984528 0.709775 0.396116
O O10 0.000000 0.000000 0.500000
O O11 0.421493 0.758253 0.481513
O O12 0.500000 0.000000 0.500000
O O13 0.063932 0.355263 0.169254
O O14 0.796394 0.555652 0.653984
O O15 0.774524 0.007894 0.175671
O O16 0.000000 0.000000 0.000000
O O17 0.659331 0.236219 0.291191
O O18 0.500000 0.500000 0.500000
O O19 0.500000 0.000000 0.000000
#
# Coordination Sequence:
#
# PCOD9097215 Si02
#       8
#     2   2   2   2   2   2   2   2
#     4  10  24  45  74 100 146 183 245 307 374 423
#     4  10  20  36  59  94 138 183 228 278 351 432
#     4  10  23  45  71 105 142 189 246 303 367 443
#     4  10  20  38  61  93 138 183 221 284 351 420
#     4  10  25  40  74 101 149 192 232 296 375 437
#     4  12  25  42  71 109 146 189 244 293 368 447
#     4  12  26  47  71 103 151 190 250 302 365 455
#     4  12  27  52  76 103 141 199 257 318 373 429
#
# _framework density 23.790499000000001
#
# number of rings (size 3 to 8) (size 9 to 14) (size 15 to 20)
#    0.750    0.500    0.000    6.750    3.500    1.000 
#    6.750    0.000    0.000    0.000    0.000    0.000 
#    0.000    0.000    0.000    0.000    0.000    0.000 
#
# Total GULP energy -89313.085332 kJ/mol
# GULP energy per Si atom -5582.067833 kJ/mol
# Density = 2.373635 g / cm^3
# Si number density = 23.790499 Si / 1000 Ang^3
#
#
#
# Elastic Constant Matrix: (Units=GPa)
#
#
# Indices 1 2 3 4 5 6 
#
# 1 66.1906 41.1217 20.2539 21.0005 -8.0457 8.7436
# 2 41.1217 145.3890 50.5907 16.4926 -5.7641 6.2883
# 3 20.2539 50.5907 178.6697 41.9689 -2.8474 5.1706
# 4 21.0005 16.4926 41.9689 42.5904 7.3703 -3.1907
# 5 -8.0457 -5.7641 -2.8474 7.3703 46.5962 12.8957
# 6 8.7436 6.2883 5.1706 -3.1907 12.8957 38.6149
#
#
#
# Elastic Compliance Matrix: (Units=1/GPa)
#
#
# Indices 1 2 3 4 5 6 
#
# 1 0.024657 -0.005474 0.002636 -0.014812 0.008615 -0.009145
# 2 -0.005474 0.009030 -0.002317 0.001560 -0.000302 0.000309
# 3 0.002636 -0.002317 0.008280 -0.009314 0.003006 -0.003102
# 4 -0.014812 0.001560 -0.009314 0.042528 -0.013041 0.012216
# 5 0.008615 -0.000302 0.003006 -0.013041 0.028751 -0.012983
# 6 -0.009145 0.000309 -0.003102 0.012216 -0.012983 0.033678
#
#
# Mechanical properties :
#
#
# Convention : Reuss Voigt Hill
#
# Bulk Modulus (GPa) = 31.58837 68.24245 49.91541
# Shear Modulus (GPa) = 29.80011 44.11250 36.95630
#
# Velocity S-wave (km/s) = 3.54306 4.31072 3.94560
# Velocity P-wave (km/s) = 5.48126 7.31597 6.46404
#
# Compressibility (1/GPa) = 0.03165722
#
# Stress axis : x y z
#
# Youngs Moduli (GPa) = 40.55724 110.74108 120.77923
#
# Poissons Ratio (x) = 0.60617 -0.31837
# Poissons Ratio (y) = 0.22200 0.27981
# Poissons Ratio (z) = -0.10691 0.25655
#
# Static dielectric constant tensor:
#      x y z
#    x 2.188990 -0.172070 0.238790 
#    y -0.172070 2.074810 -0.217050 
#    z 0.238790 -0.217050 2.222190 
# 
# From -- ./inp_files/429203.got.cif
#   From: 2010.05.17/outbox.cif.g08.bks.cpg/sg2_215_cif.got.tgz:429203.got - 2010.06.03 11:33:40.
