data_PCOD9097413
_publ_section_title
;
Structure prediction by ZEFSAII (Michael W. Deem and Ramdas Pophale) SiO2 
 PCOD9097413
Probable space group: P -1
;
_chemical_formula_sum "Si O2"
_cell_formula_units_Z 16
_cell_length_a 12.024678
_cell_length_b 11.978845
_cell_length_c 12.257912
_cell_angle_alpha 121.712473
_cell_angle_beta 46.133495
_cell_angle_gamma 85.924977
_cell_volume 762.796193
_symmetry_space_group_name_H-M "P -1"
_symmetry_group_IT_number 2
_symmetry_cell_setting 'triclinic'
loop_
_space_group_symop_operation_xyz
x,y,z
-x,-y,-z
loop_
_atom_site_type_symbol
_atom_site_label
_atom_site_fract_x
_atom_site_fract_y
_atom_site_fract_z
Si Si1 0.698244 0.370047 0.032352
Si Si2 0.829371 0.687845 0.570685
Si Si3 0.418841 0.037508 0.309005
Si Si4 0.112173 0.182308 0.795073
Si Si5 0.795300 0.705913 0.002918
Si Si6 0.386323 0.769219 0.385589
Si Si7 0.474472 0.279024 0.045693
Si Si8 0.186626 0.671785 0.322312
O O1 0.793360 0.332011 0.824365
O O2 0.878573 0.294156 0.959056
O O3 0.491826 0.592531 0.297889
O O4 0.616858 0.269980 0.032967
O O5 0.715440 0.687808 0.749287
O O6 0.952796 0.748827 0.547628
O O7 0.649830 0.826057 0.671034
O O8 0.016050 0.483279 0.286531
O O9 0.666300 0.887815 0.108260
O O10 0.260774 0.148412 0.577204
O O11 0.391087 0.907236 0.211113
O O12 0.113949 0.280918 0.944174
O O13 0.228329 0.976283 0.645660
O O14 0.601689 0.721342 0.176384
O O15 0.248685 0.770446 0.389087
O O16 0.362913 0.460549 0.141935
#
# Coordination Sequence:
#
# PCOD9097413 Si02
#       8
#     2   2   2   2   2   2   2   2
#     4  11  21  39  62  93 121 161 202 257 305 352
#     4  12  24  40  61  96 125 167 195 245 317 374
#     4  11  21  39  62  92 122 157 204 254 301 364
#     4  11  23  38  64  93 120 163 210 255 293 358
#     4  11  23  41  61  91 128 160 207 252 300 358
#     4  10  20  36  60  91 120 151 200 260 300 345
#     4  11  24  40  62  94 132 155 198 255 316 365
#     4  11  20  39  64  90 124 156 200 254 310 354
#
# _framework density 20.975459000000001
#
# number of rings (size 3 to 8) (size 9 to 14) (size 15 to 20)
#    0.000    1.000    3.750    6.000    1.750    4.000 
#    0.000    0.625    0.000    3.750    0.000    0.000 
#    0.000    0.000    0.000    0.000    0.000    0.000 
#
# Total GULP energy -89404.826916 kJ/mol
# GULP energy per Si atom -5587.801682 kJ/mol
# Density = 2.092772 g / cm^3
# Si number density = 20.975459 Si / 1000 Ang^3
#
#
#
# Elastic Constant Matrix: (Units=GPa)
#
#
# Indices 1 2 3 4 5 6 
#
# 1 158.3812 29.6006 38.8291 -4.1447 -5.4298 -1.6351
# 2 29.6006 46.4902 25.3635 -4.4168 -5.0004 4.3357
# 3 38.8291 25.3635 46.3574 0.3651 -1.0462 -2.2377
# 4 -4.1447 -4.4168 0.3651 22.8311 0.5133 -14.2358
# 5 -5.4298 -5.0004 -1.0462 0.5133 27.5618 3.3887
# 6 -1.6351 4.3357 -2.2377 -14.2358 3.3887 25.0447
#
#
#
# Elastic Compliance Matrix: (Units=1/GPa)
#
#
# Indices 1 2 3 4 5 6 
#
# 1 0.008174 -0.001931 -0.005719 0.002069 0.000830 0.001421
# 2 -0.001931 0.033439 -0.016907 0.001747 0.005901 -0.007231
# 3 -0.005719 -0.016907 0.035807 -0.001430 -0.003473 0.005410
# 4 0.002069 0.001747 -0.001430 0.069620 -0.005548 0.040029
# 5 0.000830 0.005901 -0.003473 -0.005548 0.038676 -0.009664
# 6 0.001421 -0.007231 0.005410 0.040029 -0.009664 0.065817
#
#
# Mechanical properties :
#
#
# Convention : Reuss Voigt Hill
#
# Bulk Modulus (GPa) = 35.33073 48.75726 42.04399
# Shear Modulus (GPa) = 16.12475 25.58323 20.85399
#
# Velocity S-wave (km/s) = 2.77563 3.49617 3.15653
# Velocity P-wave (km/s) = 5.21081 6.29230 5.77692
#
# Compressibility (1/GPa) = 0.02830398
#
# Stress axis : x y z
#
# Youngs Moduli (GPa) = 122.33663 29.90552 27.92784
#
# Poissons Ratio (x) = 0.05775 0.15972
# Poissons Ratio (y) = 0.23624 0.47219
# Poissons Ratio (z) = 0.69966 0.50563
#
# Static dielectric constant tensor:
#      x y z
#    x 1.762570 -0.004170 -0.027970 
#    y -0.004170 1.794750 0.027700 
#    z -0.027970 0.027700 1.760980 
# 
# From -- ./inp_files/258145.got.cif
#   From: 2010.05.17/outbox.cif.g08.bks.cpg/sg2_130_cif.got.tgz:258145.got - 2010.06.03 11:33:40.
