data_PCOD9097963
_publ_section_title
;
Structure prediction by ZEFSAII (Michael W. Deem and Ramdas Pophale) SiO2 
 PCOD9097963
Probable space group: P -1
;
_chemical_formula_sum "Si O2"
_cell_formula_units_Z 16
_cell_length_a 9.645365
_cell_length_b 8.498150
_cell_length_c 15.244495
_cell_angle_alpha 104.116922
_cell_angle_beta 37.380413
_cell_angle_gamma 105.590329
_cell_volume 729.716292
_symmetry_space_group_name_H-M "P -1"
_symmetry_group_IT_number 2
_symmetry_cell_setting 'triclinic'
loop_
_space_group_symop_operation_xyz
x,y,z
-x,-y,-z
loop_
_atom_site_type_symbol
_atom_site_label
_atom_site_fract_x
_atom_site_fract_y
_atom_site_fract_z
Si Si1 0.870071 0.182085 0.328227
Si Si2 0.142269 0.053585 0.021544
Si Si3 0.514019 0.333410 0.417439
Si Si4 0.009019 0.294058 0.881953
Si Si5 0.066758 0.155163 0.656684
Si Si6 0.647747 0.471259 0.183040
Si Si7 0.302620 0.393691 0.198306
Si Si8 0.582811 0.245047 0.886861
O O1 0.632165 0.228351 0.416887
O O2 0.003126 0.163528 0.167468
O O3 0.036511 0.317220 0.316767
O O4 0.866053 0.013146 0.360137
O O5 0.394361 0.150383 0.904049
O O6 0.133277 0.881423 0.052353
O O7 0.000000 0.000000 0.000000
O O8 0.500000 0.500000 0.500000
O O9 0.266802 0.233872 0.503125
O O10 0.643598 0.377046 0.265630
O O11 0.074073 0.290622 0.748377
O O12 0.247226 0.342383 0.821389
O O13 0.836894 0.419170 0.013213
O O14 0.799557 0.143262 0.764260
O O15 0.410654 0.427138 0.244836
O O16 0.333020 0.571334 0.161853
O O17 0.451254 0.274261 0.049660
#
# Coordination Sequence:
#
# PCOD9097963 Si02
#       8
#     2   2   2   2   2   2   2   2
#     4  10  24  40  65  91 127 174 216 262 321 383
#     4  10  20  36  62  96 130 160 211 268 321 373
#     4  12  24  43  66  91 130 174 217 261 322 387
#     4  10  21  35  64  92 126 160 212 260 319 365
#     4  11  22  42  65  94 129 171 214 257 326 384
#     4  11  22  38  65  98 128 164 216 268 314 379
#     4  10  21  38  65  96 130 164 215 265 321 376
#     4  10  21  37  66  97 133 166 210 265 328 377
#
# _framework density 21.92633
#
# number of rings (size 3 to 8) (size 9 to 14) (size 15 to 20)
#    0.000    1.500    2.500    2.625    1.750    3.500 
#    0.000    3.125    0.000    0.000    0.000    0.000 
#    0.000    0.000    0.000    0.000    0.000    0.000 
#
# Total GULP energy -89212.414811 kJ/mol
# GULP energy per Si atom -5575.775926 kJ/mol
# Density = 2.187642 g / cm^3
# Si number density = 21.926330 Si / 1000 Ang^3
#
#
#
# Elastic Constant Matrix: (Units=GPa)
#
#
# Indices 1 2 3 4 5 6 
#
# 1 96.7900 29.5342 9.2379 -0.7943 -10.5938 15.9834
# 2 29.5342 57.7258 29.0943 -13.4653 -6.5071 8.4828
# 3 9.2379 29.0943 35.4334 -15.6384 -11.2845 -2.6097
# 4 -0.7943 -13.4653 -15.6384 24.8877 -0.8051 -5.1166
# 5 -10.5938 -6.5071 -11.2845 -0.8051 27.0604 2.0364
# 6 15.9834 8.4828 -2.6097 -5.1166 2.0364 44.6766
#
#
#
# Elastic Compliance Matrix: (Units=1/GPa)
#
#
# Indices 1 2 3 4 5 6 
#
# 1 0.013620 -0.008145 0.003384 -0.002432 0.004986 -0.003634
# 2 -0.008145 0.037232 -0.031831 -0.001554 -0.007114 -0.005868
# 3 0.003384 -0.031831 0.078578 0.035649 0.026574 0.012295
# 4 -0.002432 -0.001554 0.035649 0.064179 0.014702 0.009927
# 5 0.004986 -0.007114 0.026574 0.014702 0.048670 0.000585
# 6 -0.003634 -0.005868 0.012295 0.009927 0.000585 0.026626
#
#
# Mechanical properties :
#
#
# Convention : Reuss Voigt Hill
#
# Bulk Modulus (GPa) = 17.77934 36.18691 26.98313
# Shear Modulus (GPa) = 13.85668 27.46379 20.66024
#
# Velocity S-wave (km/s) = 2.51662 3.54298 3.07295
# Velocity P-wave (km/s) = 4.07072 5.76859 4.99236
#
# Compressibility (1/GPa) = 0.05624505
#
# Stress axis : x y z
#
# Youngs Moduli (GPa) = 73.42209 26.85896 12.72624
#
# Poissons Ratio (x) = 0.21877 -0.04306
# Poissons Ratio (y) = 0.59802 0.40509
# Poissons Ratio (z) = -0.24845 0.85495
#
# Static dielectric constant tensor:
#      x y z
#    x 1.874910 -0.006950 -0.021050 
#    y -0.006950 1.832570 -0.022500 
#    z -0.021050 -0.022500 1.864050 
# 
# From -- ./inp_files/238387.got.cif
#   From: 2010.05.17/outbox.cif.g08.bks.cpg/sg2_120_cif.got.tgz:238387.got - 2010.06.03 11:33:40.
