data_PCOD9097420
_publ_section_title
;
Structure prediction by ZEFSAII (Michael W. Deem and Ramdas Pophale) SiO2 
 PCOD9097420
Probable space group: P -1
;
_chemical_formula_sum "Si O2"
_cell_formula_units_Z 16
_cell_length_a 13.539540
_cell_length_b 9.838133
_cell_length_c 15.461549
_cell_angle_alpha 129.644624
_cell_angle_beta 20.912691
_cell_angle_gamma 130.782091
_cell_volume 553.681518
_symmetry_space_group_name_H-M "P -1"
_symmetry_group_IT_number 2
_symmetry_cell_setting 'triclinic'
loop_
_space_group_symop_operation_xyz
x,y,z
-x,-y,-z
loop_
_atom_site_type_symbol
_atom_site_label
_atom_site_fract_x
_atom_site_fract_y
_atom_site_fract_z
Si Si1 0.037433 0.320175 0.821700
Si Si2 0.820107 0.505341 0.770897
Si Si3 0.657078 0.981483 0.067035
Si Si4 0.546320 0.819430 0.470353
Si Si5 0.589214 0.487302 0.191929
Si Si6 0.959427 0.161960 0.190103
Si Si7 0.816409 0.704889 0.692972
Si Si8 0.174097 0.144003 0.480754
O O1 0.351297 0.302659 0.587925
O O2 0.980574 0.227349 0.736482
O O3 0.854945 0.178120 0.977984
O O4 0.896737 0.488857 0.985940
O O5 0.963360 0.642295 0.632738
O O6 0.956693 0.619726 0.786204
O O7 0.945032 0.327245 0.584911
O O8 0.500000 0.500000 0.000000
O O9 0.706484 0.874244 0.893781
O O10 0.742189 0.873774 0.034429
O O11 0.351397 0.025295 0.342529
O O12 0.541944 0.685603 0.336124
O O13 0.230974 0.860053 0.749291
O O14 0.753136 0.012486 0.359415
O O15 0.466147 0.422613 0.170272
O O16 0.393965 0.314609 0.331245
O O17 0.000000 0.000000 0.500000
#
# Coordination Sequence:
#
# PCOD9097420 Si02
#       8
#     2   2   2   2   2   2   2   2
#     4  10  22  39  62  88 119 166 207 255 312 358
#     4  10  21  37  62  93 128 157 202 257 309 368
#     4   9  20  38  62  89 122 158 206 252 313 368
#     4  10  20  40  65  86 126 168 212 249 299 379
#     4  11  22  38  63  91 123 163 210 251 304 370
#     4   9  19  39  64  87 121 166 201 255 305 360
#     4  10  20  36  60  91 124 165 197 249 318 366
#     4  11  23  39  62  92 127 159 205 266 309 365
#
# _framework density 28.897479000000001
#
# number of rings (size 3 to 8) (size 9 to 14) (size 15 to 20)
#    0.000    2.000    1.250    1.875    0.000    7.500 
#    0.000    0.625    0.000    0.000    0.000    0.000 
#    0.000    0.000    0.000    0.000    0.000    0.000 
#
# Total GULP energy -89088.778780 kJ/mol
# GULP energy per Si atom -5568.048674 kJ/mol
# Density = 2.883171 g / cm^3
# Si number density = 28.897479 Si / 1000 Ang^3
#
#
#
# Elastic Constant Matrix: (Units=GPa)
#
#
# Indices 1 2 3 4 5 6 
#
# 1 96.4261 28.8973 20.1009 3.4838 -36.9161 9.5748
# 2 28.8973 174.8888 30.9387 4.8868 7.7957 26.4652
# 3 20.1009 30.9387 93.5142 20.9351 -41.4090 9.3772
# 4 3.4838 4.8868 20.9351 38.9824 -0.3174 1.4156
# 5 -36.9161 7.7957 -41.4090 -0.3174 47.5556 14.0371
# 6 9.5748 26.4652 9.3772 1.4156 14.0371 59.3398
#
#
#
# Elastic Compliance Matrix: (Units=1/GPa)
#
#
# Indices 1 2 3 4 5 6 
#
# 1 0.027032 -0.007484 0.020033 -0.011361 0.043793 -0.014278
# 2 -0.007484 0.008969 -0.010197 0.004784 -0.016927 0.002709
# 3 0.020033 -0.010197 0.043846 -0.022854 0.061004 -0.019499
# 4 -0.011361 0.004784 -0.022854 0.037715 -0.032213 0.010031
# 5 0.043793 -0.016927 0.061004 -0.032213 0.121674 -0.037171
# 6 -0.014278 0.002709 -0.019499 0.010031 -0.037171 0.029583
#
#
# Mechanical properties :
#
#
# Convention : Reuss Voigt Hill
#
# Bulk Modulus (GPa) = 11.82728 58.30032 35.06380
# Shear Modulus (GPa) = 17.10574 48.16837 32.63705
#
# Velocity S-wave (km/s) = 2.43563 4.08716 3.36431
# Velocity P-wave (km/s) = 3.46576 6.51858 5.22031
#
# Compressibility (1/GPa) = 0.08455029
#
# Stress axis : x y z
#
# Youngs Moduli (GPa) = 36.99381 111.49076 22.80706
#
# Poissons Ratio (x) = 0.83444 -0.45689
# Poissons Ratio (y) = 0.27688 0.23255
# Poissons Ratio (z) = -0.74108 1.13682
#
# Static dielectric constant tensor:
#      x y z
#    x 2.403040 0.058910 0.105420 
#    y 0.058910 2.380970 0.005080 
#    z 0.105420 0.005080 2.457290 
# 
# From -- ./inp_files/573615.got.cif
#   From: 2010.05.17/outbox.cif.g08.bks.cpg/sg2_287_cif.got.tgz:573615.got - 2010.06.03 11:33:40.
