data_PCOD9097168
_publ_section_title
;
Structure prediction by ZEFSAII (Michael W. Deem and Ramdas Pophale) SiO2 
 PCOD9097168
Probable space group: P -1
;
_chemical_formula_sum "Si O2"
_cell_formula_units_Z 16
_cell_length_a 14.367318
_cell_length_b 10.711435
_cell_length_c 15.678531
_cell_angle_alpha 144.637632
_cell_angle_beta 146.698043
_cell_angle_gamma 29.578736
_cell_volume 617.969292
_symmetry_space_group_name_H-M "P -1"
_symmetry_group_IT_number 2
_symmetry_cell_setting 'triclinic'
loop_
_space_group_symop_operation_xyz
x,y,z
-x,-y,-z
loop_
_atom_site_type_symbol
_atom_site_label
_atom_site_fract_x
_atom_site_fract_y
_atom_site_fract_z
Si Si1 0.081971 0.654409 0.603864
Si Si2 0.422077 0.185207 0.379256
Si Si3 0.384136 0.337629 0.004995
Si Si4 0.496251 0.409824 0.312397
Si Si5 0.789958 0.909402 0.365348
Si Si6 0.109809 0.547199 0.212587
Si Si7 0.864471 0.928148 0.108668
Si Si8 0.544505 0.332409 0.850887
O O1 0.330283 0.466927 0.706578
O O2 0.000000 0.500000 0.500000
O O3 0.994496 0.740136 0.488284
O O4 0.029365 0.928371 0.757292
O O5 0.500324 0.341834 0.574851
O O6 0.207767 0.436973 0.316856
O O7 0.605221 0.019677 0.356244
O O8 0.380653 0.970892 0.255279
O O9 0.439141 0.313258 0.132293
O O10 0.309759 0.619449 0.065405
O O11 0.613812 0.120924 0.017202
O O12 0.232691 0.267570 0.817187
O O13 0.306029 0.499820 0.281902
O O14 0.706998 0.175213 0.394068
O O15 0.923866 0.841291 0.204558
O O16 0.057551 0.342486 0.029542
O O17 0.500000 0.500000 0.000000
#
# Coordination Sequence:
#
# PCOD9097168 Si02
#       8
#     2   2   2   2   2   2   2   2
#     4  11  20  33  58  91 117 152 204 263 290 350
#     4  11  19  36  60  89 119 158 208 254 299 363
#     4  11  22  40  63  90 124 168 202 253 310 367
#     4  11  23  36  63  91 128 163 200 255 320 360
#     4  11  20  38  61  90 121 162 212 245 304 373
#     4  10  20  36  62  89 121 160 205 256 305 363
#     4  10  20  36  59  90 117 155 212 251 300 354
#     4  11  21  39  63  91 121 160 214 253 300 368
#
# _framework density 25.891255000000001
#
# number of rings (size 3 to 8) (size 9 to 14) (size 15 to 20)
#    0.000    1.250    5.000    4.125    0.000    0.500 
#    0.000    5.625    0.000    0.750    0.000    0.000 
#    0.000    0.000    0.000    0.000    0.000    0.000 
#
# Total GULP energy -89346.143420 kJ/mol
# GULP energy per Si atom -5584.133964 kJ/mol
# Density = 2.583233 g / cm^3
# Si number density = 25.891255 Si / 1000 Ang^3
#
#
#
# Elastic Constant Matrix: (Units=GPa)
#
#
# Indices 1 2 3 4 5 6 
#
# 1 61.2736 36.0635 35.6420 9.5417 -4.0298 11.7804
# 2 36.0635 116.7083 80.1870 -3.9413 16.8330 34.0285
# 3 35.6420 80.1870 195.2870 17.1263 8.2219 24.7398
# 4 9.5417 -3.9413 17.1263 60.0694 25.2538 15.4873
# 5 -4.0298 16.8330 8.2219 25.2538 39.3885 5.0711
# 6 11.7804 34.0285 24.7398 15.4873 5.0711 33.1630
#
#
#
# Elastic Compliance Matrix: (Units=1/GPa)
#
#
# Indices 1 2 3 4 5 6 
#
# 1 0.025679 -0.013457 0.000307 -0.014082 0.016242 0.008550
# 2 -0.013457 0.030509 -0.007549 0.023896 -0.024516 -0.028304
# 3 0.000307 -0.007549 0.008009 -0.005796 0.004834 0.003629
# 4 -0.014082 0.023896 -0.005796 0.044846 -0.035237 -0.030749
# 5 0.016242 -0.024516 0.004834 -0.035237 0.056064 0.023663
# 6 0.008550 -0.028304 0.003629 -0.030749 0.023663 0.064193
#
#
# Mechanical properties :
#
#
# Convention : Reuss Voigt Hill
#
# Bulk Modulus (GPa) = 43.86137 75.22821 59.54479
# Shear Modulus (GPa) = 17.96629 41.28260 29.62445
#
# Velocity S-wave (km/s) = 2.63708 3.99740 3.38625
# Velocity P-wave (km/s) = 5.12344 7.10100 6.19168
#
# Compressibility (1/GPa) = 0.02279910
#
# Stress axis : x y z
#
# Youngs Moduli (GPa) = 38.94169 32.77743 124.85459
#
# Poissons Ratio (x) = 0.44109 -0.03831
# Poissons Ratio (y) = 0.52404 0.94253
# Poissons Ratio (z) = -0.01195 0.24744
#
# Static dielectric constant tensor:
#      x y z
#    x 2.105600 0.014850 -0.001720 
#    y 0.014850 2.077830 0.020540 
#    z -0.001720 0.020540 2.107830 
# 
# From -- ./inp_files/331692.got.cif
#   From: 2010.05.17/outbox.cif.g08.bks.cpg/sg2_166_cif.got.tgz:331692.got - 2010.06.03 11:33:40.
