data_PCOD9097770
_publ_section_title
;
Structure prediction by ZEFSAII (Michael W. Deem and Ramdas Pophale) SiO2 
 PCOD9097770
Probable space group: P -1
;
_chemical_formula_sum "Si O2"
_cell_formula_units_Z 16
_cell_length_a 25.064892
_cell_length_b 15.742503
_cell_length_c 9.286679
_cell_angle_alpha 48.158297
_cell_angle_beta 30.280478
_cell_angle_gamma 28.952032
_cell_volume 833.470749
_symmetry_space_group_name_H-M "P -1"
_symmetry_group_IT_number 2
_symmetry_cell_setting 'triclinic'
loop_
_space_group_symop_operation_xyz
x,y,z
-x,-y,-z
loop_
_atom_site_type_symbol
_atom_site_label
_atom_site_fract_x
_atom_site_fract_y
_atom_site_fract_z
Si Si1 0.034133 0.262249 0.269232
Si Si2 0.585657 0.542827 0.315594
Si Si3 0.377147 0.072648 0.568576
Si Si4 0.349418 0.330054 0.212052
Si Si5 0.856902 0.184430 0.220085
Si Si6 0.656250 0.168500 0.858815
Si Si7 0.598997 0.203956 0.269797
Si Si8 0.009576 0.105996 0.261109
O O1 0.963020 0.248127 0.316672
O O2 0.857243 0.463021 0.524002
O O3 0.170258 0.061952 0.266882
O O4 0.176711 0.230253 0.913662
O O5 0.500000 0.500000 0.500000
O O6 0.786752 0.341236 0.101271
O O7 0.520352 0.629107 0.529534
O O8 0.575487 0.663100 0.104898
O O9 0.376149 0.171492 0.338611
O O10 0.500000 0.000000 0.500000
O O11 0.436797 0.898260 0.566101
O O12 0.477548 0.263168 0.117315
O O13 0.707965 0.220712 0.567115
O O14 0.913508 0.178361 0.252201
O O15 0.000000 0.000000 0.000000
O O16 0.618466 0.245058 0.021475
O O17 0.789486 0.045759 0.074752
O O18 0.000000 0.000000 0.500000
#
# Coordination Sequence:
#
# PCOD9097770 Si02
#       8
#     2   2   2   2   2   2   2   2
#     4  10  22  38  66 101 119 163 222 261 320 381
#     4  12  27  39  59  96 133 172 211 259 325 388
#     4  10  20  43  72  94 121 168 217 273 321 370
#     4  12  23  41  67  94 132 167 216 265 323 381
#     4  12  23  38  59  90 135 171 209 263 323 384
#     4  10  21  40  64  93 125 176 213 262 317 380
#     4  10  23  42  62  95 124 162 225 258 322 386
#     4  10  20  36  62  86 125 168 204 263 318 367
#
# _framework density 19.196835
#
# number of rings (size 3 to 8) (size 9 to 14) (size 15 to 20)
#    0.000    1.500    6.250    1.875    3.500    1.000 
#    0.000    0.000    0.000    3.750    0.000    0.000 
#    0.000    0.000    0.000    0.000    0.000    0.000 
#
# Total GULP energy -89090.383112 kJ/mol
# GULP energy per Si atom -5568.148945 kJ/mol
# Density = 1.915314 g / cm^3
# Si number density = 19.196835 Si / 1000 Ang^3
#
#
#
# Elastic Constant Matrix: (Units=GPa)
#
#
# Indices 1 2 3 4 5 6 
#
# 1 76.2200 32.9769 28.7564 -1.4697 -13.1456 -8.4449
# 2 32.9769 73.3338 25.1603 -7.1570 7.6440 -6.7730
# 3 28.7564 25.1603 66.8698 -14.5120 0.6218 12.2100
# 4 -1.4697 -7.1570 -14.5120 38.5763 1.8429 8.1786
# 5 -13.1456 7.6440 0.6218 1.8429 30.3927 -1.9878
# 6 -8.4449 -6.7730 12.2100 8.1786 -1.9878 30.6461
#
#
#
# Elastic Compliance Matrix: (Units=1/GPa)
#
#
# Indices 1 2 3 4 5 6 
#
# 1 0.025033 -0.008266 -0.012045 -0.008584 0.014531 0.013104
# 2 -0.008266 0.020043 -0.004042 0.001702 -0.008456 0.002760
# 3 -0.012045 -0.004042 0.028341 0.013954 -0.006906 -0.019676
# 4 -0.008584 0.001702 0.013954 0.035228 -0.007703 -0.017450
# 5 0.014531 -0.008456 -0.006906 -0.007703 0.042557 0.009703
# 6 0.013104 0.002760 -0.019676 -0.017450 0.009703 0.049977
#
#
# Mechanical properties :
#
#
# Convention : Reuss Voigt Hill
#
# Bulk Modulus (GPa) = 40.47227 43.35675 41.91451
# Shear Modulus (GPa) = 19.37058 28.55836 23.96447
#
# Velocity S-wave (km/s) = 3.18000 3.86120 3.53704
# Velocity P-wave (km/s) = 5.88318 6.52019 6.20986
#
# Compressibility (1/GPa) = 0.02470827
#
# Stress axis : x y z
#
# Youngs Moduli (GPa) = 39.94680 49.89319 35.28515
#
# Poissons Ratio (x) = 0.41244 0.42502
# Poissons Ratio (y) = 0.33022 0.14264
# Poissons Ratio (z) = 0.48118 0.20169
#
# Static dielectric constant tensor:
#      x y z
#    x 1.696470 0.041970 0.021530 
#    y 0.041970 1.820630 0.086660 
#    z 0.021530 0.086660 1.764060 
# 
# From -- ./inp_files/354502.got.cif
#   From: 2010.05.17/outbox.cif.g08.bks.cpg/sg2_178_cif.got.tgz:354502.got - 2010.06.03 11:33:40.
