data_PCOD9097250
_publ_section_title
;
Structure prediction by ZEFSAII (Michael W. Deem and Ramdas Pophale) SiO2 
 PCOD9097250
Probable space group: P -1
;
_chemical_formula_sum "Si O2"
_cell_formula_units_Z 16
_cell_length_a 9.396438
_cell_length_b 18.053337
_cell_length_c 14.419363
_cell_angle_alpha 24.729038
_cell_angle_beta 42.599786
_cell_angle_gamma 42.337857
_cell_volume 670.744938
_symmetry_space_group_name_H-M "P -1"
_symmetry_group_IT_number 2
_symmetry_cell_setting 'triclinic'
loop_
_space_group_symop_operation_xyz
x,y,z
-x,-y,-z
loop_
_atom_site_type_symbol
_atom_site_label
_atom_site_fract_x
_atom_site_fract_y
_atom_site_fract_z
Si Si1 0.634634 0.870912 0.216739
Si Si2 0.197026 0.922511 0.258834
Si Si3 0.785236 0.620393 0.015578
Si Si4 0.667163 0.195449 0.966996
Si Si5 0.400737 0.087613 0.544603
Si Si6 0.937890 0.664713 0.457493
Si Si7 0.242514 0.524006 0.611256
Si Si8 0.843182 0.998786 0.491441
O O1 0.401954 0.859700 0.302191
O O2 0.768937 0.704746 0.406128
O O3 0.757211 0.929641 0.002772
O O4 0.594757 0.057170 0.086358
O O5 0.177493 0.737020 0.430024
O O6 0.982581 0.999456 0.332927
O O7 0.527888 0.622940 0.129703
O O8 0.814653 0.593502 0.142632
O O9 0.000000 0.500000 0.000000
O O10 0.776369 0.810597 0.753869
O O11 0.889263 0.227655 0.786314
O O12 0.697084 0.072859 0.183121
O O13 0.211951 0.262132 0.464219
O O14 0.500000 0.000000 0.500000
O O15 0.608955 0.134490 0.442448
O O16 0.112808 0.494972 0.613748
O O17 0.500000 0.500000 0.500000
O O18 0.000000 0.000000 0.500000
#
# Coordination Sequence:
#
# PCOD9097250 Si02
#       8
#     2   2   2   2   2   2   2   2
#     4  10  21  37  61  93 123 152 209 258 307 356
#     4  11  21  37  62  91 120 163 201 255 309 365
#     4  11  22  39  59  91 121 160 209 248 297 377
#     4  10  20  36  60  83 120 160 198 254 303 351
#     4  10  21  32  56  91 119 149 203 252 305 357
#     4  11  21  37  60  85 123 161 202 257 303 359
#     4  12  23  39  63  85 120 168 210 243 307 371
#     4  11  23  39  63  90 124 157 201 258 312 353
#
# _framework density 23.854075000000002
#
# number of rings (size 3 to 8) (size 9 to 14) (size 15 to 20)
#    0.000    1.250    3.750    4.500    3.500    1.000 
#    0.000    0.625    0.000    4.500    0.000    0.000 
#    0.000    0.000    0.000    0.000    0.000    0.000 
#
# Total GULP energy -89123.023823 kJ/mol
# GULP energy per Si atom -5570.188989 kJ/mol
# Density = 2.379978 g / cm^3
# Si number density = 23.854075 Si / 1000 Ang^3
#
#
#
# Elastic Constant Matrix: (Units=GPa)
#
#
# Indices 1 2 3 4 5 6 
#
# 1 118.4513 39.3662 7.9836 10.5333 10.0165 -27.2073
# 2 39.3662 116.9148 22.4016 42.7239 -5.0204 -18.7941
# 3 7.9836 22.4016 73.7885 32.4932 24.5939 -0.3889
# 4 10.5333 42.7239 32.4932 45.3822 -1.1999 2.6809
# 5 10.0165 -5.0204 24.5939 -1.1999 42.9184 6.1085
# 6 -27.2073 -18.7941 -0.3889 2.6809 6.1085 40.8670
#
#
#
# Elastic Compliance Matrix: (Units=1/GPa)
#
#
# Indices 1 2 3 4 5 6 
#
# 1 0.011553 -0.002282 0.002775 -0.003128 -0.005741 0.007732
# 2 -0.002282 0.016280 0.003576 -0.017821 -0.001156 0.007343
# 3 0.002775 0.003576 0.030709 -0.027024 -0.019794 0.008515
# 4 -0.003128 -0.017821 -0.027024 0.060388 0.018272 -0.017228
# 5 -0.005741 -0.001156 -0.019794 0.018272 0.037984 -0.011418
# 6 0.007732 0.007343 0.008515 -0.017228 -0.011418 0.035912
#
#
# Mechanical properties :
#
#
# Convention : Reuss Voigt Hill
#
# Bulk Modulus (GPa) = 14.99725 49.85082 32.42404
# Shear Modulus (GPa) = 24.16447 41.79374 32.97910
#
# Velocity S-wave (km/s) = 3.18624 4.19030 3.72228
# Velocity P-wave (km/s) = 4.45386 6.65996 5.66533
#
# Compressibility (1/GPa) = 0.06667888
#
# Stress axis : x y z
#
# Youngs Moduli (GPa) = 86.55483 61.42661 32.56363
#
# Poissons Ratio (x) = 0.14019 -0.09035
# Poissons Ratio (y) = 0.19754 -0.11645
# Poissons Ratio (z) = -0.24016 -0.21967
#
# Static dielectric constant tensor:
#      x y z
#    x 1.327700 -0.025820 -0.021560 
#    y -0.025820 2.040550 -0.021820 
#    z -0.021560 -0.021820 1.866010 
# 
# From -- ./inp_files/507868.got.cif
#   From: 2010.05.17/outbox.cif.g08.bks.cpg/sg2_254_cif.got.tgz:507868.got - 2010.06.03 11:33:40.
