data_PCOD9097081
_publ_section_title
;
Structure prediction by ZEFSAII (Michael W. Deem and Ramdas Pophale) SiO2 
 PCOD9097081
Probable space group: P -1
;
_chemical_formula_sum "Si O2"
_cell_formula_units_Z 14
_cell_length_a 17.324926
_cell_length_b 5.129674
_cell_length_c 15.153698
_cell_angle_alpha 85.750051
_cell_angle_beta 24.203725
_cell_angle_gamma 82.915029
_cell_volume 545.473826
_symmetry_space_group_name_H-M "P -1"
_symmetry_group_IT_number 2
_symmetry_cell_setting 'triclinic'
loop_
_space_group_symop_operation_xyz
x,y,z
-x,-y,-z
loop_
_atom_site_type_symbol
_atom_site_label
_atom_site_fract_x
_atom_site_fract_y
_atom_site_fract_z
Si Si1 0.189239 0.889958 0.859805
Si Si2 0.566899 0.618978 0.166689
Si Si3 0.480281 0.084906 0.365001
Si Si4 0.816713 0.495539 0.254589
Si Si5 0.976686 0.439548 0.805720
Si Si6 0.033706 0.176859 0.573847
Si Si7 0.215478 0.268763 0.214034
O O1 0.347052 0.018900 0.746073
O O2 0.298081 0.683944 0.681201
O O3 0.099829 0.751425 0.039007
O O4 0.000000 0.000000 0.000000
O O5 0.524359 0.329290 0.248412
O O6 0.449308 0.844768 0.341117
O O7 0.788308 0.613189 0.963362
O O8 0.585434 0.713443 0.044016
O O9 0.308019 0.227881 0.599879
O O10 0.895880 0.398915 0.270224
O O11 0.000000 0.500000 0.000000
O O12 0.075185 0.265317 0.627690
O O13 0.209739 0.169883 0.323442
O O14 0.883411 0.427138 0.692699
O O15 0.924878 0.921547 0.681569
#
# Coordination Sequence:
#
# PCOD9097081 Si02
#       7
#     2   2   2   2   2   2   2
#     4  10  20  36  59  86 116 151 196 244 293 346
#     4  10  20  37  60  85 115 148 191 243 295 349
#     4  11  23  39  60  84 115 156 197 242 297 349
#     4  10  22  39  56  82 115 154 200 247 294 349
#     4   9  19  36  56  83 116 152 192 240 293 344
#     4   9  17  29  54  85 116 147 186 235 290 347
#     4   9  16  30  53  87 116 144 186 238 289 344
#
# _framework density 25.665758
#
# number of rings (size 3 to 8) (size 9 to 14) (size 15 to 20)
#    0.000    2.286    0.000    3.857    0.000    4.571 
#    0.000   10.000    0.000    1.714    0.000    0.000 
#    0.000    0.000    0.000    0.000    0.000    1.429 
#
# Total GULP energy -78058.173779 kJ/mol
# GULP energy per Si atom -5575.583841 kJ/mol
# Density = 2.560734 g / cm^3
# Si number density = 25.665758 Si / 1000 Ang^3
#
#
#
# Elastic Constant Matrix: (Units=GPa)
#
#
# Indices 1 2 3 4 5 6 
#
# 1 67.4462 4.5023 43.9568 -9.9521 35.0578 3.8254
# 2 4.5023 120.3360 26.8328 -9.5653 4.3411 2.1819
# 3 43.9568 26.8328 129.9134 -11.3365 27.0349 -1.7667
# 4 -9.9521 -9.5653 -11.3365 42.7690 -4.0720 3.2917
# 5 35.0578 4.3411 27.0349 -4.0720 55.4585 5.2473
# 6 3.8254 2.1819 -1.7667 3.2917 5.2473 34.7845
#
#
#
# Elastic Compliance Matrix: (Units=1/GPa)
#
#
# Indices 1 2 3 4 5 6 
#
# 1 0.026237 0.001165 -0.006055 0.003617 -0.013308 -0.001601
# 2 0.001165 0.008887 -0.002042 0.001768 -0.000219 -0.000924
# 3 -0.006055 -0.002042 0.010501 0.000691 -0.001218 0.001446
# 4 0.003617 0.001768 0.000691 0.024948 -0.000671 -0.002733
# 5 -0.013308 -0.000219 -0.001218 -0.000671 0.027255 -0.002632
# 6 -0.001601 -0.000924 0.001446 -0.002733 -0.002632 0.029712
#
#
# Mechanical properties :
#
#
# Convention : Reuss Voigt Hill
#
# Bulk Modulus (GPa) = 31.48513 52.03102 41.75808
# Shear Modulus (GPa) = 32.89675 42.76265 37.82970
#
# Velocity S-wave (km/s) = 3.58402 4.08626 3.84335
# Velocity P-wave (km/s) = 5.42411 6.52533 6.00004
#
# Compressibility (1/GPa) = 0.03176102
#
# Stress axis : x y z
#
# Youngs Moduli (GPa) = 38.11434 112.52311 95.22626
#
# Poissons Ratio (x) = -0.13110 0.57657
# Poissons Ratio (y) = -0.04441 0.19450
# Poissons Ratio (z) = 0.23077 0.22982
#
# Static dielectric constant tensor:
#      x y z
#    x 2.014320 -0.119370 0.042310 
#    y -0.119370 2.195780 -0.129840 
#    z 0.042310 -0.129840 2.113430 
# 
# From -- ./inp_files/536333.got.cif
#   From: 2010.05.17/outbox.cif.g08.bks.cpg/sg2_269_cif.got.tgz:536333.got - 2010.06.03 11:33:40.
