data_PCOD9097785
_publ_section_title
;
Structure prediction by ZEFSAII (Michael W. Deem and Ramdas Pophale) SiO2 
 PCOD9097785
Probable space group: P -1
;
_chemical_formula_sum "Si O2"
_cell_formula_units_Z 16
_cell_length_a 12.568984
_cell_length_b 8.857605
_cell_length_c 14.258711
_cell_angle_alpha 141.799495
_cell_angle_beta 125.360407
_cell_angle_gamma 43.630793
_cell_volume 677.195696
_symmetry_space_group_name_H-M "P -1"
_symmetry_group_IT_number 2
_symmetry_cell_setting 'triclinic'
loop_
_space_group_symop_operation_xyz
x,y,z
-x,-y,-z
loop_
_atom_site_type_symbol
_atom_site_label
_atom_site_fract_x
_atom_site_fract_y
_atom_site_fract_z
Si Si1 0.142804 0.155854 0.861358
Si Si2 0.409584 0.494661 0.314005
Si Si3 0.563487 0.168378 0.045286
Si Si4 0.244615 0.457896 0.929471
Si Si5 0.374768 0.286571 0.390993
Si Si6 0.636746 0.644706 0.257121
Si Si7 0.158990 0.572267 0.574155
Si Si8 0.125928 0.886688 0.236917
O O1 0.154929 0.316604 0.856900
O O2 0.973030 0.261013 0.862568
O O3 0.265821 0.107145 0.980928
O O4 0.192516 0.829335 0.700509
O O5 0.488418 0.266327 0.158471
O O6 0.360028 0.377636 0.319469
O O7 0.525944 0.587150 0.453441
O O8 0.263122 0.762943 0.320337
O O9 0.594857 0.407627 0.138645
O O10 0.422372 0.230297 0.937800
O O11 0.243413 0.470225 0.823812
O O12 0.190102 0.756508 0.102923
O O13 0.212469 0.410548 0.423010
O O14 0.485145 0.947149 0.301659
O O15 0.720989 0.648561 0.396179
O O16 0.990920 0.773058 0.635976
#
# Coordination Sequence:
#
# PCOD9097785 Si02
#       8
#     2   2   2   2   2   2   2   2
#     4   9  18  37  58  83 113 152 190 231 291 326
#     4  10  20  36  62  88 107 153 191 242 281 331
#     4  10  20  39  57  84 121 148 193 242 280 334
#     4  11  21  34  62  87 114 151 194 237 279 347
#     4  11  21  37  64  85 115 146 198 241 279 336
#     4  11  22  36  60  88 116 154 190 232 291 334
#     4   9  21  39  57  81 120 157 180 236 286 336
#     4   9  21  39  60  82 121 148 189 237 291 337
#
# _framework density 23.626850000000001
#
# number of rings (size 3 to 8) (size 9 to 14) (size 15 to 20)
#    0.750    1.250    2.500    2.250    1.750    2.000 
#    0.000    0.625    5.500    0.000    0.000    0.000 
#    0.000    0.000    0.000    0.000    0.000    0.000 
#
# Total GULP energy -89271.069845 kJ/mol
# GULP energy per Si atom -5579.441865 kJ/mol
# Density = 2.357307 g / cm^3
# Si number density = 23.626850 Si / 1000 Ang^3
#
#
#
# Elastic Constant Matrix: (Units=GPa)
#
#
# Indices 1 2 3 4 5 6 
#
# 1 53.0203 13.7376 22.5380 1.6962 -26.5919 3.0115
# 2 13.7376 58.1613 20.5244 23.5935 -24.4711 6.2134
# 3 22.5380 20.5244 63.5929 4.0965 -30.0323 9.2058
# 4 1.6962 23.5935 4.0965 36.4322 -3.2414 -4.6978
# 5 -26.5919 -24.4711 -30.0323 -3.2414 43.0031 -5.6404
# 6 3.0115 6.2134 9.2058 -4.6978 -5.6404 40.2774
#
#
#
# Elastic Compliance Matrix: (Units=1/GPa)
#
#
# Indices 1 2 3 4 5 6 
#
# 1 0.027686 0.001166 -0.002732 -0.000245 0.015933 0.000577
# 2 0.001166 0.033206 -0.001280 -0.020591 0.016514 -0.005006
# 3 -0.002732 -0.001280 0.024269 -0.000949 0.014028 -0.003291
# 4 -0.000245 -0.020591 -0.000949 0.041046 -0.008519 0.007006
# 5 0.015933 0.016514 0.014028 -0.008519 0.051565 -0.000718
# 6 0.000577 -0.005006 -0.003291 0.007006 -0.000718 0.027026
#
#
# Mechanical properties :
#
#
# Convention : Reuss Voigt Hill
#
# Bulk Modulus (GPa) = 12.58352 32.04161 22.31257
# Shear Modulus (GPa) = 21.09896 31.80750 26.45323
#
# Velocity S-wave (km/s) = 2.99157 3.67310 3.34971
# Velocity P-wave (km/s) = 4.15573 5.61960 4.94216
#
# Compressibility (1/GPa) = 0.07946901
#
# Stress axis : x y z
#
# Youngs Moduli (GPa) = 36.11921 30.11530 41.20546
#
# Poissons Ratio (x) = -0.03512 0.11256
# Poissons Ratio (y) = -0.04212 0.05275
# Poissons Ratio (z) = 0.09867 0.03855
#
# Static dielectric constant tensor:
#      x y z
#    x 1.961860 -0.005760 0.042320 
#    y -0.005760 1.858030 0.062370 
#    z 0.042320 0.062370 1.982100 
# 
# From -- ./inp_files/513713.got.cif
#   From: 2010.05.17/outbox.cif.g08.bks.cpg/sg2_257_cif.got.tgz:513713.got - 2010.06.03 11:33:40.
