data_PCOD9097793
_publ_section_title
;
Structure prediction by ZEFSAII (Michael W. Deem and Ramdas Pophale) SiO2 
 PCOD9097793
Probable space group: P -1
;
_chemical_formula_sum "Si O2"
_cell_formula_units_Z 16
_cell_length_a 7.562835
_cell_length_b 14.677332
_cell_length_c 13.851038
_cell_angle_alpha 147.069813
_cell_angle_beta 63.976199
_cell_angle_gamma 94.721431
_cell_volume 608.953428
_symmetry_space_group_name_H-M "P -1"
_symmetry_group_IT_number 2
_symmetry_cell_setting 'triclinic'
loop_
_space_group_symop_operation_xyz
x,y,z
-x,-y,-z
loop_
_atom_site_type_symbol
_atom_site_label
_atom_site_fract_x
_atom_site_fract_y
_atom_site_fract_z
Si Si1 0.421084 0.338710 0.124850
Si Si2 0.384342 0.140943 0.462363
Si Si3 0.967479 0.312885 0.837977
Si Si4 0.237585 0.186853 0.193778
Si Si5 0.442571 0.630827 0.270795
Si Si6 0.031683 0.970796 0.262948
Si Si7 0.912053 0.875501 0.012715
Si Si8 0.044584 0.460256 0.667807
O O1 0.286228 0.325021 0.236194
O O2 0.446696 0.526596 0.279408
O O3 0.247543 0.405848 0.131471
O O4 0.688302 0.126774 0.870118
O O5 0.488011 0.212577 0.583416
O O6 0.213525 0.328449 0.597005
O O7 0.184149 0.131662 0.558923
O O8 0.630515 0.975440 0.198953
O O9 0.002013 0.193233 0.823038
O O10 0.681339 0.435125 0.987588
O O11 0.000000 0.500000 0.000000
O O12 0.101018 0.308852 0.431010
O O13 0.110681 0.115091 0.089387
O O14 0.500000 0.000000 0.000000
O O15 0.167397 0.794859 0.447371
O O16 0.997089 0.966829 0.152503
O O17 0.082837 0.631237 0.777481
#
# Coordination Sequence:
#
# PCOD9097793 Si02
#       8
#     2   2   2   2   2   2   2   2
#     4  10  22  38  60  86 116 157 189 240 296 344
#     4  10  20  36  62  88 117 152 199 240 276 344
#     4   9  18  34  58  91 119 154 195 233 286 340
#     4  11  23  42  63  84 113 152 201 243 289 349
#     4   9  20  37  59  86 122 154 189 235 298 338
#     4  10  21  38  60  89 125 152 188 240 292 348
#     4  10  20  37  60  87 114 151 195 236 289 338
#     4  11  22  39  62  82 116 153 199 242 284 343
#
# _framework density 26.274584000000001
#
# number of rings (size 3 to 8) (size 9 to 14) (size 15 to 20)
#    0.000    2.000    1.250    3.750    1.750    5.500 
#    0.000    8.750    0.000   13.500    0.000    0.000 
#    0.000    0.000    0.000    0.000    0.000    0.000 
#
# Total GULP energy -89258.438905 kJ/mol
# GULP energy per Si atom -5578.652432 kJ/mol
# Density = 2.621478 g / cm^3
# Si number density = 26.274584 Si / 1000 Ang^3
#
#
#
# Elastic Constant Matrix: (Units=GPa)
#
#
# Indices 1 2 3 4 5 6 
#
# 1 72.2190 2.8280 22.2880 2.7637 -19.3824 -12.6759
# 2 2.8280 101.3434 20.2085 10.0230 -9.7252 2.4797
# 3 22.2880 20.2085 126.5901 2.7614 -23.9920 -13.5915
# 4 2.7637 10.0230 2.7614 52.1370 -14.6897 -6.3737
# 5 -19.3824 -9.7252 -23.9920 -14.6897 51.6862 1.9755
# 6 -12.6759 2.4797 -13.5915 -6.3737 1.9755 32.9478
#
#
#
# Elastic Compliance Matrix: (Units=1/GPa)
#
#
# Indices 1 2 3 4 5 6 
#
# 1 0.016800 0.000051 -0.001239 0.001563 0.005953 0.005894
# 2 0.000051 0.010517 -0.001713 -0.001964 0.000717 -0.001902
# 3 -0.001239 -0.001713 0.009483 0.001428 0.003883 0.003608
# 4 0.001563 -0.001964 0.001428 0.021985 0.006930 0.005176
# 5 0.005953 0.000717 0.003883 0.006930 0.025347 0.003659
# 6 0.005894 -0.001902 0.003608 0.005176 0.003659 0.035032
#
#
# Mechanical properties :
#
#
# Convention : Reuss Voigt Hill
#
# Bulk Modulus (GPa) = 32.26105 43.42239 37.84172
# Shear Modulus (GPa) = 36.95523 44.34272 40.64897
#
# Velocity S-wave (km/s) = 3.75440 4.11258 3.93757
# Velocity P-wave (km/s) = 5.57666 6.25406 5.92505
#
# Compressibility (1/GPa) = 0.03099714
#
# Stress axis : x y z
#
# Youngs Moduli (GPa) = 59.52533 95.08158 105.44893
#
# Poissons Ratio (x) = -0.00482 0.13064
# Poissons Ratio (y) = -0.00302 0.18067
# Poissons Ratio (z) = 0.07375 0.16291
#
# Static dielectric constant tensor:
#      x y z
#    x 2.197620 0.102620 0.064660 
#    y 0.102620 2.075960 -0.002210 
#    z 0.064660 -0.002210 2.199370 
# 
# From -- ./inp_files/504364.got.cif
#   From: 2010.05.17/outbox.cif.g08.bks.cpg/sg2_253_cif.got.tgz:504364.got - 2010.06.03 11:33:40.
