data_PCOD9097052
_publ_section_title
;
Structure prediction by ZEFSAII (Michael W. Deem and Ramdas Pophale) SiO2 
 PCOD9097052
Probable space group: P -1
;
_chemical_formula_sum "Si O2"
_cell_formula_units_Z 14
_cell_length_a 11.688284
_cell_length_b 14.200269
_cell_length_c 10.599295
_cell_angle_alpha 28.590244
_cell_angle_beta 36.363056
_cell_angle_gamma 38.982959
_cell_volume 483.603008
_symmetry_space_group_name_H-M "P -1"
_symmetry_group_IT_number 2
_symmetry_cell_setting 'triclinic'
loop_
_space_group_symop_operation_xyz
x,y,z
-x,-y,-z
loop_
_atom_site_type_symbol
_atom_site_label
_atom_site_fract_x
_atom_site_fract_y
_atom_site_fract_z
Si Si1 0.212235 0.046761 0.737687
Si Si2 0.853136 0.694279 0.075123
Si Si3 0.885925 0.276829 0.387534
Si Si4 0.633799 0.003745 0.063915
Si Si5 0.553955 0.567032 0.234179
Si Si6 0.889321 0.513792 0.695397
Si Si7 0.378885 0.598695 0.083250
O O1 0.170412 0.262003 0.454399
O O2 0.300853 0.080836 0.755858
O O3 0.345384 0.841327 0.803522
O O4 0.000000 0.000000 0.000000
O O5 0.882957 0.467102 0.259205
O O6 0.992481 0.662870 0.112248
O O7 0.914374 0.812042 0.762774
O O8 0.642795 0.824621 0.166397
O O9 0.797289 0.116311 0.729705
O O10 0.754005 0.393617 0.249789
O O11 0.449132 0.196558 0.023306
O O12 0.500000 0.500000 0.500000
O O13 0.413119 0.569114 0.238069
O O14 0.635089 0.498890 0.935850
O O15 0.131925 0.556160 0.352918
#
# Coordination Sequence:
#
# PCOD9097052 Si02
#       7
#     2   2   2   2   2   2   2
#     4  11  21  37  62  94 121 163 206 253 306 371
#     4  11  22  37  61  89 118 155 201 253 300 358
#     4  10  22  39  58  85 124 156 197 249 305 358
#     4  10  20  36  59  85 115 157 202 244 295 363
#     4   9  21  38  60  83 118 159 197 243 298 364
#     4  12  23  38  66  93 122 160 208 256 305 367
#     4  11  24  42  63  91 129 164 204 259 314 364
#
# _framework density 28.949363000000002
#
# number of rings (size 3 to 8) (size 9 to 14) (size 15 to 20)
#    0.000    1.429    2.857    2.143    4.000    1.143 
#    0.000   10.000    0.000    0.000    0.000    0.000 
#    0.000    0.000    0.000    0.000    0.000    0.000 
#
# Total GULP energy -78168.452739 kJ/mol
# GULP energy per Si atom -5583.460910 kJ/mol
# Density = 2.888347 g / cm^3
# Si number density = 28.949363 Si / 1000 Ang^3
#
#
#
# Elastic Constant Matrix: (Units=GPa)
#
#
# Indices 1 2 3 4 5 6 
#
# 1 179.4770 21.8056 29.2030 -7.6446 -3.1348 -5.5269
# 2 21.8056 182.4089 42.1248 -8.9747 9.2877 26.8198
# 3 29.2030 42.1248 118.5921 -13.9290 1.7522 11.5772
# 4 -7.6446 -8.9747 -13.9290 61.3169 1.3513 -0.1457
# 5 -3.1348 9.2877 1.7522 1.3513 39.8205 -7.4686
# 6 -5.5269 26.8198 11.5772 -0.1457 -7.4686 49.6886
#
#
#
# Elastic Compliance Matrix: (Units=1/GPa)
#
#
# Indices 1 2 3 4 5 6 
#
# 1 0.005946 -0.000646 -0.001354 0.000322 0.000943 0.001468
# 2 -0.000646 0.006628 -0.001751 0.000532 -0.002207 -0.003571
# 3 -0.001354 -0.001751 0.009757 0.001798 -0.000478 -0.001545
# 4 0.000322 0.000532 0.001798 0.016853 -0.000891 -0.000755
# 5 0.000943 -0.002207 -0.000478 -0.000891 0.026771 0.005429
# 6 0.001468 -0.003571 -0.001545 -0.000755 0.005429 0.023390
#
#
# Mechanical properties :
#
#
# Convention : Reuss Voigt Hill
#
# Bulk Modulus (GPa) = 67.44349 74.08276 70.76313
# Shear Modulus (GPa) = 49.12048 55.98818 52.55433
#
# Velocity S-wave (km/s) = 4.12366 4.40250 4.26536
# Velocity P-wave (km/s) = 6.78383 7.17556 6.98245
#
# Compressibility (1/GPa) = 0.01482723
#
# Stress axis : x y z
#
# Youngs Moduli (GPa) = 168.18106 150.88562 102.49146
#
# Poissons Ratio (x) = 0.09749 0.13879
# Poissons Ratio (y) = 0.10867 0.17950
# Poissons Ratio (z) = 0.22774 0.26425
#
# Static dielectric constant tensor:
#      x y z
#    x 2.447310 -0.532740 -0.515690 
#    y -0.532740 2.870220 0.639130 
#    z -0.515690 0.639130 2.762880 
# 
# From -- ./inp_files/430691.got.cif
#   From: 2010.05.17/outbox.cif.g08.bks.cpg/sg2_216_cif.got.tgz:430691.got - 2010.06.03 11:33:40.
