data_PCOD9097484
_publ_section_title
;
Structure prediction by ZEFSAII (Michael W. Deem and Ramdas Pophale) SiO2 
 PCOD9097484
Probable space group: P -1
;
_chemical_formula_sum "Si O2"
_cell_formula_units_Z 15
_cell_length_a 11.479508
_cell_length_b 9.407227
_cell_length_c 13.585022
_cell_angle_alpha 110.924090
_cell_angle_beta 149.534167
_cell_angle_gamma 68.581270
_cell_volume 689.663779
_symmetry_space_group_name_H-M "P -1"
_symmetry_group_IT_number 2
_symmetry_cell_setting 'triclinic'
loop_
_space_group_symop_operation_xyz
x,y,z
-x,-y,-z
loop_
_atom_site_type_symbol
_atom_site_label
_atom_site_fract_x
_atom_site_fract_y
_atom_site_fract_z
Si Si1 0.687881 0.369598 0.061938
Si Si2 0.256520 0.815016 0.755144
Si Si3 0.521360 0.922550 0.220144
Si Si4 0.000000 0.000000 0.500000
Si Si5 0.431090 0.122679 0.396253
Si Si6 0.827523 0.334771 0.762880
Si Si7 0.757512 0.870371 0.093727
Si Si8 0.982312 0.633726 0.873594
O O1 0.812539 0.282234 0.227325
O O2 0.861035 0.422649 0.119890
O O3 0.500000 0.500000 0.000000
O O4 0.552998 0.246387 0.875482
O O5 0.161461 0.813017 0.576119
O O6 0.160557 0.005480 0.737500
O O7 0.536617 0.797215 0.956338
O O8 0.784172 0.926420 0.384156
O O9 0.461891 0.022205 0.296674
O O10 0.359700 0.009577 0.040552
O O11 0.607420 0.249324 0.560344
O O12 0.173894 0.211421 0.234525
O O13 0.500000 0.000000 0.500000
O O14 0.822447 0.506046 0.760127
O O15 0.045355 0.240004 0.841535
O O16 0.876555 0.337329 0.916771
#
# Coordination Sequence:
#
# PCOD9097484 Si02
#       8
#     2   2   2   1   2   2   2   2
#     4  11  24  43  66  91 133 181 220 274 344 397
#     4   9  19  34  61  91 123 167 221 262 328 387
#     4  10  22  39  65  98 132 167 235 271 329 398
#     4  10  20  36  60  96 128 160 214 290 312 390
#     4  12  26  41  71 103 135 175 225 282 335 398
#     4  11  23  44  70  95 137 179 222 275 338 398
#     4   9  17  36  63  89 120 172 215 269 318 384
#     4  11  26  44  67 101 137 180 224 275 339 406
#
# _framework density 21.749728000000001
#
# number of rings (size 3 to 8) (size 9 to 14) (size 15 to 20)
#    0.000    1.600    1.333    3.600    5.600    2.133 
#    0.000    0.667    2.933    0.000    0.000    0.000 
#    0.000    0.000    0.000    0.000    0.000    0.000 
#
# Total GULP energy -83591.795560 kJ/mol
# GULP energy per Si atom -5572.786371 kJ/mol
# Density = 2.170023 g / cm^3
# Si number density = 21.749728 Si / 1000 Ang^3
#
#
#
# Elastic Constant Matrix: (Units=GPa)
#
#
# Indices 1 2 3 4 5 6 
#
# 1 112.6529 31.3484 29.0224 -11.2669 -17.6621 8.9342
# 2 31.3484 79.7110 24.9876 -10.9696 -8.8395 -1.0216
# 3 29.0224 24.9876 86.3301 -4.7815 -6.4370 3.7959
# 4 -11.2669 -10.9696 -4.7815 34.9336 -1.0003 -4.2897
# 5 -17.6621 -8.8395 -6.4370 -1.0003 23.4575 0.4868
# 6 8.9342 -1.0216 3.7959 -4.2897 0.4868 31.2788
#
#
#
# Elastic Compliance Matrix: (Units=1/GPa)
#
#
# Indices 1 2 3 4 5 6 
#
# 1 0.011922 -0.002818 -0.002369 0.002482 0.007432 -0.002985
# 2 -0.002818 0.015555 -0.003214 0.003890 0.002978 0.002190
# 3 -0.002369 -0.003214 0.013407 -0.000050 0.000704 -0.001073
# 4 0.002482 0.003890 -0.000050 0.031218 0.004577 0.003634
# 5 0.007432 0.002978 0.000704 0.004577 0.049784 -0.002258
# 6 -0.002985 0.002190 -0.001073 0.003634 -0.002258 0.033558
#
#
# Mechanical properties :
#
#
# Convention : Reuss Voigt Hill
#
# Bulk Modulus (GPa) = 41.52621 49.93451 45.73036
# Shear Modulus (GPa) = 27.73574 30.82301 29.27937
#
# Velocity S-wave (km/s) = 3.57490 3.76861 3.67303
# Velocity P-wave (km/s) = 6.01449 6.47650 6.24977
#
# Compressibility (1/GPa) = 0.02408117
#
# Stress axis : x y z
#
# Youngs Moduli (GPa) = 83.88111 64.28928 74.58790
#
# Poissons Ratio (x) = 0.18119 0.17671
# Poissons Ratio (y) = 0.23641 0.23969
# Poissons Ratio (z) = 0.19873 0.20660
#
# Static dielectric constant tensor:
#      x y z
#    x 1.770290 0.010590 0.003380 
#    y 0.010590 1.860230 -0.002230 
#    z 0.003380 -0.002230 1.863970 
# 
# From -- ./inp_files/516026.got.cif
#   From: 2010.05.17/outbox.cif.g08.bks.cpg/sg2_259_cif.got.tgz:516026.got - 2010.06.03 11:33:40.
