data_PCOD9097812
_publ_section_title
;
Structure prediction by ZEFSAII (Michael W. Deem and Ramdas Pophale) SiO2 
 PCOD9097812
Probable space group: P -1
;
_chemical_formula_sum "Si O2"
_cell_formula_units_Z 12
_cell_length_a 8.506485
_cell_length_b 9.620060
_cell_length_c 12.264293
_cell_angle_alpha 78.999425
_cell_angle_beta 127.041663
_cell_angle_gamma 135.246328
_cell_volume 511.421850
_symmetry_space_group_name_H-M "P -1"
_symmetry_group_IT_number 2
_symmetry_cell_setting 'triclinic'
loop_
_space_group_symop_operation_xyz
x,y,z
-x,-y,-z
loop_
_atom_site_type_symbol
_atom_site_label
_atom_site_fract_x
_atom_site_fract_y
_atom_site_fract_z
Si Si1 0.258691 0.208033 0.850228
Si Si2 0.849108 0.499830 0.539103
Si Si3 0.080832 0.704019 0.968837
Si Si4 0.704503 0.769966 0.792541
Si Si5 0.768587 0.487516 0.191444
Si Si6 0.257564 0.920492 0.771344
O O1 0.180847 0.326125 0.772820
O O2 0.238149 0.075948 0.770189
O O3 0.588995 0.388503 0.018047
O O4 0.004032 0.022534 0.858603
O O5 0.505555 0.343331 0.386678
O O6 0.000000 0.500000 0.500000
O O7 0.925339 0.433501 0.679689
O O8 0.032917 0.740863 0.612528
O O9 0.172627 0.788636 0.867708
O O10 0.814242 0.671431 0.880794
O O11 0.000000 0.500000 0.000000
O O12 0.389262 0.912204 0.129889
O O13 0.488516 0.711557 0.804463
#
# Coordination Sequence:
#
# PCOD9097812 Si02
#       6
#     2   2   2   2   2   2
#     4  10  21  36  62  86 109 148 191 237 282 332
#     4  10  22  40  58  81 120 157 186 233 288 337
#     4  10  20  36  62  89 111 146 193 239 283 335
#     4  10  21  36  56  83 115 152 189 228 281 341
#     4  10  20  38  58  85 116 145 188 236 283 334
#     4  10  21  40  59  84 119 149 186 239 288 331
#
# _framework density 23.463992999999999
#
# number of rings (size 3 to 8) (size 9 to 14) (size 15 to 20)
#    0.000    2.000    0.000    4.500    0.000    6.000 
#    0.000   10.833    0.000    0.000    0.000    0.000 
#    0.000    0.000    0.000    0.000    0.000    0.000 
#
# Total GULP energy -67006.804143 kJ/mol
# GULP energy per Si atom -5583.900345 kJ/mol
# Density = 2.341059 g / cm^3
# Si number density = 23.463993 Si / 1000 Ang^3
#
#
#
# Elastic Constant Matrix: (Units=GPa)
#
#
# Indices 1 2 3 4 5 6 
#
# 1 50.7069 34.6050 18.5469 2.0241 6.8167 -17.1397
# 2 34.6050 121.1027 40.3065 12.0816 6.2891 -28.7554
# 3 18.5469 40.3065 126.6901 21.9760 15.4289 -6.4302
# 4 2.0241 12.0816 21.9760 14.5372 -10.3220 -6.7016
# 5 6.8167 6.2891 15.4289 -10.3220 37.5558 6.2537
# 6 -17.1397 -28.7554 -6.4302 -6.7016 6.2537 47.8134
#
#
#
# Elastic Compliance Matrix: (Units=1/GPa)
#
#
# Indices 1 2 3 4 5 6 
#
# 1 0.027027 -0.005697 -0.002701 0.006811 -0.002158 0.007136
# 2 -0.005697 0.012323 -0.000866 -0.008780 -0.003840 0.004524
# 3 -0.002701 -0.000866 0.016714 -0.036500 -0.015884 -0.002280
# 4 0.006811 -0.008780 -0.036500 0.179240 0.062971 0.009139
# 5 -0.002158 -0.003840 -0.015884 0.062971 0.052027 -0.003198
# 6 0.007136 0.004524 -0.002280 0.009139 -0.003198 0.027586
#
#
# Mechanical properties :
#
#
# Convention : Reuss Voigt Hill
#
# Bulk Modulus (GPa) = 26.64053 53.93516 40.28785
# Shear Modulus (GPa) = 14.45257 33.65069 24.05163
#
# Velocity S-wave (km/s) = 2.48452 3.79111 3.20510
# Velocity P-wave (km/s) = 4.42819 6.49613 5.55916
#
# Compressibility (1/GPa) = 0.03753679
#
# Stress axis : x y z
#
# Youngs Moduli (GPa) = 36.99949 81.14659 59.82875
#
# Poissons Ratio (x) = 0.46231 0.16157
# Poissons Ratio (y) = 0.21079 0.05184
# Poissons Ratio (z) = 0.09992 0.07031
#
# Static dielectric constant tensor:
#      x y z
#    x 1.968300 -0.005370 -0.045900 
#    y -0.005370 1.919260 -0.046950 
#    z -0.045900 -0.046950 1.947450 
# 
# From -- ./inp_files/245230.got.cif
#   From: 2010.05.17/outbox.cif.g08.bks.cpg/sg2_123_cif.got.tgz:245230.got - 2010.06.03 11:33:40.
