data_PCOD9097647
_publ_section_title
;
Structure prediction by ZEFSAII (Michael W. Deem and Ramdas Pophale) SiO2 
 PCOD9097647
Probable space group: P -1
;
_chemical_formula_sum "Si O2"
_cell_formula_units_Z 16
_cell_length_a 5.414068
_cell_length_b 12.498331
_cell_length_c 11.204421
_cell_angle_alpha 85.911758
_cell_angle_beta 95.569023
_cell_angle_gamma 113.982811
_cell_volume 689.020384
_symmetry_space_group_name_H-M "P -1"
_symmetry_group_IT_number 2
_symmetry_cell_setting 'triclinic'
loop_
_space_group_symop_operation_xyz
x,y,z
-x,-y,-z
loop_
_atom_site_type_symbol
_atom_site_label
_atom_site_fract_x
_atom_site_fract_y
_atom_site_fract_z
Si Si1 0.042205 0.700788 0.667637
Si Si2 0.682490 0.934952 0.959282
Si Si3 0.738648 0.460662 0.403775
Si Si4 0.507406 0.079655 0.308900
Si Si5 0.296214 0.094068 0.543471
Si Si6 0.755250 0.569163 0.870595
Si Si7 0.262107 0.316465 0.573949
Si Si8 0.366681 0.658153 0.996346
O O1 0.219090 0.624002 0.683166
O O2 0.197463 0.826188 0.723125
O O3 0.780274 0.620215 0.734832
O O4 0.988351 0.723686 0.527034
O O5 0.670847 0.940619 0.814006
O O6 0.539715 0.797720 0.003433
O O7 0.500000 0.000000 0.000000
O O8 0.000000 0.000000 0.000000
O O9 0.506131 0.389736 0.491364
O O10 0.746923 0.584309 0.346799
O O11 0.000000 0.500000 0.500000
O O12 0.421280 0.136321 0.414451
O O13 0.536723 0.967112 0.374250
O O14 0.286706 0.197521 0.617031
O O15 0.000000 0.000000 0.500000
O O16 0.543804 0.608593 0.925452
O O17 0.061785 0.630869 0.935916
O O18 0.680773 0.430226 0.886242
#
# Coordination Sequence:
#
# PCOD9097647 Si02
#       8
#     2   2   2   2   2   2   2   2
#     4  11  20  36  67  99 127 175 233 285 351 424
#     4  12  28  48  76 101 148 197 239 296 367 444
#     4   9  20  36  56  89 131 170 217 270 346 416
#     4  11  25  41  68 104 134 181 245 295 352 427
#     4  11  23  40  69 101 138 181 235 297 344 413
#     4  10  22  38  73 100 132 166 229 306 344 406
#     4  10  20  36  61  91 136 176 217 278 344 425
#     4  10  22  44  66 102 133 173 227 295 357 413
#
# _framework density 23.221373
#
# number of rings (size 3 to 8) (size 9 to 14) (size 15 to 20)
#    0.000    1.500    3.750    0.750    5.250    0.000 
#    0.000    5.000    2.750    0.000    0.000    0.000 
#    0.000    0.000    0.000    0.000    0.000    0.000 
#
# Total GULP energy -89299.015911 kJ/mol
# GULP energy per Si atom -5581.188494 kJ/mol
# Density = 2.316852 g / cm^3
# Si number density = 23.221373 Si / 1000 Ang^3
#
#
#
# Elastic Constant Matrix: (Units=GPa)
#
#
# Indices 1 2 3 4 5 6 
#
# 1 99.0490 28.5748 8.2303 6.8733 10.9743 6.4101
# 2 28.5748 154.2265 19.8041 -5.4060 10.8159 -11.8439
# 3 8.2303 19.8041 60.6257 -15.0522 17.9946 5.1861
# 4 6.8733 -5.4060 -15.0522 20.6642 6.6088 -2.3662
# 5 10.9743 10.8159 17.9946 6.6088 34.5452 10.4829
# 6 6.4101 -11.8439 5.1861 -2.3662 10.4829 45.6384
#
#
#
# Elastic Compliance Matrix: (Units=1/GPa)
#
#
# Indices 1 2 3 4 5 6 
#
# 1 0.011509 -0.002253 -0.002251 -0.006367 0.000140 -0.002308
# 2 -0.002253 0.007568 -0.000687 0.003542 -0.002951 0.003220
# 3 -0.002251 -0.000687 0.030789 0.030374 -0.021904 0.003245
# 4 -0.006367 0.003542 0.030374 0.085860 -0.034599 0.010761
# 5 0.000140 -0.002951 -0.021904 -0.034599 0.051471 -0.011913
# 6 -0.002308 0.003220 0.003245 0.010761 -0.011913 0.025997
#
#
# Mechanical properties :
#
#
# Convention : Reuss Voigt Hill
#
# Bulk Modulus (GPa) = 25.32689 47.45773 36.39231
# Shear Modulus (GPa) = 21.12048 37.32237 29.22143
#
# Velocity S-wave (km/s) = 3.01911 4.01339 3.55122
# Velocity P-wave (km/s) = 4.80456 6.47749 5.70270
#
# Compressibility (1/GPa) = 0.03948373
#
# Stress axis : x y z
#
# Youngs Moduli (GPa) = 86.89021 132.13532 32.47861
#
# Poissons Ratio (x) = 0.29777 0.07312
# Poissons Ratio (y) = 0.19581 0.02230
# Poissons Ratio (z) = 0.19561 0.09072
#
# Static dielectric constant tensor:
#      x y z
#    x 2.012120 -0.007150 -0.010840 
#    y -0.007150 1.925930 0.009110 
#    z -0.010840 0.009110 1.922330 
# 
# From -- ./inp_files/364540.got.cif
#   From: 2010.05.17/outbox.cif.g08.bks.cpg/sg2_183_cif.got.tgz:364540.got - 2010.06.03 11:33:40.
