data_PCOD9097197
_publ_section_title
;
Structure prediction by ZEFSAII (Michael W. Deem and Ramdas Pophale) SiO2 
 PCOD9097197
Probable space group: P -1
;
_chemical_formula_sum "Si O2"
_cell_formula_units_Z 14
_cell_length_a 11.570370
_cell_length_b 7.645126
_cell_length_c 8.847108
_cell_angle_alpha 108.957826
_cell_angle_beta 105.858683
_cell_angle_gamma 48.753496
_cell_volume 554.571819
_symmetry_space_group_name_H-M "P -1"
_symmetry_group_IT_number 2
_symmetry_cell_setting 'triclinic'
loop_
_space_group_symop_operation_xyz
x,y,z
-x,-y,-z
loop_
_atom_site_type_symbol
_atom_site_label
_atom_site_fract_x
_atom_site_fract_y
_atom_site_fract_z
Si Si1 0.756072 0.965649 0.413292
Si Si2 0.416885 0.383294 0.412369
Si Si3 0.775317 0.849487 0.055236
Si Si4 0.233826 0.777367 0.251030
Si Si5 0.225874 0.456520 0.650214
Si Si6 0.930116 0.316100 0.060610
Si Si7 0.467932 0.738454 0.116263
O O1 0.790396 0.954141 0.244568
O O2 0.824718 0.707262 0.423016
O O3 0.569247 0.112338 0.395015
O O4 0.813713 0.078537 0.568837
O O5 0.500000 0.500000 0.500000
O O6 0.331090 0.501021 0.258161
O O7 0.288416 0.462331 0.512968
O O8 0.900490 0.790208 0.959928
O O9 0.825007 0.595972 0.052116
O O10 0.611408 0.054221 0.978101
O O11 0.122615 0.806930 0.092012
O O12 0.346634 0.819523 0.229774
O O13 0.377463 0.336743 0.775740
O O14 0.098004 0.681315 0.769909
O O15 0.500000 0.500000 0.000000
#
# Coordination Sequence:
#
# PCOD9097197 Si02
#       7
#     2   2   2   2   2   2   2
#     4  10  22  37  61  96 124 167 203 271 317 374
#     4  10  20  36  59  92 129 160 198 272 309 373
#     4  10  25  44  67  87 137 166 216 257 322 376
#     4  11  23  36  63  94 129 159 218 254 325 369
#     4  11  22  39  66  92 130 162 218 256 326 370
#     4  10  24  46  63  96 123 178 210 261 313 388
#     4  12  23  39  65 101 124 167 213 271 307 383
#
# _framework density 25.244702
#
# number of rings (size 3 to 8) (size 9 to 14) (size 15 to 20)
#    0.000    1.429    4.286    1.286    4.000    2.286 
#    0.000    1.429    0.000    5.143    0.000    0.000 
#    0.000    0.000    0.000    0.000    0.000    0.000 
#
# Total GULP energy -78283.522478 kJ/mol
# GULP energy per Si atom -5591.680177 kJ/mol
# Density = 2.518724 g / cm^3
# Si number density = 25.244702 Si / 1000 Ang^3
#
#
#
# Elastic Constant Matrix: (Units=GPa)
#
#
# Indices 1 2 3 4 5 6 
#
# 1 56.9984 7.3124 6.5363 -0.9303 -27.7326 0.2100
# 2 7.3124 92.0147 41.5508 -4.8647 -2.9387 5.2117
# 3 6.5363 41.5508 86.1631 8.1213 -10.7195 -6.7991
# 4 -0.9303 -4.8647 8.1213 44.2007 4.5054 4.3261
# 5 -27.7326 -2.9387 -10.7195 4.5054 54.0593 2.4922
# 6 0.2100 5.2117 -6.7991 4.3261 2.4922 20.3492
#
#
#
# Elastic Compliance Matrix: (Units=1/GPa)
#
#
# Indices 1 2 3 4 5 6 
#
# 1 0.023667 -0.001763 0.000605 -0.000972 0.012287 -0.000889
# 2 -0.001763 0.015431 -0.008502 0.004130 -0.001752 -0.007438
# 3 0.000605 -0.008502 0.017252 -0.005277 0.003310 0.008652
# 4 -0.000972 0.004130 -0.005277 0.025100 -0.003054 -0.007773
# 5 0.012287 -0.001752 0.003310 -0.003054 0.025666 -0.001066
# 6 -0.000889 -0.007438 0.008652 -0.007773 -0.001066 0.055730
#
#
# Mechanical properties :
#
#
# Convention : Reuss Voigt Hill
#
# Bulk Modulus (GPa) = 27.00487 38.44168 32.72328
# Shear Modulus (GPa) = 25.70597 35.70695 30.70646
#
# Velocity S-wave (km/s) = 3.19450 3.76498 3.49141
# Velocity P-wave (km/s) = 4.93223 5.84472 5.40776
#
# Compressibility (1/GPa) = 0.03703036
#
# Stress axis : x y z
#
# Youngs Moduli (GPa) = 42.25306 64.80631 57.96542
#
# Poissons Ratio (x) = 0.11422 -0.03506
# Poissons Ratio (y) = 0.07447 0.49280
# Poissons Ratio (z) = -0.02555 0.55096
#
# Static dielectric constant tensor:
#      x y z
#    x 1.960840 -0.015830 -0.020280 
#    y -0.015830 2.177820 0.023180 
#    z -0.020280 0.023180 2.011790 
# 
# From -- ./inp_files/240485.got.cif
#   From: 2010.05.17/outbox.cif.g08.bks.cpg/sg2_121_cif.got.tgz:240485.got - 2010.06.03 11:33:40.
