data_PCOD9097747
_publ_section_title
;
Structure prediction by ZEFSAII (Michael W. Deem and Ramdas Pophale) SiO2 
 PCOD9097747
Probable space group: P -1
;
_chemical_formula_sum "Si O2"
_cell_formula_units_Z 14
_cell_length_a 7.546277
_cell_length_b 7.902674
_cell_length_c 16.789666
_cell_angle_alpha 88.789726
_cell_angle_beta 58.790870
_cell_angle_gamma 125.840273
_cell_volume 613.474971
_symmetry_space_group_name_H-M "P -1"
_symmetry_group_IT_number 2
_symmetry_cell_setting 'triclinic'
loop_
_space_group_symop_operation_xyz
x,y,z
-x,-y,-z
loop_
_atom_site_type_symbol
_atom_site_label
_atom_site_fract_x
_atom_site_fract_y
_atom_site_fract_z
Si Si1 0.360665 0.047852 0.354732
Si Si2 0.074800 0.106013 0.893735
Si Si3 0.690628 0.439937 0.789777
Si Si4 0.332318 0.343620 0.463476
Si Si5 0.261353 0.622664 0.376954
Si Si6 0.456511 0.776094 0.001657
Si Si7 0.612336 0.393215 0.149074
O O1 0.432714 0.220672 0.406170
O O2 0.511281 0.198008 0.237298
O O3 0.438243 0.896349 0.348923
O O4 0.009758 0.860212 0.433549
O O5 0.132964 0.340907 0.879503
O O6 0.395910 0.213918 0.811031
O O7 0.000000 0.000000 0.000000
O O8 0.789484 0.897994 0.914928
O O9 0.893015 0.484669 0.673726
O O10 0.683572 0.370749 0.881924
O O11 0.646136 0.615296 0.800126
O O12 0.500000 0.500000 0.500000
O O13 0.384362 0.511758 0.379508
O O14 0.000000 0.500000 0.500000
O O15 0.312472 0.635790 0.954930
O O16 0.500000 0.000000 0.000000
#
# Coordination Sequence:
#
# PCOD9097747 Si02
#       7
#     2   2   2   2   2   2   2
#     4  10  21  37  62  87 118 162 197 249 311 349
#     4   8  19  35  57  79 118 158 199 237 304 349
#     4   9  19  38  57  82 121 158 196 245 296 355
#     4  10  21  39  62  86 119 157 202 253 305 361
#     4  10  20  38  64  87 121 157 203 252 299 359
#     4  11  21  35  60  90 119 154 205 248 295 360
#     4  10  20  36  62  83 122 159 204 234 305 362
#
# _framework density 22.820816000000001
#
# number of rings (size 3 to 8) (size 9 to 14) (size 15 to 20)
#    0.857    1.429    1.429    1.286    0.000    3.429 
#    0.000    0.000    9.429    0.000    0.000    0.000 
#    0.000    0.000    0.000    0.000    0.000    0.000 
#
# Total GULP energy -77940.482286 kJ/mol
# GULP energy per Si atom -5567.177306 kJ/mol
# Density = 2.276887 g / cm^3
# Si number density = 22.820816 Si / 1000 Ang^3
#
#
#
# Elastic Constant Matrix: (Units=GPa)
#
#
# Indices 1 2 3 4 5 6 
#
# 1 28.2341 25.5721 5.0289 4.6314 1.9142 2.6040
# 2 25.5721 119.0544 59.4955 20.3384 14.1668 -14.6874
# 3 5.0289 59.4955 131.8728 10.0334 26.2435 -4.1140
# 4 4.6314 20.3384 10.0334 51.7571 -16.6556 6.8576
# 5 1.9142 14.1668 26.2435 -16.6556 20.2231 1.3497
# 6 2.6040 -14.6874 -4.1140 6.8576 1.3497 45.0211
#
#
#
# Elastic Compliance Matrix: (Units=1/GPa)
#
#
# Indices 1 2 3 4 5 6 
#
# 1 0.047038 -0.013416 0.003168 0.002504 0.003385 -0.007291
# 2 -0.013416 0.018171 -0.002601 -0.012820 -0.019243 0.008996
# 3 0.003168 -0.002601 0.015146 -0.011547 -0.027840 0.002946
# 4 0.002504 -0.012820 -0.011547 0.049387 0.065396 -0.014866
# 5 0.003385 -0.019243 -0.027840 0.065396 0.154171 -0.023601
# 6 -0.007291 0.008996 0.002946 -0.014866 -0.023601 0.028809
#
#
# Mechanical properties :
#
#
# Convention : Reuss Voigt Hill
#
# Bulk Modulus (GPa) = 18.29633 51.03935 34.66784
# Shear Modulus (GPa) = 14.01975 36.00458 25.01216
#
# Velocity S-wave (km/s) = 2.48128 3.97635 3.31422
# Velocity P-wave (km/s) = 4.03036 6.59512 5.46532
#
# Compressibility (1/GPa) = 0.05465576
#
# Stress axis : x y z
#
# Youngs Moduli (GPa) = 21.25959 55.03406 66.02223
#
# Poissons Ratio (x) = 0.73836 -0.20913
# Poissons Ratio (y) = 0.28523 0.17170
# Poissons Ratio (z) = -0.06734 0.14313
#
# Static dielectric constant tensor:
#      x y z
#    x 2.671610 0.245610 -0.781550 
#    y 0.245610 1.913800 -0.303090 
#    z -0.781550 -0.303090 2.471250 
# 
# From -- ./inp_files/492753.got.cif
#   From: 2010.05.17/outbox.cif.g08.bks.cpg/sg2_247_cif.got.tgz:492753.got - 2010.06.03 11:33:40.
