data_PCOD9097222
_publ_section_title
;
Structure prediction by ZEFSAII (Michael W. Deem and Ramdas Pophale) SiO2 
 PCOD9097222
Probable space group: P -1
;
_chemical_formula_sum "Si O2"
_cell_formula_units_Z 15
_cell_length_a 14.751641
_cell_length_b 18.451416
_cell_length_c 12.409260
_cell_angle_alpha 31.338077
_cell_angle_beta 46.581697
_cell_angle_gamma 26.559682
_cell_volume 741.558065
_symmetry_space_group_name_H-M "P -1"
_symmetry_group_IT_number 2
_symmetry_cell_setting 'triclinic'
loop_
_space_group_symop_operation_xyz
x,y,z
-x,-y,-z
loop_
_atom_site_type_symbol
_atom_site_label
_atom_site_fract_x
_atom_site_fract_y
_atom_site_fract_z
Si Si1 0.170319 0.841210 0.860586
Si Si2 0.500000 0.000000 0.000000
Si Si3 0.609087 0.956882 0.721249
Si Si4 0.413052 0.352964 0.217385
Si Si5 0.708033 0.239196 0.789597
Si Si6 0.067317 0.103017 0.399018
Si Si7 0.355646 0.372158 0.997329
Si Si8 0.616126 0.221758 0.643721
O O1 0.366892 0.760163 0.838782
O O2 0.108979 0.954956 0.647432
O O3 0.255356 0.607151 0.078329
O O4 0.959028 0.036750 0.857044
O O5 0.502992 0.964052 0.173343
O O6 0.459318 0.869000 0.174892
O O7 0.468276 0.175896 0.475539
O O8 0.820411 0.856524 0.702064
O O9 0.663617 0.759995 0.873921
O O10 0.321437 0.390942 0.129028
O O11 0.587672 0.228459 0.967525
O O12 0.683645 0.213075 0.717819
O O13 0.576927 0.500253 0.585335
O O14 0.821832 0.363132 0.244417
O O15 0.194113 0.944681 0.388500
#
# Coordination Sequence:
#
# PCOD9097222 Si02
#       8
#     2   1   2   2   2   2   2   2
#     4  10  22  42  63  93 124 173 215 260 319 378
#     4  10  20  40  64  88 130 162 212 260 318 366
#     4  10  22  41  65  92 127 171 213 262 318 383
#     4  10  23  42  65  88 132 171 210 259 322 390
#     4  11  22  35  63  93 132 157 215 264 315 371
#     4  10  21  38  67  93 123 170 218 260 315 376
#     4  12  22  39  64  98 131 163 214 267 317 380
#     4  10  20  36  59  98 124 166 201 275 314 367
#
# _framework density 20.227681
#
# number of rings (size 3 to 8) (size 9 to 14) (size 15 to 20)
#    0.000    1.600    1.333    4.000    0.000    3.200 
#    2.400    0.667    0.000    0.000    0.000    0.000 
#    0.000    0.000    0.000    0.000    0.000    0.000 
#
# Total GULP energy -83587.380248 kJ/mol
# GULP energy per Si atom -5572.492017 kJ/mol
# Density = 2.018164 g / cm^3
# Si number density = 20.227681 Si / 1000 Ang^3
#
#
#
# Elastic Constant Matrix: (Units=GPa)
#
#
# Indices 1 2 3 4 5 6 
#
# 1 48.2786 3.6077 27.7965 0.3827 -6.3809 13.7306
# 2 3.6077 73.7706 28.3808 -11.1023 -4.7642 -5.0055
# 3 27.7965 28.3808 75.1908 -14.3193 -12.2015 -0.4353
# 4 0.3827 -11.1023 -14.3193 22.7869 1.6103 0.3333
# 5 -6.3809 -4.7642 -12.2015 1.6103 41.4732 5.4211
# 6 13.7306 -5.0055 -0.4353 0.3333 5.4211 20.7423
#
#
#
# Elastic Compliance Matrix: (Units=1/GPa)
#
#
# Indices 1 2 3 4 5 6 
#
# 1 0.037879 0.001239 -0.015658 -0.009854 0.005184 -0.026301
# 2 0.001239 0.016618 -0.005923 0.004324 -0.000210 0.003051
# 3 -0.015658 -0.005923 0.024090 0.012220 0.002397 0.008619
# 4 -0.009854 0.004324 0.012220 0.053763 -0.000436 0.007073
# 5 0.005184 -0.000210 0.002397 -0.000436 0.026977 -0.010475
# 6 -0.026301 0.003051 0.008619 0.007073 -0.010475 0.069162
#
#
# Mechanical properties :
#
#
# Convention : Reuss Voigt Hill
#
# Bulk Modulus (GPa) = 26.38450 35.20111 30.79280
# Shear Modulus (GPa) = 17.74252 26.16414 21.95333
#
# Velocity S-wave (km/s) = 2.96487 3.60040 3.29798
# Velocity P-wave (km/s) = 4.97922 5.89271 5.45512
#
# Compressibility (1/GPa) = 0.03790104
#
# Stress axis : x y z
#
# Youngs Moduli (GPa) = 26.39970 60.17577 41.51133
#
# Poissons Ratio (x) = -0.07455 0.65000
# Poissons Ratio (y) = -0.03271 0.24589
# Poissons Ratio (z) = 0.41338 0.35645
#
# Static dielectric constant tensor:
#      x y z
#    x 1.732480 -0.018190 0.008920 
#    y -0.018190 1.717900 0.008040 
#    z 0.008920 0.008040 1.675940 
# 
# From -- ./inp_files/456897.got.cif
#   From: 2010.05.17/outbox.cif.g08.bks.cpg/sg2_229_cif.got.tgz:456897.got - 2010.06.03 11:33:40.
