data_PCOD9097654
_publ_section_title
;
Structure prediction by ZEFSAII (Michael W. Deem and Ramdas Pophale) SiO2 
 PCOD9097654
Probable space group: P -1
;
_chemical_formula_sum "Si O2"
_cell_formula_units_Z 16
_cell_length_a 13.827391
_cell_length_b 12.507657
_cell_length_c 8.205824
_cell_angle_alpha 145.399931
_cell_angle_beta 116.099236
_cell_angle_gamma 61.864579
_cell_volume 706.841338
_symmetry_space_group_name_H-M "P -1"
_symmetry_group_IT_number 2
_symmetry_cell_setting 'triclinic'
loop_
_space_group_symop_operation_xyz
x,y,z
-x,-y,-z
loop_
_atom_site_type_symbol
_atom_site_label
_atom_site_fract_x
_atom_site_fract_y
_atom_site_fract_z
Si Si1 0.592771 0.634620 0.887450
Si Si2 0.464721 0.662990 0.314548
Si Si3 0.871922 0.179689 0.210659
Si Si4 0.869807 0.514953 0.406050
Si Si5 0.335826 0.025046 0.476417
Si Si6 0.892975 0.807355 0.554138
Si Si7 0.675044 0.752215 0.767107
Si Si8 0.352920 0.852529 0.906882
O O1 0.466834 0.699254 0.810935
O O2 0.609374 0.792582 0.231124
O O3 0.606287 0.428677 0.722577
O O4 0.668317 0.672175 0.841880
O O5 0.398166 0.854694 0.422169
O O6 0.576011 0.694287 0.519900
O O7 0.500000 0.500000 0.000000
O O8 0.853192 0.306517 0.188891
O O9 0.978456 0.227169 0.440067
O O10 0.757986 0.227318 0.282510
O O11 0.893129 0.954797 0.893002
O O12 0.851945 0.617697 0.346412
O O13 0.790168 0.658440 0.649260
O O14 0.000000 0.500000 0.500000
O O15 0.344488 0.959226 0.211943
O O16 0.205534 0.084748 0.496461
O O17 0.650212 0.983846 0.025542
#
# Coordination Sequence:
#
# PCOD9097654 Si02
#       8
#     2   2   2   2   2   2   2   2
#     4  12  25  41  60  91 132 165 199 259 313 370
#     4  12  25  39  61  92 126 165 211 250 305 374
#     4   9  18  33  59  89 117 150 204 256 299 342
#     4  10  20  36  61  92 116 156 206 258 300 361
#     4  11  22  39  62  91 125 161 211 247 310 358
#     4   9  19  35  58  92 116 150 204 262 296 348
#     4  12  24  41  61  94 127 162 203 257 320 365
#     4  11  20  38  64  91 121 164 206 252 301 370
#
# _framework density 22.635914
#
# number of rings (size 3 to 8) (size 9 to 14) (size 15 to 20)
#    0.000    1.250    5.000    2.625    1.750    0.000 
#    0.000    0.000    0.000    3.750    3.250    0.000 
#    0.000    0.000    0.000    0.000    0.000    0.000 
#
# Total GULP energy -89414.916858 kJ/mol
# GULP energy per Si atom -5588.432304 kJ/mol
# Density = 2.258439 g / cm^3
# Si number density = 22.635914 Si / 1000 Ang^3
#
#
#
# Elastic Constant Matrix: (Units=GPa)
#
#
# Indices 1 2 3 4 5 6 
#
# 1 131.7263 31.9875 21.3447 -1.2627 21.0350 -3.0035
# 2 31.9875 87.9254 29.0334 20.4427 7.9314 3.9886
# 3 21.3447 29.0334 49.8759 11.6617 12.0962 4.1053
# 4 -1.2627 20.4427 11.6617 34.6385 10.0404 6.0710
# 5 21.0350 7.9314 12.0962 10.0404 24.7661 6.6538
# 6 -3.0035 3.9886 4.1053 6.0710 6.6538 43.6871
#
#
#
# Elastic Compliance Matrix: (Units=1/GPa)
#
#
# Indices 1 2 3 4 5 6 
#
# 1 0.010388 -0.003854 -0.001304 0.005579 -0.009722 0.001894
# 2 -0.003854 0.016828 -0.007256 -0.009041 0.005273 -0.000666
# 3 -0.001304 -0.007256 0.027599 -0.002394 -0.008992 -0.000318
# 4 0.005579 -0.009041 -0.002394 0.040306 -0.016573 -0.001643
# 5 -0.009722 0.005273 -0.008992 -0.016573 0.059974 -0.007136
# 6 0.001894 -0.000666 -0.000318 -0.001643 -0.007136 0.024426
#
#
# Mechanical properties :
#
#
# Convention : Reuss Voigt Hill
#
# Bulk Modulus (GPa) = 33.35058 48.25099 40.80078
# Shear Modulus (GPa) = 23.32660 33.09580 28.21120
#
# Velocity S-wave (km/s) = 3.21364 3.82788 3.53413
# Velocity P-wave (km/s) = 5.34186 6.39525 5.89215
#
# Compressibility (1/GPa) = 0.02998449
#
# Stress axis : x y z
#
# Youngs Moduli (GPa) = 96.26475 59.42397 36.23344
#
# Poissons Ratio (x) = 0.22905 0.04726
# Poissons Ratio (y) = 0.37105 0.26293
# Poissons Ratio (z) = 0.12556 0.43121
#
# Static dielectric constant tensor:
#      x y z
#    x 1.898380 -0.004950 -0.019940 
#    y -0.004950 1.868450 0.030800 
#    z -0.019940 0.030800 1.874540 
# 
# From -- ./inp_files/308847.got.cif
#   From: 2010.05.17/outbox.cif.g08.bks.cpg/sg2_155_cif.got.tgz:308847.got - 2010.06.03 11:33:40.
