data_PCOD9097063
_publ_section_title
;
Structure prediction by ZEFSAII (Michael W. Deem and Ramdas Pophale) SiO2 
 PCOD9097063
Probable space group: P -1
;
_chemical_formula_sum "Si O2"
_cell_formula_units_Z 14
_cell_length_a 8.278496
_cell_length_b 8.313046
_cell_length_c 13.220227
_cell_angle_alpha 75.106893
_cell_angle_beta 56.415224
_cell_angle_gamma 68.255237
_cell_volume 702.405080
_symmetry_space_group_name_H-M "P -1"
_symmetry_group_IT_number 2
_symmetry_cell_setting 'triclinic'
loop_
_space_group_symop_operation_xyz
x,y,z
-x,-y,-z
loop_
_atom_site_type_symbol
_atom_site_label
_atom_site_fract_x
_atom_site_fract_y
_atom_site_fract_z
Si Si1 0.220663 0.156349 0.230458
Si Si2 0.367786 0.711480 0.702992
Si Si3 0.106650 0.036199 0.629287
Si Si4 0.315197 0.926501 0.896034
Si Si5 0.178584 0.339725 0.424158
Si Si6 0.012175 0.558730 0.871434
Si Si7 0.016608 0.788253 0.142383
O O1 0.176767 0.299777 0.311969
O O2 0.137032 0.255096 0.139074
O O3 0.089301 0.025171 0.320956
O O4 0.459633 0.069080 0.159050
O O5 0.325800 0.807514 0.811239
O O6 0.606464 0.632041 0.625705
O O7 0.233874 0.578220 0.767657
O O8 0.282121 0.861124 0.624853
O O9 0.167085 0.160306 0.508388
O O10 0.052414 0.145242 0.733539
O O11 0.159064 0.109280 0.890845
O O12 0.215207 0.841954 0.032615
O O13 0.000000 0.500000 0.500000
O O14 0.956994 0.412625 0.848037
O O15 0.000000 0.500000 0.000000
#
# Coordination Sequence:
#
# PCOD9097063 Si02
#       7
#     2   2   2   2   2   2   2
#     4  10  23  39  59  87 117 152 197 238 291 340
#     4   9  20  39  60  84 115 157 192 230 295 345
#     4  10  21  39  60  83 117 159 189 234 286 346
#     4   9  19  37  57  85 118 153 190 240 281 346
#     4  11  22  40  60  87 117 148 197 247 283 335
#     4  11  21  39  59  87 118 153 190 239 294 343
#     4  10  20  36  59  85 120 152 194 230 288 348
#
# _framework density 19.931516999999999
#
# number of rings (size 3 to 8) (size 9 to 14) (size 15 to 20)
#    0.000    2.000    1.429    1.714    2.000    2.286 
#    2.571    7.857    0.000    0.000    0.000    0.000 
#    0.000    0.000    0.000    0.000    0.000    0.000 
#
# Total GULP energy -78199.762376 kJ/mol
# GULP energy per Si atom -5585.697313 kJ/mol
# Density = 1.988615 g / cm^3
# Si number density = 19.931517 Si / 1000 Ang^3
#
#
#
# Elastic Constant Matrix: (Units=GPa)
#
#
# Indices 1 2 3 4 5 6 
#
# 1 86.0817 -1.5812 24.5964 -6.5212 -11.5498 -5.5262
# 2 -1.5812 33.9881 20.7449 -6.4114 -5.2984 2.0480
# 3 24.5964 20.7449 74.4146 -19.0956 -1.0063 -17.8462
# 4 -6.5212 -6.4114 -19.0956 29.8363 -0.6264 -5.4716
# 5 -11.5498 -5.2984 -1.0063 -0.6264 23.1065 4.3395
# 6 -5.5262 2.0480 -17.8462 -5.4716 4.3395 21.9632
#
#
#
# Elastic Compliance Matrix: (Units=1/GPa)
#
#
# Indices 1 2 3 4 5 6 
#
# 1 0.015215 0.008066 -0.009341 -0.001996 0.010317 -0.007049
# 2 0.008066 0.048061 -0.024903 -0.008697 0.019109 -0.028630
# 3 -0.009341 -0.024903 0.039781 0.025391 -0.015798 0.041743
# 4 -0.001996 -0.008697 0.025391 0.053872 -0.007144 0.035772
# 5 0.010317 0.019109 -0.015798 -0.007144 0.056628 -0.024991
# 6 -0.007049 -0.028630 0.041743 0.035772 -0.024991 0.094194
#
#
# Mechanical properties :
#
#
# Convention : Reuss Voigt Hill
#
# Bulk Modulus (GPa) = 19.72417 31.33383 25.52900
# Shear Modulus (GPa) = 13.26237 25.02950 19.14593
#
# Velocity S-wave (km/s) = 2.58233 3.54754 3.10269
# Velocity P-wave (km/s) = 4.33690 5.70394 5.06673
#
# Compressibility (1/GPa) = 0.05069922
#
# Stress axis : x y z
#
# Youngs Moduli (GPa) = 65.72664 20.80703 25.13781
#
# Poissons Ratio (x) = -0.16782 0.23480
# Poissons Ratio (y) = -0.53013 0.62602
# Poissons Ratio (z) = 0.61392 0.51817
#
# Static dielectric constant tensor:
#      x y z
#    x 1.697590 -0.007350 0.023640 
#    y -0.007350 1.674820 -0.003380 
#    z 0.023640 -0.003380 1.697560 
# 
# From -- ./inp_files/381602.got.cif
#   From: 2010.05.17/outbox.cif.g08.bks.cpg/sg2_191_cif.got.tgz:381602.got - 2010.06.03 11:33:40.
