data_PCOD9097950
_publ_section_title
;
Structure prediction by ZEFSAII (Michael W. Deem and Ramdas Pophale) SiO2 
 PCOD9097950
Probable space group: P -1
;
_chemical_formula_sum "Si O2"
_cell_formula_units_Z 16
_cell_length_a 13.576179
_cell_length_b 12.379265
_cell_length_c 15.649099
_cell_angle_alpha 153.726338
_cell_angle_beta 46.238433
_cell_angle_gamma 147.209599
_cell_volume 608.941086
_symmetry_space_group_name_H-M "P -1"
_symmetry_group_IT_number 2
_symmetry_cell_setting 'triclinic'
loop_
_space_group_symop_operation_xyz
x,y,z
-x,-y,-z
loop_
_atom_site_type_symbol
_atom_site_label
_atom_site_fract_x
_atom_site_fract_y
_atom_site_fract_z
Si Si1 0.587786 0.146413 0.336663
Si Si2 0.651714 0.695012 0.623153
Si Si3 0.644922 0.489304 0.709729
Si Si4 0.152090 0.799253 0.348415
Si Si5 0.696546 0.500719 0.218653
Si Si6 0.163444 0.814389 0.013579
Si Si7 0.633898 0.500082 0.067824
Si Si8 0.841380 0.628236 0.862137
O O1 0.708618 0.484233 0.449527
O O2 0.647862 0.273196 0.486409
O O3 0.371606 0.981483 0.337517
O O4 0.562160 0.852782 0.103645
O O5 0.500000 0.500000 0.500000
O O6 0.509373 0.635757 0.737167
O O7 0.835485 0.071892 0.809376
O O8 0.430972 0.321589 0.730149
O O9 0.698020 0.465514 0.754704
O O10 0.772029 0.869995 0.861203
O O11 0.090878 0.565307 0.301069
O O12 0.023095 0.527688 0.159659
O O13 0.162544 0.102629 0.562273
O O14 0.719872 0.294358 0.117711
O O15 0.701108 0.449980 0.078604
O O16 0.767032 0.647308 0.010605
O O17 0.000000 0.000000 0.000000
#
# Coordination Sequence:
#
# PCOD9097950 Si02
#       8
#     2   2   2   2   2   2   2   2
#     4   9  21  39  65  93 135 173 225 269 336 398
#     4  10  20  36  62  94 131 179 222 271 324 402
#     4  11  22  44  71 102 131 182 231 277 335 402
#     4  10  21  42  63  92 135 179 212 281 339 391
#     4  11  22  41  62  99 138 174 225 275 336 415
#     4  11  21  37  69  95 138 172 219 277 335 398
#     4  11  22  42  71  99 134 183 225 281 340 399
#     4  11  24  45  71  94 139 176 230 289 337 398
#
# _framework density 26.275120000000001
#
# number of rings (size 3 to 8) (size 9 to 14) (size 15 to 20)
#    0.000    1.500    5.000    1.875    1.750    2.000 
#    2.250   14.375    0.000    0.000    0.000    0.000 
#    0.000    0.000    0.000    0.000    0.000    0.000 
#
# Total GULP energy -89179.038071 kJ/mol
# GULP energy per Si atom -5573.689879 kJ/mol
# Density = 2.621532 g / cm^3
# Si number density = 26.275120 Si / 1000 Ang^3
#
#
#
# Elastic Constant Matrix: (Units=GPa)
#
#
# Indices 1 2 3 4 5 6 
#
# 1 92.6962 29.7292 19.2153 -6.6713 15.6769 -27.1934
# 2 29.7292 84.3524 55.8661 -7.7788 11.4180 -37.9089
# 3 19.2153 55.8661 162.3380 8.7431 15.4675 -21.1344
# 4 -6.6713 -7.7788 8.7431 51.8463 -18.2718 3.1421
# 5 15.6769 11.4180 15.4675 -18.2718 48.8768 -1.2670
# 6 -27.1934 -37.9089 -21.1344 3.1421 -1.2670 35.0023
#
#
#
# Elastic Compliance Matrix: (Units=1/GPa)
#
#
# Indices 1 2 3 4 5 6 
#
# 1 0.014940 0.000982 0.000009 -0.000401 -0.004849 0.012536
# 2 0.000982 0.028897 -0.006244 0.002630 -0.003382 0.027931
# 3 0.000009 -0.006244 0.008528 -0.003155 -0.002459 -0.001412
# 4 -0.000401 0.002630 -0.003155 0.023498 0.009267 -0.001141
# 5 -0.004849 -0.003382 -0.002459 0.009267 0.026820 -0.008776
# 6 0.012536 0.027931 -0.001412 -0.001141 -0.008776 0.067492
#
#
# Mechanical properties :
#
#
# Convention : Reuss Voigt Hill
#
# Bulk Modulus (GPa) = 23.88936 61.00085 42.44511
# Shear Modulus (GPa) = 25.68928 42.78349 34.23638
#
# Velocity S-wave (km/s) = 3.13022 4.03958 3.61362
# Velocity P-wave (km/s) = 4.70915 6.71001 5.79657
#
# Compressibility (1/GPa) = 0.04185963
#
# Stress axis : x y z
#
# Youngs Moduli (GPa) = 66.93439 34.60552 117.26032
#
# Poissons Ratio (x) = -0.03397 -0.00111
# Poissons Ratio (y) = -0.06570 0.73215
# Poissons Ratio (z) = -0.00063 0.21607
#
# Static dielectric constant tensor:
#      x y z
#    x 2.160220 -0.029830 0.029370 
#    y -0.029830 2.239290 0.073330 
#    z 0.029370 0.073330 2.169210 
# 
# From -- ./inp_files/532797.got.cif
#   From: 2010.05.17/outbox.cif.g08.bks.cpg/sg2_267_cif.got.tgz:532797.got - 2010.06.03 11:33:40.
