data_PCOD9097271
_publ_section_title
;
Structure prediction by ZEFSAII (Michael W. Deem and Ramdas Pophale) SiO2 
 PCOD9097271
Probable space group: P -1
;
_chemical_formula_sum "Si O2"
_cell_formula_units_Z 16
_cell_length_a 21.349271
_cell_length_b 8.422204
_cell_length_c 7.274865
_cell_angle_alpha 103.188041
_cell_angle_beta 113.614795
_cell_angle_gamma 128.992269
_cell_volume 687.900255
_symmetry_space_group_name_H-M "P -1"
_symmetry_group_IT_number 2
_symmetry_cell_setting 'triclinic'
loop_
_space_group_symop_operation_xyz
x,y,z
-x,-y,-z
loop_
_atom_site_type_symbol
_atom_site_label
_atom_site_fract_x
_atom_site_fract_y
_atom_site_fract_z
Si Si1 0.085826 0.004001 0.218228
Si Si2 0.596547 0.546777 0.106899
Si Si3 0.434481 0.947762 0.726717
Si Si4 0.834482 0.497887 0.631775
Si Si5 0.899640 0.252538 0.555586
Si Si6 0.126265 0.842878 0.920282
Si Si7 0.342406 0.167676 0.084221
Si Si8 0.447303 0.629157 0.592441
O O1 0.128093 0.947264 0.392079
O O2 0.131874 0.025361 0.079910
O O3 0.137740 0.283170 0.395070
O O4 0.944470 0.729958 0.963849
O O5 0.686451 0.802101 0.137601
O O6 0.623685 0.549845 0.350194
O O7 0.500000 0.500000 0.000000
O O8 0.524695 0.259891 0.859045
O O9 0.301627 0.751677 0.540303
O O10 0.428503 0.776398 0.550885
O O11 0.500000 0.000000 0.000000
O O12 0.849572 0.344294 0.525488
O O13 0.907847 0.198991 0.343385
O O14 0.033357 0.557389 0.841074
O O15 0.416105 0.449320 0.345448
O O16 0.240334 0.955099 0.053460
O O17 0.419146 0.156192 0.144850
#
# Coordination Sequence:
#
# PCOD9097271 Si02
#       8
#     2   2   2   2   2   2   2   2
#     4  10  22  46  67  95 127 166 217 261 331 374
#     4   9  20  37  56  82 117 159 205 238 296 368
#     4  10  21  37  60  90 128 160 207 253 307 373
#     4  10  21  40  69  94 128 168 211 272 310 382
#     4  10  23  42  65  97 123 164 215 264 324 378
#     4  10  21  38  64  92 129 156 215 267 312 384
#     4  10  20  36  60  84 120 162 196 252 301 362
#     4   9  20  38  54  84 120 156 204 242 296 364
#
# _framework density 23.259184999999999
#
# number of rings (size 3 to 8) (size 9 to 14) (size 15 to 20)
#    0.000    2.250    0.000    2.250    5.250    3.500 
#   13.500   11.250    5.500    0.000    0.000    0.000 
#    0.000    0.000    0.000    0.000    0.000    0.000 
#
# Total GULP energy -89071.257493 kJ/mol
# GULP energy per Si atom -5566.953593 kJ/mol
# Density = 2.320625 g / cm^3
# Si number density = 23.259185 Si / 1000 Ang^3
#
#
#
# Elastic Constant Matrix: (Units=GPa)
#
#
# Indices 1 2 3 4 5 6 
#
# 1 132.8330 68.5303 28.7407 0.6157 11.4550 -20.6598
# 2 68.5303 114.3953 15.3033 1.5247 -13.8053 -22.3720
# 3 28.7407 15.3033 61.9899 -7.4343 2.7124 -10.2735
# 4 0.6157 1.5247 -7.4343 22.1689 -1.7335 -6.3337
# 5 11.4550 -13.8053 2.7124 -1.7335 41.8041 10.1533
# 6 -20.6598 -22.3720 -10.2735 -6.3337 10.1533 36.0442
#
#
#
# Elastic Compliance Matrix: (Units=1/GPa)
#
#
# Indices 1 2 3 4 5 6 
#
# 1 0.013422 -0.007662 -0.003448 -0.000450 -0.006933 0.003829
# 2 -0.007662 0.014649 0.000270 0.000681 0.006181 0.003157
# 3 -0.003448 0.000270 0.019618 0.008149 -0.001254 0.005568
# 4 -0.000450 0.000681 0.008149 0.051084 -0.000909 0.011720
# 5 -0.006933 0.006181 -0.001254 -0.000909 0.030126 -0.009140
# 6 0.003829 0.003157 0.005568 0.011720 -0.009140 0.038119
#
#
# Mechanical properties :
#
#
# Convention : Reuss Voigt Hill
#
# Bulk Modulus (GPa) = 38.44388 59.37410 48.90899
# Shear Modulus (GPa) = 25.33333 33.11304 29.22319
#
# Velocity S-wave (km/s) = 3.30385 3.77723 3.54844
# Velocity P-wave (km/s) = 5.57837 6.67876 6.15321
#
# Compressibility (1/GPa) = 0.02601195
#
# Stress axis : x y z
#
# Youngs Moduli (GPa) = 74.50206 68.26193 50.97238
#
# Poissons Ratio (x) = 0.52299 0.17574
# Poissons Ratio (y) = 0.57080 -0.01376
# Poissons Ratio (z) = 0.25686 -0.01843
#
# Static dielectric constant tensor:
#      x y z
#    x 1.916790 0.012370 0.061030 
#    y 0.012370 1.906700 0.056510 
#    z 0.061030 0.056510 2.068220 
# 
# From -- ./inp_files/351787.got.cif
#   From: 2010.05.17/outbox.cif.g08.bks.cpg/sg2_176_cif.got.tgz:351787.got - 2010.06.03 11:33:40.
