data_PCOD9097446
_publ_section_title
;
Structure prediction by ZEFSAII (Michael W. Deem and Ramdas Pophale) SiO2 
 PCOD9097446
Probable space group: P -1
;
_chemical_formula_sum "Si O2"
_cell_formula_units_Z 15
_cell_length_a 13.124238
_cell_length_b 13.574281
_cell_length_c 9.838767
_cell_angle_alpha 43.850929
_cell_angle_beta 126.965024
_cell_angle_gamma 148.227154
_cell_volume 639.067085
_symmetry_space_group_name_H-M "P -1"
_symmetry_group_IT_number 2
_symmetry_cell_setting 'triclinic'
loop_
_space_group_symop_operation_xyz
x,y,z
-x,-y,-z
loop_
_atom_site_type_symbol
_atom_site_label
_atom_site_fract_x
_atom_site_fract_y
_atom_site_fract_z
Si Si1 0.625102 0.480167 0.557273
Si Si2 0.766382 0.517514 0.353079
Si Si3 0.150951 0.959097 0.096413
Si Si4 0.500000 0.500000 0.000000
Si Si5 0.432270 0.945276 0.344389
Si Si6 0.160336 0.126516 0.209187
Si Si7 0.018990 0.850618 0.617675
Si Si8 0.370803 0.989692 0.811430
O O1 0.500000 0.500000 0.500000
O O2 0.729095 0.580291 0.395042
O O3 0.481428 0.231178 0.666858
O O4 0.807037 0.608956 0.673389
O O5 0.617218 0.454758 0.187165
O O6 0.716644 0.311277 0.541488
O O7 0.983384 0.728277 0.266972
O O8 0.324726 0.000652 0.161846
O O9 0.222535 0.133518 0.095168
O O10 0.032787 0.942509 0.900887
O O11 0.357144 0.372516 0.154150
O O12 0.609246 0.062852 0.268776
O O13 0.500000 0.000000 0.500000
O O14 0.121888 0.965598 0.439171
O O15 0.152750 0.853616 0.803835
O O16 0.000000 0.000000 0.500000
O O17 0.500000 0.000000 0.000000
#
# Coordination Sequence:
#
# PCOD9097446 Si02
#       8
#     2   2   2   1   2   2   2   2
#     4  11  23  44  72  98 135 191 234 284 351 417
#     4  10  21  39  61  92 132 167 222 277 338 409
#     4  10  20  37  61  91 124 170 212 272 331 403
#     4  10  20  36  60  92 128 162 212 280 336 392
#     4  11  23  40  65  92 133 174 222 272 355 404
#     4  10  21  38  63  95 127 167 222 278 330 396
#     4  12  24  43  73  97 137 184 239 280 348 420
#     4  11  27  48  67 104 143 181 234 298 346 421
#
# _framework density 23.471710999999999
#
# number of rings (size 3 to 8) (size 9 to 14) (size 15 to 20)
#    0.000    1.333    2.667    3.600    1.867    0.533 
#    2.400    0.000    0.000    0.000    0.000    0.000 
#    0.000    0.000    0.000    0.000    0.000    0.000 
#
# Total GULP energy -83565.512197 kJ/mol
# GULP energy per Si atom -5571.034146 kJ/mol
# Density = 2.341829 g / cm^3
# Si number density = 23.471711 Si / 1000 Ang^3
#
#
#
# Elastic Constant Matrix: (Units=GPa)
#
#
# Indices 1 2 3 4 5 6 
#
# 1 110.6507 25.2515 27.1566 19.4874 32.2213 -3.2075
# 2 25.2515 55.2021 -4.5242 27.0520 11.6649 10.8929
# 3 27.1566 -4.5242 67.8758 21.9151 30.7577 3.3504
# 4 19.4874 27.0520 21.9151 38.6648 12.4508 9.4443
# 5 32.2213 11.6649 30.7577 12.4508 41.8472 7.0829
# 6 -3.2075 10.8929 3.3504 9.4443 7.0829 30.5654
#
#
#
# Elastic Compliance Matrix: (Units=1/GPa)
#
#
# Indices 1 2 3 4 5 6 
#
# 1 0.013406 -0.005574 -0.002308 -0.000368 -0.007909 0.005593
# 2 -0.005574 0.043379 0.022650 -0.034975 -0.013255 -0.004649
# 3 -0.002308 0.022650 0.036936 -0.028507 -0.023524 0.001897
# 4 -0.000368 -0.034975 -0.028507 0.064247 0.013112 -0.007340
# 5 -0.007909 -0.013255 -0.023524 0.013112 0.048565 -0.008833
# 6 0.005593 -0.004649 0.001897 -0.007340 -0.008833 0.039067
#
#
# Mechanical properties :
#
#
# Convention : Reuss Voigt Hill
#
# Bulk Modulus (GPa) = 8.11317 36.61073 22.36195
# Shear Modulus (GPa) = 19.44388 34.60511 27.02450
#
# Velocity S-wave (km/s) = 2.88131 3.84387 3.39686
# Velocity P-wave (km/s) = 3.81226 5.94408 4.99327
#
# Compressibility (1/GPa) = 0.12325635
#
# Stress axis : x y z
#
# Youngs Moduli (GPa) = 74.59379 23.05265 27.07377
#
# Poissons Ratio (x) = 0.12848 0.06250
# Poissons Ratio (y) = 0.41575 -0.61321
# Poissons Ratio (z) = 0.17219 -0.52213
#
# Static dielectric constant tensor:
#      x y z
#    x 1.965730 -0.020830 -0.050400 
#    y -0.020830 1.383390 0.004920 
#    z -0.050400 0.004920 1.930630 
# 
# From -- ./inp_files/454543.got.cif
#   From: 2010.05.17/outbox.cif.g08.bks.cpg/sg2_228_cif.got.tgz:454543.got - 2010.06.03 11:33:40.
