data_PCOD9097974
_publ_section_title
;
Structure prediction by ZEFSAII (Michael W. Deem and Ramdas Pophale) SiO2 
 PCOD9097974
Probable space group: P -1
;
_chemical_formula_sum "Si O2"
_cell_formula_units_Z 13
_cell_length_a 11.611507
_cell_length_b 8.958872
_cell_length_c 5.256612
_cell_angle_alpha 78.557889
_cell_angle_beta 76.506664
_cell_angle_gamma 69.749284
_cell_volume 494.699373
_symmetry_space_group_name_H-M "P -1"
_symmetry_group_IT_number 2
_symmetry_cell_setting 'triclinic'
loop_
_space_group_symop_operation_xyz
x,y,z
-x,-y,-z
loop_
_atom_site_type_symbol
_atom_site_label
_atom_site_fract_x
_atom_site_fract_y
_atom_site_fract_z
Si Si1 0.674274 0.355288 0.038302
Si Si2 0.540706 0.749209 0.582105
Si Si3 0.500000 0.000000 0.000000
Si Si4 0.207281 0.434060 0.332967
Si Si5 0.014778 0.248406 0.505315
Si Si6 0.341027 0.867931 0.260869
Si Si7 0.116651 0.923135 0.737225
O O1 0.719356 0.508648 0.951824
O O2 0.639189 0.308557 0.792879
O O3 0.560392 0.343705 0.273194
O O4 0.794528 0.199603 0.073636
O O5 0.680931 0.640485 0.501779
O O6 0.476599 0.855830 0.330682
O O7 0.546427 0.850259 0.796597
O O8 0.352262 0.000361 0.015074
O O9 0.103688 0.597966 0.421458
O O10 0.129582 0.313289 0.367387
O O11 0.974487 0.159313 0.322055
O O12 0.047926 0.110608 0.754391
O O13 0.221821 0.924905 0.472455
#
# Coordination Sequence:
#
# PCOD9097974 Si02
#       7
#     2   2   1   2   2   2   2
#     4  10  22  40  69  95 126 168 222 262 331 378
#     4  10  22  39  66  94 135 164 211 270 332 380
#     4  10  20  36  62  98 122 172 208 260 320 388
#     4  11  22  42  63 100 134 168 214 271 322 390
#     4  10  23  41  67  91 133 178 217 263 328 369
#     4  10  20  39  64  96 128 166 215 268 319 384
#     4  10  21  44  67  92 127 179 219 268 310 394
#
# _framework density 26.278585
#
# number of rings (size 3 to 8) (size 9 to 14) (size 15 to 20)
#    0.000    1.846    1.538    1.846    0.000    4.308 
#    5.538    0.000    0.000    0.000    0.000    0.000 
#    0.000    0.000    0.000    0.000    0.000    0.000 
#
# Total GULP energy -72456.232979 kJ/mol
# GULP energy per Si atom -5573.556383 kJ/mol
# Density = 2.621877 g / cm^3
# Si number density = 26.278585 Si / 1000 Ang^3
#
#
#
# Elastic Constant Matrix: (Units=GPa)
#
#
# Indices 1 2 3 4 5 6 
#
# 1 202.6853 84.4464 43.0323 -27.3378 -22.6125 9.9645
# 2 84.4464 153.8115 42.8495 -29.8955 4.1595 5.7560
# 3 43.0323 42.8495 58.0177 7.0821 1.7767 11.4317
# 4 -27.3378 -29.8955 7.0821 28.9877 6.1622 -9.3442
# 5 -22.6125 4.1595 1.7767 6.1622 33.5108 -13.6560
# 6 9.9645 5.7560 11.4317 -9.3442 -13.6560 59.5921
#
#
#
# Elastic Compliance Matrix: (Units=1/GPa)
#
#
# Indices 1 2 3 4 5 6 
#
# 1 0.008651 -0.001572 -0.006912 0.007793 0.006041 0.002637
# 2 -0.001572 0.014195 -0.011978 0.017965 -0.004256 0.003031
# 3 -0.006912 -0.011978 0.037110 -0.030502 -0.003798 -0.010459
# 4 0.007793 0.017965 -0.030502 0.072868 -0.003255 0.013493
# 5 0.006041 -0.004256 -0.003798 -0.003255 0.038705 0.008489
# 6 0.002637 0.003031 -0.010459 0.013493 0.008489 0.022114
#
#
# Mechanical properties :
#
#
# Convention : Reuss Voigt Hill
#
# Bulk Modulus (GPa) = 52.54078 83.90789 68.22433
# Shear Modulus (GPa) = 20.75467 40.69720 30.72593
#
# Velocity S-wave (km/s) = 2.81338 3.93960 3.42312
# Velocity P-wave (km/s) = 5.53088 7.25902 6.45306
#
# Compressibility (1/GPa) = 0.01903283
#
# Stress axis : x y z
#
# Youngs Moduli (GPa) = 115.58696 70.44941 26.94725
#
# Poissons Ratio (x) = 0.11073 0.18626
# Poissons Ratio (y) = 0.18167 0.32276
# Poissons Ratio (z) = 0.79894 0.84382
#
# Static dielectric constant tensor:
#      x y z
#    x 2.127120 0.000370 -0.029770 
#    y 0.000370 2.150930 -0.196010 
#    z -0.029770 -0.196010 2.606470 
# 
# From -- ./inp_files/59167.got.cif
#   From: 2010.05.17/outbox.cif.g08.bks.cpg/sg2_30_cif.got.tgz:59167.got - 2010.06.03 11:33:40.
