data_PCOD9097111
_publ_section_title
;
Structure prediction by ZEFSAII (Michael W. Deem and Ramdas Pophale) SiO2 
 PCOD9097111
Probable space group: P -1
;
_chemical_formula_sum "Si O2"
_cell_formula_units_Z 16
_cell_length_a 14.158285
_cell_length_b 9.955569
_cell_length_c 11.507869
_cell_angle_alpha 98.872438
_cell_angle_beta 153.739874
_cell_angle_gamma 70.893525
_cell_volume 639.392630
_symmetry_space_group_name_H-M "P -1"
_symmetry_group_IT_number 2
_symmetry_cell_setting 'triclinic'
loop_
_space_group_symop_operation_xyz
x,y,z
-x,-y,-z
loop_
_atom_site_type_symbol
_atom_site_label
_atom_site_fract_x
_atom_site_fract_y
_atom_site_fract_z
Si Si1 0.748016 0.916613 0.659985
Si Si2 0.261162 0.821230 0.157430
Si Si3 0.939007 0.189792 0.624107
Si Si4 0.535473 0.760072 0.994860
Si Si5 0.646592 0.354875 0.528329
Si Si6 0.151804 0.431367 0.866386
Si Si7 0.727047 0.630861 0.568857
Si Si8 0.563626 0.017920 0.894952
O O1 0.771918 0.754839 0.709894
O O2 0.542893 0.983029 0.347856
O O3 0.719171 0.034419 0.744486
O O4 0.985879 0.876877 0.843465
O O5 0.330410 0.701624 0.323810
O O6 0.445105 0.730331 0.247712
O O7 0.720104 0.239883 0.300833
O O8 0.815722 0.214131 0.616624
O O9 0.061655 0.302933 0.770222
O O10 0.155548 0.031417 0.814230
O O11 0.526622 0.893317 0.916005
O O12 0.737992 0.604823 0.147141
O O13 0.561859 0.823529 0.156086
O O14 0.737097 0.483218 0.623666
O O15 0.379880 0.408522 0.193033
O O16 0.922693 0.577250 0.676198
#
# Coordination Sequence:
#
# PCOD9097111 Si02
#       8
#     2   2   2   2   2   2   2   2
#     4  11  25  40  56  86 122 155 194 243 297 345
#     4  11  24  41  59  84 119 160 199 241 289 344
#     4   9  17  32  59  90 116 146 191 244 290 340
#     4   9  18  35  62  91 116 148 196 244 289 345
#     4  10  21  38  61  87 118 155 200 243 282 340
#     4   9  19  36  59  88 116 147 192 245 289 339
#     4  11  23  39  61  86 118 158 199 240 291 348
#     4  10  20  36  59  87 120 156 192 239 295 350
#
# _framework density 25.023748999999999
#
# number of rings (size 3 to 8) (size 9 to 14) (size 15 to 20)
#    0.000    2.000    0.000    4.125    0.000    7.000 
#    0.000    0.625    0.000    7.500    0.000    0.000 
#    0.000    0.000    0.000    0.000    0.000    0.000 
#
# Total GULP energy -89417.460248 kJ/mol
# GULP energy per Si atom -5588.591265 kJ/mol
# Density = 2.496679 g / cm^3
# Si number density = 25.023749 Si / 1000 Ang^3
#
#
#
# Elastic Constant Matrix: (Units=GPa)
#
#
# Indices 1 2 3 4 5 6 
#
# 1 69.2623 38.8225 38.3949 -1.3216 17.7607 -3.5803
# 2 38.8225 137.4309 34.5604 -7.7843 15.8887 -2.8865
# 3 38.3949 34.5604 114.8464 -11.8545 35.2090 -3.6105
# 4 -1.3216 -7.7843 -11.8545 37.7346 -8.0713 13.9726
# 5 17.7607 15.8887 35.2090 -8.0713 35.9751 -11.1821
# 6 -3.5803 -2.8865 -3.6105 13.9726 -11.1821 39.8485
#
#
#
# Elastic Compliance Matrix: (Units=1/GPa)
#
#
# Indices 1 2 3 4 5 6 
#
# 1 0.020399 -0.004290 -0.004544 -0.002823 -0.004064 0.000960
# 2 -0.004290 0.008867 -0.000854 0.001442 -0.000811 -0.000554
# 3 -0.004544 -0.000854 0.014295 0.002932 -0.011804 -0.003516
# 4 -0.002823 0.001442 0.002932 0.031915 0.001758 -0.010581
# 5 -0.004064 -0.000811 -0.011804 0.001758 0.045415 0.010634
# 6 0.000960 -0.000554 -0.003516 -0.010581 0.010634 0.031517
#
#
# Mechanical properties :
#
#
# Convention : Reuss Voigt Hill
#
# Bulk Modulus (GPa) = 41.34836 60.56612 50.95724
# Shear Modulus (GPa) = 27.80193 36.69577 32.24885
#
# Velocity S-wave (km/s) = 3.33682 3.83356 3.59378
# Velocity P-wave (km/s) = 5.60404 6.62200 6.13418
#
# Compressibility (1/GPa) = 0.02418476
#
# Stress axis : x y z
#
# Youngs Moduli (GPa) = 49.02165 112.78097 69.95666
#
# Poissons Ratio (x) = 0.48379 0.31789
# Poissons Ratio (y) = 0.21029 0.05975
# Poissons Ratio (z) = 0.22276 0.09632
#
# Static dielectric constant tensor:
#      x y z
#    x 2.007370 0.005340 0.081060 
#    y 0.005340 2.029500 -0.021300 
#    z 0.081060 -0.021300 1.990230 
# 
# From -- ./inp_files/538268.got.cif
#   From: 2010.05.17/outbox.cif.g08.bks.cpg/sg2_270_cif.got.tgz:538268.got - 2010.06.03 11:33:40.
