data_PCOD9097594
_publ_section_title
;
Structure prediction by ZEFSAII (Michael W. Deem and Ramdas Pophale) SiO2 
 PCOD9097594
Probable space group: P -1
;
_chemical_formula_sum "Si O2"
_cell_formula_units_Z 12
_cell_length_a 5.248004
_cell_length_b 14.617285
_cell_length_c 11.115230
_cell_angle_alpha 125.715871
_cell_angle_beta 123.894133
_cell_angle_gamma 85.469080
_cell_volume 534.823729
_symmetry_space_group_name_H-M "P -1"
_symmetry_group_IT_number 2
_symmetry_cell_setting 'triclinic'
loop_
_space_group_symop_operation_xyz
x,y,z
-x,-y,-z
loop_
_atom_site_type_symbol
_atom_site_label
_atom_site_fract_x
_atom_site_fract_y
_atom_site_fract_z
Si Si1 0.157299 0.916175 0.407409
Si Si2 0.343386 0.150048 0.985503
Si Si3 0.231906 0.505536 0.332597
Si Si4 0.683705 0.418828 0.274949
Si Si5 0.939464 0.109105 0.181242
Si Si6 0.709447 0.223362 0.440950
O O1 0.209995 0.826858 0.451087
O O2 0.891514 0.849512 0.185137
O O3 0.500000 0.000000 0.500000
O O4 0.000000 0.000000 0.500000
O O5 0.142227 0.031609 0.919605
O O6 0.489394 0.286904 0.177397
O O7 0.676660 0.122603 0.026993
O O8 0.500000 0.500000 0.500000
O O9 0.417497 0.482666 0.246945
O O10 0.183171 0.632456 0.418536
O O11 0.873327 0.407876 0.195318
O O12 0.000000 0.500000 0.500000
O O13 0.862009 0.170675 0.330701
O O14 0.313190 0.173798 0.293188
#
# Coordination Sequence:
#
# PCOD9097594 Si02
#       6
#     2   2   2   2   2   2
#     4  12  25  45  63  97 137 174 206 265 340 396
#     4  11  24  42  66 100 132 170 218 274 322 390
#     4  10  20  36  61  89 122 168 214 257 310 372
#     4  10  21  38  60  88 127 166 211 262 317 366
#     4  11  24  38  68 100 129 163 224 273 329 378
#     4  12  22  44  67  96 134 175 212 268 331 391
#
# _framework density 22.4373
#
# number of rings (size 3 to 8) (size 9 to 14) (size 15 to 20)
#    0.000    1.000    3.333    5.000    0.000    6.667 
#    0.000    1.667    0.000    0.000    0.000    0.000 
#    0.000    0.000    0.000    0.000    0.000    0.000 
#
# Total GULP energy -67023.109818 kJ/mol
# GULP energy per Si atom -5585.259151 kJ/mol
# Density = 2.238623 g / cm^3
# Si number density = 22.437300 Si / 1000 Ang^3
#
#
#
# Elastic Constant Matrix: (Units=GPa)
#
#
# Indices 1 2 3 4 5 6 
#
# 1 168.9532 36.8032 25.3666 6.1235 5.5467 -2.5450
# 2 36.8032 145.2536 42.6444 7.2911 4.3546 4.7592
# 3 25.3666 42.6444 80.4205 4.0415 9.7364 4.4327
# 4 6.1235 7.2911 4.0415 51.5716 -4.5821 3.2711
# 5 5.5467 4.3546 9.7364 -4.5821 24.7940 6.1506
# 6 -2.5450 4.7592 4.4327 3.2711 6.1506 21.2749
#
#
#
# Elastic Compliance Matrix: (Units=1/GPa)
#
#
# Indices 1 2 3 4 5 6 
#
# 1 0.006480 -0.001248 -0.001288 -0.000723 -0.001308 0.001812
# 2 -0.001248 0.008445 -0.004057 -0.000594 0.000595 -0.001274
# 3 -0.001288 -0.004057 0.015706 -0.000901 -0.005109 -0.000903
# 4 -0.000723 -0.000594 -0.000901 0.020405 0.005506 -0.004495
# 5 -0.001308 0.000595 -0.005109 0.005506 0.046928 -0.013638
# 6 0.001812 -0.001274 -0.000903 -0.004495 -0.013638 0.052328
#
#
# Mechanical properties :
#
#
# Convention : Reuss Voigt Hill
#
# Bulk Modulus (GPa) = 57.31568 67.13952 62.22760
# Shear Modulus (GPa) = 29.53482 38.84898 34.19190
#
# Velocity S-wave (km/s) = 3.63206 4.16558 3.90793
# Velocity P-wave (km/s) = 6.57186 7.28864 6.93951
#
# Compressibility (1/GPa) = 0.01744723
#
# Stress axis : x y z
#
# Youngs Moduli (GPa) = 154.31204 118.40791 63.67171
#
# Poissons Ratio (x) = 0.14775 0.08198
# Poissons Ratio (y) = 0.19255 0.25830
# Poissons Ratio (z) = 0.19869 0.48035
#
# Static dielectric constant tensor:
#      x y z
#    x 1.972020 0.068380 -0.123870 
#    y 0.068380 1.873270 -0.053290 
#    z -0.123870 -0.053290 1.912830 
# 
# From -- ./inp_files/32970.got.cif
#   From: 2010.05.17/outbox.cif.g08.bks.cpg/sg2_17_cif.got.tgz:32970.got - 2010.06.03 11:33:40.
