data_PCOD9097935
_publ_section_title
;
Structure prediction by ZEFSAII (Michael W. Deem and Ramdas Pophale) SiO2 
 PCOD9097935
Probable space group: P -1
;
_chemical_formula_sum "Si O2"
_cell_formula_units_Z 11
_cell_length_a 11.879404
_cell_length_b 12.079551
_cell_length_c 8.018912
_cell_angle_alpha 126.437837
_cell_angle_beta 144.080087
_cell_angle_gamma 40.051496
_cell_volume 433.357429
_symmetry_space_group_name_H-M "P -1"
_symmetry_group_IT_number 2
_symmetry_cell_setting 'triclinic'
loop_
_space_group_symop_operation_xyz
x,y,z
-x,-y,-z
loop_
_atom_site_type_symbol
_atom_site_label
_atom_site_fract_x
_atom_site_fract_y
_atom_site_fract_z
Si Si1 0.539018 0.888842 0.785985
Si Si2 0.797781 0.755269 0.427486
Si Si3 0.999880 0.728148 0.982171
Si Si4 0.531771 0.648402 0.791043
Si Si5 0.734868 0.330455 0.213071
Si Si6 0.000000 0.000000 0.000000
O O1 0.804073 0.799979 0.956277
O O2 0.495536 0.754044 0.676663
O O3 0.337374 0.035450 0.548659
O O4 0.500000 0.000000 0.000000
O O5 0.877511 0.692334 0.653272
O O6 0.036121 0.669461 0.528191
O O7 0.634274 0.712245 0.109696
O O8 0.021568 0.868661 0.053838
O O9 0.260365 0.551985 0.169135
O O10 0.310475 0.684743 0.661982
O O11 0.500000 0.500000 0.000000
O O12 0.813020 0.168173 0.048550
#
# Coordination Sequence:
#
# PCOD9097935 Si02
#       6
#     2   2   2   2   2   1
#     4  10  22  39  62  91 131 168 208 263 323 379
#     4  10  22  40  65  96 123 170 212 263 314 381
#     4  11  21  39  66  95 124 172 218 257 317 379
#     4  11  22  42  66  94 134 165 206 272 321 375
#     4  11  22  40  64  95 128 165 214 265 312 375
#     4  10  20  36  62  94 124 162 212 260 312 362
#
# _framework density 25.383206000000001
#
# number of rings (size 3 to 8) (size 9 to 14) (size 15 to 20)
#    0.000    1.455    3.636    3.818    0.000    2.182 
#    0.000    1.818    0.000    9.818    0.000    0.000 
#    0.000    0.000    0.000    0.000    0.000    0.000 
#
# Total GULP energy -61416.663494 kJ/mol
# GULP energy per Si atom -5583.333045 kJ/mol
# Density = 2.532543 g / cm^3
# Si number density = 25.383206 Si / 1000 Ang^3
#
#
#
# Elastic Constant Matrix: (Units=GPa)
#
#
# Indices 1 2 3 4 5 6 
#
# 1 196.3516 74.3692 14.8474 3.9537 7.0905 -34.9784
# 2 74.3692 200.4924 13.7649 -17.6339 -0.1068 4.0098
# 3 14.8474 13.7649 66.9642 -3.9002 -0.7154 -10.4111
# 4 3.9537 -17.6339 -3.9002 27.5099 -4.3580 7.3944
# 5 7.0905 -0.1068 -0.7154 -4.3580 23.6432 -7.0553
# 6 -34.9784 4.0098 -10.4111 7.3944 -7.0553 48.6584
#
#
#
# Elastic Compliance Matrix: (Units=1/GPa)
#
#
# Indices 1 2 3 4 5 6 
#
# 1 0.007704 -0.003427 -0.000340 -0.005282 -0.001416 0.006345
# 2 -0.003427 0.006934 -0.000928 0.006034 0.000946 -0.004013
# 3 -0.000340 -0.000928 0.015795 0.001085 0.001761 0.003302
# 4 -0.005282 0.006034 0.001085 0.044889 0.006972 -0.009873
# 5 -0.001416 0.000946 0.001761 0.006972 0.045501 0.004819
# 6 0.006345 -0.004013 0.003302 -0.009873 0.004819 0.028349
#
#
# Mechanical properties :
#
#
# Convention : Reuss Voigt Hill
#
# Bulk Modulus (GPa) = 47.52002 74.41902 60.96952
# Shear Modulus (GPa) = 30.19756 44.01743 37.10750
#
# Velocity S-wave (km/s) = 3.45290 4.16879 3.82762
# Velocity P-wave (km/s) = 5.88713 7.24939 6.60348
#
# Compressibility (1/GPa) = 0.02104376
#
# Stress axis : x y z
#
# Youngs Moduli (GPa) = 129.79723 144.21775 63.31175
#
# Poissons Ratio (x) = 0.49418 0.02153
# Poissons Ratio (y) = 0.44477 0.05875
# Poissons Ratio (z) = 0.04414 0.13383
#
# Static dielectric constant tensor:
#      x y z
#    x 1.995930 0.127480 0.204710 
#    y 0.127480 2.124660 0.343430 
#    z 0.204710 0.343430 3.045720 
# 
# From -- ./inp_files/160462.got.cif
#   From: 2010.05.17/outbox.cif.g08.bks.cpg/sg2_81_cif.got.tgz:160462.got - 2010.06.03 11:33:40.
