data_PCOD9097323
_publ_section_title
;
Structure prediction by ZEFSAII (Michael W. Deem and Ramdas Pophale) SiO2 
 PCOD9097323
Probable space group: P -1
;
_chemical_formula_sum "Si O2"
_cell_formula_units_Z 16
_cell_length_a 20.615759
_cell_length_b 11.997677
_cell_length_c 8.285365
_cell_angle_alpha 36.732710
_cell_angle_beta 42.707124
_cell_angle_gamma 31.469434
_cell_volume 631.161015
_symmetry_space_group_name_H-M "P -1"
_symmetry_group_IT_number 2
_symmetry_cell_setting 'triclinic'
loop_
_space_group_symop_operation_xyz
x,y,z
-x,-y,-z
loop_
_atom_site_type_symbol
_atom_site_label
_atom_site_fract_x
_atom_site_fract_y
_atom_site_fract_z
Si Si1 0.297931 0.611032 0.732734
Si Si2 0.863276 0.828751 0.948837
Si Si3 0.382697 0.791182 0.593389
Si Si4 0.435016 0.110377 0.231358
Si Si5 0.970342 0.875552 0.377127
Si Si6 0.901258 0.913202 0.116614
Si Si7 0.323786 0.239556 0.627801
Si Si8 0.358691 0.585296 0.300156
O O1 0.368327 0.710473 0.541906
O O2 0.151692 0.835777 0.757719
O O3 0.323291 0.530095 0.597762
O O4 0.354265 0.385189 0.005777
O O5 0.934890 0.805037 0.683974
O O6 0.738400 0.119803 0.863305
O O7 0.937214 0.765464 0.055276
O O8 0.810253 0.687598 0.191880
O O9 0.244920 0.944427 0.744719
O O10 0.492552 0.563881 0.769094
O O11 0.417464 0.962119 0.314354
O O12 0.376194 0.114035 0.503533
O O13 0.579468 0.962919 0.181337
O O14 0.974549 0.770564 0.315713
O O15 0.079460 0.889691 0.180108
O O16 0.334979 0.449228 0.375514
#
# Coordination Sequence:
#
# PCOD9097323 Si02
#       8
#     2   2   2   2   2   2   2   2
#     4  10  21  37  59  84 119 158 193 246 294 346
#     4  11  21  40  65  85 120 161 191 247 301 349
#     4  10  20  36  60  87 117 156 195 235 296 362
#     4  10  21  36  56  85 123 156 190 237 292 356
#     4   9  22  39  60  91 113 151 213 246 287 351
#     4  10  20  38  62  88 114 158 201 245 298 342
#     4  10  22  36  55  89 122 154 193 235 293 368
#     4  10  23  35  57  94 121 148 195 240 296 362
#
# _framework density 25.350107999999999
#
# number of rings (size 3 to 8) (size 9 to 14) (size 15 to 20)
#    0.000    2.000    1.250    1.500    3.500    7.500 
#    0.000    0.625    0.000   11.250    0.000    0.000 
#    0.000    0.000    0.000    0.000    0.000    0.000 
#
# Total GULP energy -89506.598240 kJ/mol
# GULP energy per Si atom -5594.162390 kJ/mol
# Density = 2.529241 g / cm^3
# Si number density = 25.350108 Si / 1000 Ang^3
#
#
#
# Elastic Constant Matrix: (Units=GPa)
#
#
# Indices 1 2 3 4 5 6 
#
# 1 90.9313 26.4231 30.9628 8.9682 -6.2193 -9.3340
# 2 26.4231 63.4023 2.8176 -14.2117 -5.7989 -3.3528
# 3 30.9628 2.8176 74.4533 10.5805 -8.4188 8.7012
# 4 8.9682 -14.2117 10.5805 32.0164 2.8664 12.1660
# 5 -6.2193 -5.7989 -8.4188 2.8664 42.1349 5.7521
# 6 -9.3340 -3.3528 8.7012 12.1660 5.7521 21.4213
#
#
#
# Elastic Compliance Matrix: (Units=1/GPa)
#
#
# Indices 1 2 3 4 5 6 
#
# 1 0.020252 -0.010520 -0.008398 -0.014809 -0.001788 0.019480
# 2 -0.010520 0.023407 0.002858 0.016855 0.002786 -0.012402
# 3 -0.008398 0.002858 0.018568 0.002076 0.004517 -0.013146
# 4 -0.014809 0.016855 0.002076 0.056071 0.001783 -0.036982
# 5 -0.001788 0.002786 0.004517 0.001783 0.026024 -0.010179
# 6 0.019480 -0.012402 -0.013146 -0.036982 -0.010179 0.082306
#
#
# Mechanical properties :
#
#
# Convention : Reuss Voigt Hill
#
# Bulk Modulus (GPa) = 33.21547 38.79933 36.00740
# Shear Modulus (GPa) = 18.60245 30.35341 24.47793
#
# Velocity S-wave (km/s) = 2.71185 3.46405 3.11077
# Velocity P-wave (km/s) = 4.78922 5.59805 5.20936
#
# Compressibility (1/GPa) = 0.03010645
#
# Stress axis : x y z
#
# Youngs Moduli (GPa) = 49.37863 42.72314 53.85685
#
# Poissons Ratio (x) = 0.44943 0.45230
# Poissons Ratio (y) = 0.51945 -0.15393
# Poissons Ratio (z) = 0.41469 -0.12211
#
# Static dielectric constant tensor:
#      x y z
#    x 2.000170 -0.009800 0.023960 
#    y -0.009800 2.001530 0.003470 
#    z 0.023960 0.003470 1.967100 
# 
# From -- ./inp_files/295804.got.cif
#   From: 2010.05.17/outbox.cif.g08.bks.cpg/sg2_148_cif.got.tgz:295804.got - 2010.06.03 11:33:40.
