data_PCOD9097078
_publ_section_title
;
Structure prediction by ZEFSAII (Michael W. Deem and Ramdas Pophale) SiO2 
 PCOD9097078
Probable space group: P -1
;
_chemical_formula_sum "Si O2"
_cell_formula_units_Z 16
_cell_length_a 5.844754
_cell_length_b 9.581639
_cell_length_c 22.929587
_cell_angle_alpha 140.211059
_cell_angle_beta 108.269080
_cell_angle_gamma 53.002868
_cell_volume 627.848613
_symmetry_space_group_name_H-M "P -1"
_symmetry_group_IT_number 2
_symmetry_cell_setting 'triclinic'
loop_
_space_group_symop_operation_xyz
x,y,z
-x,-y,-z
loop_
_atom_site_type_symbol
_atom_site_label
_atom_site_fract_x
_atom_site_fract_y
_atom_site_fract_z
Si Si1 0.979993 0.179031 0.931709
Si Si2 0.356944 0.665445 0.685809
Si Si3 0.217874 0.097181 0.552334
Si Si4 0.876912 0.470427 0.897023
Si Si5 0.808346 0.709697 0.674527
Si Si6 0.754390 0.018852 0.945870
Si Si7 0.368571 0.394773 0.196433
Si Si8 0.426125 0.319986 0.470836
O O1 0.970479 0.277328 0.897640
O O2 0.739488 0.133604 0.917914
O O3 0.295024 0.885962 0.875880
O O4 0.925251 0.416598 0.046752
O O5 0.484259 0.820209 0.714259
O O6 0.569560 0.509109 0.708663
O O7 0.385013 0.455412 0.574089
O O8 0.011283 0.818522 0.728536
O O9 0.008463 0.415706 0.626008
O O10 0.500000 0.000000 0.500000
O O11 0.349106 0.994730 0.594753
O O12 0.000000 0.000000 0.500000
O O13 0.800140 0.405073 0.807402
O O14 0.558671 0.754022 0.977493
O O15 0.786092 0.676296 0.592445
O O16 0.812254 0.733000 0.850642
O O17 0.000000 0.000000 0.000000
O O18 0.500000 0.500000 0.500000
#
# Coordination Sequence:
#
# PCOD9097078 Si02
#       8
#     2   2   2   2   2   2   2   2
#     4  10  20  37  59  86 115 150 205 244 291 364
#     4  11  24  39  65  88 129 168 199 257 322 373
#     4  12  21  36  65  95 119 152 208 263 303 360
#     4  10  20  36  59  86 114 154 198 250 295 354
#     4  11  23  43  63  93 121 165 215 257 307 371
#     4  11  18  35  64  88 112 157 201 251 299 357
#     4  11  23  38  56  86 123 158 195 249 314 365
#     4  10  21  41  67  93 121 161 212 259 307 362
#
# _framework density 25.483848999999999
#
# number of rings (size 3 to 8) (size 9 to 14) (size 15 to 20)
#    0.000    1.250    6.250    1.500    1.750    0.000 
#    0.000    5.000    0.000    0.000    0.000    0.000 
#    0.000    0.000    0.000    0.000    0.000    0.000 
#
# Total GULP energy -89073.420790 kJ/mol
# GULP energy per Si atom -5567.088799 kJ/mol
# Density = 2.542585 g / cm^3
# Si number density = 25.483849 Si / 1000 Ang^3
#
#
#
# Elastic Constant Matrix: (Units=GPa)
#
#
# Indices 1 2 3 4 5 6 
#
# 1 134.6593 25.5406 26.7899 -12.1001 24.8429 4.2930
# 2 25.5406 160.5940 38.7444 -42.4394 12.8861 10.4792
# 3 26.7899 38.7444 84.6425 -36.4150 11.7403 0.6322
# 4 -12.1001 -42.4394 -36.4150 51.3825 2.1061 1.8976
# 5 24.8429 12.8861 11.7403 2.1061 31.9009 -2.8942
# 6 4.2930 10.4792 0.6322 1.8976 -2.8942 39.0542
#
#
#
# Elastic Compliance Matrix: (Units=1/GPa)
#
#
# Indices 1 2 3 4 5 6 
#
# 1 0.009144 -0.000099 -0.001218 0.001547 -0.006874 -0.001543
# 2 -0.000099 0.008763 -0.000230 0.007332 -0.004134 -0.002999
# 3 -0.001218 -0.000230 0.019014 0.013331 -0.006952 -0.001275
# 4 0.001547 0.007332 0.013331 0.036002 -0.011901 -0.004984
# 5 -0.006874 -0.004134 -0.006952 -0.011901 0.042231 0.005685
# 6 -0.001543 -0.002999 -0.001275 -0.004984 0.005685 0.027264
#
#
# Mechanical properties :
#
#
# Convention : Reuss Voigt Hill
#
# Bulk Modulus (GPa) = 29.56216 62.44951 46.00584
# Shear Modulus (GPa) = 31.89040 43.72224 37.80632
#
# Velocity S-wave (km/s) = 3.54135 4.14658 3.85585
# Velocity P-wave (km/s) = 5.32419 6.89088 6.15757
#
# Compressibility (1/GPa) = 0.03382703
#
# Stress axis : x y z
#
# Youngs Moduli (GPa) = 109.36421 114.11488 52.59249
#
# Poissons Ratio (x) = 0.01133 0.06406
# Poissons Ratio (y) = 0.01085 0.01208
# Poissons Ratio (z) = 0.13322 0.02620
#
# Static dielectric constant tensor:
#      x y z
#    x 2.155730 0.002100 -0.020940 
#    y 0.002100 1.995680 -0.114570 
#    z -0.020940 -0.114570 2.026840 
# 
# From -- ./inp_files/603872.got.cif
#   From: 2010.05.17/outbox.cif.g08.bks.cpg/sg2_302_cif.got.tgz:603872.got - 2010.06.03 11:33:40.
