data_PCOD9097561
_publ_section_title
;
Structure prediction by ZEFSAII (Michael W. Deem and Ramdas Pophale) SiO2 
 PCOD9097561
Probable space group: P -1
;
_chemical_formula_sum "Si O2"
_cell_formula_units_Z 12
_cell_length_a 6.834011
_cell_length_b 8.275727
_cell_length_c 13.126420
_cell_angle_alpha 97.405916
_cell_angle_beta 140.813848
_cell_angle_gamma 82.928964
_cell_volume 464.837091
_symmetry_space_group_name_H-M "P -1"
_symmetry_group_IT_number 2
_symmetry_cell_setting 'triclinic'
loop_
_space_group_symop_operation_xyz
x,y,z
-x,-y,-z
loop_
_atom_site_type_symbol
_atom_site_label
_atom_site_fract_x
_atom_site_fract_y
_atom_site_fract_z
Si Si1 0.837592 0.137871 0.378210
Si Si2 0.307633 0.340423 0.673168
Si Si3 0.453313 0.901808 0.090022
Si Si4 0.830311 0.430665 0.667524
Si Si5 0.718612 0.641520 0.807893
Si Si6 0.095256 0.189593 0.900043
O O1 0.528168 0.215867 0.311646
O O2 0.100497 0.271038 0.492028
O O3 0.705235 0.043138 0.221289
O O4 0.000000 0.000000 0.500000
O O5 0.523108 0.201042 0.805025
O O6 0.501827 0.492700 0.735125
O O7 0.057818 0.393243 0.663272
O O8 0.601724 0.796207 0.050137
O O9 0.138151 0.002505 0.942372
O O10 0.500000 0.500000 0.500000
O O11 0.936259 0.571976 0.800296
O O12 0.832377 0.264794 0.724402
O O13 0.870160 0.699236 0.977630
#
# Coordination Sequence:
#
# PCOD9097561 Si02
#       6
#     2   2   2   2   2   2
#     4   9  17  32  56  82 112 149 184 226 278 335
#     4  10  20  36  61  88 113 145 193 235 282 332
#     4   8  17  34  59  82 111 154 191 227 280 336
#     4  11  22  35  56  87 120 148 182 236 287 336
#     4  11  21  36  61  88 112 148 190 238 282 331
#     4   9  19  37  58  85 113 151 192 228 284 340
#
# _framework density 25.815494999999999
#
# number of rings (size 3 to 8) (size 9 to 14) (size 15 to 20)
#    0.000    2.333    1.667    1.000    0.000    2.667 
#    0.000    0.833    0.000   51.000    0.000    0.000 
#    0.000    0.000    0.000    0.000    0.000    0.000 
#
# Total GULP energy -67032.297861 kJ/mol
# GULP energy per Si atom -5586.024822 kJ/mol
# Density = 2.575674 g / cm^3
# Si number density = 25.815495 Si / 1000 Ang^3
#
#
#
# Elastic Constant Matrix: (Units=GPa)
#
#
# Indices 1 2 3 4 5 6 
#
# 1 60.4047 30.6343 39.1333 14.8563 11.1871 -2.0838
# 2 30.6343 108.5664 58.1931 -24.8375 6.8616 -12.8172
# 3 39.1333 58.1931 134.1648 -34.1974 1.2947 0.0448
# 4 14.8563 -24.8375 -34.1974 79.6787 -0.0225 -7.4348
# 5 11.1871 6.8616 1.2947 -0.0225 34.7674 -1.6131
# 6 -2.0838 -12.8172 0.0448 -7.4348 -1.6131 30.4318
#
#
#
# Elastic Compliance Matrix: (Units=1/GPa)
#
#
# Indices 1 2 3 4 5 6 
#
# 1 0.029690 -0.006241 -0.008839 -0.011637 -0.008179 -0.003859
# 2 -0.006241 0.014733 -0.003295 0.004993 -0.000450 0.006979
# 3 -0.008839 -0.003295 0.013005 0.006171 0.002998 -0.000346
# 4 -0.011637 0.004993 0.006171 0.019506 0.002830 0.006212
# 5 -0.008179 -0.000450 0.002998 0.002830 0.031448 0.001604
# 6 -0.003859 0.006979 -0.000346 0.006212 0.001604 0.037139
#
#
# Mechanical properties :
#
#
# Convention : Reuss Voigt Hill
#
# Bulk Modulus (GPa) = 48.36118 62.11747 55.23932
# Shear Modulus (GPa) = 26.43211 40.65394 33.54303
#
# Velocity S-wave (km/s) = 3.20329 3.97267 3.60854
# Velocity P-wave (km/s) = 5.69697 6.71990 6.22947
#
# Compressibility (1/GPa) = 0.02067774
#
# Stress axis : x y z
#
# Youngs Moduli (GPa) = 33.68093 67.87562 76.89215
#
# Poissons Ratio (x) = 0.42360 0.67967
# Poissons Ratio (y) = 0.21020 0.25338
# Poissons Ratio (z) = 0.29771 0.22367
#
# Static dielectric constant tensor:
#      x y z
#    x 2.042000 -0.030920 0.001010 
#    y -0.030920 2.105580 -0.017410 
#    z 0.001010 -0.017410 2.086000 
# 
# From -- ./inp_files/146236.got.cif
#   From: 2010.05.17/outbox.cif.g08.bks.cpg/sg2_74_cif.got.tgz:146236.got - 2010.06.03 11:33:40.
