data_PCOD9097004
_publ_section_title
;
Structure prediction by ZEFSAII (Michael W. Deem and Ramdas Pophale) SiO2 
 PCOD9097004
Probable space group: P -1
;
_chemical_formula_sum "Si O2"
_cell_formula_units_Z 14
_cell_length_a 14.147388
_cell_length_b 9.470125
_cell_length_c 14.315409
_cell_angle_alpha 73.998491
_cell_angle_beta 27.258976
_cell_angle_gamma 92.432514
_cell_volume 639.523304
_symmetry_space_group_name_H-M "P -1"
_symmetry_group_IT_number 2
_symmetry_cell_setting 'triclinic'
loop_
_space_group_symop_operation_xyz
x,y,z
-x,-y,-z
loop_
_atom_site_type_symbol
_atom_site_label
_atom_site_fract_x
_atom_site_fract_y
_atom_site_fract_z
Si Si1 0.281016 0.459743 0.086446
Si Si2 0.718765 0.868541 0.933570
Si Si3 0.379330 0.098278 0.614273
Si Si4 0.165056 0.123357 0.976969
Si Si5 0.903102 0.714968 0.520606
Si Si6 0.476931 0.459296 0.417108
Si Si7 0.869246 0.500354 0.414453
O O1 0.244994 0.274737 0.117831
O O2 0.166931 0.406792 0.301884
O O3 0.101005 0.493756 0.182635
O O4 0.604342 0.644731 0.769635
O O5 0.889430 0.978433 0.859249
O O6 0.403207 0.716625 0.273366
O O7 0.849930 0.056347 0.720594
O O8 0.499357 0.296335 0.419947
O O9 0.500000 0.000000 0.500000
O O10 0.370801 0.129821 0.727054
O O11 0.077720 0.954821 0.863836
O O12 0.276939 0.331659 0.875901
O O13 0.969261 0.637266 0.391529
O O14 0.500000 0.500000 0.500000
O O15 0.221947 0.422211 0.598401
#
# Coordination Sequence:
#
# PCOD9097004 Si02
#       7
#     2   2   2   2   2   2   2
#     4  10  22  38  60  87 116 157 202 240 293 358
#     4  10  21  37  57  84 120 152 192 246 294 347
#     4  10  20  36  59  82 110 151 195 235 289 349
#     4   9  20  37  53  81 116 146 189 241 287 345
#     4  10  21  39  59  86 122 153 194 251 296 344
#     4   9  19  37  56  79 115 149 184 238 287 336
#     4  10  21  38  59  85 116 154 199 242 293 353
#
# _framework density 21.891307000000001
#
# number of rings (size 3 to 8) (size 9 to 14) (size 15 to 20)
#    0.000    2.286    0.000    1.714    0.000    5.714 
#    0.000   20.000    0.000    0.000    0.000    0.000 
#    0.000    0.000    0.000    0.000    0.000    0.000 
#
# Total GULP energy -77985.347832 kJ/mol
# GULP energy per Si atom -5570.381988 kJ/mol
# Density = 2.184148 g / cm^3
# Si number density = 21.891307 Si / 1000 Ang^3
#
#
#
# Elastic Constant Matrix: (Units=GPa)
#
#
# Indices 1 2 3 4 5 6 
#
# 1 66.7702 25.8305 1.8430 16.0757 -10.8953 -13.8886
# 2 25.8305 120.5025 37.7404 -3.3035 -16.4169 -18.4162
# 3 1.8430 37.7404 47.6466 -10.9214 2.4019 -11.8151
# 4 16.0757 -3.3035 -10.9214 35.6224 -6.9013 -13.0416
# 5 -10.8953 -16.4169 2.4019 -6.9013 33.4342 15.5237
# 6 -13.8886 -18.4162 -11.8151 -13.0416 15.5237 51.5656
#
#
#
# Elastic Compliance Matrix: (Units=1/GPa)
#
#
# Indices 1 2 3 4 5 6 
#
# 1 0.019014 -0.004144 0.000993 -0.007812 0.001858 0.001334
# 2 -0.004144 0.013338 -0.010637 0.000905 0.006372 -0.000479
# 3 0.000993 -0.010637 0.034973 0.011134 -0.009884 0.010273
# 4 -0.007812 0.000905 0.011134 0.039010 0.000247 0.010562
# 5 0.001858 0.006372 -0.009884 0.000247 0.039686 -0.011373
# 6 0.001334 -0.000479 0.010273 0.010562 -0.011373 0.028030
#
#
# Mechanical properties :
#
#
# Convention : Reuss Voigt Hill
#
# Bulk Modulus (GPa) = 25.15800 40.63854 32.89827
# Shear Modulus (GPa) = 23.26922 35.42482 29.34702
#
# Velocity S-wave (km/s) = 3.26382 4.02707 3.66536
# Velocity P-wave (km/s) = 5.07154 6.34248 5.74228
#
# Compressibility (1/GPa) = 0.03974879
#
# Stress axis : x y z
#
# Youngs Moduli (GPa) = 52.59294 74.97292 28.59343
#
# Poissons Ratio (x) = 0.31069 -0.02840
# Poissons Ratio (y) = 0.21795 0.30416
# Poissons Ratio (z) = -0.05224 0.79752
#
# Static dielectric constant tensor:
#      x y z
#    x 1.850890 -0.123540 0.071670 
#    y -0.123540 1.585030 -0.012060 
#    z 0.071670 -0.012060 1.925280 
# 
# From -- ./inp_files/336905.got.cif
#   From: 2010.05.17/outbox.cif.g08.bks.cpg/sg2_169_cif.got.tgz:336905.got - 2010.06.03 11:33:40.
