data_PCOD9097737
_publ_section_title
;
Structure prediction by ZEFSAII (Michael W. Deem and Ramdas Pophale) SiO2 
 PCOD9097737
Probable space group: P -1
;
_chemical_formula_sum "Si O2"
_cell_formula_units_Z 14
_cell_length_a 7.847393
_cell_length_b 6.712351
_cell_length_c 14.264837
_cell_angle_alpha 55.751400
_cell_angle_beta 92.506754
_cell_angle_gamma 96.486610
_cell_volume 616.947462
_symmetry_space_group_name_H-M "P -1"
_symmetry_group_IT_number 2
_symmetry_cell_setting 'triclinic'
loop_
_space_group_symop_operation_xyz
x,y,z
-x,-y,-z
loop_
_atom_site_type_symbol
_atom_site_label
_atom_site_fract_x
_atom_site_fract_y
_atom_site_fract_z
Si Si1 0.074544 0.837460 0.854386
Si Si2 0.748526 0.442964 0.928292
Si Si3 0.136113 0.774121 0.198015
Si Si4 0.907582 0.437688 0.414532
Si Si5 0.692409 0.929312 0.539261
Si Si6 0.389401 0.112646 0.244963
Si Si7 0.279842 0.165123 0.637017
O O1 0.925190 0.624923 0.887736
O O2 0.124497 0.980713 0.722261
O O3 0.233726 0.729311 0.936549
O O4 0.002000 0.031735 0.871200
O O5 0.762395 0.290221 0.874377
O O6 0.603276 0.626590 0.874500
O O7 0.031243 0.542853 0.306380
O O8 0.263382 0.916054 0.238190
O O9 0.832840 0.161768 0.477318
O O10 0.740787 0.590187 0.372074
O O11 0.000000 0.500000 0.500000
O O12 0.500000 0.000000 0.500000
O O13 0.688190 0.830779 0.669997
O O14 0.726330 0.776879 0.488543
O O15 0.557393 0.977972 0.301151
#
# Coordination Sequence:
#
# PCOD9097737 Si02
#       7
#     2   2   2   2   2   2   2
#     4   9  20  39  57  86 108 148 196 237 282 340
#     4  10  20  36  62  80 113 149 190 238 290 334
#     4  10  20  37  58  85 115 145 194 237 283 338
#     4  11  22  37  59  86 112 155 193 233 285 338
#     4  10  22  38  57  86 118 154 187 230 291 342
#     4  10  22  36  54  88 114 151 189 233 287 348
#     4  10  23  39  58  81 122 148 192 241 283 340
#
# _framework density 22.69237
#
# number of rings (size 3 to 8) (size 9 to 14) (size 15 to 20)
#    0.000    2.000    1.429    1.286    2.000    5.714 
#    0.000    0.714    0.000    0.000    0.000    0.000 
#    0.000    0.000    0.000    0.000    0.000    0.000 
#
# Total GULP energy -78173.016369 kJ/mol
# GULP energy per Si atom -5583.786884 kJ/mol
# Density = 2.264072 g / cm^3
# Si number density = 22.692370 Si / 1000 Ang^3
#
#
#
# Elastic Constant Matrix: (Units=GPa)
#
#
# Indices 1 2 3 4 5 6 
#
# 1 58.3450 29.8792 6.6923 -0.4364 17.2305 -20.5021
# 2 29.8792 31.4312 8.5904 1.6827 7.7009 -13.4541
# 3 6.6923 8.5904 69.5669 6.5027 11.1069 -4.8984
# 4 -0.4364 1.6827 6.5027 27.8303 -8.5693 2.8628
# 5 17.2305 7.7009 11.1069 -8.5693 34.2015 -7.0150
# 6 -20.5021 -13.4541 -4.8984 2.8628 -7.0150 32.0115
#
#
#
# Elastic Compliance Matrix: (Units=1/GPa)
#
#
# Indices 1 2 3 4 5 6 
#
# 1 0.040339 -0.031312 0.003102 -0.003269 -0.012923 0.010611
# 2 -0.031312 0.065558 -0.004787 -0.003093 0.003390 0.007786
# 3 0.003102 -0.004787 0.016426 -0.005798 -0.006968 0.001480
# 4 -0.003269 -0.003093 -0.005798 0.042178 0.013761 -0.005038
# 5 -0.012923 0.003390 -0.006968 0.013761 0.040647 -0.000241
# 6 0.010611 0.007786 0.001480 -0.005038 -0.000241 0.041931
#
#
# Mechanical properties :
#
#
# Convention : Reuss Voigt Hill
#
# Bulk Modulus (GPa) = 17.75304 27.74079 22.74691
# Shear Modulus (GPa) = 15.06707 26.42074 20.74390
#
# Velocity S-wave (km/s) = 2.57956 3.41589 3.02675
# Velocity P-wave (km/s) = 4.08809 5.27342 4.71813
#
# Compressibility (1/GPa) = 0.05632839
#
# Stress axis : x y z
#
# Youngs Moduli (GPa) = 24.78967 15.25377 60.87894
#
# Poissons Ratio (x) = 0.47763 -0.18884
# Poissons Ratio (y) = 0.77622 0.29143
# Poissons Ratio (z) = -0.07689 0.07302
#
# Static dielectric constant tensor:
#      x y z
#    x 1.894730 -0.058290 0.045290 
#    y -0.058290 1.819640 -0.013050 
#    z 0.045290 -0.013050 1.872270 
# 
# From -- ./inp_files/21974.got.cif
#   From: 2010.05.17/outbox.cif.g08.bks.cpg/sg2_11_cif.got.tgz:21974.got - 2010.06.03 11:33:40.
