data_PCOD9097104
_publ_section_title
;
Structure prediction by ZEFSAII (Michael W. Deem and Ramdas Pophale) SiO2 
 PCOD9097104
Probable space group: P -1
;
_chemical_formula_sum "Si O2"
_cell_formula_units_Z 16
_cell_length_a 22.020258
_cell_length_b 9.084962
_cell_length_c 8.944979
_cell_angle_alpha 117.663356
_cell_angle_beta 149.226982
_cell_angle_gamma 59.167163
_cell_volume 784.997786
_symmetry_space_group_name_H-M "P -1"
_symmetry_group_IT_number 2
_symmetry_cell_setting 'triclinic'
loop_
_space_group_symop_operation_xyz
x,y,z
-x,-y,-z
loop_
_atom_site_type_symbol
_atom_site_label
_atom_site_fract_x
_atom_site_fract_y
_atom_site_fract_z
Si Si1 0.571343 0.928249 0.770070
Si Si2 0.691555 0.542387 0.470999
Si Si3 0.573914 0.266060 0.096748
Si Si4 0.811107 0.641671 0.049071
Si Si5 0.099960 0.328454 0.179900
Si Si6 0.474858 0.356050 0.265226
Si Si7 0.817625 0.518342 0.318977
Si Si8 0.999259 0.188304 0.643213
O O1 0.499677 0.816786 0.663915
O O2 0.500000 0.000000 0.500000
O O3 0.698868 0.798835 0.933669
O O4 0.598684 0.071209 0.006418
O O5 0.680977 0.354192 0.314698
O O6 0.770624 0.644761 0.591860
O O7 0.754163 0.535014 0.759544
O O8 0.550722 0.647815 0.216873
O O9 0.544171 0.313705 0.231929
O O10 0.851724 0.522295 0.220479
O O11 0.910512 0.724383 0.221023
O O12 0.117508 0.345086 0.400274
O O13 0.053726 0.184539 0.925572
O O14 0.000000 0.500000 0.000000
O O15 0.500000 0.500000 0.500000
O O16 0.329414 0.418830 0.950346
O O17 0.870884 0.331628 0.417603
O O18 0.000000 0.000000 0.500000
#
# Coordination Sequence:
#
# PCOD9097104 Si02
#       8
#     2   2   2   2   2   2   2   2
#     4  11  23  37  58  88 122 160 202 254 300 352
#     4  10  20  36  59  87 118 163 200 248 303 368
#     4  11  21  37  59  87 127 156 208 249 301 357
#     4  10  21  40  59  85 121 161 203 240 312 364
#     4   9  19  37  61  84 115 157 200 244 303 363
#     4  11  24  40  61  91 124 164 206 245 308 370
#     4  10  20  39  61  84 117 159 200 245 301 366
#     4  10  22  39  61  91 115 151 202 257 305 355
#
# _framework density 20.382221999999999
#
# number of rings (size 3 to 8) (size 9 to 14) (size 15 to 20)
#    0.000    1.750    2.500    2.250    1.750    3.000 
#    0.000    3.125    0.000    0.000    0.000    0.000 
#    0.000    0.000    0.000    0.000    0.000    0.000 
#
# Total GULP energy -89184.491892 kJ/mol
# GULP energy per Si atom -5574.030743 kJ/mol
# Density = 2.033583 g / cm^3
# Si number density = 20.382222 Si / 1000 Ang^3
#
#
#
# Elastic Constant Matrix: (Units=GPa)
#
#
# Indices 1 2 3 4 5 6 
#
# 1 46.9345 -3.2454 18.4773 -4.8811 -13.0618 5.9841
# 2 -3.2454 79.9891 35.9603 24.9267 -5.6698 4.2149
# 3 18.4773 35.9603 128.4659 16.8088 -25.2512 3.5568
# 4 -4.8811 24.9267 16.8088 41.3312 -5.2040 -6.2507
# 5 -13.0618 -5.6698 -25.2512 -5.2040 39.3369 -3.1053
# 6 5.9841 4.2149 3.5568 -6.2507 -3.1053 21.2891
#
#
#
# Elastic Compliance Matrix: (Units=1/GPa)
#
#
# Indices 1 2 3 4 5 6 
#
# 1 0.025603 0.002321 -0.003257 0.003002 0.006728 -0.005249
# 2 0.002321 0.017779 -0.004044 -0.009936 -0.001096 -0.006574
# 3 -0.003257 -0.004044 0.010553 -0.001588 0.004916 0.000204
# 4 0.003002 -0.009936 -0.001588 0.033460 0.003902 0.011782
# 5 0.006728 -0.001096 0.004916 0.003902 0.031424 0.003234
# 6 -0.005249 -0.006574 0.000204 0.011782 0.003234 0.053646
#
#
# Mechanical properties :
#
#
# Convention : Reuss Voigt Hill
#
# Bulk Modulus (GPa) = 22.74025 39.75267 31.24646
# Shear Modulus (GPa) = 25.36990 34.00460 29.68725
#
# Velocity S-wave (km/s) = 3.53187 4.08897 3.82059
# Velocity P-wave (km/s) = 5.27383 6.46830 5.90136
#
# Compressibility (1/GPa) = 0.04397488
#
# Stress axis : x y z
#
# Youngs Moduli (GPa) = 39.05810 56.24665 94.75993
#
# Poissons Ratio (x) = -0.13056 0.30865
# Poissons Ratio (y) = -0.09066 0.38320
# Poissons Ratio (z) = 0.12722 0.22746
#
# Static dielectric constant tensor:
#      x y z
#    x 1.808240 0.015990 -0.022360 
#    y 0.015990 1.711460 0.005640 
#    z -0.022360 0.005640 1.743800 
# 
# From -- ./inp_files/176121.got.cif
#   From: 2010.05.17/outbox.cif.g08.bks.cpg/sg2_89_cif.got.tgz:176121.got - 2010.06.03 11:33:40.
