data_PCOD9097031
_publ_section_title
;
Structure prediction by ZEFSAII (Michael W. Deem and Ramdas Pophale) SiO2 
 PCOD9097031
Probable space group: P -1
;
_chemical_formula_sum "Si O2"
_cell_formula_units_Z 16
_cell_length_a 20.476514
_cell_length_b 17.569778
_cell_length_c 10.683727
_cell_angle_alpha 28.164408
_cell_angle_beta 144.593201
_cell_angle_gamma 159.388239
_cell_volume 637.484878
_symmetry_space_group_name_H-M "P -1"
_symmetry_group_IT_number 2
_symmetry_cell_setting 'triclinic'
loop_
_space_group_symop_operation_xyz
x,y,z
-x,-y,-z
loop_
_atom_site_type_symbol
_atom_site_label
_atom_site_fract_x
_atom_site_fract_y
_atom_site_fract_z
Si Si1 0.100490 0.899182 0.079420
Si Si2 0.134241 0.720450 0.786987
Si Si3 0.885211 0.614318 0.898889
Si Si4 0.247905 0.622858 0.597520
Si Si5 0.922085 0.762195 0.468385
Si Si6 0.483383 0.569605 0.008069
Si Si7 0.494713 0.227424 0.577261
Si Si8 0.442618 0.910131 0.748525
O O1 0.006763 0.786198 0.960244
O O2 0.082758 0.066727 0.843192
O O3 0.320394 0.125360 0.092864
O O4 0.971617 0.644881 0.335905
O O5 0.061291 0.817974 0.520423
O O6 0.346504 0.967065 0.809458
O O7 0.098609 0.555638 0.860987
O O8 0.000000 0.500000 0.000000
O O9 0.956064 0.790765 0.630836
O O10 0.660377 0.355037 0.953751
O O11 0.329632 0.776123 0.635960
O O12 0.341930 0.841816 0.320606
O O13 0.328960 0.532498 0.833222
O O14 0.713339 0.454776 0.588025
O O15 0.460861 0.379132 0.328463
O O16 0.500000 0.500000 0.000000
O O17 0.430724 0.065394 0.582734
#
# Coordination Sequence:
#
# PCOD9097031 Si02
#       8
#     2   2   2   2   2   2   2   2
#     4  10  22  38  59  86 108 151 190 224 286 332
#     4   9  19  34  56  83 113 145 183 227 269 330
#     4   9  19  37  59  83 117 146 186 230 274 335
#     4  10  20  39  58  80 117 145 188 233 273 335
#     4  10  20  36  59  84 114 148 183 232 276 330
#     4  11  22  38  59  80 112 147 185 238 278 323
#     4  10  20  37  56  84 113 147 187 224 285 328
#     4   9  19  36  57  81 115 149 182 229 277 328
#
# _framework density 25.098631999999998
#
# number of rings (size 3 to 8) (size 9 to 14) (size 15 to 20)
#    0.000    2.250    1.250    1.125    0.000    6.000 
#    2.250    9.375    0.000   13.500    0.000    0.000 
#    0.000    0.000    0.000    0.000    0.000    0.000 
#
# Total GULP energy -89212.312698 kJ/mol
# GULP energy per Si atom -5575.769544 kJ/mol
# Density = 2.504151 g / cm^3
# Si number density = 25.098632 Si / 1000 Ang^3
#
#
#
# Elastic Constant Matrix: (Units=GPa)
#
#
# Indices 1 2 3 4 5 6 
#
# 1 56.9785 18.4333 1.1770 -10.7552 13.6854 -4.8700
# 2 18.4333 110.4468 24.0287 -38.5562 -0.9615 6.5952
# 3 1.1770 24.0287 51.1931 -19.9114 -5.9350 9.1960
# 4 -10.7552 -38.5562 -19.9114 42.5551 11.9481 -7.6985
# 5 13.6854 -0.9615 -5.9350 11.9481 41.9871 -4.1061
# 6 -4.8700 6.5952 9.1960 -7.6985 -4.1061 34.4085
#
#
#
# Elastic Compliance Matrix: (Units=1/GPa)
#
#
# Indices 1 2 3 4 5 6 
#
# 1 0.022002 -0.001478 0.001667 0.008183 -0.008935 0.003716
# 2 -0.001478 0.013969 -0.002164 0.012106 -0.002944 0.000049
# 3 0.001667 -0.002164 0.024863 0.009428 -0.000143 -0.003902
# 4 0.008183 0.012106 0.009428 0.045644 -0.013566 0.004911
# 5 -0.008935 -0.002944 -0.000143 -0.013566 0.030496 -0.000058
# 6 0.003716 0.000049 -0.003902 0.004911 -0.000058 0.031714
#
#
# Mechanical properties :
#
#
# Convention : Reuss Voigt Hill
#
# Bulk Modulus (GPa) = 17.57985 33.98849 25.78417
# Shear Modulus (GPa) = 26.09604 35.45544 30.77574
#
# Velocity S-wave (km/s) = 3.22800 3.76259 3.50550
# Velocity P-wave (km/s) = 4.57305 5.69627 5.16528
#
# Compressibility (1/GPa) = 0.05688332
#
# Stress axis : x y z
#
# Youngs Moduli (GPa) = 45.44957 71.58609 40.22090
#
# Poissons Ratio (x) = 0.10581 -0.06705
# Poissons Ratio (y) = 0.06718 0.08706
# Poissons Ratio (z) = -0.07577 0.15495
#
# Static dielectric constant tensor:
#      x y z
#    x 2.167950 0.110140 -0.005070 
#    y 0.110140 2.059600 0.040920 
#    z -0.005070 0.040920 2.133490 
# 
# From -- ./inp_files/454353.got.cif
#   From: 2010.05.17/outbox.cif.g08.bks.cpg/sg2_228_cif.got.tgz:454353.got - 2010.06.03 11:33:40.
