data_PCOD9097120
_publ_section_title
;
Structure prediction by ZEFSAII (Michael W. Deem and Ramdas Pophale) SiO2 
 PCOD9097120
Probable space group: P -1
;
_chemical_formula_sum "Si O2"
_cell_formula_units_Z 12
_cell_length_a 18.442585
_cell_length_b 8.897850
_cell_length_c 7.935061
_cell_angle_alpha 122.127771
_cell_angle_beta 140.227646
_cell_angle_gamma 34.728119
_cell_volume 456.396533
_symmetry_space_group_name_H-M "P -1"
_symmetry_group_IT_number 2
_symmetry_cell_setting 'triclinic'
loop_
_space_group_symop_operation_xyz
x,y,z
-x,-y,-z
loop_
_atom_site_type_symbol
_atom_site_label
_atom_site_fract_x
_atom_site_fract_y
_atom_site_fract_z
Si Si1 0.057403 0.974166 0.278513
Si Si2 0.625778 0.930165 0.821619
Si Si3 0.412575 0.471248 0.958584
Si Si4 0.327349 0.902684 0.544116
Si Si5 0.834697 0.570052 0.276073
Si Si6 0.153672 0.042570 0.956026
O O1 0.923425 0.277955 0.301592
O O2 0.035887 0.807890 0.234048
O O3 0.228403 0.889164 0.493598
O O4 0.000000 0.000000 0.000000
O O5 0.500000 0.000000 0.500000
O O6 0.784520 0.859386 0.981612
O O7 0.724643 0.679710 0.973717
O O8 0.486433 0.204563 0.850000
O O9 0.476840 0.371216 0.208019
O O10 0.228905 0.790119 0.831846
O O11 0.500000 0.500000 0.000000
O O12 0.262209 0.937969 0.262149
O O13 0.278325 0.167630 0.647844
O O14 0.000000 0.500000 0.500000
#
# Coordination Sequence:
#
# PCOD9097120 Si02
#       6
#     2   2   2   2   2   2
#     4   9  19  35  57  83 111 148 189 234 283 339
#     4  10  22  38  57  85 120 153 191 240 290 341
#     4   9  19  35  54  81 116 151 189 237 284 339
#     4   9  18  35  58  84 115 150 193 238 286 343
#     4   9  19  39  59  79 115 156 189 234 287 342
#     4  10  20  36  59  88 114 150 193 239 289 342
#
# _framework density 26.292926999999999
#
# number of rings (size 3 to 8) (size 9 to 14) (size 15 to 20)
#    0.000    2.667    0.000    0.500    0.000    8.000 
#    0.000   24.167    0.000    0.000    0.000    0.000 
#    0.000    0.000    0.000    0.000    0.000    0.000 
#
# Total GULP energy -66827.967642 kJ/mol
# GULP energy per Si atom -5568.997303 kJ/mol
# Density = 2.623308 g / cm^3
# Si number density = 26.292927 Si / 1000 Ang^3
#
#
#
# Elastic Constant Matrix: (Units=GPa)
#
#
# Indices 1 2 3 4 5 6 
#
# 1 152.0839 3.1030 27.1008 10.9522 34.3082 22.8967
# 2 3.1030 64.6002 1.8171 5.4511 -0.0942 5.5240
# 3 27.1008 1.8171 89.9403 7.7151 -19.8994 13.6186
# 4 10.9522 5.4511 7.7151 27.4147 3.5328 -6.4952
# 5 34.3082 -0.0942 -19.8994 3.5328 51.8640 11.8528
# 6 22.8967 5.5240 13.6186 -6.4952 11.8528 23.7166
#
#
#
# Elastic Compliance Matrix: (Units=1/GPa)
#
#
# Indices 1 2 3 4 5 6 
#
# 1 0.009556 0.000394 -0.003066 -0.003576 -0.005986 -0.005545
# 2 0.000394 0.016710 0.002108 -0.006547 0.003033 -0.008792
# 3 -0.003066 0.002108 0.018830 -0.010668 0.014177 -0.018351
# 4 -0.003576 -0.006547 -0.010668 0.051227 -0.012388 0.031324
# 5 -0.005986 0.003033 0.014177 -0.012388 0.035004 -0.023955
# 6 -0.005545 -0.008792 -0.018351 0.031324 -0.023955 0.080654
#
#
# Mechanical properties :
#
#
# Convention : Reuss Voigt Hill
#
# Bulk Modulus (GPa) = 22.74292 41.18513 31.96403
# Shear Modulus (GPa) = 21.95238 38.90598 30.42918
#
# Velocity S-wave (km/s) = 2.89263 3.85088 3.40562
# Velocity P-wave (km/s) = 4.45252 5.95569 5.25810
#
# Compressibility (1/GPa) = 0.04396973
#
# Stress axis : x y z
#
# Youngs Moduli (GPa) = 104.64321 59.84322 53.10633
#
# Poissons Ratio (x) = -0.02360 0.16280
# Poissons Ratio (y) = -0.04127 -0.11193
# Poissons Ratio (z) = 0.32079 -0.12613
#
# Static dielectric constant tensor:
#      x y z
#    x 2.405540 -0.520550 0.368690 
#    y -0.520550 2.931520 -0.581170 
#    z 0.368690 -0.581170 2.495750 
# 
# From -- ./inp_files/152078.got.cif
#   From: 2010.05.17/outbox.cif.g08.bks.cpg/sg2_77_cif.got.tgz:152078.got - 2010.06.03 11:33:40.
