data_PCOD9097750
_publ_section_title
;
Structure prediction by ZEFSAII (Michael W. Deem and Ramdas Pophale) SiO2 
 PCOD9097750
Probable space group: P -1
;
_chemical_formula_sum "Si O2"
_cell_formula_units_Z 12
_cell_length_a 11.913051
_cell_length_b 16.673730
_cell_length_c 7.718056
_cell_angle_alpha 137.456677
_cell_angle_beta 52.503815
_cell_angle_gamma 152.573593
_cell_volume 472.394599
_symmetry_space_group_name_H-M "P -1"
_symmetry_group_IT_number 2
_symmetry_cell_setting 'triclinic'
loop_
_space_group_symop_operation_xyz
x,y,z
-x,-y,-z
loop_
_atom_site_type_symbol
_atom_site_label
_atom_site_fract_x
_atom_site_fract_y
_atom_site_fract_z
Si Si1 0.430824 0.255777 0.655116
Si Si2 0.236389 0.739379 0.115853
Si Si3 0.631076 0.930484 0.282464
Si Si4 0.924256 0.191951 0.878884
Si Si5 0.994322 0.093702 0.963073
Si Si6 0.362964 0.354026 0.562030
O O1 0.522589 0.394313 0.624233
O O2 0.541010 0.252937 0.704488
O O3 0.258230 0.035314 0.382455
O O4 0.265607 0.236144 0.886777
O O5 0.276962 0.881795 0.428241
O O6 0.190242 0.763866 0.009296
O O7 0.476225 0.830400 0.090847
O O8 0.000000 0.500000 0.000000
O O9 0.885677 0.039199 0.168295
O O10 0.188881 0.337331 0.780014
O O11 0.955009 0.190377 0.049960
O O12 0.823645 0.875720 0.691278
O O13 0.500000 0.500000 0.500000
#
# Coordination Sequence:
#
# PCOD9097750 Si02
#       6
#     2   2   2   2   2   2
#     4   8  16  34  56  83 118 147 183 236 290 348
#     4  10  22  38  58  79 117 156 195 243 276 335
#     4  10  20  36  62  84 111 159 193 228 297 339
#     4   8  17  34  55  80 115 151 189 230 285 342
#     4   9  17  32  59  85 111 151 190 232 289 352
#     4   9  17  30  57  89 113 148 187 232 296 345
#
# _framework density 25.402491000000001
#
# number of rings (size 3 to 8) (size 9 to 14) (size 15 to 20)
#    0.000    3.000    0.000    2.500    2.333    0.667 
#    0.000    1.667   11.000    0.000    0.000    0.000 
#    0.000    0.000    0.000    0.000    0.000    0.000 
#
# Total GULP energy -66938.705157 kJ/mol
# GULP energy per Si atom -5578.225430 kJ/mol
# Density = 2.534467 g / cm^3
# Si number density = 25.402491 Si / 1000 Ang^3
#
#
#
# Elastic Constant Matrix: (Units=GPa)
#
#
# Indices 1 2 3 4 5 6 
#
# 1 154.2680 48.9621 -0.7510 11.2693 7.5600 -36.8420
# 2 48.9621 99.1447 7.8280 2.2959 6.9329 -38.0447
# 3 -0.7510 7.8280 51.6223 25.6991 1.3145 1.3551
# 4 11.2693 2.2959 25.6991 43.1639 -3.0224 0.8840
# 5 7.5600 6.9329 1.3145 -3.0224 19.1515 3.2392
# 6 -36.8420 -38.0447 1.3551 0.8840 3.2392 52.3834
#
#
#
# Elastic Compliance Matrix: (Units=1/GPa)
#
#
# Indices 1 2 3 4 5 6 
#
# 1 0.008901 -0.002346 0.002504 -0.004090 -0.004298 0.004826
# 2 -0.002346 0.015850 -0.003005 0.000913 -0.006205 0.010307
# 3 0.002504 -0.003005 0.028992 -0.018069 -0.004644 -0.000579
# 4 -0.004090 0.000913 -0.018069 0.035608 0.008631 -0.002881
# 5 -0.004298 -0.006205 -0.004644 0.008631 0.059741 -0.011249
# 6 0.004826 0.010307 -0.000579 -0.002881 -0.011249 0.030730
#
#
# Mechanical properties :
#
#
# Convention : Reuss Voigt Hill
#
# Bulk Modulus (GPa) = 20.81182 46.34591 33.57886
# Shear Modulus (GPa) = 24.80988 39.53947 32.17468
#
# Velocity S-wave (km/s) = 3.12856 3.94955 3.56279
# Velocity P-wave (km/s) = 4.61098 6.25163 5.49291
#
# Compressibility (1/GPa) = 0.04804962
#
# Stress axis : x y z
#
# Youngs Moduli (GPa) = 112.34634 63.09080 34.49205
#
# Poissons Ratio (x) = 0.14803 -0.08637
# Poissons Ratio (y) = 0.26359 0.10364
# Poissons Ratio (z) = -0.28132 0.18957
#
# Static dielectric constant tensor:
#      x y z
#    x 2.236660 -0.010790 0.021740 
#    y -0.010790 2.001680 0.014430 
#    z 0.021740 0.014430 1.945400 
# 
# From -- ./inp_files/211545.got.cif
#   From: 2010.05.17/outbox.cif.g08.bks.cpg/sg2_106_cif.got.tgz:211545.got - 2010.06.03 11:33:40.
