data_PCOD9097243
_publ_section_title
;
Structure prediction by ZEFSAII (Michael W. Deem and Ramdas Pophale) SiO2 
 PCOD9097243
Probable space group: P -1
;
_chemical_formula_sum "Si O2"
_cell_formula_units_Z 14
_cell_length_a 17.709011
_cell_length_b 6.781688
_cell_length_c 8.629660
_cell_angle_alpha 128.529829
_cell_angle_beta 109.485947
_cell_angle_gamma 56.392492
_cell_volume 675.137184
_symmetry_space_group_name_H-M "P -1"
_symmetry_group_IT_number 2
_symmetry_cell_setting 'triclinic'
loop_
_space_group_symop_operation_xyz
x,y,z
-x,-y,-z
loop_
_atom_site_type_symbol
_atom_site_label
_atom_site_fract_x
_atom_site_fract_y
_atom_site_fract_z
Si Si1 0.971266 0.385738 0.071065
Si Si2 0.813621 0.876928 0.367859
Si Si3 0.643871 0.955577 0.499079
Si Si4 0.903281 0.951972 0.756926
Si Si5 0.321792 0.652632 0.712989
Si Si6 0.299945 0.670501 0.074903
Si Si7 0.419116 0.005802 0.848246
O O1 0.871643 0.605210 0.169787
O O2 0.044169 0.312686 0.222214
O O3 0.000000 0.500000 0.000000
O O4 0.965636 0.105581 0.877538
O O5 0.736724 0.861231 0.415516
O O6 0.884786 0.890834 0.541812
O O7 0.763439 0.152426 0.358807
O O8 0.648438 0.680668 0.453617
O O9 0.569154 0.044082 0.354439
O O10 0.642859 0.195674 0.730690
O O11 0.803446 0.152446 0.854931
O O12 0.391942 0.770566 0.775952
O O13 0.303391 0.701755 0.907788
O O14 0.341110 0.334986 0.976071
O O15 0.500000 0.000000 0.000000
#
# Coordination Sequence:
#
# PCOD9097243 Si02
#       7
#     2   2   2   2   2   2   2
#     4  11  22  35  54  81 112 148 188 230 277 328
#     4  10  21  37  56  80 113 148 187 234 279 324
#     4   9  21  38  59  85 112 148 191 232 278 333
#     4  10  22  37  54  79 111 145 187 233 278 329
#     4  10  20  36  60  83 110 147 190 229 276 335
#     4  10  21  39  60  82 111 148 190 234 280 334
#     4  10  22  39  58  85 119 148 180 229 284 337
#
# _framework density 20.736525
#
# number of rings (size 3 to 8) (size 9 to 14) (size 15 to 20)
#    0.000    2.000    0.000    3.857    0.000   11.429 
#    0.000    1.429    0.000    0.000    0.000    0.000 
#    0.000    0.000    0.000    0.000    0.000    0.000 
#
# Total GULP energy -78133.900187 kJ/mol
# GULP energy per Si atom -5580.992871 kJ/mol
# Density = 2.068933 g / cm^3
# Si number density = 20.736525 Si / 1000 Ang^3
#
#
#
# Elastic Constant Matrix: (Units=GPa)
#
#
# Indices 1 2 3 4 5 6 
#
# 1 30.2939 39.6466 16.4438 -4.6501 10.3259 3.8243
# 2 39.6466 87.0241 16.2489 -12.7998 13.5747 16.6930
# 3 16.4438 16.2489 97.1834 -10.5188 28.4390 10.4539
# 4 -4.6501 -12.7998 -10.5188 37.5513 -6.9872 13.2578
# 5 10.3259 13.5747 28.4390 -6.9872 31.1893 -2.7285
# 6 3.8243 16.6930 10.4539 13.2578 -2.7285 29.0563
#
#
#
# Elastic Compliance Matrix: (Units=1/GPa)
#
#
# Indices 1 2 3 4 5 6 
#
# 1 0.104180 -0.054015 -0.014363 -0.020781 0.000257 0.031993
# 2 -0.054015 0.045163 0.010159 0.021575 -0.009107 -0.033192
# 3 -0.014363 0.010159 0.018469 0.009758 -0.015766 -0.016524
# 4 -0.020781 0.021575 0.009758 0.045474 -0.004222 -0.034316
# 5 0.000257 -0.009107 -0.015766 -0.004222 0.050909 0.017578
# 6 0.031993 -0.033192 -0.016524 -0.034316 0.017578 0.072527
#
#
# Mechanical properties :
#
#
# Convention : Reuss Voigt Hill
#
# Bulk Modulus (GPa) = 19.46452 39.90889 29.68671
# Shear Modulus (GPa) = 10.63189 29.03686 19.83437
#
# Velocity S-wave (km/s) = 2.26677 3.74609 3.09608
# Velocity P-wave (km/s) = 4.03212 6.16428 5.20847
#
# Compressibility (1/GPa) = 0.05137552
#
# Stress axis : x y z
#
# Youngs Moduli (GPa) = 9.59877 22.14195 54.14566
#
# Poissons Ratio (x) = 1.19599 0.77767
# Poissons Ratio (y) = 0.51847 -0.55007
# Poissons Ratio (z) = 0.13786 -0.22494
#
# Static dielectric constant tensor:
#      x y z
#    x 1.739920 -0.027460 0.013230 
#    y -0.027460 1.741980 -0.012360 
#    z 0.013230 -0.012360 1.782310 
# 
# From -- ./inp_files/38301.got.cif
#   From: 2010.05.17/outbox.cif.g08.bks.cpg/sg2_20_cif.got.tgz:38301.got - 2010.06.03 11:33:40.
