data_PCOD9097923
_publ_section_title
;
Structure prediction by ZEFSAII (Michael W. Deem and Ramdas Pophale) SiO2 
 PCOD9097923
Probable space group: P -1
;
_chemical_formula_sum "Si O2"
_cell_formula_units_Z 16
_cell_length_a 13.096660
_cell_length_b 7.035075
_cell_length_c 14.586931
_cell_angle_alpha 121.699635
_cell_angle_beta 38.409963
_cell_angle_gamma 129.037379
_cell_volume 647.146951
_symmetry_space_group_name_H-M "P -1"
_symmetry_group_IT_number 2
_symmetry_cell_setting 'triclinic'
loop_
_space_group_symop_operation_xyz
x,y,z
-x,-y,-z
loop_
_atom_site_type_symbol
_atom_site_label
_atom_site_fract_x
_atom_site_fract_y
_atom_site_fract_z
Si Si1 0.309341 0.236608 0.833087
Si Si2 0.561923 0.375838 0.533881
Si Si3 0.707429 0.905251 0.474529
Si Si4 0.308565 0.989258 0.160693
Si Si5 0.921970 0.193391 0.561398
Si Si6 0.022521 0.821057 0.161103
Si Si7 0.687479 0.499886 0.660828
Si Si8 0.953212 0.283508 0.095826
O O1 0.394289 0.374910 0.713548
O O2 0.489639 0.305461 0.785412
O O3 0.151459 0.313430 0.996196
O O4 0.204980 0.951186 0.810288
O O5 0.649005 0.632455 0.487498
O O6 0.468016 0.144578 0.475689
O O7 0.304646 0.609161 0.473866
O O8 0.886858 0.949557 0.302841
O O9 0.770502 0.083401 0.561526
O O10 0.345299 0.250312 0.248163
O O11 0.186984 0.779304 0.265940
O O12 0.191387 0.955893 0.142683
O O13 0.500000 0.000000 0.000000
O O14 0.101867 0.389824 0.435774
O O15 0.000000 0.000000 0.500000
O O16 0.062856 0.795879 0.020382
O O17 0.936994 0.536905 0.181896
#
# Coordination Sequence:
#
# PCOD9097923 Si02
#       8
#     2   2   2   2   2   2   2   2
#     4   9  18  36  55  75 110 150 180 214 273 333
#     4   9  18  29  55  78 103 135 184 221 259 319
#     4  11  17  30  53  84 106 135 185 228 262 316
#     4  11  20  30  52  80 111 141 179 224 280 321
#     4  10  16  31  49  76 110 141 174 227 268 321
#     4  11  20  33  53  82 110 140 180 231 274 311
#     4   9  16  32  53  75 103 139 180 218 262 325
#     4  10  21  35  52  79 117 142 177 231 270 321
#
# _framework density 24.723904999999998
#
# number of rings (size 3 to 8) (size 9 to 14) (size 15 to 20)
#    0.750    1.250    6.250    0.750    0.000    0.000 
#    0.000    1.250    0.000    0.000    0.000    1.750 
#    0.000    0.000    0.000    0.000    0.000    0.000 
#
# Total GULP energy -89115.828338 kJ/mol
# GULP energy per Si atom -5569.739271 kJ/mol
# Density = 2.466763 g / cm^3
# Si number density = 24.723905 Si / 1000 Ang^3
#
#
#
# Elastic Constant Matrix: (Units=GPa)
#
#
# Indices 1 2 3 4 5 6 
#
# 1 83.8557 24.7343 30.2050 4.8609 -11.3889 38.3379
# 2 24.7343 98.0567 28.7549 -13.7672 -7.2167 18.7124
# 3 30.2050 28.7549 136.1130 -18.9625 -27.0406 8.9698
# 4 4.8609 -13.7672 -18.9625 35.7916 11.3336 -6.2247
# 5 -11.3889 -7.2167 -27.0406 11.3336 31.5538 0.2103
# 6 38.3379 18.7124 8.9698 -6.2247 0.2103 44.9917
#
#
#
# Elastic Compliance Matrix: (Units=1/GPa)
#
#
# Indices 1 2 3 4 5 6 
#
# 1 0.026919 -0.002446 -0.003662 -0.014134 0.011250 -0.023199
# 2 -0.002446 0.012169 -0.001480 0.004127 -0.000837 -0.002107
# 3 -0.003662 -0.001480 0.009946 0.003862 0.005461 0.002262
# 4 -0.014134 0.004127 0.003862 0.041137 -0.015726 0.015322
# 5 0.011250 -0.000837 0.005461 -0.015726 0.045974 -0.012717
# 6 -0.023199 -0.002107 0.002262 0.015322 -0.012717 0.044599
#
#
# Mechanical properties :
#
#
# Convention : Reuss Voigt Hill
#
# Bulk Modulus (GPa) = 29.53553 53.93487 41.73520
# Shear Modulus (GPa) = 24.13042 38.08950 31.10996
#
# Velocity S-wave (km/s) = 3.12748 3.92930 3.55109
# Velocity P-wave (km/s) = 5.00136 6.51522 5.80783
#
# Compressibility (1/GPa) = 0.03385753
#
# Stress axis : x y z
#
# Youngs Moduli (GPa) = 37.14817 82.17441 100.54194
#
# Poissons Ratio (x) = 0.20097 0.36823
# Poissons Ratio (y) = 0.09085 0.14885
# Poissons Ratio (z) = 0.13605 0.12166
#
# Static dielectric constant tensor:
#      x y z
#    x 2.064940 -0.042890 -0.000060 
#    y -0.042890 2.014380 -0.011170 
#    z -0.000060 -0.011170 1.935240 
# 
# From -- ./inp_files/575592.got.cif
#   From: 2010.05.17/outbox.cif.g08.bks.cpg/sg2_288_cif.got.tgz:575592.got - 2010.06.03 11:33:40.
