data_PCOD9097847
_publ_section_title
;
Structure prediction by ZEFSAII (Michael W. Deem and Ramdas Pophale) SiO2 
 PCOD9097847
Probable space group: P -1
;
_chemical_formula_sum "Si O2"
_cell_formula_units_Z 14
_cell_length_a 8.219694
_cell_length_b 9.632257
_cell_length_c 24.759233
_cell_angle_alpha 24.865859
_cell_angle_beta 134.860364
_cell_angle_gamma 134.247390
_cell_volume 573.203063
_symmetry_space_group_name_H-M "P -1"
_symmetry_group_IT_number 2
_symmetry_cell_setting 'triclinic'
loop_
_space_group_symop_operation_xyz
x,y,z
-x,-y,-z
loop_
_atom_site_type_symbol
_atom_site_label
_atom_site_fract_x
_atom_site_fract_y
_atom_site_fract_z
Si Si1 0.504098 0.432042 0.109214
Si Si2 0.967565 0.799708 0.344633
Si Si3 0.453036 0.363772 0.832836
Si Si4 0.313751 0.767322 0.575025
Si Si5 0.252395 0.889860 0.102645
Si Si6 0.038989 0.117403 0.136826
Si Si7 0.007873 0.784635 0.693110
O O1 0.466925 0.583518 0.106128
O O2 0.267987 0.168383 0.134757
O O3 0.729442 0.269273 0.230895
O O4 0.567103 0.757314 0.970221
O O5 0.726937 0.604282 0.330500
O O6 0.000000 0.500000 0.500000
O O7 0.995429 0.109197 0.282158
O O8 0.094900 0.945125 0.267688
O O9 0.409663 0.716222 0.673925
O O10 0.643837 0.245957 0.880142
O O11 0.195409 0.121536 0.855773
O O12 0.500000 0.000000 0.500000
O O13 0.078992 0.921056 0.464584
O O14 0.180340 0.557705 0.239665
O O15 0.000000 0.000000 0.000000
O O16 0.000000 0.500000 0.000000
#
# Coordination Sequence:
#
# PCOD9097847 Si02
#       7
#     2   2   2   2   2   2   2
#     4  11  24  40  63  92 131 169 201 258 323 376
#     4   9  21  40  63  88 120 166 211 254 313 376
#     4  11  22  40  64  92 125 166 208 256 322 375
#     4  10  20  38  66  90 117 160 213 260 307 376
#     4  10  20  36  62  90 121 161 208 251 304 369
#     4  11  23  39  64  93 125 165 213 259 315 379
#     4  10  21  41  63  92 124 163 212 258 313 378
#
# _framework density 24.424151999999999
#
# number of rings (size 3 to 8) (size 9 to 14) (size 15 to 20)
#    0.000    1.714    2.857    1.286    4.000    0.571 
#    2.571    7.143    0.000    0.000    0.000    0.000 
#    0.000    0.000    0.000    0.000    0.000    0.000 
#
# Total GULP energy -78031.779176 kJ/mol
# GULP energy per Si atom -5573.698513 kJ/mol
# Density = 2.436856 g / cm^3
# Si number density = 24.424152 Si / 1000 Ang^3
#
#
#
# Elastic Constant Matrix: (Units=GPa)
#
#
# Indices 1 2 3 4 5 6 
#
# 1 89.7634 37.0112 32.6110 -2.9636 2.7649 26.1832
# 2 37.0112 107.0608 20.4843 -20.1824 -6.4450 24.0626
# 3 32.6110 20.4843 131.3950 0.0689 -11.2848 15.1546
# 4 -2.9636 -20.1824 0.0689 40.0222 9.9993 -9.0741
# 5 2.7649 -6.4450 -11.2848 9.9993 46.6842 1.5911
# 6 26.1832 24.0626 15.1546 -9.0741 1.5911 44.7749
#
#
#
# Elastic Compliance Matrix: (Units=1/GPa)
#
#
# Indices 1 2 3 4 5 6 
#
# 1 0.015561 -0.003868 -0.002639 -0.001891 -0.001468 -0.006459
# 2 -0.003868 0.012529 -0.000543 0.005074 0.000853 -0.003290
# 3 -0.002639 -0.000543 0.008746 -0.001467 0.002561 -0.001513
# 4 -0.001891 0.005074 -0.001467 0.030129 -0.006173 0.005201
# 5 -0.001468 0.000853 0.002561 -0.006173 0.023654 -0.002558
# 6 -0.006459 -0.003290 -0.001513 0.005201 -0.002558 0.029536
#
#
# Mechanical properties :
#
#
# Convention : Reuss Voigt Hill
#
# Bulk Modulus (GPa) = 43.98587 56.49245 50.23916
# Shear Modulus (GPa) = 35.25309 42.17044 38.71177
#
# Velocity S-wave (km/s) = 3.80329 4.15973 3.98550
# Velocity P-wave (km/s) = 6.11024 6.80082 6.46475
#
# Compressibility (1/GPa) = 0.02273457
#
# Stress axis : x y z
#
# Youngs Moduli (GPa) = 64.26455 79.81726 114.34278
#
# Poissons Ratio (x) = 0.30870 0.30178
# Poissons Ratio (y) = 0.24855 0.06212
# Poissons Ratio (z) = 0.16961 0.04336
#
# Static dielectric constant tensor:
#      x y z
#    x 2.006490 -0.016910 0.003220 
#    y -0.016910 2.029450 0.012700 
#    z 0.003220 0.012700 2.030980 
# 
# From -- ./inp_files/253156.got.cif
#   From: 2010.05.17/outbox.cif.g08.bks.cpg/sg2_127_cif.got.tgz:253156.got - 2010.06.03 11:33:40.
