data_PCOD9097585
_publ_section_title
;
Structure prediction by ZEFSAII (Michael W. Deem and Ramdas Pophale) SiO2 
 PCOD9097585
Probable space group: P -1
;
_chemical_formula_sum "Si O2"
_cell_formula_units_Z 14
_cell_length_a 14.562319
_cell_length_b 8.653339
_cell_length_c 19.768339
_cell_angle_alpha 30.128566
_cell_angle_beta 26.554600
_cell_angle_gamma 43.441672
_cell_volume 546.263551
_symmetry_space_group_name_H-M "P -1"
_symmetry_group_IT_number 2
_symmetry_cell_setting 'triclinic'
loop_
_space_group_symop_operation_xyz
x,y,z
-x,-y,-z
loop_
_atom_site_type_symbol
_atom_site_label
_atom_site_fract_x
_atom_site_fract_y
_atom_site_fract_z
Si Si1 0.123082 0.719866 0.175945
Si Si2 0.375567 0.343679 0.238727
Si Si3 0.932291 0.768501 0.070601
Si Si4 0.690875 0.823991 0.926555
Si Si5 0.292678 0.605522 0.808237
Si Si6 0.239753 0.099377 0.566690
Si Si7 0.084241 0.782332 0.610623
O O1 0.299942 0.609389 0.144775
O O2 0.012759 0.441259 0.302766
O O3 0.942925 0.776880 0.323285
O O4 0.201634 0.047456 0.958998
O O5 0.597613 0.508607 0.062518
O O6 0.255534 0.218522 0.434799
O O7 0.298807 0.035799 0.359364
O O8 0.148121 0.777122 0.884775
O O9 0.862741 0.441553 0.279610
O O10 0.000000 0.000000 0.000000
O O11 0.753128 0.729796 0.996763
O O12 0.900153 0.954348 0.695753
O O13 0.500000 0.000000 0.000000
O O14 0.539377 0.730516 0.609081
O O15 0.229300 0.725224 0.731661
#
# Coordination Sequence:
#
# PCOD9097585 Si02
#       7
#     2   2   2   2   2   2   2
#     4  10  20  36  61  89 118 157 193 244 298 351
#     4  11  23  38  61  90 119 155 201 244 291 356
#     4   8  16  35  59  82 115 158 193 235 296 350
#     4  10  23  39  60  88 121 155 197 249 296 347
#     4   8  16  34  55  82 113 154 190 241 288 337
#     4   9  18  33  60  84 116 153 195 238 290 350
#     4  10  22  40  63  85 121 158 195 244 299 346
#
# _framework density 25.628657
#
# number of rings (size 3 to 8) (size 9 to 14) (size 15 to 20)
#    0.000    2.571    0.000    0.857    6.000    0.571 
#    2.571    2.143    0.000   77.143    0.000    0.000 
#    0.000    0.000    0.000    0.000    0.000    0.000 
#
# Total GULP energy -78099.460831 kJ/mol
# GULP energy per Si atom -5578.532916 kJ/mol
# Density = 2.557033 g / cm^3
# Si number density = 25.628657 Si / 1000 Ang^3
#
#
#
# Elastic Constant Matrix: (Units=GPa)
#
#
# Indices 1 2 3 4 5 6 
#
# 1 157.5549 24.2414 27.0779 -3.4750 15.4814 -18.4566
# 2 24.2414 71.0205 30.5265 -9.1063 -2.1364 -13.8819
# 3 27.0779 30.5265 82.7279 -0.4200 -7.6050 -2.2586
# 4 -3.4750 -9.1063 -0.4200 24.1657 -12.5517 4.1257
# 5 15.4814 -2.1364 -7.6050 -12.5517 53.4605 -19.2415
# 6 -18.4566 -13.8819 -2.2586 4.1257 -19.2415 32.0297
#
#
#
# Elastic Compliance Matrix: (Units=1/GPa)
#
#
# Indices 1 2 3 4 5 6 
#
# 1 0.007348 -0.001283 -0.002022 -0.000798 -0.001716 0.002608
# 2 -0.001283 0.020527 -0.006275 0.008841 0.006050 0.010210
# 3 -0.002022 -0.006275 0.015157 -0.001282 0.001577 -0.001703
# 4 -0.000798 0.008841 -0.001282 0.051102 0.014305 0.005292
# 5 -0.001716 0.006050 0.001577 0.014305 0.029334 0.017524
# 6 0.002608 0.010210 -0.001703 0.005292 0.017524 0.046874
#
#
# Mechanical properties :
#
#
# Convention : Reuss Voigt Hill
#
# Bulk Modulus (GPa) = 41.89027 52.77720 47.33374
# Shear Modulus (GPa) = 25.32158 37.22835 31.27497
#
# Velocity S-wave (km/s) = 3.14669 3.81544 3.49709
# Velocity P-wave (km/s) = 5.43900 6.32834 5.90045
#
# Compressibility (1/GPa) = 0.02387189
#
# Stress axis : x y z
#
# Youngs Moduli (GPa) = 136.08272 48.71712 65.97614
#
# Poissons Ratio (x) = 0.06252 0.13342
# Poissons Ratio (y) = 0.17463 0.41397
# Poissons Ratio (z) = 0.27520 0.30568
#
# Static dielectric constant tensor:
#      x y z
#    x 2.041550 0.019640 0.000840 
#    y 0.019640 2.067170 -0.101050 
#    z 0.000840 -0.101050 2.081110 
# 
# From -- ./inp_files/391509.got.cif
#   From: 2010.05.17/outbox.cif.g08.bks.cpg/sg2_196_cif.got.tgz:391509.got - 2010.06.03 11:33:40.
