data_PCOD9097853
_publ_section_title
;
Structure prediction by ZEFSAII (Michael W. Deem and Ramdas Pophale) SiO2 
 PCOD9097853
Probable space group: P -1
;
_chemical_formula_sum "Si O2"
_cell_formula_units_Z 15
_cell_length_a 11.660028
_cell_length_b 12.008896
_cell_length_c 6.351307
_cell_angle_alpha 135.064247
_cell_angle_beta 77.653693
_cell_angle_gamma 112.438390
_cell_volume 578.423927
_symmetry_space_group_name_H-M "P -1"
_symmetry_group_IT_number 2
_symmetry_cell_setting 'triclinic'
loop_
_space_group_symop_operation_xyz
x,y,z
-x,-y,-z
loop_
_atom_site_type_symbol
_atom_site_label
_atom_site_fract_x
_atom_site_fract_y
_atom_site_fract_z
Si Si1 0.191498 0.543313 0.927342
Si Si2 0.143481 0.944390 0.133460
Si Si3 0.530662 0.639728 0.490230
Si Si4 0.974725 0.604036 0.845159
Si Si5 0.500000 0.000000 0.500000
Si Si6 0.221401 0.236712 0.240553
Si Si7 0.363868 0.809839 0.938142
Si Si8 0.314740 0.206039 0.736761
O O1 0.082513 0.607964 0.975117
O O2 0.190768 0.383164 0.573904
O O3 0.315258 0.694819 0.017851
O O4 0.153563 0.485538 0.102006
O O5 0.131711 0.054102 0.087350
O O6 0.201017 0.075310 0.476118
O O7 0.014033 0.797591 0.026815
O O8 0.249176 0.855674 0.951522
O O9 0.500000 0.500000 0.500000
O O10 0.650860 0.774246 0.725949
O O11 0.413948 0.702106 0.615509
O O12 0.593788 0.644966 0.243813
O O13 0.000000 0.500000 0.500000
O O14 0.398661 0.102948 0.662277
O O15 0.526614 0.041145 0.800359
O O16 0.255542 0.278538 0.044364
#
# Coordination Sequence:
#
# PCOD9097853 Si02
#       8
#     2   2   2   2   1   2   2   2
#     4  10  23  43  64  93 128 159 217 268 315 380
#     4   9  23  40  64  93 129 160 215 269 317 375
#     4  11  22  39  59  91 138 171 212 257 307 374
#     4  10  23  46  68  91 117 166 212 268 330 381
#     4  10  20  36  62  90 124 180 212 246 308 372
#     4  11  22  40  63  95 131 169 209 262 318 381
#     4  10  20  41  60  93 131 174 209 263 302 380
#     4  10  23  37  61  94 131 172 213 254 311 378
#
# _framework density 25.932538000000001
#
# number of rings (size 3 to 8) (size 9 to 14) (size 15 to 20)
#    0.000    1.867    2.667    0.000    1.867    9.067 
#    2.400    1.333    0.000    0.000    0.000    0.000 
#    0.000    0.000    0.000    0.000    0.000    0.000 
#
# Total GULP energy -83519.745635 kJ/mol
# GULP energy per Si atom -5567.983042 kJ/mol
# Density = 2.587351 g / cm^3
# Si number density = 25.932538 Si / 1000 Ang^3
#
#
#
# Elastic Constant Matrix: (Units=GPa)
#
#
# Indices 1 2 3 4 5 6 
#
# 1 80.4227 1.4033 -1.2671 -3.4384 -7.1754 -11.4004
# 2 1.4033 131.6696 49.6763 -11.1917 -13.9753 -14.4963
# 3 -1.2671 49.6763 101.0300 -23.4032 -22.9673 14.9951
# 4 -3.4384 -11.1917 -23.4032 38.2072 3.5381 -2.1989
# 5 -7.1754 -13.9753 -22.9673 3.5381 38.4730 1.3481
# 6 -11.4004 -14.4963 14.9951 -2.1989 1.3481 30.2980
#
#
#
# Elastic Compliance Matrix: (Units=1/GPa)
#
#
# Indices 1 2 3 4 5 6 
#
# 1 0.013489 0.000955 -0.000270 0.001435 0.002371 0.005665
# 2 0.000955 0.011164 -0.006965 -0.000365 -0.000211 0.009131
# 3 -0.000270 -0.006965 0.018979 0.008052 0.008451 -0.012619
# 4 0.001435 -0.000365 0.008052 0.030842 0.002157 -0.001477
# 5 0.002371 -0.000211 0.008451 0.002157 0.031367 -0.004630
# 6 0.005665 0.009131 -0.012619 -0.001477 -0.004630 0.045850
#
#
# Mechanical properties :
#
#
# Convention : Reuss Voigt Hill
#
# Bulk Modulus (GPa) = 32.18261 45.86081 39.02171
# Shear Modulus (GPa) = 28.63542 38.94965 33.79254
#
# Velocity S-wave (km/s) = 3.32660 3.87972 3.61376
# Velocity P-wave (km/s) = 5.21460 6.14757 5.70021
#
# Compressibility (1/GPa) = 0.03107269
#
# Stress axis : x y z
#
# Youngs Moduli (GPa) = 74.13262 89.57072 52.69058
#
# Poissons Ratio (x) = -0.08558 0.01423
# Poissons Ratio (y) = -0.07083 0.36701
# Poissons Ratio (z) = 0.02001 0.62389
#
# Static dielectric constant tensor:
#      x y z
#    x 2.052490 0.067430 0.013370 
#    y 0.067430 2.161310 -0.046200 
#    z 0.013370 -0.046200 2.093410 
# 
# From -- ./inp_files/94206.got.cif
#   From: 2010.05.17/outbox.cif.g08.bks.cpg/sg2_48_cif.got.tgz:94206.got - 2010.06.03 11:33:40.
