data_PCOD9097086
_publ_section_title
;
Structure prediction by ZEFSAII (Michael W. Deem and Ramdas Pophale) SiO2 
 PCOD9097086
Probable space group: P -1
;
_chemical_formula_sum "Si O2"
_cell_formula_units_Z 15
_cell_length_a 10.949273
_cell_length_b 20.885527
_cell_length_c 7.028830
_cell_angle_alpha 135.743824
_cell_angle_beta 114.793467
_cell_angle_gamma 31.811780
_cell_volume 507.009557
_symmetry_space_group_name_H-M "P -1"
_symmetry_group_IT_number 2
_symmetry_cell_setting 'triclinic'
loop_
_space_group_symop_operation_xyz
x,y,z
-x,-y,-z
loop_
_atom_site_type_symbol
_atom_site_label
_atom_site_fract_x
_atom_site_fract_y
_atom_site_fract_z
Si Si1 0.058553 0.834408 0.316205
Si Si2 0.584315 0.791545 0.253747
Si Si3 0.780545 0.448922 0.205153
Si Si4 0.887350 0.420526 0.767160
Si Si5 0.500000 0.500000 0.500000
Si Si6 0.625051 0.178144 0.413138
Si Si7 0.751088 0.716294 0.773343
Si Si8 0.914402 0.153511 0.211274
O O1 0.083790 0.799758 0.484652
O O2 0.219527 0.834733 0.395168
O O3 0.730382 0.027984 0.494701
O O4 0.255511 0.636618 0.939035
O O5 0.792610 0.746373 0.370304
O O6 0.733144 0.604253 0.983190
O O7 0.584512 0.812263 0.066845
O O8 0.527890 0.667501 0.520875
O O9 0.074537 0.295244 0.159240
O O10 0.816764 0.446502 0.998623
O O11 0.771950 0.399024 0.543478
O O12 0.649023 0.318429 0.267044
O O13 0.389649 0.241892 0.415291
O O14 0.849309 0.973865 0.056324
O O15 0.000000 0.500000 0.500000
O O16 0.000000 0.000000 0.000000
#
# Coordination Sequence:
#
# PCOD9097086 Si02
#       8
#     2   2   2   2   1   2   2   2
#     4  11  20  36  60  90 113 154 206 252 289 358
#     4  10  21  38  59  85 123 157 201 246 313 353
#     4  10  21  37  56  87 122 151 199 247 301 359
#     4  10  22  37  58  87 120 160 196 255 298 366
#     4  12  22  38  60  92 120 154 216 246 296 360
#     4  10  20  36  59  86 119 160 192 245 310 358
#     4   9  19  34  57  86 118 156 196 243 305 365
#     4  10  21  36  60  89 120 155 204 252 298 356
#
# _framework density 29.585239000000001
#
# number of rings (size 3 to 8) (size 9 to 14) (size 15 to 20)
#    0.000    1.867    2.667    2.000    1.867    3.200 
#    0.000    2.667    0.000    0.000    0.000   14.000 
#    0.000    0.000    0.000    0.000    0.000    0.000 
#
# Total GULP energy -83532.495455 kJ/mol
# GULP energy per Si atom -5568.833030 kJ/mol
# Density = 2.951790 g / cm^3
# Si number density = 29.585239 Si / 1000 Ang^3
#
#
#
# Elastic Constant Matrix: (Units=GPa)
#
#
# Indices 1 2 3 4 5 6 
#
# 1 144.9875 59.8754 14.5798 -9.3007 -3.8082 -23.5144
# 2 59.8754 205.3085 48.9206 13.4154 4.7174 -46.6957
# 3 14.5798 48.9206 98.2274 6.8875 -3.8993 -18.3436
# 4 -9.3007 13.4154 6.8875 55.9707 -8.3113 1.3489
# 5 -3.8082 4.7174 -3.8993 -8.3113 44.7760 -6.1670
# 6 -23.5144 -46.6957 -18.3436 1.3489 -6.1670 70.7637
#
#
#
# Elastic Compliance Matrix: (Units=1/GPa)
#
#
# Indices 1 2 3 4 5 6 
#
# 1 0.008224 -0.002285 0.000081 0.002098 0.001521 0.001338
# 2 -0.002285 0.006998 -0.002458 -0.001991 -0.001079 0.003165
# 3 0.000081 -0.002458 0.011793 -0.000681 0.001386 0.001596
# 4 0.002098 -0.001991 -0.000681 0.019362 0.003808 -0.000830
# 5 0.001521 -0.001079 0.001386 0.003808 0.023700 0.002145
# 6 0.001338 0.003165 0.001596 -0.000830 0.002145 0.017281
#
#
# Mechanical properties :
#
#
# Convention : Reuss Voigt Hill
#
# Bulk Modulus (GPa) = 56.52932 77.25277 66.89105
# Shear Modulus (GPa) = 48.74226 55.97858 52.36042
#
# Velocity S-wave (km/s) = 4.06337 4.35456 4.21148
# Velocity P-wave (km/s) = 6.41587 7.17297 6.80496
#
# Compressibility (1/GPa) = 0.01768993
#
# Stress axis : x y z
#
# Youngs Moduli (GPa) = 121.58884 142.90467 84.79265
#
# Poissons Ratio (x) = 0.32660 -0.00684
# Poissons Ratio (y) = 0.27788 0.20843
# Poissons Ratio (z) = -0.00981 0.35127
#
# Static dielectric constant tensor:
#      x y z
#    x 2.645300 0.066230 0.322420 
#    y 0.066230 2.685580 0.211790 
#    z 0.322420 0.211790 2.845450 
# 
# From -- ./inp_files/285063.got.cif
#   From: 2010.05.17/outbox.cif.g08.bks.cpg/sg2_143_cif.got.tgz:285063.got - 2010.06.03 11:33:40.
