data_PCOD9097327
_publ_section_title
;
Structure prediction by ZEFSAII (Michael W. Deem and Ramdas Pophale) SiO2 
 PCOD9097327
Probable space group: P -1
;
_chemical_formula_sum "Si O2"
_cell_formula_units_Z 16
_cell_length_a 18.660318
_cell_length_b 16.109854
_cell_length_c 8.110161
_cell_angle_alpha 65.660819
_cell_angle_beta 55.412471
_cell_angle_gamma 22.622245
_cell_volume 722.289071
_symmetry_space_group_name_H-M "P -1"
_symmetry_group_IT_number 2
_symmetry_cell_setting 'triclinic'
loop_
_space_group_symop_operation_xyz
x,y,z
-x,-y,-z
loop_
_atom_site_type_symbol
_atom_site_label
_atom_site_fract_x
_atom_site_fract_y
_atom_site_fract_z
Si Si1 0.578888 0.085031 0.524058
Si Si2 0.633441 0.977204 0.161105
Si Si3 0.534795 0.612847 0.648917
Si Si4 0.390055 0.569040 0.753219
Si Si5 0.130989 0.488515 0.947374
Si Si6 0.414370 0.776424 0.018540
Si Si7 0.228082 0.262947 0.303649
Si Si8 0.086812 0.740423 0.826535
O O1 0.632639 0.998470 0.341001
O O2 0.604907 0.168987 0.423928
O O3 0.320670 0.314360 0.706113
O O4 0.721732 0.893183 0.629397
O O5 0.439227 0.097447 0.263802
O O6 0.574506 0.128964 0.024766
O O7 0.885631 0.706134 0.021089
O O8 0.408082 0.638668 0.790392
O O9 0.755457 0.395714 0.427844
O O10 0.571399 0.606594 0.795186
O O11 0.500000 0.500000 0.500000
O O12 0.531274 0.348825 0.813728
O O13 0.160866 0.742175 0.864308
O O14 0.118763 0.603198 0.946560
O O15 0.206915 0.339857 0.100664
O O16 0.165063 0.003872 0.098152
O O17 0.000000 0.500000 0.500000
#
# Coordination Sequence:
#
# PCOD9097327 Si02
#       8
#     2   2   2   2   2   2   2   2
#     4  10  21  40  60  83 121 155 193 244 286 340
#     4  10  22  41  60  86 116 154 194 240 290 346
#     4   9  20  37  58  84 118 151 193 238 281 337
#     4  10  20  36  60  87 118 150 191 237 281 343
#     4  10  21  40  61  87 118 154 194 239 290 342
#     4  10  20  38  62  82 115 153 190 235 289 336
#     4  12  23  38  63  86 118 154 194 240 294 346
#     4   9  20  38  61  84 116 154 189 235 286 337
#
# _framework density 22.151795
#
# number of rings (size 3 to 8) (size 9 to 14) (size 15 to 20)
#    0.000    2.000    1.250    1.875    0.000    3.000 
#    2.250    2.500   11.000    0.000    0.000    0.000 
#    0.000    0.000    0.000    0.000    0.000    0.000 
#
# Total GULP energy -89389.394006 kJ/mol
# GULP energy per Si atom -5586.837125 kJ/mol
# Density = 2.210138 g / cm^3
# Si number density = 22.151795 Si / 1000 Ang^3
#
#
#
# Elastic Constant Matrix: (Units=GPa)
#
#
# Indices 1 2 3 4 5 6 
#
# 1 45.4149 9.1329 9.5819 4.8658 -19.7044 5.4881
# 2 9.1329 89.3484 44.0685 -14.2780 -16.1639 9.5472
# 3 9.5819 44.0685 80.6977 -6.7528 -6.8730 11.0429
# 4 4.8658 -14.2780 -6.7528 50.6520 5.9934 -8.4135
# 5 -19.7044 -16.1639 -6.8730 5.9934 31.9946 1.9464
# 6 5.4881 9.5472 11.0429 -8.4135 1.9464 19.1595
#
#
#
# Elastic Compliance Matrix: (Units=1/GPa)
#
#
# Indices 1 2 3 4 5 6 
#
# 1 0.036085 0.002188 -0.001720 -0.008934 0.025665 -0.016966
# 2 0.002188 0.017298 -0.008229 0.001840 0.008250 -0.004534
# 3 -0.001720 -0.008229 0.017755 -0.000646 -0.000927 -0.005830
# 4 -0.008934 0.001840 -0.000646 0.024529 -0.010147 0.013817
# 5 0.025665 0.008250 -0.000927 -0.010147 0.054202 -0.020891
# 6 -0.016966 -0.004534 -0.005830 0.013817 -0.020891 0.070862
#
#
# Mechanical properties :
#
#
# Convention : Reuss Voigt Hill
#
# Bulk Modulus (GPa) = 17.98037 37.89194 27.93616
# Shear Modulus (GPa) = 19.62388 30.53974 25.08181
#
# Velocity S-wave (km/s) = 2.97961 3.71706 3.36857
# Velocity P-wave (km/s) = 4.46900 5.96362 5.26957
#
# Compressibility (1/GPa) = 0.05561621
#
# Stress axis : x y z
#
# Youngs Moduli (GPa) = 27.71243 57.80925 56.32286
#
# Poissons Ratio (x) = -0.12648 0.09685
# Poissons Ratio (y) = -0.06063 0.46350
# Poissons Ratio (z) = 0.04765 0.47573
#
# Static dielectric constant tensor:
#      x y z
#    x 1.896880 0.035070 -0.023920 
#    y 0.035070 1.786570 -0.020910 
#    z -0.023920 -0.020910 1.841360 
# 
# From -- ./inp_files/106281.got.cif
#   From: 2010.05.17/outbox.cif.g08.bks.cpg/sg2_54_cif.got.tgz:106281.got - 2010.06.03 11:33:40.
