data_PCOD9097212
_publ_section_title
;
Structure prediction by ZEFSAII (Michael W. Deem and Ramdas Pophale) SiO2 
 PCOD9097212
Probable space group: P -1
;
_chemical_formula_sum "Si O2"
_cell_formula_units_Z 16
_cell_length_a 9.968422
_cell_length_b 10.904742
_cell_length_c 18.746846
_cell_angle_alpha 40.582202
_cell_angle_beta 31.518817
_cell_angle_gamma 59.684545
_cell_volume 629.114219
_symmetry_space_group_name_H-M "P -1"
_symmetry_group_IT_number 2
_symmetry_cell_setting 'triclinic'
loop_
_space_group_symop_operation_xyz
x,y,z
-x,-y,-z
loop_
_atom_site_type_symbol
_atom_site_label
_atom_site_fract_x
_atom_site_fract_y
_atom_site_fract_z
Si Si1 0.568330 0.847097 0.385570
Si Si2 0.792463 0.935275 0.822801
Si Si3 0.112286 0.831703 0.099979
Si Si4 0.884783 0.686934 0.411466
Si Si5 0.624688 0.732932 0.140656
Si Si6 0.526825 0.538927 0.054497
Si Si7 0.969722 0.550759 0.158554
Si Si8 0.201038 0.089860 0.438615
O O1 0.703624 0.820950 0.412028
O O2 0.283252 0.635681 0.603099
O O3 0.465673 0.028529 0.343645
O O4 0.813749 0.861762 0.213398
O O5 0.541169 0.763063 0.967179
O O6 0.855864 0.162205 0.724814
O O7 0.042571 0.994950 0.625629
O O8 0.741651 0.807512 0.975854
O O9 0.138070 0.720639 0.066274
O O10 0.006066 0.671557 0.286152
O O11 0.335745 0.058951 0.925077
O O12 0.674019 0.468127 0.633793
O O13 0.830797 0.649266 0.122797
O O14 0.832539 0.539128 0.930717
O O15 0.500000 0.500000 0.000000
O O16 0.301068 0.336755 0.283919
O O17 0.000000 0.000000 0.500000
#
# Coordination Sequence:
#
# PCOD9097212 Si02
#       8
#     2   2   2   2   2   2   2   2
#     4   9  19  37  57  91 122 158 198 240 307 349
#     4  11  22  41  57  87 125 156 202 247 304 365
#     4   9  19  36  60  91 131 152 199 246 302 356
#     4   8  20  37  59  89 127 159 190 245 312 353
#     4  10  20  36  59  94 124 159 191 247 308 356
#     4  12  25  42  62  88 118 160 205 247 298 360
#     4  11  20  38  61  94 125 158 201 247 299 356
#     4  12  23  41  60  83 121 162 203 248 294 358
#
# _framework density 25.432582
#
# number of rings (size 3 to 8) (size 9 to 14) (size 15 to 20)
#    0.750    1.000    2.500    2.250    0.000    1.000 
#    0.000    0.000    0.000    3.000    0.000    8.750 
#    0.000    0.000    0.000    0.000    0.000    0.000 
#
# Total GULP energy -89396.288958 kJ/mol
# GULP energy per Si atom -5587.268060 kJ/mol
# Density = 2.537470 g / cm^3
# Si number density = 25.432582 Si / 1000 Ang^3
#
#
#
# Elastic Constant Matrix: (Units=GPa)
#
#
# Indices 1 2 3 4 5 6 
#
# 1 94.4929 45.7981 45.1728 -18.1413 4.9326 11.6090
# 2 45.7981 81.9945 44.9057 -5.5101 17.1592 -1.1464
# 3 45.1728 44.9057 202.3086 -15.8433 4.4414 13.7812
# 4 -18.1413 -5.5101 -15.8433 43.9846 5.2964 -0.3476
# 5 4.9326 17.1592 4.4414 5.2964 36.0793 -3.3496
# 6 11.6090 -1.1464 13.7812 -0.3476 -3.3496 43.7636
#
#
#
# Elastic Compliance Matrix: (Units=1/GPa)
#
#
# Indices 1 2 3 4 5 6 
#
# 1 0.016811 -0.008622 -0.001153 0.005312 0.000773 -0.004221
# 2 -0.008622 0.020016 -0.002643 -0.001064 -0.007575 0.003055
# 3 -0.001153 -0.002643 0.005991 0.001298 0.000337 -0.001614
# 4 0.005312 -0.001064 0.001298 0.025768 -0.004346 -0.001974
# 5 0.000773 -0.007575 0.000337 -0.004346 0.031987 0.001904
# 6 -0.004221 0.003055 -0.001614 -0.001974 0.001904 0.024688
#
#
# Mechanical properties :
#
#
# Convention : Reuss Voigt Hill
#
# Bulk Modulus (GPa) = 55.61195 72.28324 63.94760
# Shear Modulus (GPa) = 32.03264 40.96014 36.49639
#
# Velocity S-wave (km/s) = 3.55281 4.01750 3.79228
# Velocity P-wave (km/s) = 6.22445 7.07133 6.66136
#
# Compressibility (1/GPa) = 0.01798175
#
# Stress axis : x y z
#
# Youngs Moduli (GPa) = 59.48511 49.96112 166.90920
#
# Poissons Ratio (x) = 0.43076 0.19251
# Poissons Ratio (y) = 0.51287 0.44111
# Poissons Ratio (z) = 0.06861 0.13204
#
# Static dielectric constant tensor:
#      x y z
#    x 2.113840 -0.066280 -0.072310 
#    y -0.066280 1.981910 -0.018720 
#    z -0.072310 -0.018720 1.989720 
# 
# From -- ./inp_files/568663.got.cif
#   From: 2010.05.17/outbox.cif.g08.bks.cpg/sg2_285_cif.got.tgz:568663.got - 2010.06.03 11:33:40.
