data_PCOD9097930
_publ_section_title
;
Structure prediction by ZEFSAII (Michael W. Deem and Ramdas Pophale) SiO2 
 PCOD9097930
Probable space group: P -1
;
_chemical_formula_sum "Si O2"
_cell_formula_units_Z 16
_cell_length_a 11.458139
_cell_length_b 10.802784
_cell_length_c 8.456706
_cell_angle_alpha 74.957454
_cell_angle_beta 54.398045
_cell_angle_gamma 51.470399
_cell_volume 657.006201
_symmetry_space_group_name_H-M "P -1"
_symmetry_group_IT_number 2
_symmetry_cell_setting 'triclinic'
loop_
_space_group_symop_operation_xyz
x,y,z
-x,-y,-z
loop_
_atom_site_type_symbol
_atom_site_label
_atom_site_fract_x
_atom_site_fract_y
_atom_site_fract_z
Si Si1 0.252668 0.574307 0.585904
Si Si2 0.659851 0.547539 0.987534
Si Si3 0.287973 0.083510 0.117102
Si Si4 0.011232 0.197895 0.034835
Si Si5 0.546507 0.330393 0.210581
Si Si6 0.686858 0.182113 0.652013
Si Si7 0.828999 0.026384 0.264336
Si Si8 0.949235 0.575700 0.684748
O O1 0.448981 0.427128 0.419623
O O2 0.222700 0.726227 0.466335
O O3 0.173234 0.643859 0.799452
O O4 0.128364 0.527633 0.640475
O O5 0.588759 0.626559 0.840781
O O6 0.845965 0.518401 0.873970
O O7 0.652807 0.397742 0.040511
O O8 0.516886 0.675564 0.186026
O O9 0.178166 0.165822 0.013316
O O10 0.184197 0.231205 0.271599
O O11 0.253944 0.951858 0.220686
O O12 0.500000 0.000000 0.000000
O O13 0.968124 0.070513 0.149158
O O14 0.071611 0.152450 0.819801
O O15 0.679089 0.146455 0.213061
O O16 0.725404 0.085677 0.491895
O O17 0.000000 0.500000 0.500000
#
# Coordination Sequence:
#
# PCOD9097930 Si02
#       8
#     2   2   2   2   2   2   2   2
#     4   9  20  36  62  87 125 151 205 253 299 358
#     4  10  20  36  62  94 122 156 220 246 297 369
#     4  11  22  40  69  85 124 164 203 258 308 358
#     4   9  21  38  58  91 122 156 200 258 302 354
#     4  10  20  37  65  89 119 172 201 254 300 364
#     4  10  21  39  63  96 112 163 212 248 303 370
#     4  10  21  39  63  89 129 157 205 257 304 365
#     4  11  21  37  58  93 127 149 201 263 308 344
#
# _framework density 24.352889000000001
#
# number of rings (size 3 to 8) (size 9 to 14) (size 15 to 20)
#    0.000    2.000    2.500    0.750    0.000    9.000 
#    6.750    0.625    2.750    4.500    0.000    0.000 
#    0.000    0.000    0.000    0.000    0.000    0.000 
#
# Total GULP energy -89309.989457 kJ/mol
# GULP energy per Si atom -5581.874341 kJ/mol
# Density = 2.429746 g / cm^3
# Si number density = 24.352889 Si / 1000 Ang^3
#
#
#
# Elastic Constant Matrix: (Units=GPa)
#
#
# Indices 1 2 3 4 5 6 
#
# 1 100.3829 7.5300 31.0782 9.3133 -5.2039 6.9650
# 2 7.5300 81.1561 25.3728 25.8766 -4.1649 7.8861
# 3 31.0782 25.3728 129.1700 32.8852 4.5942 9.9249
# 4 9.3133 25.8766 32.8852 54.2838 14.7736 1.5106
# 5 -5.2039 -4.1649 4.5942 14.7736 41.4753 5.5809
# 6 6.9650 7.8861 9.9249 1.5106 5.5809 35.6169
#
#
#
# Elastic Compliance Matrix: (Units=1/GPa)
#
#
# Indices 1 2 3 4 5 6 
#
# 1 0.011034 0.000426 -0.002353 -0.001270 0.002398 -0.001918
# 2 0.000426 0.015902 -0.000988 -0.008379 0.005255 -0.003797
# 3 -0.002353 -0.000988 0.009978 -0.005292 0.000652 -0.001979
# 4 -0.001270 -0.008379 -0.005292 0.028779 -0.011220 0.004116
# 5 0.002398 0.005255 0.000652 -0.011220 0.029669 -0.005987
# 6 -0.001918 -0.003797 -0.001979 0.004116 -0.005987 0.030608
#
#
# Mechanical properties :
#
#
# Convention : Reuss Voigt Hill
#
# Bulk Modulus (GPa) = 32.17048 48.74121 40.45585
# Shear Modulus (GPa) = 35.17159 42.72375 38.94767
#
# Velocity S-wave (km/s) = 3.80445 4.19305 4.00347
# Velocity P-wave (km/s) = 5.70414 6.59547 6.16593
#
# Compressibility (1/GPa) = 0.03108440
#
# Stress axis : x y z
#
# Youngs Moduli (GPa) = 90.63207 62.88627 100.21815
#
# Poissons Ratio (x) = -0.02681 0.23581
# Poissons Ratio (y) = -0.03864 0.09902
# Poissons Ratio (z) = 0.21325 0.06213
#
# Static dielectric constant tensor:
#      x y z
#    x 1.975990 -0.060960 0.040920 
#    y -0.060960 1.998410 -0.006470 
#    z 0.040920 -0.006470 1.974090 
# 
# From -- ./inp_files/257897.got.cif
#   From: 2010.05.17/outbox.cif.g08.bks.cpg/sg2_129_cif.got.tgz:257897.got - 2010.06.03 11:33:40.
