data_PCOD9097714
_publ_section_title
;
Structure prediction by ZEFSAII (Michael W. Deem and Ramdas Pophale) SiO2 
 PCOD9097714
Probable space group: P -1
;
_chemical_formula_sum "Si O2"
_cell_formula_units_Z 14
_cell_length_a 16.992352
_cell_length_b 11.542479
_cell_length_c 11.604113
_cell_angle_alpha 63.828975
_cell_angle_beta 151.390348
_cell_angle_gamma 134.812804
_cell_volume 658.929200
_symmetry_space_group_name_H-M "P -1"
_symmetry_group_IT_number 2
_symmetry_cell_setting 'triclinic'
loop_
_space_group_symop_operation_xyz
x,y,z
-x,-y,-z
loop_
_atom_site_type_symbol
_atom_site_label
_atom_site_fract_x
_atom_site_fract_y
_atom_site_fract_z
Si Si1 0.116016 0.996462 0.263745
Si Si2 0.467280 0.571644 0.316348
Si Si3 0.315397 0.353796 0.988778
Si Si4 0.892112 0.262457 0.080176
Si Si5 0.753680 0.483030 0.361931
Si Si6 0.040606 0.408426 0.980233
Si Si7 0.648829 0.145796 0.426541
O O1 0.234264 0.925594 0.418729
O O2 0.898458 0.851068 0.137981
O O3 0.331998 0.203012 0.508361
O O4 0.000000 0.000000 0.000000
O O5 0.500000 0.500000 0.500000
O O6 0.465447 0.502769 0.221756
O O7 0.191942 0.458276 0.039438
O O8 0.212836 0.410006 0.753854
O O9 0.494082 0.371911 0.132986
O O10 0.046604 0.361818 0.352428
O O11 0.841746 0.384476 0.932358
O O12 0.045458 0.317635 0.137175
O O13 0.642453 0.040256 0.867786
O O14 0.736810 0.320034 0.388416
O O15 0.759792 0.249523 0.648293
#
# Coordination Sequence:
#
# PCOD9097714 Si02
#       7
#     2   2   2   2   2   2   2
#     4  12  25  41  71 103 134 169 219 282 341 394
#     4  12  22  40  66  95 133 171 215 274 340 386
#     4  11  25  48  66  97 137 174 231 272 329 402
#     4  10  21  38  64  95 137 169 221 270 330 402
#     4  10  26  45  69  93 134 188 219 273 328 398
#     4  10  20  36  61  97 132 171 211 272 331 385
#     4  11  22  42  67 103 132 173 225 273 336 396
#
# _framework density 21.246590000000001
#
# number of rings (size 3 to 8) (size 9 to 14) (size 15 to 20)
#    0.000    1.143    4.286    1.286    0.000    6.286 
#    0.000    4.286    0.000    0.000    0.000    0.000 
#    0.000    0.000    0.000    0.000    0.000    0.000 
#
# Total GULP energy -78123.635517 kJ/mol
# GULP energy per Si atom -5580.259680 kJ/mol
# Density = 2.119823 g / cm^3
# Si number density = 21.246590 Si / 1000 Ang^3
#
#
#
# Elastic Constant Matrix: (Units=GPa)
#
#
# Indices 1 2 3 4 5 6 
#
# 1 42.7779 27.2259 4.8531 0.9734 -0.0223 10.7454
# 2 27.2259 131.3384 67.2996 16.4807 -6.7595 11.5811
# 3 4.8531 67.2996 106.9101 22.9186 -10.7099 14.3128
# 4 0.9734 16.4807 22.9186 49.8527 -3.3924 -2.9408
# 5 -0.0223 -6.7595 -10.7099 -3.3924 29.4477 -1.1595
# 6 10.7454 11.5811 14.3128 -2.9408 -1.1595 39.1224
#
#
#
# Elastic Compliance Matrix: (Units=1/GPa)
#
#
# Indices 1 2 3 4 5 6 
#
# 1 0.029773 -0.007853 0.004704 -0.000628 -0.000442 -0.007634
# 2 -0.007853 0.013351 -0.008088 -0.000468 0.000108 0.001132
# 3 0.004704 -0.008088 0.016324 -0.005001 0.003305 -0.005148
# 4 -0.000628 -0.000468 -0.005001 0.022812 0.000854 0.003881
# 5 -0.000442 0.000108 0.003305 0.000854 0.035283 -0.000010
# 6 -0.007634 0.001132 -0.005148 0.003881 -0.000010 0.029497
#
#
# Mechanical properties :
#
#
# Convention : Reuss Voigt Hill
#
# Bulk Modulus (GPa) = 27.04633 53.30930 40.17781
# Shear Modulus (GPa) = 27.49693 35.79440 31.64567
#
# Velocity S-wave (km/s) = 3.60138 4.10898 3.86352
# Velocity P-wave (km/s) = 5.48184 6.90339 6.23327
#
# Compressibility (1/GPa) = 0.03697360
#
# Stress axis : x y z
#
# Youngs Moduli (GPa) = 33.58796 74.90178 61.25914
#
# Poissons Ratio (x) = 0.58821 -0.28819
# Poissons Ratio (y) = 0.26377 0.49548
# Poissons Ratio (z) = -0.15801 0.60583
#
# Static dielectric constant tensor:
#      x y z
#    x 2.008240 -0.063770 0.041310 
#    y -0.063770 1.796520 -0.059220 
#    z 0.041310 -0.059220 1.911500 
# 
# From -- ./inp_files/261903.got.cif
#   From: 2010.05.17/outbox.cif.g08.bks.cpg/sg2_131_cif.got.tgz:261903.got - 2010.06.03 11:33:40.
