data_PCOD9097549
_publ_section_title
;
Structure prediction by ZEFSAII (Michael W. Deem and Ramdas Pophale) SiO2 
 PCOD9097549
Probable space group: P -1
;
_chemical_formula_sum "Si O2"
_cell_formula_units_Z 14
_cell_length_a 9.709871
_cell_length_b 7.779509
_cell_length_c 12.701180
_cell_angle_alpha 59.278830
_cell_angle_beta 89.452646
_cell_angle_gamma 54.966735
_cell_volume 618.062677
_symmetry_space_group_name_H-M "P -1"
_symmetry_group_IT_number 2
_symmetry_cell_setting 'triclinic'
loop_
_space_group_symop_operation_xyz
x,y,z
-x,-y,-z
loop_
_atom_site_type_symbol
_atom_site_label
_atom_site_fract_x
_atom_site_fract_y
_atom_site_fract_z
Si Si1 0.270173 0.144119 0.844133
Si Si2 0.849359 0.094326 0.559474
Si Si3 0.780023 0.814110 0.784114
Si Si4 0.441517 0.427169 0.922144
Si Si5 0.001520 0.251958 0.994132
Si Si6 0.443777 0.370454 0.712170
Si Si7 0.924118 0.008453 0.218760
O O1 0.290517 0.355616 0.753498
O O2 0.147570 0.201827 0.926973
O O3 0.177599 0.104380 0.763513
O O4 0.476397 0.865810 0.954751
O O5 0.655644 0.364899 0.436659
O O6 0.835156 0.873618 0.657787
O O7 0.000000 0.000000 0.500000
O O8 0.912740 0.144985 0.650763
O O9 0.810565 0.546078 0.870892
O O10 0.590543 0.098995 0.731727
O O11 0.922158 0.748483 0.892984
O O12 0.520851 0.385339 0.817113
O O13 0.228767 0.687814 0.833486
O O14 0.500000 0.500000 0.000000
O O15 0.977787 0.042524 0.092467
#
# Coordination Sequence:
#
# PCOD9097549 Si02
#       7
#     2   2   2   2   2   2   2
#     4  11  22  36  63  91 117 156 192 252 298 345
#     4  11  22  39  62  84 120 163 197 241 290 358
#     4  10  22  36  59  92 116 153 203 245 294 349
#     4  10  21  37  59  90 118 151 194 247 296 344
#     4  10  20  36  61  87 121 150 196 255 293 342
#     4  12  22  38  62  87 124 158 197 236 298 360
#     4  10  22  39  58  91 121 152 201 241 298 348
#
# _framework density 22.651423000000001
#
# number of rings (size 3 to 8) (size 9 to 14) (size 15 to 20)
#    0.000    1.429    2.857    3.000    4.000    0.571 
#    0.000    0.000    0.000    1.714    0.000    0.000 
#    0.000    0.000    0.000    0.000    0.000    0.000 
#
# Total GULP energy -78082.307758 kJ/mol
# GULP energy per Si atom -5577.307697 kJ/mol
# Density = 2.259987 g / cm^3
# Si number density = 22.651423 Si / 1000 Ang^3
#
#
#
# Elastic Constant Matrix: (Units=GPa)
#
#
# Indices 1 2 3 4 5 6 
#
# 1 49.9202 15.2031 20.0266 1.5818 -10.3336 9.6391
# 2 15.2031 57.4059 16.1614 11.9555 -3.2544 -17.1066
# 3 20.0266 16.1614 133.9198 -4.8933 -2.2549 1.6698
# 4 1.5818 11.9555 -4.8933 34.6075 -9.0606 -0.1943
# 5 -10.3336 -3.2544 -2.2549 -9.0606 37.4864 2.8735
# 6 9.6391 -17.1066 1.6698 -0.1943 2.8735 38.6360
#
#
#
# Elastic Compliance Matrix: (Units=1/GPa)
#
#
# Indices 1 2 3 4 5 6 
#
# 1 0.028444 -0.010968 -0.002468 0.004361 0.008751 -0.012475
# 2 -0.010968 0.027435 -0.002316 -0.010386 -0.004461 0.015263
# 3 -0.002468 -0.002316 0.008206 0.002116 0.000183 -0.000767
# 4 0.004361 -0.010386 0.002116 0.035001 0.009371 -0.006299
# 5 0.008751 -0.004461 0.000183 0.009371 0.031472 -0.006460
# 6 -0.012475 0.015263 -0.000767 -0.006299 -0.006460 0.036235
#
#
# Mechanical properties :
#
#
# Convention : Reuss Voigt Hill
#
# Bulk Modulus (GPa) = 30.69156 38.22532 34.45844
# Shear Modulus (GPa) = 23.90561 34.80298 29.35429
#
# Velocity S-wave (km/s) = 3.25217 3.92402 3.60379
# Velocity P-wave (km/s) = 5.26128 6.11904 5.70630
#
# Compressibility (1/GPa) = 0.03258224
#
# Stress axis : x y z
#
# Youngs Moduli (GPa) = 35.15655 36.45011 121.86786
#
# Poissons Ratio (x) = 0.39978 0.30074
# Poissons Ratio (y) = 0.38559 0.28220
# Poissons Ratio (z) = 0.08676 0.08440
#
# Static dielectric constant tensor:
#      x y z
#    x 1.922320 0.005720 -0.023330 
#    y 0.005720 1.977990 0.006830 
#    z -0.023330 0.006830 1.857820 
# 
# From -- ./inp_files/159785.got.cif
#   From: 2010.05.17/outbox.cif.g08.bks.cpg/sg2_80_cif.got.tgz:159785.got - 2010.06.03 11:33:40.
