data_PCOD9097532
_publ_section_title
;
Structure prediction by ZEFSAII (Michael W. Deem and Ramdas Pophale) SiO2 
 PCOD9097532
Probable space group: P -1
;
_chemical_formula_sum "Si O2"
_cell_formula_units_Z 14
_cell_length_a 11.715413
_cell_length_b 19.998557
_cell_length_c 9.309428
_cell_angle_alpha 138.267306
_cell_angle_beta 64.446300
_cell_angle_gamma 147.712114
_cell_volume 641.966489
_symmetry_space_group_name_H-M "P -1"
_symmetry_group_IT_number 2
_symmetry_cell_setting 'triclinic'
loop_
_space_group_symop_operation_xyz
x,y,z
-x,-y,-z
loop_
_atom_site_type_symbol
_atom_site_label
_atom_site_fract_x
_atom_site_fract_y
_atom_site_fract_z
Si Si1 0.058460 0.909659 0.539382
Si Si2 0.343070 0.288421 0.929474
Si Si3 0.719390 0.584058 0.441316
Si Si4 0.981914 0.390449 0.540421
Si Si5 0.508972 0.080764 0.490180
Si Si6 0.175267 0.727718 0.877606
Si Si7 0.272238 0.441350 0.080253
O O1 0.933272 0.797239 0.580417
O O2 0.885690 0.731504 0.230920
O O3 0.090747 0.049889 0.717808
O O4 0.343466 0.061529 0.600194
O O5 0.306846 0.383944 0.095239
O O6 0.556968 0.413631 0.133851
O O7 0.464043 0.346872 0.802062
O O8 0.500000 0.500000 0.500000
O O9 0.867356 0.606319 0.494952
O O10 0.175616 0.614412 0.752927
O O11 0.798271 0.296094 0.621002
O O12 0.805204 0.254341 0.275817
O O13 0.500000 0.000000 0.500000
O O14 0.359317 0.923382 0.187504
O O15 0.888647 0.574012 0.813860
#
# Coordination Sequence:
#
# PCOD9097532 Si02
#       7
#     2   2   2   2   2   2   2
#     4  10  21  38  59  91 115 156 203 246 303 352
#     4  10  20  36  61  86 119 159 200 245 298 355
#     4  11  24  39  57  86 122 157 201 248 297 359
#     4  11  23  41  62  89 124 162 201 245 304 362
#     4  11  22  39  63  91 121 154 200 255 296 354
#     4  10  23  40  62  89 121 162 201 248 306 355
#     4   9  19  38  59  88 121 154 199 249 294 357
#
# _framework density 21.807991999999999
#
# number of rings (size 3 to 8) (size 9 to 14) (size 15 to 20)
#    0.000    1.714    1.429    2.571    2.000    1.143 
#    0.000    7.143    0.000    0.000    0.000    0.000 
#    0.000    0.000    0.000    0.000    0.000    0.000 
#
# Total GULP energy -78166.904630 kJ/mol
# GULP energy per Si atom -5583.350331 kJ/mol
# Density = 2.175836 g / cm^3
# Si number density = 21.807992 Si / 1000 Ang^3
#
#
#
# Elastic Constant Matrix: (Units=GPa)
#
#
# Indices 1 2 3 4 5 6 
#
# 1 101.9280 70.2843 11.7945 12.3945 -3.4395 -14.8925
# 2 70.2843 144.2211 23.9017 4.6347 -12.6390 -2.8745
# 3 11.7945 23.9017 48.2889 7.1286 -9.0242 -14.4476
# 4 12.3945 4.6347 7.1286 19.5947 -4.2779 -2.0594
# 5 -3.4395 -12.6390 -9.0242 -4.2779 21.8837 2.0512
# 6 -14.8925 -2.8745 -14.4476 -2.0594 2.0512 40.9176
#
#
#
# Elastic Compliance Matrix: (Units=1/GPa)
#
#
# Indices 1 2 3 4 5 6 
#
# 1 0.017770 -0.009013 0.002874 -0.010310 -0.003854 0.006524
# 2 -0.009013 0.012345 -0.004982 0.005265 0.005078 -0.004162
# 3 0.002874 -0.004982 0.027845 -0.008320 0.006513 0.009783
# 4 -0.010310 0.005265 -0.008320 0.061191 0.010304 -0.003757
# 5 -0.003854 0.005078 0.006513 0.010304 0.052805 -0.000875
# 6 0.006524 -0.004162 0.009783 -0.003757 -0.000875 0.029830
#
#
# Mechanical properties :
#
#
# Convention : Reuss Voigt Hill
#
# Bulk Modulus (GPa) = 27.99709 56.26655 42.13182
# Shear Modulus (GPa) = 21.19242 29.04303 25.11773
#
# Velocity S-wave (km/s) = 3.12071 3.65329 3.39745
# Velocity P-wave (km/s) = 5.08439 6.60699 5.89505
#
# Compressibility (1/GPa) = 0.03571800
#
# Stress axis : x y z
#
# Youngs Moduli (GPa) = 56.27589 81.00768 35.91302
#
# Poissons Ratio (x) = 0.73008 -0.10322
# Poissons Ratio (y) = 0.50719 0.17893
# Poissons Ratio (z) = -0.16175 0.40361
#
# Static dielectric constant tensor:
#      x y z
#    x 1.853920 0.005540 0.000320 
#    y 0.005540 1.810360 -0.016920 
#    z 0.000320 -0.016920 1.804510 
# 
# From -- ./inp_files/47384.got.cif
#   From: 2010.05.17/outbox.cif.g08.bks.cpg/sg2_24_cif.got.tgz:47384.got - 2010.06.03 11:33:40.
