data_PCOD9097365
_publ_section_title
;
Structure prediction by ZEFSAII (Michael W. Deem and Ramdas Pophale) SiO2 
 PCOD9097365
Probable space group: P -1
;
_chemical_formula_sum "Si O2"
_cell_formula_units_Z 16
_cell_length_a 12.297996
_cell_length_b 9.299519
_cell_length_c 16.188187
_cell_angle_alpha 44.999557
_cell_angle_beta 33.987293
_cell_angle_gamma 46.579658
_cell_volume 707.492065
_symmetry_space_group_name_H-M "P -1"
_symmetry_group_IT_number 2
_symmetry_cell_setting 'triclinic'
loop_
_space_group_symop_operation_xyz
x,y,z
-x,-y,-z
loop_
_atom_site_type_symbol
_atom_site_label
_atom_site_fract_x
_atom_site_fract_y
_atom_site_fract_z
Si Si1 0.033325 0.248917 0.073544
Si Si2 0.444056 0.216417 0.740600
Si Si3 0.358196 0.227759 0.175022
Si Si4 0.823590 0.523317 0.332108
Si Si5 0.584729 0.510782 0.829688
Si Si6 0.963484 0.906355 0.681584
Si Si7 0.136195 0.776107 0.973474
Si Si8 0.255073 0.624772 0.396726
O O1 0.032498 0.137709 0.206072
O O2 0.248936 0.173712 0.925681
O O3 0.000000 0.500000 0.000000
O O4 0.870362 0.212479 0.126278
O O5 0.360566 0.351163 0.658135
O O6 0.554642 0.322388 0.697171
O O7 0.574546 0.987043 0.729569
O O8 0.284478 0.406545 0.217829
O O9 0.215917 0.169779 0.218915
O O10 0.528334 0.306172 0.985997
O O11 0.802323 0.538602 0.437487
O O12 0.851174 0.274502 0.397205
O O13 0.011705 0.607899 0.147975
O O14 0.682830 0.461339 0.698576
O O15 0.367296 0.685096 0.891276
O O16 0.917606 0.153494 0.590744
O O17 0.000000 0.000000 0.000000
#
# Coordination Sequence:
#
# PCOD9097365 Si02
#       8
#     2   2   2   2   2   2   2   2
#     4  11  18  34  63  93 118 151 207 256 292 342
#     4  10  20  36  60  89 119 159 202 249 303 356
#     4  10  21  38  63  87 120 159 203 252 305 350
#     4  11  22  41  61  88 129 161 199 251 305 362
#     4  11  21  39  63  90 123 159 205 251 297 362
#     4  11  21  40  62  91 122 163 202 255 301 358
#     4  11  23  40  66  92 124 160 199 252 309 359
#     4  11  24  37  63  91 124 161 205 245 308 363
#
# _framework density 22.615093000000002
#
# number of rings (size 3 to 8) (size 9 to 14) (size 15 to 20)
#    0.000    1.250    3.750    4.500    0.000    3.000 
#    0.000    3.125    2.750    0.000    0.000    0.000 
#    0.000    0.000    0.000    0.000    0.000    0.000 
#
# Total GULP energy -89379.317309 kJ/mol
# GULP energy per Si atom -5586.207332 kJ/mol
# Density = 2.256362 g / cm^3
# Si number density = 22.615093 Si / 1000 Ang^3
#
#
#
# Elastic Constant Matrix: (Units=GPa)
#
#
# Indices 1 2 3 4 5 6 
#
# 1 106.6690 12.5635 35.8006 1.6994 38.5964 5.3624
# 2 12.5635 95.8154 11.3384 -2.2827 22.7883 -8.4093
# 3 35.8006 11.3384 81.1886 -2.3920 39.7301 3.5702
# 4 1.6994 -2.2827 -2.3920 20.5635 -0.9796 8.5206
# 5 38.5964 22.7883 39.7301 -0.9796 52.7573 0.1443
# 6 5.3624 -8.4093 3.5702 8.5206 0.1443 39.4114
#
#
#
# Elastic Compliance Matrix: (Units=1/GPa)
#
#
# Indices 1 2 3 4 5 6 
#
# 1 0.013027 0.000363 -0.001619 -0.001099 -0.008485 -0.001280
# 2 0.000363 0.011966 0.001154 0.000141 -0.006307 0.002392
# 3 -0.001619 0.001154 0.020063 0.002690 -0.014368 -0.001880
# 4 -0.001099 0.000141 0.002690 0.053891 -0.000251 -0.011714
# 5 -0.008485 -0.006307 -0.014368 -0.000251 0.038699 0.001023
# 6 -0.001280 0.002392 -0.001880 -0.011714 0.001023 0.028757
#
#
# Mechanical properties :
#
#
# Convention : Reuss Voigt Hill
#
# Bulk Modulus (GPa) = 22.29532 44.78646 33.54089
# Shear Modulus (GPa) = 27.53945 37.47779 32.50862
#
# Velocity S-wave (km/s) = 3.49341 4.07529 3.79552
# Velocity P-wave (km/s) = 5.11389 6.48003 5.83707
#
# Compressibility (1/GPa) = 0.04485246
#
# Stress axis : x y z
#
# Youngs Moduli (GPa) = 76.76077 83.57046 49.84422
#
# Poissons Ratio (x) = -0.03033 0.08070
# Poissons Ratio (y) = -0.02786 -0.05754
# Poissons Ratio (z) = 0.12428 -0.09647
#
# Static dielectric constant tensor:
#      x y z
#    x 1.879400 -0.042520 -0.051290 
#    y -0.042520 1.919790 0.029480 
#    z -0.051290 0.029480 1.852500 
# 
# From -- ./inp_files/190830.got.cif
#   From: 2010.05.17/outbox.cif.g08.bks.cpg/sg2_96_cif.got.tgz:190830.got - 2010.06.03 11:33:40.
