data_PCOD9097097
_publ_section_title
;
Structure prediction by ZEFSAII (Michael W. Deem and Ramdas Pophale) SiO2 
 PCOD9097097
Probable space group: P -1
;
_chemical_formula_sum "Si O2"
_cell_formula_units_Z 16
_cell_length_a 10.302305
_cell_length_b 8.517226
_cell_length_c 15.328393
_cell_angle_alpha 92.384454
_cell_angle_beta 126.118500
_cell_angle_gamma 116.744345
_cell_volume 878.112329
_symmetry_space_group_name_H-M "P -1"
_symmetry_group_IT_number 2
_symmetry_cell_setting 'triclinic'
loop_
_space_group_symop_operation_xyz
x,y,z
-x,-y,-z
loop_
_atom_site_type_symbol
_atom_site_label
_atom_site_fract_x
_atom_site_fract_y
_atom_site_fract_z
Si Si1 0.143083 0.003078 0.825696
Si Si2 0.134059 0.932807 0.367735
Si Si3 0.439533 0.176399 0.645362
Si Si4 0.454115 0.279671 0.083661
Si Si5 0.616426 0.040132 0.833228
Si Si6 0.149165 0.699199 0.215589
Si Si7 0.293760 0.287382 0.744748
Si Si8 0.243794 0.721638 0.927963
O O1 0.275378 0.126045 0.797052
O O2 0.158699 0.830446 0.851081
O O3 0.242701 0.158181 0.947984
O O4 0.931889 0.953982 0.713762
O O5 0.307419 0.070931 0.506362
O O6 0.180700 0.820796 0.317009
O O7 0.930481 0.774448 0.336483
O O8 0.447948 0.025562 0.707042
O O9 0.673331 0.327236 0.719687
O O10 0.354006 0.266329 0.672646
O O11 0.549123 0.500987 0.148349
O O12 0.600151 0.270798 0.074721
O O13 0.433347 0.161894 0.159018
O O14 0.808147 0.168977 0.849449
O O15 0.660608 0.163728 0.941323
O O16 0.934709 0.499052 0.127538
#
# Coordination Sequence:
#
# PCOD9097097 Si02
#       8
#     2   2   2   2   2   2   2   2
#     4   9  21  33  62  83 116 146 184 240 278 328
#     4  10  21  40  58  83 113 154 193 231 282 336
#     4  10  21  39  60  79 117 155 188 234 284 330
#     4  11  19  37  61  87 116 144 196 228 289 334
#     4   9  22  35  60  83 117 148 184 236 280 334
#     4  10  22  39  60  84 115 154 186 233 288 341
#     4  10  20  36  59  87 112 147 193 238 275 332
#     4  11  18  39  58  90 112 151 190 228 287 346
#
# _framework density 18.220904000000001
#
# number of rings (size 3 to 8) (size 9 to 14) (size 15 to 20)
#    1.500    0.500    1.250    4.500    0.000    1.000 
#    2.250    3.750    0.000    0.000    0.000    0.000 
#    0.000    0.000    0.000    0.000    0.000    0.000 
#
# Total GULP energy -89080.722453 kJ/mol
# GULP energy per Si atom -5567.545153 kJ/mol
# Density = 1.817943 g / cm^3
# Si number density = 18.220904 Si / 1000 Ang^3
#
#
#
# Elastic Constant Matrix: (Units=GPa)
#
#
# Indices 1 2 3 4 5 6 
#
# 1 58.6415 27.0492 5.6531 -3.5730 -14.2405 9.5197
# 2 27.0492 45.2200 3.7130 -11.6498 1.1817 22.9688
# 3 5.6531 3.7130 44.8609 -19.9421 7.7489 4.2431
# 4 -3.5730 -11.6498 -19.9421 10.9750 -5.4868 3.7223
# 5 -14.2405 1.1817 7.7489 -5.4868 25.6618 2.8041
# 6 9.5197 22.9688 4.2431 3.7223 2.8041 12.7937
#
#
#
# Elastic Compliance Matrix: (Units=1/GPa)
#
#
# Indices 1 2 3 4 5 6 
#
# 1 0.028962 -0.010477 -0.001109 0.009497 0.019959 -0.009511
# 2 -0.010477 0.005654 -0.022005 -0.051601 -0.012954 0.022797
# 3 -0.001109 -0.022005 0.019365 -0.007159 -0.011181 0.038441
# 4 0.009497 -0.051601 -0.007159 -0.004342 -0.000890 0.089407
# 5 0.019959 -0.012954 -0.011181 -0.000890 0.053762 0.000589
# 6 -0.009511 0.022797 0.038441 0.089407 0.000589 0.005422
#
#
# Mechanical properties :
#
#
# Convention : Reuss Voigt Hill
#
# Bulk Modulus (GPa) = -75.75444 24.61698 -25.56873
# Shear Modulus (GPa) = 29.13705 17.37324 23.25514
#
# Velocity S-wave (km/s) = 4.00321 3.09119 3.57639
# Velocity P-wave (km/s) = 4.50535 5.12643 1.72946
#
# Compressibility (1/GPa) = -0.01320055
#
# Stress axis : x y z
#
# Youngs Moduli (GPa) = 34.52835 176.88157 51.63950
#
# Poissons Ratio (x) = 1.85319 0.05725
# Poissons Ratio (y) = 0.36175 1.13631
# Poissons Ratio (z) = 0.03828 3.89223
#
# Static dielectric constant tensor:
#      x y z
#    x 1.650320 0.005050 0.020460 
#    y 0.005050 1.622090 -0.020790 
#    z 0.020460 -0.020790 1.604210 
# 
# From -- ./inp_files/513257.got.cif
#   From: 2010.05.17/outbox.cif.g08.bks.cpg/sg2_257_cif.got.tgz:513257.got - 2010.06.03 11:33:40.
