data_PCOD9097307
_publ_section_title
;
Structure prediction by ZEFSAII (Michael W. Deem and Ramdas Pophale) SiO2 
 PCOD9097307
Probable space group: P -1
;
_chemical_formula_sum "Si O2"
_cell_formula_units_Z 15
_cell_length_a 4.983557
_cell_length_b 17.683398
_cell_length_c 7.317418
_cell_angle_alpha 60.176854
_cell_angle_beta 87.618882
_cell_angle_gamma 83.837510
_cell_volume 556.169354
_symmetry_space_group_name_H-M "P -1"
_symmetry_group_IT_number 2
_symmetry_cell_setting 'triclinic'
loop_
_space_group_symop_operation_xyz
x,y,z
-x,-y,-z
loop_
_atom_site_type_symbol
_atom_site_label
_atom_site_fract_x
_atom_site_fract_y
_atom_site_fract_z
Si Si1 0.446090 0.136646 0.931854
Si Si2 0.294550 0.691363 0.258120
Si Si3 0.514520 0.865668 0.661633
Si Si4 0.147582 0.404927 0.075696
Si Si5 0.000000 0.000000 0.500000
Si Si6 0.816093 0.962850 0.230790
Si Si7 0.827588 0.592250 0.362455
Si Si8 0.327579 0.691432 0.811188
O O1 0.607581 0.219097 0.779825
O O2 0.226787 0.113564 0.817348
O O3 0.348597 0.156893 0.119007
O O4 0.654828 0.049303 0.050317
O O5 0.001532 0.666468 0.347816
O O6 0.518580 0.612310 0.405129
O O7 0.298306 0.695829 0.029204
O O8 0.708407 0.928402 0.476311
O O9 0.453272 0.780662 0.655329
O O10 0.221452 0.915696 0.644923
O O11 0.176911 0.396752 0.867704
O O12 0.957043 0.330886 0.228554
O O13 0.000000 0.500000 0.000000
O O14 0.449071 0.386129 0.161265
O O15 0.908951 0.013189 0.714591
O O16 0.000000 0.500000 0.500000
#
# Coordination Sequence:
#
# PCOD9097307 Si02
#       8
#     2   2   2   2   1   2   2   2
#     4   9  19  41  60  85 124 166 207 259 310 377
#     4   9  19  38  59  86 117 160 206 246 312 378
#     4  10  21  40  60  87 124 166 211 256 321 365
#     4  10  20  38  59  88 118 157 202 247 319 381
#     4  10  20  36  60  86 122 158 206 260 302 370
#     4  10  21  40  59  90 124 161 214 255 314 374
#     4  10  20  38  60  85 119 155 197 257 312 373
#     4   9  20  36  62  84 122 161 201 257 306 377
#
# _framework density 26.970203000000001
#
# number of rings (size 3 to 8) (size 9 to 14) (size 15 to 20)
#    0.000    2.400    0.000    2.400    1.867    0.000 
#   24.000    5.333    0.000    0.000    0.000    0.000 
#    0.000    0.000    0.000    0.000    0.000    0.000 
#
# Total GULP energy -83719.838123 kJ/mol
# GULP energy per Si atom -5581.322542 kJ/mol
# Density = 2.690882 g / cm^3
# Si number density = 26.970203 Si / 1000 Ang^3
#
#
#
# Elastic Constant Matrix: (Units=GPa)
#
#
# Indices 1 2 3 4 5 6 
#
# 1 90.7091 10.1797 6.4224 5.7883 8.6191 4.9722
# 2 10.1797 95.8292 32.4346 11.0257 2.5151 17.2789
# 3 6.4224 32.4346 67.5263 28.2499 9.1261 6.4979
# 4 5.7883 11.0257 28.2499 57.3894 7.0978 6.2225
# 5 8.6191 2.5151 9.1261 7.0978 30.0845 -8.8588
# 6 4.9722 17.2789 6.4979 6.2225 -8.8588 34.3964
#
#
#
# Elastic Compliance Matrix: (Units=1/GPa)
#
#
# Indices 1 2 3 4 5 6 
#
# 1 0.011614 -0.000728 0.000147 -0.000376 -0.003893 -0.002276
# 2 -0.000728 0.013615 -0.006301 0.001358 -0.001129 -0.006080
# 3 0.000147 -0.006301 0.022292 -0.009197 -0.004255 -0.000499
# 4 -0.000376 0.001358 -0.009197 0.022615 -0.003711 -0.003937
# 5 -0.003893 -0.001129 -0.004255 -0.003711 0.040450 0.013023
# 6 -0.002276 -0.006080 -0.000499 -0.003937 0.013023 0.036617
#
#
# Mechanical properties :
#
#
# Convention : Reuss Voigt Hill
#
# Bulk Modulus (GPa) = 29.62213 39.12643 34.37428
# Shear Modulus (GPa) = 29.03277 38.04261 33.53769
#
# Velocity S-wave (km/s) = 3.28453 3.75979 3.53017
# Velocity P-wave (km/s) = 5.03898 5.77813 5.42117
#
# Compressibility (1/GPa) = 0.03375854
#
# Stress axis : x y z
#
# Youngs Moduli (GPa) = 86.10217 73.44913 44.85850
#
# Poissons Ratio (x) = 0.05346 -0.00661
# Poissons Ratio (y) = 0.06267 0.28265
# Poissons Ratio (z) = -0.01269 0.46279
#
# Static dielectric constant tensor:
#      x y z
#    x -2.007890 -1.410020 -1.426270 
#    y -1.410020 1.671410 -0.365290 
#    z -1.426270 -0.365290 1.684800 
# 
# From -- ./inp_files/136594.got.cif
#   From: 2010.05.17/outbox.cif.g08.bks.cpg/sg2_69_cif.got.tgz:136594.got - 2010.06.03 11:33:40.
