data_PCOD9097695
_publ_section_title
;
Structure prediction by ZEFSAII (Michael W. Deem and Ramdas Pophale) SiO2 
 PCOD9097695
Probable space group: P -1
;
_chemical_formula_sum "Si O2"
_cell_formula_units_Z 14
_cell_length_a 6.568250
_cell_length_b 19.454831
_cell_length_c 10.731996
_cell_angle_alpha 30.982029
_cell_angle_beta 94.472788
_cell_angle_gamma 111.968570
_cell_volume 563.735667
_symmetry_space_group_name_H-M "P -1"
_symmetry_group_IT_number 2
_symmetry_cell_setting 'triclinic'
loop_
_space_group_symop_operation_xyz
x,y,z
-x,-y,-z
loop_
_atom_site_type_symbol
_atom_site_label
_atom_site_fract_x
_atom_site_fract_y
_atom_site_fract_z
Si Si1 0.908345 0.737909 0.232676
Si Si2 0.687266 0.401031 0.858749
Si Si3 0.395511 0.856948 0.941860
Si Si4 0.868761 0.392267 0.284030
Si Si5 0.428386 0.321941 0.240210
Si Si6 0.766193 0.061822 0.848695
Si Si7 0.079884 0.983568 0.665192
O O1 0.031209 0.887867 0.108188
O O2 0.698803 0.553915 0.559989
O O3 0.148381 0.738608 0.202015
O O4 0.872377 0.808358 0.995656
O O5 0.980094 0.485605 0.784711
O O6 0.605855 0.250458 0.000017
O O7 0.534837 0.344105 0.069949
O O8 0.328944 0.980485 0.692501
O O9 0.641832 0.942781 0.908061
O O10 0.572997 0.301690 0.390039
O O11 0.903201 0.248698 0.514184
O O12 0.000000 0.500000 0.000000
O O13 0.154369 0.146991 0.488791
O O14 0.500000 0.500000 0.000000
O O15 0.500000 0.000000 0.000000
O O16 0.000000 0.000000 0.500000
#
# Coordination Sequence:
#
# PCOD9097695 Si02
#       7
#     2   2   2   2   2   2   2
#     4   8  18  35  60  86 118 149 199 243 295 349
#     4  10  20  36  61  95 110 150 203 252 298 335
#     4   9  18  32  62  88 121 143 200 250 292 341
#     4   9  18  34  54  83 112 142 195 239 285 342
#     4  11  23  39  56  83 124 164 197 235 295 365
#     4   9  14  31  54  86 110 143 189 244 285 336
#     4  10  22  39  56  85 124 162 191 234 305 358
#
# _framework density 24.834330999999999
#
# number of rings (size 3 to 8) (size 9 to 14) (size 15 to 20)
#    0.857    1.714    1.429    0.429    2.000    0.571 
#    0.000    4.286    0.000    0.000    0.000    0.000 
#    0.000    0.000    0.000    0.000    0.000    0.000 
#
# Total GULP energy -78001.625955 kJ/mol
# GULP energy per Si atom -5571.544711 kJ/mol
# Density = 2.477781 g / cm^3
# Si number density = 24.834331 Si / 1000 Ang^3
#
#
#
# Elastic Constant Matrix: (Units=GPa)
#
#
# Indices 1 2 3 4 5 6 
#
# 1 55.7372 40.9588 9.6471 -3.0659 1.1471 -0.2437
# 2 40.9588 178.8051 48.0012 -21.9520 24.0982 2.7645
# 3 9.6471 48.0012 129.1912 16.6981 2.6529 -1.5082
# 4 -3.0659 -21.9520 16.6981 53.6807 2.8282 15.5434
# 5 1.1471 24.0982 2.6529 2.8282 23.0829 -0.4814
# 6 -0.2437 2.7645 -1.5082 15.5434 -0.4814 43.7572
#
#
#
# Elastic Compliance Matrix: (Units=1/GPa)
#
#
# Indices 1 2 3 4 5 6 
#
# 1 0.022283 -0.006466 0.000946 -0.002404 0.005860 0.001484
# 2 -0.006466 0.010576 -0.004138 0.006811 -0.011149 -0.003389
# 3 0.000946 -0.004138 0.009895 -0.005695 0.003889 0.002673
# 4 -0.002404 0.006811 -0.005695 0.026507 -0.009797 -0.010164
# 5 0.005860 -0.011149 0.003889 -0.009797 0.055528 0.004962
# 6 0.001484 -0.003389 0.002673 -0.010164 0.004962 0.026833
#
#
# Mechanical properties :
#
#
# Convention : Reuss Voigt Hill
#
# Bulk Modulus (GPa) = 42.66511 62.32749 52.49630
# Shear Modulus (GPa) = 27.97214 41.77926 34.87570
#
# Velocity S-wave (km/s) = 3.35975 4.10606 3.75151
# Velocity P-wave (km/s) = 5.68047 6.90155 6.32057
#
# Compressibility (1/GPa) = 0.02343836
#
# Stress axis : x y z
#
# Youngs Moduli (GPa) = 44.87725 94.55380 101.06567
#
# Poissons Ratio (x) = 0.61142 -0.09565
# Poissons Ratio (y) = 0.29019 0.41817
# Poissons Ratio (z) = -0.04247 0.39123
#
# Static dielectric constant tensor:
#      x y z
#    x 2.131430 0.034860 -0.003070 
#    y 0.034860 2.013840 0.037260 
#    z -0.003070 0.037260 1.978670 
# 
# From -- ./inp_files/404074.got.cif
#   From: 2010.05.17/outbox.cif.g08.bks.cpg/sg2_203_cif.got.tgz:404074.got - 2010.06.03 11:33:40.
