data_PCOD9097986
_publ_section_title
;
Structure prediction by ZEFSAII (Michael W. Deem and Ramdas Pophale) SiO2 
 PCOD9097986
Probable space group: P -1
;
_chemical_formula_sum "Si O2"
_cell_formula_units_Z 16
_cell_length_a 10.980363
_cell_length_b 8.635400
_cell_length_c 11.016315
_cell_angle_alpha 105.462865
_cell_angle_beta 120.963608
_cell_angle_gamma 43.438782
_cell_volume 605.650502
_symmetry_space_group_name_H-M "P -1"
_symmetry_group_IT_number 2
_symmetry_cell_setting 'triclinic'
loop_
_space_group_symop_operation_xyz
x,y,z
-x,-y,-z
loop_
_atom_site_type_symbol
_atom_site_label
_atom_site_fract_x
_atom_site_fract_y
_atom_site_fract_z
Si Si1 0.207944 0.552007 0.574711
Si Si2 0.832256 0.666389 0.312886
Si Si3 0.193763 0.531996 0.125756
Si Si4 0.410791 0.887749 0.833832
Si Si5 0.774866 0.171451 0.481026
Si Si6 0.130930 0.280734 0.190822
Si Si7 0.831756 0.073971 0.769453
Si Si8 0.279761 0.720643 0.880435
O O1 0.268355 0.335882 0.622702
O O2 0.300355 0.582075 0.519225
O O3 0.245427 0.639533 0.726636
O O4 0.982231 0.683812 0.443400
O O5 0.979286 0.435044 0.259409
O O6 0.663504 0.877070 0.184688
O O7 0.355916 0.329719 0.073061
O O8 0.209609 0.397193 0.221067
O O9 0.235130 0.689066 0.189659
O O10 0.979941 0.679918 0.982117
O O11 0.363823 0.826787 0.673024
O O12 0.286222 0.899156 0.875733
O O13 0.000000 0.000000 0.500000
O O14 0.799377 0.091534 0.612134
O O15 0.255725 0.018858 0.235855
O O16 0.073710 0.870132 0.881134
O O17 0.500000 0.500000 0.000000
#
# Coordination Sequence:
#
# PCOD9097986 Si02
#       8
#     2   2   2   2   2   2   2   2
#     4  10  20  36  63 103 122 159 208 280 339 374
#     4  11  20  39  70  93 127 165 221 280 320 388
#     4  11  27  45  61  93 142 177 221 263 330 406
#     4  11  23  40  63 100 129 165 217 280 324 387
#     4  11  18  39  67  97 124 162 220 272 331 387
#     4  11  24  45  66  92 127 187 221 261 333 399
#     4  12  22  45  71  92 131 183 216 268 338 393
#     4  11  21  39  66 100 127 161 228 276 323 392
#
# _framework density 26.417877000000001
#
# number of rings (size 3 to 8) (size 9 to 14) (size 15 to 20)
#    0.000    1.000    5.000    2.625    1.750    1.000 
#    9.000    0.625    0.000    0.000    0.000    0.000 
#    0.000    0.000    0.000    0.000    0.000    0.000 
#
# Total GULP energy -89367.173304 kJ/mol
# GULP energy per Si atom -5585.448331 kJ/mol
# Density = 2.635775 g / cm^3
# Si number density = 26.417877 Si / 1000 Ang^3
#
#
#
# Elastic Constant Matrix: (Units=GPa)
#
#
# Indices 1 2 3 4 5 6 
#
# 1 104.0988 51.0715 25.2782 -16.0655 -19.9131 34.8728
# 2 51.0715 127.5015 49.2310 -0.0035 4.6907 40.5820
# 3 25.2782 49.2310 98.0402 6.6133 -2.9535 8.3036
# 4 -16.0655 -0.0035 6.6133 29.0549 7.8187 -5.0426
# 5 -19.9131 4.6907 -2.9535 7.8187 28.8109 -20.8870
# 6 34.8728 40.5820 8.3036 -5.0426 -20.8870 57.2742
#
#
#
# Elastic Compliance Matrix: (Units=1/GPa)
#
#
# Indices 1 2 3 4 5 6 
#
# 1 0.015963 -0.005668 -0.001292 0.006446 0.008817 -0.001733
# 2 -0.005668 0.018554 -0.007181 0.000975 -0.019236 -0.015584
# 3 -0.001292 -0.007181 0.014177 -0.004897 0.007497 0.006122
# 4 0.006446 0.000975 -0.004897 0.041169 -0.010306 -0.004040
# 5 0.008817 -0.019236 0.007497 -0.010306 0.070749 0.032068
# 6 -0.001733 -0.015584 0.006122 -0.004040 0.032068 0.040009
#
#
# Mechanical properties :
#
#
# Convention : Reuss Voigt Hill
#
# Bulk Modulus (GPa) = 48.99146 64.53355 56.76251
# Shear Modulus (GPa) = 21.21298 36.63200 28.92249
#
# Velocity S-wave (km/s) = 2.83676 3.72780 3.31238
# Velocity P-wave (km/s) = 5.41430 6.55817 6.01350
#
# Compressibility (1/GPa) = 0.02041172
#
# Stress axis : x y z
#
# Youngs Moduli (GPa) = 62.64612 53.89748 70.53886
#
# Poissons Ratio (x) = 0.30547 0.09115
# Poissons Ratio (y) = 0.35505 0.50653
# Poissons Ratio (z) = 0.08095 0.38703
#
# Static dielectric constant tensor:
#      x y z
#    x 2.125920 0.043080 -0.022840 
#    y 0.043080 2.193270 -0.027070 
#    z -0.022840 -0.027070 2.075920 
# 
# From -- ./inp_files/417625.got.cif
#   From: 2010.05.17/outbox.cif.g08.bks.cpg/sg2_209_cif.got.tgz:417625.got - 2010.06.03 11:33:40.
