data_PCOD9097739
_publ_section_title
;
Structure prediction by ZEFSAII (Michael W. Deem and Ramdas Pophale) SiO2 
 PCOD9097739
Probable space group: P -1
;
_chemical_formula_sum "Si O2"
_cell_formula_units_Z 16
_cell_length_a 10.030862
_cell_length_b 9.466507
_cell_length_c 9.136925
_cell_angle_alpha 61.042056
_cell_angle_beta 117.748466
_cell_angle_gamma 84.491311
_cell_volume 611.230962
_symmetry_space_group_name_H-M "P -1"
_symmetry_group_IT_number 2
_symmetry_cell_setting 'triclinic'
loop_
_space_group_symop_operation_xyz
x,y,z
-x,-y,-z
loop_
_atom_site_type_symbol
_atom_site_label
_atom_site_fract_x
_atom_site_fract_y
_atom_site_fract_z
Si Si1 0.180163 0.354151 0.616588
Si Si2 0.702316 0.521903 0.664508
Si Si3 0.497000 0.268852 0.284338
Si Si4 0.297349 0.813745 0.055373
Si Si5 0.336220 0.118312 0.072201
Si Si6 0.026911 0.214130 0.075058
Si Si7 0.939733 0.842173 0.560453
Si Si8 0.299364 0.643748 0.837231
O O1 0.261978 0.436265 0.500029
O O2 0.295716 0.272222 0.854783
O O3 0.000000 0.500000 0.500000
O O4 0.164220 0.188615 0.606997
O O5 0.585547 0.683715 0.624520
O O6 0.636044 0.369359 0.727553
O O7 0.887885 0.417147 0.884714
O O8 0.673978 0.271777 0.344067
O O9 0.467684 0.117021 0.260183
O O10 0.400907 0.445297 0.046038
O O11 0.321808 0.761979 0.923104
O O12 0.097378 0.885822 0.942122
O O13 0.375384 0.939167 0.094474
O O14 0.163792 0.164479 0.046524
O O15 0.119976 0.166482 0.301858
O O16 0.112150 0.668806 0.729420
O O17 0.000000 0.000000 0.500000
#
# Coordination Sequence:
#
# PCOD9097739 Si02
#       8
#     2   2   2   2   2   2   2   2
#     4  12  22  32  55  92 121 141 184 251 296 329
#     4   9  20  37  57  81 117 155 193 231 280 350
#     4  10  20  36  62  81 109 161 200 229 270 352
#     4   8  18  34  54  79 112 147 183 236 284 337
#     4  12  21  33  58  89 119 147 186 239 298 339
#     4   9  19  35  57  78 118 151 192 221 285 351
#     4  11  22  37  60  86 118 150 190 244 289 337
#     4   9  19  38  58  81 112 156 204 226 273 351
#
# _framework density 26.176684999999999
#
# number of rings (size 3 to 8) (size 9 to 14) (size 15 to 20)
#    0.750    1.250    2.500    3.375    0.000    2.500 
#    0.000    0.000    0.000   23.250    0.000    0.000 
#    0.000    0.000    0.000    0.000    0.000    0.000 
#
# Total GULP energy -89469.817760 kJ/mol
# GULP energy per Si atom -5591.863610 kJ/mol
# Density = 2.611711 g / cm^3
# Si number density = 26.176685 Si / 1000 Ang^3
#
#
#
# Elastic Constant Matrix: (Units=GPa)
#
#
# Indices 1 2 3 4 5 6 
#
# 1 96.5005 7.8695 27.1874 7.9152 -35.2491 -10.7936
# 2 7.8695 113.5297 37.1360 19.8403 -12.5816 1.4650
# 3 27.1874 37.1360 95.4190 11.6480 -26.4060 -6.7841
# 4 7.9152 19.8403 11.6480 36.3508 -3.5739 -2.5747
# 5 -35.2491 -12.5816 -26.4060 -3.5739 43.2278 8.4389
# 6 -10.7936 1.4650 -6.7841 -2.5747 8.4389 22.5085
#
#
#
# Elastic Compliance Matrix: (Units=1/GPa)
#
#
# Indices 1 2 3 4 5 6 
#
# 1 0.015182 0.000914 -0.001115 -0.002165 0.011319 0.002393
# 2 0.000914 0.011056 -0.003620 -0.005079 0.001849 -0.002646
# 3 -0.001115 -0.003620 0.014260 -0.001626 0.006333 0.001439
# 4 -0.002165 -0.005079 -0.001626 0.031279 -0.002283 0.003236
# 5 0.011319 0.001849 0.006333 -0.002283 0.038004 -0.007294
# 6 0.002393 -0.002646 0.001439 0.003236 -0.007294 0.049286
#
#
# Mechanical properties :
#
#
# Convention : Reuss Voigt Hill
#
# Bulk Modulus (GPa) = 30.43528 49.98169 40.20848
# Shear Modulus (GPa) = 28.14373 35.96786 32.05580
#
# Velocity S-wave (km/s) = 3.28250 3.71083 3.50322
# Velocity P-wave (km/s) = 5.10083 6.12338 5.63535
#
# Compressibility (1/GPa) = 0.03285661
#
# Stress axis : x y z
#
# Youngs Moduli (GPa) = 65.86827 90.45238 70.12715
#
# Poissons Ratio (x) = -0.08268 0.07817
# Poissons Ratio (y) = -0.06021 0.25384
# Poissons Ratio (z) = 0.07343 0.32741
#
# Static dielectric constant tensor:
#      x y z
#    x 2.344940 -0.039420 0.102340 
#    y -0.039420 2.085180 -0.039670 
#    z 0.102340 -0.039670 2.080970 
# 
# From -- ./inp_files/243052.got.cif
#   From: 2010.05.17/outbox.cif.g08.bks.cpg/sg2_122_cif.got.tgz:243052.got - 2010.06.03 11:33:40.
