data_PCOD9097041
_publ_section_title
;
Structure prediction by ZEFSAII (Michael W. Deem and Ramdas Pophale) SiO2 
 PCOD9097041
Probable space group: P -1
;
_chemical_formula_sum "Si O2"
_cell_formula_units_Z 16
_cell_length_a 11.245242
_cell_length_b 14.719716
_cell_length_c 11.350957
_cell_angle_alpha 28.394727
_cell_angle_beta 132.610401
_cell_angle_gamma 124.850346
_cell_volume 656.023016
_symmetry_space_group_name_H-M "P -1"
_symmetry_group_IT_number 2
_symmetry_cell_setting 'triclinic'
loop_
_space_group_symop_operation_xyz
x,y,z
-x,-y,-z
loop_
_atom_site_type_symbol
_atom_site_label
_atom_site_fract_x
_atom_site_fract_y
_atom_site_fract_z
Si Si1 0.398762 0.185103 0.172504
Si Si2 0.220407 0.664151 0.406838
Si Si3 0.557121 0.128842 0.105862
Si Si4 0.189736 0.697862 0.086323
Si Si5 0.765900 0.763994 0.364842
Si Si6 0.088175 0.239487 0.773488
Si Si7 0.118556 0.336558 0.204663
Si Si8 0.418313 0.309674 0.296429
O O1 0.490679 0.240435 0.051535
O O2 0.386122 0.322608 0.120367
O O3 0.500000 0.000000 0.500000
O O4 0.223101 0.133961 0.067794
O O5 0.227335 0.758367 0.175184
O O6 0.146955 0.457421 0.574292
O O7 0.399768 0.649239 0.595677
O O8 0.090120 0.769457 0.285896
O O9 0.593623 0.911693 0.419211
O O10 0.707892 0.211758 0.049696
O O11 0.409128 0.147871 0.892008
O O12 0.238903 0.468580 0.375797
O O13 0.999562 0.741410 0.883467
O O14 0.888316 0.812920 0.287317
O O15 0.822366 0.803157 0.489938
O O16 0.273388 0.414173 0.155045
O O17 0.000000 0.500000 0.000000
#
# Coordination Sequence:
#
# PCOD9097041 Si02
#       8
#     2   2   2   2   2   2   2   2
#     4   9  20  39  59  85 120 153 190 238 289 346
#     4  10  21  36  60  88 115 152 197 243 288 344
#     4  10  21  38  60  86 118 158 194 234 292 348
#     4  10  20  36  59  84 120 156 192 241 289 340
#     4   9  19  37  59  85 116 152 197 240 284 345
#     4   9  19  38  60  84 115 153 195 239 292 342
#     4  10  22  37  57  85 116 150 191 242 292 341
#     4  11  23  39  59  86 119 154 198 243 289 348
#
# _framework density 24.389388
#
# number of rings (size 3 to 8) (size 9 to 14) (size 15 to 20)
#    0.000    2.250    0.000    1.875    0.000   10.000 
#    0.000    9.375    0.000    0.000    0.000    0.000 
#    0.000    0.000    0.000    0.000    0.000    0.000 
#
# Total GULP energy -89514.173213 kJ/mol
# GULP energy per Si atom -5594.635826 kJ/mol
# Density = 2.433388 g / cm^3
# Si number density = 24.389388 Si / 1000 Ang^3
#
#
#
# Elastic Constant Matrix: (Units=GPa)
#
#
# Indices 1 2 3 4 5 6 
#
# 1 185.9697 62.8001 41.0988 28.2288 7.4302 13.6852
# 2 62.8001 79.8212 31.7313 15.8636 -11.9311 6.9994
# 3 41.0988 31.7313 101.8007 23.4812 -16.7081 4.2867
# 4 28.2288 15.8636 23.4812 46.5261 -2.8034 -3.4089
# 5 7.4302 -11.9311 -16.7081 -2.8034 35.4138 6.2064
# 6 13.6852 6.9994 4.2867 -3.4089 6.2064 38.5544
#
#
#
# Elastic Compliance Matrix: (Units=1/GPa)
#
#
# Indices 1 2 3 4 5 6 
#
# 1 0.008451 -0.006064 -0.001620 -0.002607 -0.004574 -0.001213
# 2 -0.006064 0.019762 -0.001992 -0.001801 0.007294 -0.002547
# 3 -0.001620 -0.001992 0.013253 -0.004812 0.005875 -0.001908
# 4 -0.002607 -0.001801 -0.004812 0.026371 -0.000992 0.004279
# 5 -0.004574 0.007294 0.005875 -0.000992 0.035425 -0.006144
# 6 -0.001213 -0.002547 -0.001908 0.004279 -0.006144 0.028410
#
#
# Mechanical properties :
#
#
# Convention : Reuss Voigt Hill
#
# Bulk Modulus (GPa) = 45.22085 70.98354 58.10219
# Shear Modulus (GPa) = 31.56680 39.56293 35.56487
#
# Velocity S-wave (km/s) = 3.60152 4.03195 3.82280
# Velocity P-wave (km/s) = 5.98966 7.13042 6.58479
#
# Compressibility (1/GPa) = 0.02211369
#
# Stress axis : x y z
#
# Youngs Moduli (GPa) = 118.33448 50.60132 75.45729
#
# Poissons Ratio (x) = 0.30684 0.12224
# Poissons Ratio (y) = 0.71758 0.15031
# Poissons Ratio (z) = 0.19170 0.10080
#
# Static dielectric constant tensor:
#      x y z
#    x 1.928710 -0.063500 0.016280 
#    y -0.063500 2.026740 -0.072540 
#    z 0.016280 -0.072540 1.966020 
# 
# From -- ./inp_files/436456.got.cif
#   From: 2010.05.17/outbox.cif.g08.bks.cpg/sg2_219_cif.got.tgz:436456.got - 2010.06.03 11:33:40.
