data_PCOD9097895
_publ_section_title
;
Structure prediction by ZEFSAII (Michael W. Deem and Ramdas Pophale) SiO2 
 PCOD9097895
Probable space group: P -1
;
_chemical_formula_sum "Si O2"
_cell_formula_units_Z 12
_cell_length_a 9.229783
_cell_length_b 20.269179
_cell_length_c 7.483383
_cell_angle_alpha 28.259582
_cell_angle_beta 51.548932
_cell_angle_gamma 44.105766
_cell_volume 461.093832
_symmetry_space_group_name_H-M "P -1"
_symmetry_group_IT_number 2
_symmetry_cell_setting 'triclinic'
loop_
_space_group_symop_operation_xyz
x,y,z
-x,-y,-z
loop_
_atom_site_type_symbol
_atom_site_label
_atom_site_fract_x
_atom_site_fract_y
_atom_site_fract_z
Si Si1 0.469143 0.651880 0.859155
Si Si2 0.304909 0.985960 0.280426
Si Si3 0.133535 0.061912 0.855625
Si Si4 0.408428 0.184107 0.950644
Si Si5 0.128997 0.594898 0.669939
Si Si6 0.190323 0.508833 0.436289
O O1 0.561423 0.717108 0.474581
O O2 0.375330 0.804481 0.698427
O O3 0.647298 0.506049 0.173272
O O4 0.309575 0.593045 0.042790
O O5 0.143632 0.027742 0.142433
O O6 0.257286 0.110601 0.178372
O O7 0.500000 0.000000 0.000000
O O8 0.011923 0.246967 0.496168
O O9 0.369217 0.965911 0.831676
O O10 0.000000 0.000000 0.000000
O O11 0.329947 0.323739 0.820227
O O12 0.141645 0.610013 0.412210
O O13 0.000000 0.500000 0.000000
O O14 0.000000 0.500000 0.500000
#
# Coordination Sequence:
#
# PCOD9097895 Si02
#       6
#     2   2   2   2   2   2
#     4  10  21  41  66  92 128 170 208 261 317 372
#     4   8  17  37  61  87 121 162 199 247 311 373
#     4  10  20  36  62  92 122 158 204 255 312 371
#     4  10  21  44  68  91 125 167 208 259 319 380
#     4  12  24  42  65  94 128 167 211 263 316 375
#     4  12  25  40  63  98 129 166 216 263 311 375
#
# _framework density 26.025072000000002
#
# number of rings (size 3 to 8) (size 9 to 14) (size 15 to 20)
#    0.000    2.000    0.000    7.000    0.000    4.000 
#    0.000   12.500    0.000    2.000    0.000    0.000 
#    0.000    0.000    0.000    0.000    0.000    0.000 
#
# Total GULP energy -67075.156542 kJ/mol
# GULP energy per Si atom -5589.596378 kJ/mol
# Density = 2.596584 g / cm^3
# Si number density = 26.025072 Si / 1000 Ang^3
#
#
#
# Elastic Constant Matrix: (Units=GPa)
#
#
# Indices 1 2 3 4 5 6 
#
# 1 183.7170 25.3936 70.4223 -17.5072 -23.4640 -1.4690
# 2 25.3936 76.3916 52.0035 -28.2054 -15.0330 4.3557
# 3 70.4223 52.0035 136.2405 -52.8826 -27.5551 -3.9261
# 4 -17.5072 -28.2054 -52.8826 62.1694 15.9250 3.2846
# 5 -23.4640 -15.0330 -27.5551 15.9250 50.5846 -12.0001
# 6 -1.4690 4.3557 -3.9261 3.2846 -12.0001 28.7804
#
#
#
# Elastic Compliance Matrix: (Units=1/GPa)
#
#
# Indices 1 2 3 4 5 6 
#
# 1 0.007033 -0.000025 -0.003970 -0.001939 0.001901 0.000835
# 2 -0.000025 0.018642 -0.005705 0.003719 0.000327 -0.003889
# 3 -0.003970 -0.005705 0.015618 0.008658 0.002966 0.003040
# 4 -0.001939 0.003719 0.008658 0.025896 -0.004226 -0.004198
# 5 0.001901 0.000327 0.002966 -0.004226 0.026541 0.012001
# 6 0.000835 -0.003889 0.003040 -0.004198 0.012001 0.041275
#
#
# Mechanical properties :
#
#
# Convention : Reuss Voigt Hill
#
# Bulk Modulus (GPa) = 45.67568 76.88753 61.28161
# Shear Modulus (GPa) = 30.92133 44.87552 37.89843
#
# Velocity S-wave (km/s) = 3.45067 4.15700 3.82019
# Velocity P-wave (km/s) = 5.78489 7.25594 6.56177
#
# Compressibility (1/GPa) = 0.02189349
#
# Stress axis : x y z
#
# Youngs Moduli (GPa) = 142.18681 53.64303 64.02930
#
# Poissons Ratio (x) = 0.00132 0.25419
# Poissons Ratio (y) = 0.00351 0.36529
# Poissons Ratio (z) = 0.56446 0.30603
#
# Static dielectric constant tensor:
#      x y z
#    x 1.980240 -0.170150 -0.039010 
#    y -0.170150 1.553450 -0.202390 
#    z -0.039010 -0.202390 1.926990 
# 
# From -- ./inp_files/220134.got.cif
#   From: 2010.05.17/outbox.cif.g08.bks.cpg/sg2_111_cif.got.tgz:220134.got - 2010.06.03 11:33:40.
