data_PCOD9097826
_publ_section_title
;
Structure prediction by ZEFSAII (Michael W. Deem and Ramdas Pophale) SiO2 
 PCOD9097826
Probable space group: P -1
;
_chemical_formula_sum "Si O2"
_cell_formula_units_Z 16
_cell_length_a 21.821803
_cell_length_b 8.132251
_cell_length_c 19.160631
_cell_angle_alpha 38.215922
_cell_angle_beta 18.480490
_cell_angle_gamma 37.935702
_cell_volume 650.129065
_symmetry_space_group_name_H-M "P -1"
_symmetry_group_IT_number 2
_symmetry_cell_setting 'triclinic'
loop_
_space_group_symop_operation_xyz
x,y,z
-x,-y,-z
loop_
_atom_site_type_symbol
_atom_site_label
_atom_site_fract_x
_atom_site_fract_y
_atom_site_fract_z
Si Si1 0.856864 0.535242 0.881214
Si Si2 0.918425 0.107319 0.260048
Si Si3 0.244365 0.351593 0.592259
Si Si4 0.783660 0.734471 0.198858
Si Si5 0.809844 0.079059 0.847121
Si Si6 0.545524 0.284355 0.825020
Si Si7 0.128380 0.707798 0.428210
Si Si8 0.481157 0.994689 0.332559
O O1 0.808729 0.818384 0.884502
O O2 0.012431 0.355108 0.827841
O O3 0.004810 0.514373 0.661812
O O4 0.649537 0.550696 0.059647
O O5 0.904904 0.427200 0.181924
O O6 0.700564 0.081756 0.485528
O O7 0.016806 0.957742 0.271477
O O8 0.075399 0.061674 0.041580
O O9 0.310307 0.218349 0.639446
O O10 0.285250 0.658604 0.432423
O O11 0.381820 0.180754 0.441787
O O12 0.633914 0.755310 0.288644
O O13 0.846177 0.298632 0.679032
O O14 0.613795 0.115167 0.093824
O O15 0.653348 0.356887 0.753899
O O16 0.500000 0.000000 0.000000
O O17 0.000000 0.000000 0.500000
#
# Coordination Sequence:
#
# PCOD9097826 Si02
#       8
#     2   2   2   2   2   2   2   2
#     4  10  21  36  61  92 120 161 213 255 303 366
#     4  10  22  39  63  92 125 162 209 261 309 367
#     4  11  25  41  62  94 130 162 209 260 312 375
#     4  10  22  41  64  90 124 163 219 256 299 380
#     4  10  20  36  62  89 123 161 208 255 304 372
#     4  11  21  36  66  97 120 158 216 258 303 367
#     4   9  18  33  57  92 120 148 206 262 293 355
#     4  11  25  40  61  94 131 165 203 260 324 366
#
# _framework density 24.610496999999999
#
# number of rings (size 3 to 8) (size 9 to 14) (size 15 to 20)
#    0.000    1.750    3.750    0.750    1.750    4.500 
#    0.000    2.500    0.000    4.500    0.000    0.000 
#    0.000    0.000    0.000    0.000    0.000    0.000 
#
# Total GULP energy -89092.052466 kJ/mol
# GULP energy per Si atom -5568.253279 kJ/mol
# Density = 2.455448 g / cm^3
# Si number density = 24.610497 Si / 1000 Ang^3
#
#
#
# Elastic Constant Matrix: (Units=GPa)
#
#
# Indices 1 2 3 4 5 6 
#
# 1 185.4335 25.2257 96.3799 -3.8801 -5.6507 -30.0930
# 2 25.2257 30.7862 21.5160 5.2674 2.4072 -8.3146
# 3 96.3799 21.5160 110.6317 9.8463 -11.8581 -10.3467
# 4 -3.8801 5.2674 9.8463 24.9740 3.1855 5.0293
# 5 -5.6507 2.4072 -11.8581 3.1855 64.5603 4.4401
# 6 -30.0930 -8.3146 -10.3467 5.0293 4.4401 34.4585
#
#
#
# Elastic Compliance Matrix: (Units=1/GPa)
#
#
# Indices 1 2 3 4 5 6 
#
# 1 0.012004 -0.001786 -0.010116 0.005114 -0.001437 0.006454
# 2 -0.001786 0.041581 -0.005308 -0.008294 -0.002854 0.008459
# 3 -0.010116 -0.005308 0.019643 -0.007942 0.003554 -0.003516
# 4 0.005114 -0.008294 -0.007942 0.047356 -0.002592 -0.006498
# 5 -0.001437 -0.002854 0.003554 -0.002592 0.016431 -0.002615
# 6 0.006454 0.008459 -0.003516 -0.006498 -0.002615 0.036927
#
#
# Mechanical properties :
#
#
# Convention : Reuss Voigt Hill
#
# Bulk Modulus (GPa) = 25.76685 68.12163 46.94424
# Shear Modulus (GPa) = 22.59399 37.04723 29.82061
#
# Velocity S-wave (km/s) = 3.03324 3.88408 3.48473
# Velocity P-wave (km/s) = 4.77074 6.91772 5.94200
#
# Compressibility (1/GPa) = 0.03880956
#
# Stress axis : x y z
#
# Youngs Moduli (GPa) = 83.30528 24.04918 50.90850
#
# Poissons Ratio (x) = 0.04294 0.51499
# Poissons Ratio (y) = 0.14875 0.27022
# Poissons Ratio (z) = 0.84271 0.12765
#
# Static dielectric constant tensor:
#      x y z
#    x 1.968360 0.042030 0.044930 
#    y 0.042030 2.195230 -0.005970 
#    z 0.044930 -0.005970 2.035400 
# 
# From -- ./inp_files/577575.got.cif
#   From: 2010.05.17/outbox.cif.g08.bks.cpg/sg2_289_cif.got.tgz:577575.got - 2010.06.03 11:33:40.
