data_PCOD9097596
_publ_section_title
;
Structure prediction by ZEFSAII (Michael W. Deem and Ramdas Pophale) SiO2 
 PCOD9097596
Probable space group: P -1
;
_chemical_formula_sum "Si O2"
_cell_formula_units_Z 14
_cell_length_a 16.926924
_cell_length_b 8.882178
_cell_length_c 10.239492
_cell_angle_alpha 59.386725
_cell_angle_beta 138.408504
_cell_angle_gamma 146.330717
_cell_volume 539.092239
_symmetry_space_group_name_H-M "P -1"
_symmetry_group_IT_number 2
_symmetry_cell_setting 'triclinic'
loop_
_space_group_symop_operation_xyz
x,y,z
-x,-y,-z
loop_
_atom_site_type_symbol
_atom_site_label
_atom_site_fract_x
_atom_site_fract_y
_atom_site_fract_z
Si Si1 0.885751 0.201914 0.430086
Si Si2 0.608226 0.809458 0.499468
Si Si3 0.054997 0.890429 0.025637
Si Si4 0.792478 0.724533 0.191717
Si Si5 0.525983 0.860871 0.010877
Si Si6 0.286086 0.701944 0.253481
Si Si7 0.400123 0.676965 0.663793
O O1 0.000000 0.500000 0.500000
O O2 0.035930 0.217448 0.599381
O O3 0.713840 0.960133 0.426205
O O4 0.754555 0.086150 0.190530
O O5 0.500000 0.500000 0.500000
O O6 0.450471 0.765340 0.368832
O O7 0.777564 0.997621 0.730998
O O8 0.894230 0.554098 0.947604
O O9 0.109486 0.014942 0.891131
O O10 0.000000 0.000000 0.000000
O O11 0.681873 0.602265 0.252411
O O12 0.619246 0.465352 0.991197
O O13 0.411690 0.779431 0.773590
O O14 0.500000 0.000000 0.000000
O O15 0.266838 0.603667 0.420679
O O16 0.380679 0.006109 0.244360
#
# Coordination Sequence:
#
# PCOD9097596 Si02
#       7
#     2   2   2   2   2   2   2
#     4  12  21  33  63  93 116 156 206 263 304 357
#     4  12  24  39  64  95 127 161 208 258 312 369
#     4  12  24  39  66  92 127 165 208 260 310 366
#     4  10  22  40  58  92 121 159 210 249 314 356
#     4  10  20  36  61  89 123 156 199 262 304 360
#     4  11  23  46  61  93 129 165 208 257 312 375
#     4   9  24  44  66  86 132 168 200 262 317 361
#
# _framework density 25.969581999999999
#
# number of rings (size 3 to 8) (size 9 to 14) (size 15 to 20)
#    0.857    0.286    4.286    2.571    4.000    0.571 
#    2.571    2.143    0.000    0.000    0.000    0.000 
#    0.000    0.000    0.000    0.000    0.000    0.000 
#
# Total GULP energy -77980.439997 kJ/mol
# GULP energy per Si atom -5570.031428 kJ/mol
# Density = 2.591047 g / cm^3
# Si number density = 25.969582 Si / 1000 Ang^3
#
#
#
# Elastic Constant Matrix: (Units=GPa)
#
#
# Indices 1 2 3 4 5 6 
#
# 1 74.7452 10.3929 15.2564 0.2851 0.1457 4.0026
# 2 10.3929 124.4084 35.1660 6.9066 -8.6941 19.1680
# 3 15.2564 35.1660 150.6135 44.3967 -1.5164 0.6459
# 4 0.2851 6.9066 44.3967 46.9002 -5.6265 -14.6723
# 5 0.1457 -8.6941 -1.5164 -5.6265 45.2928 -6.0035
# 6 4.0026 19.1680 0.6459 -14.6723 -6.0035 29.3937
#
#
#
# Elastic Compliance Matrix: (Units=1/GPa)
#
#
# Indices 1 2 3 4 5 6 
#
# 1 0.013840 -0.000653 -0.001621 0.001267 -0.000176 -0.000827
# 2 -0.000653 0.009806 -0.001549 -0.002162 0.000606 -0.007227
# 3 -0.001621 -0.001549 0.010621 -0.011719 -0.002092 -0.005280
# 4 0.001267 -0.002162 -0.011719 0.040945 0.007382 0.023441
# 5 -0.000176 0.000606 -0.002092 0.007382 0.024141 0.008290
# 6 -0.000827 -0.007227 -0.005280 0.023441 0.008290 0.052357
#
#
# Mechanical properties :
#
#
# Convention : Reuss Voigt Hill
#
# Bulk Modulus (GPa) = 37.56388 52.37754 44.97071
# Shear Modulus (GPa) = 29.72088 43.58079 36.65083
#
# Velocity S-wave (km/s) = 3.38664 4.10096 3.76080
# Velocity P-wave (km/s) = 5.45788 6.52966 6.01768
#
# Compressibility (1/GPa) = 0.02662132
#
# Stress axis : x y z
#
# Youngs Moduli (GPa) = 72.25282 101.97413 94.14882
#
# Poissons Ratio (x) = 0.06662 0.15262
# Poissons Ratio (y) = 0.04720 0.14584
# Poissons Ratio (z) = 0.11713 0.15797
#
# Static dielectric constant tensor:
#      x y z
#    x 2.235200 -0.039200 0.167260 
#    y -0.039200 2.539700 -0.255810 
#    z 0.167260 -0.255810 3.134800 
# 
# From -- ./inp_files/470710.got.cif
#   From: 2010.05.17/outbox.cif.g08.bks.cpg/sg2_236_cif.got.tgz:470710.got - 2010.06.03 11:33:40.
