data_PCOD9097187
_publ_section_title
;
Structure prediction by ZEFSAII (Michael W. Deem and Ramdas Pophale) SiO2 
 PCOD9097187
Probable space group: P -1
;
_chemical_formula_sum "Si O2"
_cell_formula_units_Z 16
_cell_length_a 12.817280
_cell_length_b 6.332460
_cell_length_c 13.115496
_cell_angle_alpha 72.347038
_cell_angle_beta 133.762854
_cell_angle_gamma 87.453463
_cell_volume 680.802020
_symmetry_space_group_name_H-M "P -1"
_symmetry_group_IT_number 2
_symmetry_cell_setting 'triclinic'
loop_
_space_group_symop_operation_xyz
x,y,z
-x,-y,-z
loop_
_atom_site_type_symbol
_atom_site_label
_atom_site_fract_x
_atom_site_fract_y
_atom_site_fract_z
Si Si1 0.267411 0.394044 0.139304
Si Si2 0.117510 0.557465 0.342420
Si Si3 0.069768 0.082818 0.671332
Si Si4 0.724666 0.440224 0.093450
Si Si5 0.559705 0.727195 0.116787
Si Si6 0.988020 0.754164 0.008353
Si Si7 0.593196 0.396997 0.367725
Si Si8 0.211479 0.029625 0.569113
O O1 0.116018 0.625984 0.029182
O O2 0.423720 0.410516 0.289185
O O3 0.287201 0.382726 0.032817
O O4 0.190034 0.205804 0.146104
O O5 0.051243 0.606208 0.176872
O O6 0.268129 0.631359 0.454521
O O7 0.165585 0.279827 0.443738
O O8 0.982536 0.724307 0.302829
O O9 0.192958 0.095538 0.667425
O O10 0.133492 0.807719 0.788986
O O11 0.909175 0.106022 0.505563
O O12 0.705416 0.569093 0.169604
O O13 0.580497 0.356669 0.996176
O O14 0.581592 0.636288 0.261705
O O15 0.500000 0.000000 0.000000
O O16 0.000000 0.000000 0.000000
O O17 0.640900 0.172353 0.353204
#
# Coordination Sequence:
#
# PCOD9097187 Si02
#       8
#     2   2   2   2   2   2   2   2
#     4  10  24  44  68  90 129 173 217 269 332 382
#     4  11  24  39  67  98 128 168 224 273 323 382
#     4  10  20  36  59  91 132 178 209 260 315 390
#     4  10  20  37  60  89 127 171 213 252 312 383
#     4  10  22  35  58  93 133 170 209 250 313 389
#     4  11  25  47  69  95 121 167 229 279 325 388
#     4  10  23  42  63 100 135 171 210 270 329 388
#     4  10  21  38  59  90 139 171 211 258 325 392
#
# _framework density 23.501691000000001
#
# number of rings (size 3 to 8) (size 9 to 14) (size 15 to 20)
#    0.000    1.750    1.250    1.875    1.750    8.500 
#    0.000    1.250    0.000    0.000    0.000    0.000 
#    0.000    0.000    0.000    0.000    0.000    0.000 
#
# Total GULP energy -89238.422386 kJ/mol
# GULP energy per Si atom -5577.401399 kJ/mol
# Density = 2.344820 g / cm^3
# Si number density = 23.501691 Si / 1000 Ang^3
#
#
#
# Elastic Constant Matrix: (Units=GPa)
#
#
# Indices 1 2 3 4 5 6 
#
# 1 90.2119 31.6086 28.9933 12.9213 29.1255 2.5138
# 2 31.6086 86.2012 19.8048 -8.2145 8.2809 5.3199
# 3 28.9933 19.8048 85.2240 4.9983 12.7519 2.1542
# 4 12.9213 -8.2145 4.9983 45.3786 10.6167 3.9826
# 5 29.1255 8.2809 12.7519 10.6167 37.5052 14.6516
# 6 2.5138 5.3199 2.1542 3.9826 14.6516 30.3849
#
#
#
# Elastic Compliance Matrix: (Units=1/GPa)
#
#
# Indices 1 2 3 4 5 6 
#
# 1 0.018864 -0.005621 -0.002973 -0.003358 -0.014139 0.006892
# 2 -0.005621 0.014539 -0.001921 0.004293 0.001937 -0.003441
# 3 -0.002973 -0.001921 0.013500 -0.000590 -0.001939 0.000638
# 4 -0.003358 0.004293 -0.000590 0.025054 -0.004657 -0.001470
# 5 -0.014139 0.001937 -0.001939 -0.004657 0.047530 -0.021340
# 6 0.006892 -0.003441 0.000638 -0.001470 -0.021340 0.043381
#
#
# Mechanical properties :
#
#
# Convention : Reuss Voigt Hill
#
# Bulk Modulus (GPa) = 38.65057 46.93892 42.79475
# Shear Modulus (GPa) = 25.97110 34.73576 30.35343
#
# Velocity S-wave (km/s) = 3.32787 3.84866 3.59770
# Velocity P-wave (km/s) = 5.58998 6.30599 5.95875
#
# Compressibility (1/GPa) = 0.02587284
#
# Stress axis : x y z
#
# Youngs Moduli (GPa) = 53.01120 68.78228 74.07276
#
# Poissons Ratio (x) = 0.38664 0.22021
# Poissons Ratio (y) = 0.29799 0.14229
# Poissons Ratio (z) = 0.15760 0.13212
#
# Static dielectric constant tensor:
#      x y z
#    x 1.955230 -0.013400 0.009820 
#    y -0.013400 1.945840 0.080260 
#    z 0.009820 0.080260 2.043700 
# 
# From -- ./inp_files/441888.got.cif
#   From: 2010.05.17/outbox.cif.g08.bks.cpg/sg2_221_cif.got.tgz:441888.got - 2010.06.03 11:33:40.
