data_PCOD9097668
_publ_section_title
;
Structure prediction by ZEFSAII (Michael W. Deem and Ramdas Pophale) SiO2 
 PCOD9097668
Probable space group: P -1
;
_chemical_formula_sum "Si O2"
_cell_formula_units_Z 14
_cell_length_a 10.569724
_cell_length_b 5.039911
_cell_length_c 19.090602
_cell_angle_alpha 72.208599
_cell_angle_beta 139.374257
_cell_angle_gamma 121.169318
_cell_volume 559.578480
_symmetry_space_group_name_H-M "P -1"
_symmetry_group_IT_number 2
_symmetry_cell_setting 'triclinic'
loop_
_space_group_symop_operation_xyz
x,y,z
-x,-y,-z
loop_
_atom_site_type_symbol
_atom_site_label
_atom_site_fract_x
_atom_site_fract_y
_atom_site_fract_z
Si Si1 0.579168 0.080813 0.946194
Si Si2 0.989489 0.009373 0.630549
Si Si3 0.605588 0.584872 0.320255
Si Si4 0.129956 0.529118 0.767198
Si Si5 0.858046 0.744650 0.052045
Si Si6 0.436712 0.919605 0.559492
Si Si7 0.660858 0.080865 0.777935
O O1 0.679380 0.454471 0.956019
O O2 0.770615 0.993258 0.012612
O O3 0.500000 0.000000 0.000000
O O4 0.364730 0.840894 0.834108
O O5 0.165847 0.148221 0.631404
O O6 0.087344 0.252039 0.717524
O O7 0.769353 0.021777 0.516464
O O8 0.964606 0.674123 0.670968
O O9 0.623372 0.434434 0.413832
O O10 0.418299 0.693449 0.236512
O O11 0.519883 0.278668 0.259627
O O12 0.126628 0.398909 0.854058
O O13 0.097871 0.868588 0.109954
O O14 0.500000 0.000000 0.500000
O O15 0.366949 0.881452 0.320419
#
# Coordination Sequence:
#
# PCOD9097668 Si02
#       7
#     2   2   2   2   2   2   2
#     4  10  20  36  61  92 129 157 202 259 318 364
#     4  12  24  40  63  89 132 164 203 250 306 370
#     4  10  24  42  61  86 129 170 206 241 306 367
#     4  11  23  36  63  93 123 160 208 253 311 364
#     4  11  20  38  64  93 126 157 204 264 316 350
#     4  10  25  40  65  94 125 157 210 257 302 362
#     4  10  23  39  65  87 125 160 211 244 311 361
#
# _framework density 25.018830999999999
#
# number of rings (size 3 to 8) (size 9 to 14) (size 15 to 20)
#    0.857    0.571    0.000    7.286    4.000    1.143 
#    0.000    0.000    0.000   17.143    0.000    0.000 
#    0.000    0.000    0.000    0.000    0.000    0.000 
#
# Total GULP energy -78380.793993 kJ/mol
# GULP energy per Si atom -5598.628142 kJ/mol
# Density = 2.496189 g / cm^3
# Si number density = 25.018831 Si / 1000 Ang^3
#
#
#
# Elastic Constant Matrix: (Units=GPa)
#
#
# Indices 1 2 3 4 5 6 
#
# 1 113.4472 42.3247 34.9268 -13.4397 4.5851 -9.2686
# 2 42.3247 67.3400 -1.7595 -22.6984 -10.5378 -8.5048
# 3 34.9268 -1.7595 99.1940 -15.5688 9.0105 5.9388
# 4 -13.4397 -22.6984 -15.5688 43.7386 -9.0894 3.0657
# 5 4.5851 -10.5378 9.0105 -9.0894 49.0656 -2.8483
# 6 -9.2686 -8.5048 5.9388 3.0657 -2.8483 45.1110
#
#
#
# Elastic Compliance Matrix: (Units=1/GPa)
#
#
# Indices 1 2 3 4 5 6 
#
# 1 0.014426 -0.010876 -0.005713 -0.004049 -0.003284 0.001733
# 2 -0.010876 0.028677 0.005809 0.015356 0.009066 0.001936
# 3 -0.005713 0.005809 0.013271 0.006215 0.000367 -0.002225
# 4 -0.004049 0.015356 0.006215 0.033651 0.008740 -0.000490
# 5 -0.003284 0.009066 0.000367 0.008740 0.024298 0.001926
# 6 0.001733 0.001936 -0.002225 -0.000490 0.001926 0.023337
#
#
# Mechanical properties :
#
#
# Convention : Reuss Voigt Hill
#
# Bulk Modulus (GPa) = 28.72468 47.88501 38.30485
# Shear Modulus (GPa) = 29.26955 41.21565 35.24260
#
# Velocity S-wave (km/s) = 3.42409 4.06320 3.75726
# Velocity P-wave (km/s) = 5.20948 6.41825 5.84520
#
# Compressibility (1/GPa) = 0.03481326
#
# Stress axis : x y z
#
# Youngs Moduli (GPa) = 69.31932 34.87118 75.34978
#
# Poissons Ratio (x) = 0.37927 0.43050
# Poissons Ratio (y) = 0.75393 -0.43771
# Poissons Ratio (z) = 0.39605 -0.20257
#
# Static dielectric constant tensor:
#      x y z
#    x 1.971430 0.032390 -0.053370 
#    y 0.032390 1.927930 0.004160 
#    z -0.053370 0.004160 1.999020 
# 
# From -- ./inp_files/122475.got.cif
#   From: 2010.05.17/outbox.cif.g08.bks.cpg/sg2_62_cif.got.tgz:122475.got - 2010.06.03 11:33:40.
