data_PCOD9097066
_publ_section_title
;
Structure prediction by ZEFSAII (Michael W. Deem and Ramdas Pophale) SiO2 
 PCOD9097066
Probable space group: P -1
;
_chemical_formula_sum "Si O2"
_cell_formula_units_Z 14
_cell_length_a 8.190222
_cell_length_b 9.320483
_cell_length_c 19.038940
_cell_angle_alpha 139.499732
_cell_angle_beta 140.009787
_cell_angle_gamma 51.749918
_cell_volume 604.275259
_symmetry_space_group_name_H-M "P -1"
_symmetry_group_IT_number 2
_symmetry_cell_setting 'triclinic'
loop_
_space_group_symop_operation_xyz
x,y,z
-x,-y,-z
loop_
_atom_site_type_symbol
_atom_site_label
_atom_site_fract_x
_atom_site_fract_y
_atom_site_fract_z
Si Si1 0.034901 0.376702 0.287440
Si Si2 0.399103 0.970834 0.236523
Si Si3 0.389493 0.132859 0.579811
Si Si4 0.746234 0.619065 0.152937
Si Si5 0.026842 0.375199 0.035167
Si Si6 0.131178 0.667331 0.551293
Si Si7 0.585576 0.337679 0.225380
O O1 0.183399 0.529015 0.446180
O O2 0.865882 0.514471 0.225277
O O3 0.824953 0.266889 0.226887
O O4 0.242996 0.203675 0.257164
O O5 0.505869 0.969814 0.351101
O O6 0.629262 0.865684 0.225096
O O7 0.182500 0.799515 0.096154
O O8 0.448202 0.392238 0.693909
O O9 0.085146 0.146062 0.474308
O O10 0.500000 0.000000 0.500000
O O11 0.960247 0.557939 0.142188
O O12 0.500000 0.500000 0.000000
O O13 0.311880 0.259490 0.089316
O O14 0.000000 0.500000 0.000000
O O15 0.350129 0.726397 0.697226
O O16 0.000000 0.500000 0.500000
#
# Coordination Sequence:
#
# PCOD9097066 Si02
#       7
#     2   2   2   2   2   2   2
#     4  10  19  37  59  88 110 145 204 229 278 337
#     4  11  20  36  63  84 113 155 189 234 280 341
#     4  10  16  30  58  85 109 147 192 232 274 330
#     4  10  21  38  59  80 116 156 191 234 277 341
#     4  11  22  38  57  83 119 153 182 238 297 334
#     4   8  16  30  54  80 115 141 184 243 264 331
#     4  10  18  35  54  87 120 142 191 238 282 336
#
# _framework density 23.168251999999999
#
# number of rings (size 3 to 8) (size 9 to 14) (size 15 to 20)
#    0.000    2.286    4.286    3.429    0.000    2.857 
#    0.000    2.143    0.000    1.714    0.000    0.000 
#    0.000    0.000    0.000    0.000    0.000    0.000 
#
# Total GULP energy -78178.553973 kJ/mol
# GULP energy per Si atom -5584.182427 kJ/mol
# Density = 2.311552 g / cm^3
# Si number density = 23.168252 Si / 1000 Ang^3
#
#
#
# Elastic Constant Matrix: (Units=GPa)
#
#
# Indices 1 2 3 4 5 6 
#
# 1 92.8883 28.3204 37.7234 2.7699 -11.9141 -17.3974
# 2 28.3204 120.7657 29.2204 -11.9968 -7.5882 -15.6398
# 3 37.7234 29.2204 83.7574 -36.2065 -15.6093 2.1957
# 4 2.7699 -11.9968 -36.2065 46.2579 -11.6355 -10.8344
# 5 -11.9141 -7.5882 -15.6093 -11.6355 37.9504 3.8477
# 6 -17.3974 -15.6398 2.1957 -10.8344 3.8477 33.1956
#
#
#
# Elastic Compliance Matrix: (Units=1/GPa)
#
#
# Indices 1 2 3 4 5 6 
#
# 1 0.017605 -0.001528 -0.013443 -0.011676 -0.004507 0.006108
# 2 -0.001528 0.009985 -0.001257 0.003212 0.001492 0.004862
# 3 -0.013443 -0.001257 0.037895 0.035430 0.022094 -0.001141
# 4 -0.011676 0.003212 0.035430 0.060405 0.029117 0.009390
# 5 -0.004507 0.001492 0.022094 0.029117 0.043108 0.001386
# 6 0.006108 0.004862 -0.001141 0.009390 0.001386 0.038596
#
#
# Mechanical properties :
#
#
# Convention : Reuss Voigt Hill
#
# Bulk Modulus (GPa) = 30.27530 54.21553 42.24541
# Shear Modulus (GPa) = 19.91559 36.95727 28.43643
#
# Velocity S-wave (km/s) = 2.93509 3.99829 3.50721
# Velocity P-wave (km/s) = 4.95805 6.69079 5.88850
#
# Compressibility (1/GPa) = 0.03303023
#
# Stress axis : x y z
#
# Youngs Moduli (GPa) = 56.80208 100.14741 26.38840
#
# Poissons Ratio (x) = 0.15301 0.35475
# Poissons Ratio (y) = 0.08678 0.03316
# Poissons Ratio (z) = 0.76361 0.12584
#
# Static dielectric constant tensor:
#      x y z
#    x 1.880300 -0.012720 0.063620 
#    y -0.012720 1.851510 0.023190 
#    z 0.063620 0.023190 1.917360 
# 
# From -- ./inp_files/265037.got.cif
#   From: 2010.05.17/outbox.cif.g08.bks.cpg/sg2_133_cif.got.tgz:265037.got - 2010.06.03 11:33:40.
