data_PCOD9097265
_publ_section_title
;
Structure prediction by ZEFSAII (Michael W. Deem and Ramdas Pophale) SiO2 
 PCOD9097265
Probable space group: P -1
;
_chemical_formula_sum "Si O2"
_cell_formula_units_Z 14
_cell_length_a 8.992120
_cell_length_b 24.719473
_cell_length_c 18.347924
_cell_angle_alpha 16.845502
_cell_angle_beta 149.670014
_cell_angle_gamma 152.869372
_cell_volume 536.971351
_symmetry_space_group_name_H-M "P -1"
_symmetry_group_IT_number 2
_symmetry_cell_setting 'triclinic'
loop_
_space_group_symop_operation_xyz
x,y,z
-x,-y,-z
loop_
_atom_site_type_symbol
_atom_site_label
_atom_site_fract_x
_atom_site_fract_y
_atom_site_fract_z
Si Si1 0.842193 0.071385 0.408127
Si Si2 0.177281 0.038814 0.903304
Si Si3 0.835109 0.617845 0.436091
Si Si4 0.609299 0.354019 0.278484
Si Si5 0.331675 0.505146 0.734215
Si Si6 0.479307 0.636462 0.141161
Si Si7 0.124808 0.973472 0.799795
O O1 0.485158 0.862251 0.521969
O O2 0.978415 0.053075 0.568871
O O3 0.772199 0.265958 0.105794
O O4 0.000000 0.000000 0.500000
O O5 0.170023 0.190045 0.769608
O O6 0.169958 0.082757 0.756877
O O7 0.523019 0.020891 0.080117
O O8 0.835479 0.836513 0.032238
O O9 0.013900 0.538737 0.674726
O O10 0.066515 0.595706 0.497638
O O11 0.497845 0.532144 0.360082
O O12 0.447629 0.348715 0.296613
O O13 0.500000 0.500000 0.000000
O O14 0.526957 0.507343 0.742757
O O15 0.136534 0.265652 0.985763
#
# Coordination Sequence:
#
# PCOD9097265 Si02
#       7
#     2   2   2   2   2   2   2
#     4  12  24  39  63  93 124 156 205 257 298 360
#     4  10  21  37  61  87 120 157 202 250 298 362
#     4  10  20  36  60  84 116 160 199 246 296 364
#     4  10  21  40  60  86 121 162 197 243 306 356
#     4   9  21  37  61  85 120 161 207 245 296 369
#     4  11  21  38  62  91 117 164 203 245 309 359
#     4  10  22  38  57  93 120 154 205 254 298 351
#
# _framework density 26.072154000000001
#
# number of rings (size 3 to 8) (size 9 to 14) (size 15 to 20)
#    0.857    0.857    2.857    1.714    2.000    4.000 
#    0.000    0.714    0.000    0.000    0.000    0.000 
#    0.000    0.000    0.000    0.000    0.000    0.000 
#
# Total GULP energy -77981.002371 kJ/mol
# GULP energy per Si atom -5570.071598 kJ/mol
# Density = 2.601281 g / cm^3
# Si number density = 26.072154 Si / 1000 Ang^3
#
#
#
# Elastic Constant Matrix: (Units=GPa)
#
#
# Indices 1 2 3 4 5 6 
#
# 1 102.9207 54.4473 66.3871 13.0082 27.8316 -25.5107
# 2 54.4473 117.5686 64.7858 17.4025 -1.0376 -42.3183
# 3 66.3871 64.7858 148.8923 52.9666 12.2083 -26.0814
# 4 13.0082 17.4025 52.9666 64.9750 -5.6434 -0.0949
# 5 27.8316 -1.0376 12.2083 -5.6434 51.9332 -9.3074
# 6 -25.5107 -42.3183 -26.0814 -0.0949 -9.3074 58.0999
#
#
#
# Elastic Compliance Matrix: (Units=1/GPa)
#
#
# Indices 1 2 3 4 5 6 
#
# 1 0.018506 -0.005783 -0.005637 0.001700 -0.008520 0.000021
# 2 -0.005783 0.016269 -0.003532 0.000199 0.005828 0.008659
# 3 -0.005637 -0.003532 0.014659 -0.009990 -0.001348 0.001300
# 4 0.001700 0.000199 -0.009990 0.023436 0.003450 -0.003003
# 5 -0.008520 0.005828 -0.001348 0.003450 0.025340 0.003964
# 6 0.000021 0.008659 0.001300 -0.003003 0.003964 0.024742
#
#
# Mechanical properties :
#
#
# Convention : Reuss Voigt Hill
#
# Bulk Modulus (GPa) = 51.20685 82.29133 66.74909
# Shear Modulus (GPa) = 31.37412 47.25239 39.31326
#
# Velocity S-wave (km/s) = 3.47271 4.26181 3.88733
# Velocity P-wave (km/s) = 5.98019 7.47321 6.76799
#
# Compressibility (1/GPa) = 0.01952864
#
# Stress axis : x y z
#
# Youngs Moduli (GPa) = 54.03610 61.46614 68.21784
#
# Poissons Ratio (x) = 0.35547 0.38457
# Poissons Ratio (y) = 0.31250 0.24096
# Poissons Ratio (z) = 0.30462 0.21711
#
# Static dielectric constant tensor:
#      x y z
#    x 2.296600 0.146210 -0.206550 
#    y 0.146210 2.135920 -0.046440 
#    z -0.206550 -0.046440 2.141150 
# 
# From -- ./inp_files/563300.got.cif
#   From: 2010.05.17/outbox.cif.g08.bks.cpg/sg2_282_cif.got.tgz:563300.got - 2010.06.03 11:33:40.
