data_PCOD9097752
_publ_section_title
;
Structure prediction by ZEFSAII (Michael W. Deem and Ramdas Pophale) SiO2 
 PCOD9097752
Probable space group: P -1
;
_chemical_formula_sum "Si O2"
_cell_formula_units_Z 16
_cell_length_a 15.146608
_cell_length_b 15.855648
_cell_length_c 16.413136
_cell_angle_alpha 153.344055
_cell_angle_beta 36.180147
_cell_angle_gamma 152.164308
_cell_volume 823.054907
_symmetry_space_group_name_H-M "P -1"
_symmetry_group_IT_number 2
_symmetry_cell_setting 'triclinic'
loop_
_space_group_symop_operation_xyz
x,y,z
-x,-y,-z
loop_
_atom_site_type_symbol
_atom_site_label
_atom_site_fract_x
_atom_site_fract_y
_atom_site_fract_z
Si Si1 0.912605 0.416782 0.687492
Si Si2 0.708605 0.262349 0.876541
Si Si3 0.797309 0.941227 0.605531
Si Si4 0.212611 0.086876 0.223289
Si Si5 0.179725 0.073914 0.693614
Si Si6 0.273138 0.864423 0.850849
Si Si7 0.417431 0.445777 0.708734
Si Si8 0.026034 0.146640 0.028911
O O1 0.138718 0.587820 0.687194
O O2 0.888665 0.577692 0.785226
O O3 0.813032 0.387227 0.822101
O O4 0.834917 0.161148 0.493810
O O5 0.808777 0.166616 0.763727
O O6 0.495102 0.025040 0.811292
O O7 0.685282 0.431631 0.093873
O O8 0.735562 0.882386 0.694389
O O9 0.661849 0.725826 0.458225
O O10 0.000000 0.000000 0.500000
O O11 0.364121 0.335707 0.279566
O O12 0.999871 0.995038 0.286910
O O13 0.234362 0.899889 0.002902
O O14 0.364070 0.285261 0.690086
O O15 0.148095 0.139313 0.861863
O O16 0.178193 0.959643 0.950858
O O17 0.000000 0.000000 0.000000
#
# Coordination Sequence:
#
# PCOD9097752 Si02
#       8
#     2   2   2   2   2   2   2   2
#     4  10  20  36  62  84 114 155 186 238 292 348
#     4  11  21  40  60  82 116 159 198 238 287 349
#     4  12  24  38  55  88 119 154 205 246 285 330
#     4  10  21  40  55  83 118 154 200 245 283 334
#     4  11  20  39  61  85 120 156 190 233 298 351
#     4   8  21  38  60  84 114 154 195 230 303 338
#     4  11  22  37  58  81 112 161 196 238 292 337
#     4   9  20  40  64  90 119 146 190 242 290 354
#
# _framework density 19.439772000000001
#
# number of rings (size 3 to 8) (size 9 to 14) (size 15 to 20)
#    0.750    1.000    3.750    0.375    1.750    3.000 
#    4.500    0.625    0.000    0.750    0.000    0.000 
#    0.000    0.000    0.000    0.000    0.000    0.000 
#
# Total GULP energy -89221.283551 kJ/mol
# GULP energy per Si atom -5576.330222 kJ/mol
# Density = 1.939553 g / cm^3
# Si number density = 19.439772 Si / 1000 Ang^3
#
#
#
# Elastic Constant Matrix: (Units=GPa)
#
#
# Indices 1 2 3 4 5 6 
#
# 1 43.1396 23.8285 17.7153 -11.7250 -10.5024 -20.0848
# 2 23.8285 89.8172 11.2501 6.3128 -11.1031 -22.1730
# 3 17.7153 11.2501 75.3084 21.1982 -16.3312 -15.7855
# 4 -11.7250 6.3128 21.1982 21.1830 -6.3304 1.7940
# 5 -10.5024 -11.1031 -16.3312 -6.3304 20.6072 6.5069
# 6 -20.0848 -22.1730 -15.7855 1.7940 6.5069 24.8349
#
#
#
# Elastic Compliance Matrix: (Units=1/GPa)
#
#
# Indices 1 2 3 4 5 6 
#
# 1 0.093798 -0.018405 -0.036653 0.102602 0.034114 0.019778
# 2 -0.018405 0.019492 0.011968 -0.029870 -0.002668 0.012982
# 3 -0.036653 0.011968 0.040704 -0.067087 -0.004684 0.012989
# 4 0.102602 -0.029870 -0.067087 0.195165 0.047009 -0.012748
# 5 0.034114 -0.002668 -0.004684 0.047009 0.075503 -0.000949
# 6 0.019778 0.012982 0.012989 -0.012748 -0.000949 0.077277
#
#
# Mechanical properties :
#
#
# Convention : Reuss Voigt Hill
#
# Bulk Modulus (GPa) = 14.74610 34.87255 24.80933
# Shear Modulus (GPa) = 8.18701 23.68977 15.93839
#
# Velocity S-wave (km/s) = 2.05441 3.49467 2.86647
# Velocity P-wave (km/s) = 3.63724 5.85332 4.87292
#
# Compressibility (1/GPa) = 0.06781453
#
# Stress axis : x y z
#
# Youngs Moduli (GPa) = 10.66120 51.30313 24.56767
#
# Poissons Ratio (x) = 0.94426 0.90047
# Poissons Ratio (y) = 0.19622 -0.29403
# Poissons Ratio (z) = 0.39076 -0.61401
#
# Static dielectric constant tensor:
#      x y z
#    x 1.663260 0.002510 -0.006200 
#    y 0.002510 1.688010 0.009930 
#    z -0.006200 0.009930 1.714630 
# 
# From -- ./inp_files/533913.got.cif
#   From: 2010.05.17/outbox.cif.g08.bks.cpg/sg2_267_cif.got.tgz:533913.got - 2010.06.03 11:33:40.
