data_PCOD9097699
_publ_section_title
;
Structure prediction by ZEFSAII (Michael W. Deem and Ramdas Pophale) SiO2 
 PCOD9097699
Probable space group: P -1
;
_chemical_formula_sum "Si O2"
_cell_formula_units_Z 16
_cell_length_a 7.989882
_cell_length_b 11.358776
_cell_length_c 18.114447
_cell_angle_alpha 27.780396
_cell_angle_beta 116.454396
_cell_angle_gamma 109.276185
_cell_volume 677.879641
_symmetry_space_group_name_H-M "P -1"
_symmetry_group_IT_number 2
_symmetry_cell_setting 'triclinic'
loop_
_space_group_symop_operation_xyz
x,y,z
-x,-y,-z
loop_
_atom_site_type_symbol
_atom_site_label
_atom_site_fract_x
_atom_site_fract_y
_atom_site_fract_z
Si Si1 0.942898 0.913392 0.416703
Si Si2 0.861563 0.438396 0.834332
Si Si3 0.196839 0.727328 0.690034
Si Si4 0.033408 0.066396 0.193810
Si Si5 0.270197 0.215949 0.764986
Si Si6 0.485167 0.329327 0.890021
Si Si7 0.766971 0.435590 0.662171
Si Si8 0.366476 0.712856 0.430636
O O1 0.906856 0.623388 0.555561
O O2 0.144624 0.871149 0.522271
O O3 0.945022 0.067739 0.256213
O O4 0.790977 0.075302 0.351383
O O5 0.649208 0.476068 0.805554
O O6 0.834429 0.295586 0.829569
O O7 0.996776 0.631488 0.724093
O O8 0.983562 0.307902 0.998631
O O9 0.365880 0.497939 0.835583
O O10 0.253098 0.964997 0.303122
O O11 0.937280 0.857320 0.244056
O O12 0.339331 0.276524 0.826378
O O13 0.288749 0.461836 0.584285
O O14 0.404675 0.953405 0.911247
O O15 0.584409 0.645417 0.528790
O O16 0.682730 0.270139 0.675529
#
# Coordination Sequence:
#
# PCOD9097699 Si02
#       8
#     2   2   2   2   2   2   2   2
#     4  10  22  43  62  92 122 161 217 258 295 380
#     4  10  23  42  59  96 124 160 213 254 300 380
#     4  10  23  43  68  86 125 171 208 257 312 358
#     4  11  23  38  64  93 126 160 204 258 319 360
#     4  10  20  36  61  95 124 161 203 254 307 386
#     4  10  21  40  64  91 132 164 200 253 324 362
#     4  10  22  38  59  90 132 154 213 253 302 383
#     4  11  21  36  63  91 126 166 198 254 317 367
#
# _framework density 23.603010999999999
#
# number of rings (size 3 to 8) (size 9 to 14) (size 15 to 20)
#    0.000    1.750    2.500    1.125    3.500    3.000 
#    2.250    4.375    0.000    0.000    0.000    0.000 
#    0.000    0.000    0.000    0.000    0.000    0.000 
#
# Total GULP energy -89200.326198 kJ/mol
# GULP energy per Si atom -5575.020387 kJ/mol
# Density = 2.354929 g / cm^3
# Si number density = 23.603011 Si / 1000 Ang^3
#
#
#
# Elastic Constant Matrix: (Units=GPa)
#
#
# Indices 1 2 3 4 5 6 
#
# 1 44.2171 2.4289 17.0204 -7.7058 10.0478 -5.1618
# 2 2.4289 43.8346 22.3843 -1.2853 -1.0024 -19.2333
# 3 17.0204 22.3843 83.6821 26.3658 3.1677 -26.2634
# 4 -7.7058 -1.2853 26.3658 31.2732 -10.9626 -1.5349
# 5 10.0478 -1.0024 3.1677 -10.9626 37.7222 -6.1378
# 6 -5.1618 -19.2333 -26.2634 -1.5349 -6.1378 30.4464
#
#
#
# Elastic Compliance Matrix: (Units=1/GPa)
#
#
# Indices 1 2 3 4 5 6 
#
# 1 0.031638 0.004741 -0.015219 0.019952 -0.001900 -0.004146
# 2 0.004741 0.035737 -0.010112 0.014636 0.007542 0.016915
# 3 -0.015219 -0.010112 0.034422 -0.034506 -0.006250 0.017725
# 4 0.019952 0.014636 -0.034506 0.072164 0.017316 -0.010009
# 5 -0.001900 0.007542 -0.006250 0.017316 0.033872 0.006752
# 6 -0.004146 0.016915 0.017725 -0.010009 0.006752 0.058974
#
#
# Mechanical properties :
#
#
# Convention : Reuss Voigt Hill
#
# Bulk Modulus (GPa) = 16.49677 28.37787 22.43732
# Shear Modulus (GPa) = 15.23499 28.54837 21.89168
#
# Velocity S-wave (km/s) = 2.54336 3.48159 3.04878
# Velocity P-wave (km/s) = 3.95340 5.31141 4.68190
#
# Compressibility (1/GPa) = 0.06061792
#
# Stress axis : x y z
#
# Youngs Moduli (GPa) = 31.60761 27.98194 29.05142
#
# Poissons Ratio (x) = -0.13265 0.44212
# Poissons Ratio (y) = -0.14984 0.29376
# Poissons Ratio (z) = 0.48102 0.28294
#
# Static dielectric constant tensor:
#      x y z
#    x 1.966020 -0.002560 0.016850 
#    y -0.002560 1.943680 -0.007970 
#    z 0.016850 -0.007970 1.903040 
# 
# From -- ./inp_files/353458.got.cif
#   From: 2010.05.17/outbox.cif.g08.bks.cpg/sg2_177_cif.got.tgz:353458.got - 2010.06.03 11:33:40.
