data_PCOD9097392
_publ_section_title
;
Structure prediction by ZEFSAII (Michael W. Deem and Ramdas Pophale) SiO2 
 PCOD9097392
Probable space group: P -1
;
_chemical_formula_sum "Si O2"
_cell_formula_units_Z 16
_cell_length_a 12.116830
_cell_length_b 9.827881
_cell_length_c 11.845926
_cell_angle_alpha 133.499382
_cell_angle_beta 130.630288
_cell_angle_gamma 71.361977
_cell_volume 755.075706
_symmetry_space_group_name_H-M "P -1"
_symmetry_group_IT_number 2
_symmetry_cell_setting 'triclinic'
loop_
_space_group_symop_operation_xyz
x,y,z
-x,-y,-z
loop_
_atom_site_type_symbol
_atom_site_label
_atom_site_fract_x
_atom_site_fract_y
_atom_site_fract_z
Si Si1 0.161345 0.590458 0.046737
Si Si2 0.408805 0.180231 0.319185
Si Si3 0.056366 0.328249 0.496279
Si Si4 0.213960 0.037164 0.329173
Si Si5 0.879903 0.311309 0.583372
Si Si6 0.303186 0.478033 0.297221
Si Si7 0.655745 0.959748 0.339748
Si Si8 0.662769 0.556726 0.090288
O O1 0.141642 0.807726 0.153036
O O2 0.191710 0.510347 0.143166
O O3 0.306846 0.586064 0.066118
O O4 0.028954 0.437729 0.811563
O O5 0.321101 0.263936 0.209911
O O6 0.540597 0.372091 0.543768
O O7 0.502077 0.025000 0.255957
O O8 0.304456 0.102457 0.311710
O O9 0.210680 0.422897 0.718204
O O10 0.000000 0.500000 0.500000
O O11 0.932240 0.246663 0.461942
O O12 0.094798 0.166327 0.348208
O O13 0.325431 0.072001 0.531897
O O14 0.761767 0.447955 0.588348
O O15 0.795533 0.129590 0.495181
O O16 0.673496 0.773068 0.177259
O O17 0.500000 0.500000 0.000000
#
# Coordination Sequence:
#
# PCOD9097392 Si02
#       8
#     2   2   2   2   2   2   2   2
#     4  11  22  38  63  91 118 160 208 256 303 360
#     4  10  20  36  60  90 122 153 206 251 307 365
#     4  10  23  41  64  90 125 170 200 250 313 366
#     4  11  21  36  65  91 117 161 209 249 302 375
#     4  10  21  42  61  85 125 157 213 243 304 375
#     4  10  21  36  60  89 121 161 194 259 310 351
#     4  10  21  39  64  89 115 167 204 245 307 375
#     4  10  23  40  64  90 125 159 206 256 306 365
#
# _framework density 21.189928999999999
#
# number of rings (size 3 to 8) (size 9 to 14) (size 15 to 20)
#    0.000    1.750    2.500    2.250    3.500    4.500 
#    0.000    7.500    0.000    0.000    0.000    0.000 
#    0.000    0.000    0.000    0.000    0.000    0.000 
#
# Total GULP energy -89287.366270 kJ/mol
# GULP energy per Si atom -5580.460392 kJ/mol
# Density = 2.114170 g / cm^3
# Si number density = 21.189929 Si / 1000 Ang^3
#
#
#
# Elastic Constant Matrix: (Units=GPa)
#
#
# Indices 1 2 3 4 5 6 
#
# 1 145.2392 55.8021 25.5624 6.9195 -3.7751 -6.7109
# 2 55.8021 140.1719 23.9663 18.7774 -5.1688 -20.4436
# 3 25.5624 23.9663 32.6001 18.0210 -6.8488 -6.1021
# 4 6.9195 18.7774 18.0210 14.2847 -5.5714 -8.5448
# 5 -3.7751 -5.1688 -6.8488 -5.5714 24.7833 10.1917
# 6 -6.7109 -20.4436 -6.1021 -8.5448 10.1917 36.4877
#
#
#
# Elastic Compliance Matrix: (Units=1/GPa)
#
#
# Indices 1 2 3 4 5 6 
#
# 1 0.010752 -0.004107 -0.019423 0.026310 0.000298 0.002506
# 2 -0.004107 0.010530 0.005637 -0.018325 -0.001954 0.002341
# 3 -0.019423 0.005637 0.144916 -0.192619 0.004198 -0.022459
# 4 0.026310 -0.018325 -0.192619 0.353297 0.008852 0.042622
# 5 0.000298 -0.001954 0.004198 0.008852 0.047930 -0.011653
# 6 0.002506 0.002341 -0.022459 0.042622 -0.011653 0.038660
#
#
# Mechanical properties :
#
#
# Convention : Reuss Voigt Hill
#
# Bulk Modulus (GPa) = 7.66806 58.74145 33.20475
# Shear Modulus (GPa) = 7.29564 29.28983 18.29273
#
# Velocity S-wave (km/s) = 1.85754 3.72190 2.94134
# Velocity P-wave (km/s) = 2.86831 6.80085 5.21914
#
# Compressibility (1/GPa) = 0.13041107
#
# Stress axis : x y z
#
# Youngs Moduli (GPa) = 93.00684 94.97030 6.90054
#
# Poissons Ratio (x) = 0.39007 0.13403
# Poissons Ratio (y) = 0.38201 -0.03890
# Poissons Ratio (z) = 1.80651 -0.53538
#
# Static dielectric constant tensor:
#      x y z
#    x 1.821240 -0.012000 -0.020690 
#    y -0.012000 1.810730 0.016780 
#    z -0.020690 0.016780 1.800980 
# 
# From -- ./inp_files/420105.got.cif
#   From: 2010.05.17/outbox.cif.g08.bks.cpg/sg2_211_cif.got.tgz:420105.got - 2010.06.03 11:33:40.
