data_PCOD9097355
_publ_section_title
;
Structure prediction by ZEFSAII (Michael W. Deem and Ramdas Pophale) SiO2 
 PCOD9097355
Probable space group: P -1
;
_chemical_formula_sum "Si O2"
_cell_formula_units_Z 14
_cell_length_a 11.844222
_cell_length_b 8.155943
_cell_length_c 16.992808
_cell_angle_alpha 65.372989
_cell_angle_beta 35.080564
_cell_angle_gamma 92.680144
_cell_volume 574.735684
_symmetry_space_group_name_H-M "P -1"
_symmetry_group_IT_number 2
_symmetry_cell_setting 'triclinic'
loop_
_space_group_symop_operation_xyz
x,y,z
-x,-y,-z
loop_
_atom_site_type_symbol
_atom_site_label
_atom_site_fract_x
_atom_site_fract_y
_atom_site_fract_z
Si Si1 0.204480 0.815618 0.313161
Si Si2 0.847107 0.104366 0.842694
Si Si3 0.695412 0.069591 0.243089
Si Si4 0.094159 0.527630 0.734027
Si Si5 0.687962 0.660013 0.280648
Si Si6 0.498792 0.774460 0.806804
Si Si7 0.729062 0.650109 0.081556
O O1 0.000000 0.500000 0.500000
O O2 0.125558 0.881208 0.269074
O O3 0.249121 0.969913 0.333867
O O4 0.527332 0.956615 0.080934
O O5 0.866227 0.925806 0.911378
O O6 0.068110 0.407992 0.688640
O O7 0.401027 0.834473 0.508824
O O8 0.766010 0.921862 0.193558
O O9 0.574966 0.132504 0.238035
O O10 0.992647 0.297511 0.077815
O O11 0.091947 0.358324 0.829340
O O12 0.801292 0.442649 0.927490
O O13 0.500000 0.500000 0.500000
O O14 0.590264 0.575741 0.262509
O O15 0.513544 0.594204 0.790297
#
# Coordination Sequence:
#
# PCOD9097355 Si02
#       7
#     2   2   2   2   2   2   2
#     4  10  22  45  69  88 115 168 223 266 318 371
#     4  10  22  40  67  91 122 162 220 269 305 376
#     4  11  21  37  63  89 133 170 212 248 304 392
#     4  10  20  38  60  93 121 171 215 251 309 368
#     4  10  20  36  60  88 125 166 218 249 299 378
#     4  11  24  40  60  91 138 166 206 266 316 377
#     4  12  23  39  60  98 135 168 204 263 324 374
#
# _framework density 24.359024999999999
#
# number of rings (size 3 to 8) (size 9 to 14) (size 15 to 20)
#    0.000    1.429    2.857    3.429    0.000    2.286 
#    2.571    0.714    0.000    0.000    0.000    0.000 
#    0.000    0.000    0.000    0.000    0.000    0.000 
#
# Total GULP energy -78132.644844 kJ/mol
# GULP energy per Si atom -5580.903203 kJ/mol
# Density = 2.430358 g / cm^3
# Si number density = 24.359025 Si / 1000 Ang^3
#
#
#
# Elastic Constant Matrix: (Units=GPa)
#
#
# Indices 1 2 3 4 5 6 
#
# 1 91.9920 22.3173 21.9327 -7.5697 17.7425 27.2978
# 2 22.3173 126.1538 25.8174 -18.6353 9.3136 49.1371
# 3 21.9327 25.8174 96.7471 -6.2575 4.1531 21.9255
# 4 -7.5697 -18.6353 -6.2575 20.4980 2.9621 -13.5173
# 5 17.7425 9.3136 4.1531 2.9621 42.6901 -1.8349
# 6 27.2978 49.1371 21.9255 -13.5173 -1.8349 40.3209
#
#
#
# Elastic Compliance Matrix: (Units=1/GPa)
#
#
# Indices 1 2 3 4 5 6 
#
# 1 0.016465 0.004177 -0.000825 0.000223 -0.008381 -0.016095
# 2 0.004177 0.017036 0.000200 0.002859 -0.006661 -0.023042
# 3 -0.000825 0.000200 0.011934 -0.000546 -0.001099 -0.006407
# 4 0.000223 0.002859 -0.000546 0.063668 -0.004316 0.017810
# 5 -0.008381 -0.006661 -0.001099 -0.004316 0.029381 0.014279
# 6 -0.016095 -0.023042 -0.006407 0.017810 0.014279 0.073882
#
#
# Mechanical properties :
#
#
# Convention : Reuss Voigt Hill
#
# Bulk Modulus (GPa) = 19.03420 50.55863 34.79641
# Shear Modulus (GPa) = 22.44404 37.02351 29.73377
#
# Velocity S-wave (km/s) = 3.03873 3.90283 3.49757
# Velocity P-wave (km/s) = 4.48807 6.41172 5.53412
#
# Compressibility (1/GPa) = 0.05253702
#
# Stress axis : x y z
#
# Youngs Moduli (GPa) = 60.73560 58.69907 83.79476
#
# Poissons Ratio (x) = -0.24518 0.06917
# Poissons Ratio (y) = -0.25368 -0.01674
# Poissons Ratio (z) = 0.05014 -0.01173
#
# Static dielectric constant tensor:
#      x y z
#    x 1.949560 0.020200 -0.068620 
#    y 0.020200 1.969040 0.033530 
#    z -0.068620 0.033530 2.048960 
# 
# From -- ./inp_files/515336.got.cif
#   From: 2010.05.17/outbox.cif.g08.bks.cpg/sg2_258_cif.got.tgz:515336.got - 2010.06.03 11:33:40.
