data_PCOD9097705
_publ_section_title
;
Structure prediction by ZEFSAII (Michael W. Deem and Ramdas Pophale) SiO2 
 PCOD9097705
Probable space group: P -1
;
_chemical_formula_sum "Si O2"
_cell_formula_units_Z 16
_cell_length_a 11.132663
_cell_length_b 9.350634
_cell_length_c 13.924143
_cell_angle_alpha 132.672874
_cell_angle_beta 129.234923
_cell_angle_gamma 80.141551
_cell_volume 736.244004
_symmetry_space_group_name_H-M "P -1"
_symmetry_group_IT_number 2
_symmetry_cell_setting 'triclinic'
loop_
_space_group_symop_operation_xyz
x,y,z
-x,-y,-z
loop_
_atom_site_type_symbol
_atom_site_label
_atom_site_fract_x
_atom_site_fract_y
_atom_site_fract_z
Si Si1 0.625192 0.920274 0.471041
Si Si2 0.557338 0.137456 0.993610
Si Si3 0.200423 0.313002 0.084098
Si Si4 0.831390 0.026815 0.815524
Si Si5 0.543246 0.756576 0.691574
Si Si6 0.166455 0.593075 0.873201
Si Si7 0.786809 0.331830 0.616260
Si Si8 0.626826 0.555504 0.957328
O O1 0.512926 0.673778 0.265040
O O2 0.500000 0.000000 0.500000
O O3 0.768136 0.966109 0.646575
O O4 0.708417 0.084430 0.499259
O O5 0.517868 0.959923 0.810363
O O6 0.543614 0.718780 0.001670
O O7 0.500000 0.000000 0.000000
O O8 0.759443 0.294666 0.140972
O O9 0.380422 0.324539 0.219438
O O10 0.180321 0.521666 0.204965
O O11 0.214830 0.327591 0.984489
O O12 0.037753 0.101884 0.949787
O O13 0.691433 0.831998 0.719393
O O14 0.820079 0.231197 0.956832
O O15 0.355412 0.617827 0.488338
O O16 0.966156 0.418763 0.690094
O O17 0.291096 0.493192 0.929028
#
# Coordination Sequence:
#
# PCOD9097705 Si02
#       8
#     2   2   2   2   2   2   2   2
#     4  12  19  36  62  93 130 155 199 253 314 367
#     4  11  24  45  66  84 123 168 215 254 307 367
#     4  11  21  35  63  94 129 159 204 252 313 374
#     4  10  20  36  61  96 126 159 200 257 314 368
#     4  11  21  40  61  85 127 171 204 251 309 371
#     4  10  22  40  66  95 123 161 211 254 308 369
#     4  11  22  38  63  97 128 158 203 262 311 366
#     4  12  22  40  65  94 122 168 208 249 311 372
#
# _framework density 21.731926999999999
#
# number of rings (size 3 to 8) (size 9 to 14) (size 15 to 20)
#    0.000    1.000    5.000    2.625    0.000    2.000 
#    0.000    4.375    0.000    0.000    0.000    0.000 
#    0.000    0.000    0.000    0.000    0.000    0.000 
#
# Total GULP energy -89284.159061 kJ/mol
# GULP energy per Si atom -5580.259941 kJ/mol
# Density = 2.168246 g / cm^3
# Si number density = 21.731927 Si / 1000 Ang^3
#
#
#
# Elastic Constant Matrix: (Units=GPa)
#
#
# Indices 1 2 3 4 5 6 
#
# 1 105.3234 46.6459 36.1549 19.4056 18.5765 18.6015
# 2 46.6459 110.2486 38.6580 8.4087 16.1344 17.5624
# 3 36.1549 38.6580 72.8666 4.1443 23.1072 4.2875
# 4 19.4056 8.4087 4.1443 34.7860 -2.6755 -5.1000
# 5 18.5765 16.1344 23.1072 -2.6755 28.6017 12.1325
# 6 18.6015 17.5624 4.2875 -5.1000 12.1325 44.5080
#
#
#
# Elastic Compliance Matrix: (Units=1/GPa)
#
#
# Indices 1 2 3 4 5 6 
#
# 1 0.015253 -0.003139 -0.003985 -0.008247 -0.003699 -0.004689
# 2 -0.003139 0.012766 -0.005019 -0.001224 0.000240 -0.003448
# 3 -0.003985 -0.005019 0.022917 0.000351 -0.015480 0.005698
# 4 -0.008247 -0.001224 0.000351 0.034999 0.006427 0.006154
# 5 -0.003699 0.000240 -0.015480 0.006427 0.055154 -0.011356
# 6 -0.004689 -0.003448 0.005698 0.006154 -0.011356 0.029040
#
#
# Mechanical properties :
#
#
# Convention : Reuss Voigt Hill
#
# Bulk Modulus (GPa) = 37.52269 59.03958 48.28113
# Shear Modulus (GPa) = 24.59463 32.71112 28.65287
#
# Velocity S-wave (km/s) = 3.36777 3.88391 3.63501
# Velocity P-wave (km/s) = 5.69439 6.88035 6.31527
#
# Compressibility (1/GPa) = 0.02665054
#
# Stress axis : x y z
#
# Youngs Moduli (GPa) = 65.56224 78.33507 43.63538
#
# Poissons Ratio (x) = 0.24588 0.17388
# Poissons Ratio (y) = 0.20579 0.21900
# Poissons Ratio (z) = 0.26126 0.39315
#
# Static dielectric constant tensor:
#      x y z
#    x 1.789260 0.011950 0.004030 
#    y 0.011950 1.854170 0.003890 
#    z 0.004030 0.003890 1.856790 
# 
# From -- ./inp_files/513597.got.cif
#   From: 2010.05.17/outbox.cif.g08.bks.cpg/sg2_257_cif.got.tgz:513597.got - 2010.06.03 11:33:40.
