data_PCOD9097967
_publ_section_title
;
Structure prediction by ZEFSAII (Michael W. Deem and Ramdas Pophale) SiO2 
 PCOD9097967
Probable space group: P -1
;
_chemical_formula_sum "Si O2"
_cell_formula_units_Z 16
_cell_length_a 5.545756
_cell_length_b 15.581439
_cell_length_c 20.983099
_cell_angle_alpha 156.366736
_cell_angle_beta 87.674657
_cell_angle_gamma 102.032211
_cell_volume 656.508118
_symmetry_space_group_name_H-M "P -1"
_symmetry_group_IT_number 2
_symmetry_cell_setting 'triclinic'
loop_
_space_group_symop_operation_xyz
x,y,z
-x,-y,-z
loop_
_atom_site_type_symbol
_atom_site_label
_atom_site_fract_x
_atom_site_fract_y
_atom_site_fract_z
Si Si1 0.601764 0.589994 0.672377
Si Si2 0.868578 0.624730 0.934947
Si Si3 0.028043 0.762860 0.164793
Si Si4 0.024757 0.462015 0.590296
Si Si5 0.353486 0.998470 0.641540
Si Si6 0.470732 0.553890 0.792759
Si Si7 0.928866 0.197252 0.605317
Si Si8 0.230250 0.859944 0.970251
O O1 0.301166 0.469549 0.567520
O O2 0.583380 0.516315 0.698211
O O3 0.816311 0.517143 0.588048
O O4 0.704413 0.872259 0.861699
O O5 0.573259 0.540248 0.853090
O O6 0.910310 0.387361 0.782738
O O7 0.967105 0.775294 0.098949
O O8 0.022123 0.760809 0.962586
O O9 0.341139 0.917640 0.282768
O O10 0.794366 0.823295 0.239400
O O11 0.000000 0.500000 0.000000
O O12 0.843720 0.210280 0.452772
O O13 0.132308 0.684812 0.791397
O O14 0.330515 0.903531 0.505008
O O15 0.168993 0.354901 0.662739
O O16 0.477645 0.813547 0.961817
O O17 0.000000 0.000000 0.500000
#
# Coordination Sequence:
#
# PCOD9097967 Si02
#       8
#     2   2   2   2   2   2   2   2
#     4  11  20  35  63 107 134 168 214 285 338 401
#     4  11  24  43  65  97 137 174 232 283 332 409
#     4  12  30  48  69  95 138 190 232 269 346 419
#     4  11  20  38  62 101 130 168 218 274 333 396
#     4  12  25  47  71  98 137 182 224 286 341 403
#     4  10  20  36  62  96 137 160 226 275 341 384
#     4  11  24  40  69 102 131 171 226 296 344 393
#     4  10  21  35  65 100 134 167 219 282 337 393
#
# _framework density 24.371366999999999
#
# number of rings (size 3 to 8) (size 9 to 14) (size 15 to 20)
#    0.000    1.000    5.000    3.750    8.750    0.500 
#    0.000    0.000    0.000    4.500    0.000    0.000 
#    0.000    0.000    0.000    0.000    0.000    0.000 
#
# Total GULP energy -89342.751063 kJ/mol
# GULP energy per Si atom -5583.921941 kJ/mol
# Density = 2.431590 g / cm^3
# Si number density = 24.371367 Si / 1000 Ang^3
#
#
#
# Elastic Constant Matrix: (Units=GPa)
#
#
# Indices 1 2 3 4 5 6 
#
# 1 150.8531 11.8132 26.8345 -6.9763 9.3595 -25.3851
# 2 11.8132 55.8836 27.7384 0.5337 9.1446 -15.2910
# 3 26.8345 27.7384 69.4654 8.5348 4.4133 -10.1496
# 4 -6.9763 0.5337 8.5348 47.7068 -13.3697 -5.0843
# 5 9.3595 9.1446 4.4133 -13.3697 43.8172 4.5952
# 6 -25.3851 -15.2910 -10.1496 -5.0843 4.5952 26.0068
#
#
#
# Elastic Compliance Matrix: (Units=1/GPa)
#
#
# Indices 1 2 3 4 5 6 
#
# 1 0.008925 0.002854 -0.003233 0.002203 -0.002554 0.010010
# 2 0.002854 0.027694 -0.009483 0.001733 -0.006677 0.016887
# 3 -0.003233 -0.009483 0.019712 -0.004198 -0.000409 -0.001787
# 4 0.002203 0.001733 -0.004198 0.024383 0.006490 0.005150
# 5 -0.002554 -0.006677 -0.000409 0.006490 0.027856 -0.010231
# 6 0.010010 0.016887 -0.001787 0.005150 -0.010231 0.060269
#
#
# Mechanical properties :
#
#
# Convention : Reuss Voigt Hill
#
# Bulk Modulus (GPa) = 27.31636 45.44159 36.37898
# Shear Modulus (GPa) = 24.90467 37.49389 31.19928
#
# Velocity S-wave (km/s) = 3.20016 3.92655 3.58182
# Velocity P-wave (km/s) = 4.98873 6.26443 5.66262
#
# Compressibility (1/GPa) = 0.03660810
#
# Stress axis : x y z
#
# Youngs Moduli (GPa) = 112.03890 36.10846 50.73058
#
# Poissons Ratio (x) = -0.10306 0.16403
# Poissons Ratio (y) = -0.31977 0.48106
# Poissons Ratio (z) = 0.36226 0.34240
#
# Static dielectric constant tensor:
#      x y z
#    x 2.179330 -0.002190 0.026300 
#    y -0.002190 1.928760 0.021730 
#    z 0.026300 0.021730 1.947820 
# 
# From -- ./inp_files/605018.got.cif
#   From: 2010.05.17/outbox.cif.g08.bks.cpg/sg2_303_cif.got.tgz:605018.got - 2010.06.03 11:33:40.
