data_PCOD9097367
_publ_section_title
;
Structure prediction by ZEFSAII (Michael W. Deem and Ramdas Pophale) SiO2 
 PCOD9097367
Probable space group: P -1
;
_chemical_formula_sum "Si O2"
_cell_formula_units_Z 14
_cell_length_a 8.856189
_cell_length_b 18.887056
_cell_length_c 23.284972
_cell_angle_alpha 160.808123
_cell_angle_beta 144.673872
_cell_angle_gamma 33.172164
_cell_volume 693.553929
_symmetry_space_group_name_H-M "P -1"
_symmetry_group_IT_number 2
_symmetry_cell_setting 'triclinic'
loop_
_space_group_symop_operation_xyz
x,y,z
-x,-y,-z
loop_
_atom_site_type_symbol
_atom_site_label
_atom_site_fract_x
_atom_site_fract_y
_atom_site_fract_z
Si Si1 0.506538 0.578380 0.760449
Si Si2 0.339121 0.772727 0.162478
Si Si3 0.975388 0.993900 0.919683
Si Si4 0.676004 0.087280 0.484214
Si Si5 0.778088 0.245256 0.758793
Si Si6 0.375641 0.246826 0.943085
Si Si7 0.803132 0.799928 0.945745
O O1 0.526002 0.322249 0.583248
O O2 0.587934 0.679779 0.923186
O O3 0.724868 0.593379 0.791068
O O4 0.196491 0.752355 0.782512
O O5 0.299924 0.826312 0.258968
O O6 0.527289 0.901700 0.290981
O O7 0.500000 0.500000 0.000000
O O8 0.035124 0.839299 0.089538
O O9 0.649696 0.052697 0.855879
O O10 0.000000 0.000000 0.000000
O O11 0.061668 0.195272 0.070798
O O12 0.335840 0.846376 0.401443
O O13 0.000000 0.000000 0.500000
O O14 0.675768 0.522494 0.933034
O O15 0.110977 0.170414 0.799802
O O16 0.500000 0.000000 0.000000
#
# Coordination Sequence:
#
# PCOD9097367 Si02
#       7
#     2   2   2   2   2   2   2
#     4   9  18  38  57  87 124 160 203 254 305 367
#     4  12  24  40  67  93 121 166 214 257 320 377
#     4   9  18  32  59  91 117 159 207 247 303 371
#     4  11  25  39  60  93 130 164 205 265 314 364
#     4  10  21  37  61  90 131 156 206 259 311 363
#     4   9  17  32  61  92 117 159 202 249 310 367
#     4  10  20  36  60  89 120 157 205 252 302 370
#
# _framework density 20.185886
#
# number of rings (size 3 to 8) (size 9 to 14) (size 15 to 20)
#    0.000    2.000    1.429    2.143    6.000    0.000 
#    0.000    4.286    3.143    0.857    0.000    0.000 
#    0.000    0.000    0.000    0.000    0.000    0.000 
#
# Total GULP energy -78104.589586 kJ/mol
# GULP energy per Si atom -5578.899256 kJ/mol
# Density = 2.013994 g / cm^3
# Si number density = 20.185886 Si / 1000 Ang^3
#
#
#
# Elastic Constant Matrix: (Units=GPa)
#
#
# Indices 1 2 3 4 5 6 
#
# 1 117.1214 34.6474 39.6169 6.7937 29.4862 15.9371
# 2 34.6474 117.9525 49.4024 1.4126 21.3063 -16.8246
# 3 39.6169 49.4024 118.0710 5.1674 29.2463 -5.9853
# 4 6.7937 1.4126 5.1674 15.2069 2.7466 2.6478
# 5 29.4862 21.3063 29.2463 2.7466 31.9808 -1.4065
# 6 15.9371 -16.8246 -5.9853 2.6478 -1.4065 35.7991
#
#
#
# Elastic Compliance Matrix: (Units=1/GPa)
#
#
# Indices 1 2 3 4 5 6 
#
# 1 0.013325 -0.002737 -0.001278 -0.002230 -0.009438 -0.007638
# 2 -0.002737 0.011906 -0.003221 0.000545 -0.002240 0.006147
# 3 -0.001278 -0.003221 0.012292 -0.002084 -0.007696 0.000962
# 4 -0.002230 0.000545 -0.002084 0.068605 -0.002481 -0.004271
# 5 -0.009438 -0.002240 -0.007696 -0.002481 0.048888 0.003967
# 6 -0.007638 0.006147 0.000962 -0.004271 0.003967 0.034855
#
#
# Mechanical properties :
#
#
# Convention : Reuss Voigt Hill
#
# Bulk Modulus (GPa) = 43.37963 66.71982 55.04972
# Shear Modulus (GPa) = 23.58209 31.89591 27.73900
#
# Velocity S-wave (km/s) = 3.42167 3.97937 3.71101
# Velocity P-wave (km/s) = 6.09485 7.36467 6.75964
#
# Compressibility (1/GPa) = 0.02305229
#
# Stress axis : x y z
#
# Youngs Moduli (GPa) = 75.04918 83.99386 81.35352
#
# Poissons Ratio (x) = 0.22987 0.10393
# Poissons Ratio (y) = 0.20539 0.26201
# Poissons Ratio (z) = 0.09588 0.27052
#
# Static dielectric constant tensor:
#      x y z
#    x 1.762010 0.011070 0.002100 
#    y 0.011070 1.762720 -0.005130 
#    z 0.002100 -0.005130 1.691000 
# 
# From -- ./inp_files/622696.got.cif
#   From: 2010.05.17/outbox.cif.g08.bks.cpg/sg2_312_cif.got.tgz:622696.got - 2010.06.03 11:33:40.
