data_PCOD9097550
_publ_section_title
;
Structure prediction by ZEFSAII (Michael W. Deem and Ramdas Pophale) SiO2 
 PCOD9097550
Probable space group: P -1
;
_chemical_formula_sum "Si O2"
_cell_formula_units_Z 16
_cell_length_a 9.950757
_cell_length_b 11.009621
_cell_length_c 20.327066
_cell_angle_alpha 135.421810
_cell_angle_beta 113.991883
_cell_angle_gamma 37.184436
_cell_volume 874.102669
_symmetry_space_group_name_H-M "P -1"
_symmetry_group_IT_number 2
_symmetry_cell_setting 'triclinic'
loop_
_space_group_symop_operation_xyz
x,y,z
-x,-y,-z
loop_
_atom_site_type_symbol
_atom_site_label
_atom_site_fract_x
_atom_site_fract_y
_atom_site_fract_z
Si Si1 0.172106 0.577577 0.369649
Si Si2 0.846202 0.283268 0.037137
Si Si3 0.675677 0.203372 0.563443
Si Si4 0.634198 0.716023 0.381962
Si Si5 0.004236 0.371427 0.210326
Si Si6 0.269960 0.829442 0.141346
Si Si7 0.702897 0.619358 0.540809
Si Si8 0.095080 0.201240 0.363338
O O1 0.287365 0.627089 0.371675
O O2 0.328290 0.380888 0.388512
O O3 0.114102 0.459451 0.272133
O O4 0.924029 0.880360 0.468469
O O5 0.946764 0.363534 0.121788
O O6 0.557851 0.543203 0.090496
O O7 0.857757 0.215965 0.936806
O O8 0.000000 0.000000 0.000000
O O9 0.548244 0.269894 0.632353
O O10 0.494401 0.297103 0.508086
O O11 0.751026 0.609903 0.292295
O O12 0.875825 0.471067 0.378265
O O13 0.500000 0.000000 0.500000
O O14 0.179736 0.073496 0.170202
O O15 0.190739 0.949169 0.245553
O O16 0.722451 0.807016 0.602671
O O17 0.959971 0.306097 0.445623
#
# Coordination Sequence:
#
# PCOD9097550 Si02
#       8
#     2   2   2   2   2   2   2   2
#     4  11  20  33  43  71 106 135 173 199 236 293
#     4   9  19  31  49  72  98 126 157 207 265 294
#     4  10  22  30  46  67 105 143 167 201 236 283
#     4  10  16  31  47  72 101 134 167 205 237 288
#     4  10  19  30  51  72  97 133 166 202 248 291
#     4   9  17  33  46  72 101 119 162 216 249 293
#     4  10  18  32  46  70 100 134 166 198 240 293
#     4   9  18  27  50  74  95 127 170 202 246 291
#
# _framework density 18.304486000000001
#
# number of rings (size 3 to 8) (size 9 to 14) (size 15 to 20)
#    0.000    2.250    3.750    0.375    1.750    2.000 
#    0.000    0.000    0.000    0.000    0.000   21.875 
#    0.000   56.250    0.000    0.000    0.000    0.000 
#
# Total GULP energy -89071.622838 kJ/mol
# GULP energy per Si atom -5566.976427 kJ/mol
# Density = 1.826282 g / cm^3
# Si number density = 18.304486 Si / 1000 Ang^3
#
#
#
# Elastic Constant Matrix: (Units=GPa)
#
#
# Indices 1 2 3 4 5 6 
#
# 1 73.3827 10.0764 28.6109 -13.3618 12.9024 -13.9816
# 2 10.0764 79.3437 24.8450 -0.9436 3.6862 -14.0652
# 3 28.6109 24.8450 97.6881 -21.2728 4.0249 -2.3634
# 4 -13.3618 -0.9436 -21.2728 43.6745 -9.6566 -0.4266
# 5 12.9024 3.6862 4.0249 -9.6566 16.6054 -2.6592
# 6 -13.9816 -14.0652 -2.3634 -0.4266 -2.6592 12.9541
#
#
#
# Elastic Compliance Matrix: (Units=1/GPa)
#
#
# Indices 1 2 3 4 5 6 
#
# 1 0.022784 0.004183 -0.006276 0.001578 -0.012100 0.025556
# 2 0.004183 0.017829 -0.005409 -0.001459 -0.003193 0.022183
# 3 -0.006276 -0.005409 0.014324 0.005869 0.004593 -0.008898
# 4 0.001578 -0.001459 0.005869 0.029765 0.015853 0.005424
# 5 -0.012100 -0.003193 0.004593 0.015853 0.078593 0.000967
# 6 0.025556 0.022183 -0.008898 0.005424 0.000967 0.127619
#
#
# Mechanical properties :
#
#
# Convention : Reuss Voigt Hill
#
# Bulk Modulus (GPa) = 25.04236 41.94214 33.49225
# Shear Modulus (GPa) = 15.66276 27.10559 21.38417
#
# Velocity S-wave (km/s) = 2.92837 3.85231 3.42167
# Velocity P-wave (km/s) = 5.01443 6.53838 5.82645
#
# Compressibility (1/GPa) = 0.03993233
#
# Stress axis : x y z
#
# Youngs Moduli (GPa) = 43.89064 56.08749 69.81292
#
# Poissons Ratio (x) = -0.23462 0.43817
# Poissons Ratio (y) = -0.18360 0.37763
# Poissons Ratio (z) = 0.27547 0.30338
#
# Static dielectric constant tensor:
#      x y z
#    x 1.639750 0.038930 0.003840 
#    y 0.038930 1.727190 0.004150 
#    z 0.003840 0.004150 1.679690 
# 
# From -- ./inp_files/618564.got.cif
#   From: 2010.05.17/outbox.cif.g08.bks.cpg/sg2_310_cif.got.tgz:618564.got - 2010.06.03 11:33:40.
