data_PCOD9097089
_publ_section_title
;
Structure prediction by ZEFSAII (Michael W. Deem and Ramdas Pophale) SiO2 
 PCOD9097089
Probable space group: P -1
;
_chemical_formula_sum "Si O2"
_cell_formula_units_Z 16
_cell_length_a 21.777672
_cell_length_b 17.370227
_cell_length_c 9.207000
_cell_angle_alpha 128.123709
_cell_angle_beta 50.477855
_cell_angle_gamma 165.001705
_cell_volume 695.203640
_symmetry_space_group_name_H-M "P -1"
_symmetry_group_IT_number 2
_symmetry_cell_setting 'triclinic'
loop_
_space_group_symop_operation_xyz
x,y,z
-x,-y,-z
loop_
_atom_site_type_symbol
_atom_site_label
_atom_site_fract_x
_atom_site_fract_y
_atom_site_fract_z
Si Si1 0.734860 0.648355 0.526991
Si Si2 0.484943 0.711620 0.842370
Si Si3 0.468561 0.013418 0.909074
Si Si4 0.034301 0.425512 0.366737
Si Si5 0.411012 0.322312 0.120933
Si Si6 0.767539 0.598884 0.734834
Si Si7 0.044229 0.871226 0.900886
Si Si8 0.312665 0.714874 0.540358
O O1 0.606454 0.436858 0.346954
O O2 0.558870 0.536098 0.691716
O O3 0.785068 0.646344 0.595652
O O4 0.000000 0.000000 0.500000
O O5 0.631837 0.804352 0.829141
O O6 0.607108 0.960658 0.938146
O O7 0.231997 0.436380 0.987756
O O8 0.725997 0.311340 0.785004
O O9 0.306572 0.752727 0.752107
O O10 0.500000 0.000000 0.000000
O O11 0.872464 0.146184 0.238546
O O12 0.065351 0.442156 0.510225
O O13 0.000000 0.500000 0.500000
O O14 0.622504 0.516933 0.937420
O O15 0.204985 0.103022 0.054759
O O16 0.009930 0.866687 0.780779
O O17 0.634300 0.337680 0.626729
O O18 0.500000 0.000000 0.500000
#
# Coordination Sequence:
#
# PCOD9097089 Si02
#       8
#     2   2   2   2   2   2   2   2
#     4  12  24  44  63  86 125 167 197 259 311 350
#     4  10  22  42  61  88 124 159 207 248 300 374
#     4  10  20  36  59  86 120 158 191 242 305 357
#     4   9  19  32  57  85 118 148 197 237 287 360
#     4  11  22  41  67  86 117 161 208 251 304 355
#     4  10  23  41  63  94 123 152 212 250 293 373
#     4   9  20  39  61  90 118 158 197 255 300 351
#     4   9  18  36  61  88 117 157 187 241 302 349
#
# _framework density 23.014838999999998
#
# number of rings (size 3 to 8) (size 9 to 14) (size 15 to 20)
#    0.000    2.000    1.250    3.750    5.250    0.500 
#    4.500    1.875    0.000    0.000    0.000    0.000 
#    0.000    0.000    0.000    0.000    0.000    0.000 
#
# Total GULP energy -89155.801416 kJ/mol
# GULP energy per Si atom -5572.237588 kJ/mol
# Density = 2.296246 g / cm^3
# Si number density = 23.014839 Si / 1000 Ang^3
#
#
#
# Elastic Constant Matrix: (Units=GPa)
#
#
# Indices 1 2 3 4 5 6 
#
# 1 158.7562 16.6985 68.3626 4.5652 9.4489 2.5432
# 2 16.6985 35.4056 24.8839 5.4423 -3.3925 0.8709
# 3 68.3626 24.8839 161.0347 33.0785 5.3926 -3.8255
# 4 4.5652 5.4423 33.0785 17.2802 3.6030 0.9537
# 5 9.4489 -3.3925 5.3926 3.6030 54.0242 4.4741
# 6 2.5432 0.8709 -3.8255 0.9537 4.4741 15.6531
#
#
#
# Elastic Compliance Matrix: (Units=1/GPa)
#
#
# Indices 1 2 3 4 5 6 
#
# 1 0.008589 -0.001832 -0.005146 0.008609 -0.001458 -0.002659
# 2 -0.001832 0.032651 -0.003852 -0.002920 0.003215 -0.003201
# 3 -0.005146 -0.003852 0.014295 -0.025209 0.000419 0.005960
# 4 0.008609 -0.002920 -0.025209 0.106549 -0.005253 -0.012387
# 5 -0.001458 0.003215 0.000419 -0.005253 0.019702 -0.005151
# 6 -0.002659 -0.003201 0.005960 -0.012387 -0.005151 0.068179
#
#
# Mechanical properties :
#
#
# Convention : Reuss Voigt Hill
#
# Bulk Modulus (GPa) = 29.51922 63.89850 46.70886
# Shear Modulus (GPa) = 17.67301 33.74159 25.70730
#
# Velocity S-wave (km/s) = 2.77410 3.83310 3.34576
# Velocity P-wave (km/s) = 4.80779 6.88582 5.93841
#
# Compressibility (1/GPa) = 0.03387623
#
# Stress axis : x y z
#
# Youngs Moduli (GPa) = 116.42200 30.62720 69.95263
#
# Poissons Ratio (x) = 0.05610 0.35999
# Poissons Ratio (y) = 0.21327 0.26943
# Poissons Ratio (z) = 0.59913 0.11796
#
# Static dielectric constant tensor:
#      x y z
#    x 1.944940 0.006680 -0.034960 
#    y 0.006680 1.982440 0.073620 
#    z -0.034960 0.073620 2.046530 
# 
# From -- ./inp_files/348890.got.cif
#   From: 2010.05.17/outbox.cif.g08.bks.cpg/sg2_175_cif.got.tgz:348890.got - 2010.06.03 11:33:40.
