data_PCOD9097810
_publ_section_title
;
Structure prediction by ZEFSAII (Michael W. Deem and Ramdas Pophale) SiO2 
 PCOD9097810
Probable space group: P -1
;
_chemical_formula_sum "Si O2"
_cell_formula_units_Z 15
_cell_length_a 5.054884
_cell_length_b 24.433620
_cell_length_c 5.390094
_cell_angle_alpha 85.098645
_cell_angle_beta 86.959612
_cell_angle_gamma 123.317634
_cell_volume 550.261585
_symmetry_space_group_name_H-M "P -1"
_symmetry_group_IT_number 2
_symmetry_cell_setting 'triclinic'
loop_
_space_group_symop_operation_xyz
x,y,z
-x,-y,-z
loop_
_atom_site_type_symbol
_atom_site_label
_atom_site_fract_x
_atom_site_fract_y
_atom_site_fract_z
Si Si1 0.790703 0.446972 0.831718
Si Si2 0.237781 0.136427 0.558449
Si Si3 0.987504 0.621998 0.442352
Si Si4 0.411739 0.906025 0.121164
Si Si5 0.799811 0.696408 0.082435
Si Si6 0.500000 0.500000 0.500000
Si Si7 0.640156 0.730969 0.582369
Si Si8 0.216733 0.958196 0.720806
O O1 0.041286 0.446336 0.623856
O O2 0.556843 0.369001 0.905169
O O3 0.569113 0.469577 0.743812
O O4 0.000000 0.500000 0.000000
O O5 0.439883 0.133060 0.770789
O O6 0.396088 0.208166 0.406349
O O7 0.894841 0.116224 0.684988
O O8 0.126737 0.079748 0.377630
O O9 0.286221 0.664860 0.587903
O O10 0.996456 0.668378 0.205081
O O11 0.647657 0.579440 0.608770
O O12 0.697046 0.983606 0.113930
O O13 0.265720 0.904219 0.863233
O O14 0.793712 0.737489 0.299890
O O15 0.845295 0.729052 0.798698
O O16 0.500000 0.000000 0.500000
#
# Coordination Sequence:
#
# PCOD9097810 Si02
#       8
#     2   2   2   2   2   1   2   2
#     4  10  21  37  62  96 128 168 217 278 346 419
#     4  11  25  41  69  99 137 188 237 291 353 427
#     4  10  23  41  64  97 134 176 225 288 349 422
#     4  10  23  43  67 103 139 182 233 294 353 422
#     4  10  25  45  65  95 131 179 223 288 345 419
#     4  10  20  36  62  88 128 164 220 270 350 406
#     4  11  26  45  67  96 137 180 236 284 353 415
#     4   9  21  42  68 103 142 181 230 292 356 420
#
# _framework density 27.259761999999998
#
# number of rings (size 3 to 8) (size 9 to 14) (size 15 to 20)
#    0.000    1.867    0.000    1.600    3.733   16.533 
#    0.000    0.000    0.000    0.000    0.000    0.000 
#    0.000    0.000    0.000    0.000    0.000    0.000 
#
# Total GULP energy -83668.933702 kJ/mol
# GULP energy per Si atom -5577.928913 kJ/mol
# Density = 2.719772 g / cm^3
# Si number density = 27.259762 Si / 1000 Ang^3
#
#
#
# Elastic Constant Matrix: (Units=GPa)
#
#
# Indices 1 2 3 4 5 6 
#
# 1 109.7690 17.9829 24.4656 -11.8678 25.2474 -3.0946
# 2 17.9829 97.4607 22.6984 -10.2878 13.5868 -3.0381
# 3 24.4656 22.6984 133.5310 -8.3265 38.0076 -8.0966
# 4 -11.8678 -10.2878 -8.3265 27.1112 -14.2146 12.5236
# 5 25.2474 13.5868 38.0076 -14.2146 42.5029 -11.3925
# 6 -3.0946 -3.0381 -8.0966 12.5236 -11.3925 32.5145
#
#
#
# Elastic Compliance Matrix: (Units=1/GPa)
#
#
# Indices 1 2 3 4 5 6 
#
# 1 0.010814 -0.000985 -0.000156 0.002201 -0.005760 -0.001968
# 2 -0.000985 0.011206 -0.001296 0.003377 -0.000980 -0.001014
# 3 -0.000156 -0.001296 0.010291 -0.002383 -0.009487 0.000021
# 4 0.002201 0.003377 -0.002383 0.052523 0.013099 -0.015709
# 5 -0.005760 -0.000980 -0.009487 0.013099 0.041905 0.006635
# 6 -0.001968 -0.001014 0.000021 -0.015709 0.006635 0.038854
#
#
# Mechanical properties :
#
#
# Convention : Reuss Voigt Hill
#
# Bulk Modulus (GPa) = 36.44980 52.33940 44.39460
# Shear Modulus (GPa) = 27.83775 38.79998 33.31886
#
# Velocity S-wave (km/s) = 3.19909 3.77681 3.49989
# Velocity P-wave (km/s) = 5.20057 6.18555 5.71432
#
# Compressibility (1/GPa) = 0.02743499
#
# Stress axis : x y z
#
# Youngs Moduli (GPa) = 92.47642 89.24028 97.17460
#
# Poissons Ratio (x) = 0.08789 0.01520
# Poissons Ratio (y) = 0.09108 0.12596
# Poissons Ratio (z) = 0.01446 0.11568
#
# Static dielectric constant tensor:
#      x y z
#    x 3.054150 0.221170 -0.344890 
#    y 0.221170 2.393060 0.115950 
#    z -0.344890 0.115950 2.434550 
# 
# From -- ./inp_files/9248.got.cif
#   From: 2010.05.17/outbox.cif.g08.bks.cpg/sg2_5_cif.got.tgz:9248.got - 2010.06.03 11:33:40.
