data_PCOD9097067
_publ_section_title
;
Structure prediction by ZEFSAII (Michael W. Deem and Ramdas Pophale) SiO2 
 PCOD9097067
Probable space group: P -1
;
_chemical_formula_sum "Si O2"
_cell_formula_units_Z 12
_cell_length_a 9.333095
_cell_length_b 9.105575
_cell_length_c 21.654531
_cell_angle_alpha 143.062064
_cell_angle_beta 35.557572
_cell_angle_gamma 136.280480
_cell_volume 629.123102
_symmetry_space_group_name_H-M "P -1"
_symmetry_group_IT_number 2
_symmetry_cell_setting 'triclinic'
loop_
_space_group_symop_operation_xyz
x,y,z
-x,-y,-z
loop_
_atom_site_type_symbol
_atom_site_label
_atom_site_fract_x
_atom_site_fract_y
_atom_site_fract_z
Si Si1 0.777279 0.003113 0.731891
Si Si2 0.089370 0.261064 0.915766
Si Si3 0.298772 0.566119 0.433564
Si Si4 0.582101 0.413452 0.875116
Si Si5 0.729685 0.929098 0.336393
Si Si6 0.609641 0.934347 0.004646
O O1 0.506377 0.301418 0.643952
O O2 0.743927 0.204404 0.759506
O O3 0.060454 0.056278 0.677940
O O4 0.602702 0.054460 0.867200
O O5 0.335480 0.310571 0.887320
O O6 0.142212 0.107758 0.785657
O O7 0.860583 0.133759 0.996106
O O8 0.000000 0.500000 0.000000
O O9 0.000000 0.500000 0.500000
O O10 0.342024 0.798238 0.544263
O O11 0.329330 0.287182 0.346511
O O12 0.694603 0.670112 0.886933
O O13 0.500000 0.500000 0.000000
O O14 0.500000 0.000000 0.000000
#
# Coordination Sequence:
#
# PCOD9097067 Si02
#       6
#     2   2   2   2   2   2
#     4  10  20  37  56  82 119 149 183 234 285 328
#     4  12  21  34  60  86 113 151 190 230 281 336
#     4   9  20  36  60  82 109 147 193 234 282 329
#     4  10  23  36  51  85 122 149 185 233 283 332
#     4  10  20  36  59  86 108 146 198 233 272 340
#     4  11  20  35  57  86 115 148 188 229 276 338
#
# _framework density 19.074169999999999
#
# number of rings (size 3 to 8) (size 9 to 14) (size 15 to 20)
#    0.000    1.667    3.333    2.000    0.000    4.000 
#    0.000    0.833    0.000   10.000    0.000    0.000 
#    0.000    0.000    0.000    0.000    0.000    0.000 
#
# Total GULP energy -66810.682552 kJ/mol
# GULP energy per Si atom -5567.556879 kJ/mol
# Density = 1.903076 g / cm^3
# Si number density = 19.074170 Si / 1000 Ang^3
#
#
#
# Elastic Constant Matrix: (Units=GPa)
#
#
# Indices 1 2 3 4 5 6 
#
# 1 87.6703 24.4897 12.3018 19.0370 -11.0406 -5.4623
# 2 24.4897 114.4792 16.4885 18.4401 -23.1488 -0.2213
# 3 12.3018 16.4885 69.4192 18.6636 -7.0429 -13.8741
# 4 19.0370 18.4401 18.6636 42.7571 -2.6864 -14.2274
# 5 -11.0406 -23.1488 -7.0429 -2.6864 19.5010 1.1723
# 6 -5.4623 -0.2213 -13.8741 -14.2274 1.1723 31.8393
#
#
#
# Elastic Compliance Matrix: (Units=1/GPa)
#
#
# Indices 1 2 3 4 5 6 
#
# 1 0.013545 -0.000809 -0.000254 -0.005330 0.005906 -0.000392
# 2 -0.000809 0.012569 -0.000750 -0.004894 0.013702 -0.003069
# 3 -0.000254 -0.000750 0.017482 -0.005240 0.004253 0.005071
# 4 -0.005330 -0.004894 -0.005240 0.033759 -0.006796 0.012104
# 5 0.005906 0.013702 0.004253 -0.006796 0.071651 -0.002713
# 6 -0.000392 -0.003069 0.005071 0.012104 -0.002713 0.039037
#
#
# Mechanical properties :
#
#
# Convention : Reuss Voigt Hill
#
# Bulk Modulus (GPa) = 25.01853 42.01428 33.51641
# Shear Modulus (GPa) = 24.39103 33.37207 28.88155
#
# Velocity S-wave (km/s) = 3.57984 4.18735 3.89546
# Velocity P-wave (km/s) = 5.49835 6.74190 6.15163
#
# Compressibility (1/GPa) = 0.03997037
#
# Stress axis : x y z
#
# Youngs Moduli (GPa) = 73.82962 79.55892 57.20128
#
# Poissons Ratio (x) = 0.06435 0.01455
# Poissons Ratio (y) = 0.05972 0.04288
# Poissons Ratio (z) = 0.01877 0.05965
#
# Static dielectric constant tensor:
#      x y z
#    x 1.647640 0.003450 -0.016030 
#    y 0.003450 1.726490 0.029670 
#    z -0.016030 0.029670 1.707960 
# 
# From -- ./inp_files/162858.got.cif
#   From: 2010.05.17/outbox.cif.g08.bks.cpg/sg2_82_cif.got.tgz:162858.got - 2010.06.03 11:33:40.
