data_PCOD9097753
_publ_section_title
;
Structure prediction by ZEFSAII (Michael W. Deem and Ramdas Pophale) SiO2 
 PCOD9097753
Probable space group: P -1
;
_chemical_formula_sum "Si O2"
_cell_formula_units_Z 16
_cell_length_a 13.120586
_cell_length_b 8.518222
_cell_length_c 11.191338
_cell_angle_alpha 52.269468
_cell_angle_beta 99.917427
_cell_angle_gamma 125.305511
_cell_volume 774.752066
_symmetry_space_group_name_H-M "P -1"
_symmetry_group_IT_number 2
_symmetry_cell_setting 'triclinic'
loop_
_space_group_symop_operation_xyz
x,y,z
-x,-y,-z
loop_
_atom_site_type_symbol
_atom_site_label
_atom_site_fract_x
_atom_site_fract_y
_atom_site_fract_z
Si Si1 0.490252 0.654114 0.526813
Si Si2 0.102872 0.079332 0.087674
Si Si3 0.343698 0.549705 0.789847
Si Si4 0.259225 0.873800 0.522801
Si Si5 0.971431 0.195750 0.383384
Si Si6 0.062685 0.790453 0.885244
Si Si7 0.594154 0.022160 0.736127
Si Si8 0.820661 0.217194 0.850766
O O1 0.500000 0.500000 0.500000
O O2 0.395087 0.521289 0.686181
O O3 0.447168 0.800720 0.378483
O O4 0.630379 0.862806 0.515796
O O5 0.044805 0.160572 0.137473
O O6 0.111460 0.851704 0.200154
O O7 0.243428 0.309739 0.960642
O O8 0.000000 0.000000 0.000000
O O9 0.271680 0.672642 0.682132
O O10 0.468367 0.745580 0.806065
O O11 0.303193 0.899244 0.384769
O O12 0.120392 0.812281 0.533791
O O13 0.099932 0.483631 0.266346
O O14 0.887520 0.113883 0.281846
O O15 0.000000 0.000000 0.500000
O O16 0.160630 0.876541 0.975465
O O17 0.000000 0.500000 0.000000
O O18 0.671763 0.076350 0.848268
#
# Coordination Sequence:
#
# PCOD9097753 Si02
#       8
#     2   2   2   2   2   2   2   2
#     4   9  19  34  60  89 121 158 203 255 301 361
#     4  10  20  36  62  84 116 167 209 240 296 370
#     4   9  18  38  59  85 120 166 204 242 310 366
#     4   9  19  37  58  85 124 160 194 253 307 355
#     4  11  24  39  62  92 122 160 200 255 321 358
#     4   9  20  40  59  84 126 161 195 250 312 357
#     4   9  20  37  59  87 124 158 203 253 299 363
#     4  10  22  39  57  87 125 153 206 253 297 370
#
# _framework density 20.651769999999999
#
# number of rings (size 3 to 8) (size 9 to 14) (size 15 to 20)
#    0.000    2.500    0.000    3.750    3.500    3.000 
#    4.500    1.250    0.000   15.750    0.000    0.000 
#    0.000    0.000    0.000    0.000    0.000    0.000 
#
# Total GULP energy -89159.344515 kJ/mol
# GULP energy per Si atom -5572.459032 kJ/mol
# Density = 2.060477 g / cm^3
# Si number density = 20.651770 Si / 1000 Ang^3
#
#
#
# Elastic Constant Matrix: (Units=GPa)
#
#
# Indices 1 2 3 4 5 6 
#
# 1 71.1822 43.8133 18.9311 -5.1224 2.2028 1.5076
# 2 43.8133 91.3615 32.0428 6.7944 14.0405 -9.9705
# 3 18.9311 32.0428 54.0097 -2.2908 7.5552 5.1462
# 4 -5.1224 6.7944 -2.2908 24.0169 4.3365 9.1736
# 5 2.2028 14.0405 7.5552 4.3365 27.6459 9.4829
# 6 1.5076 -9.9705 5.1462 9.1736 9.4829 40.2174
#
#
#
# Elastic Compliance Matrix: (Units=1/GPa)
#
#
# Indices 1 2 3 4 5 6 
#
# 1 0.023389 -0.014156 0.000598 0.011154 0.006328 -0.008499
# 2 -0.014156 0.026046 -0.010857 -0.014849 -0.011793 0.014545
# 3 0.000598 -0.010857 0.025913 0.008760 -0.000257 -0.007967
# 4 0.011154 -0.014849 0.008760 0.055739 0.001814 -0.018362
# 5 0.006328 -0.011793 -0.000257 0.001814 0.046411 -0.014485
# 6 -0.008499 0.014545 -0.007967 -0.018362 -0.014485 0.037413
#
#
# Mechanical properties :
#
#
# Convention : Reuss Voigt Hill
#
# Bulk Modulus (GPa) = 37.70870 45.12533 41.41701
# Shear Modulus (GPa) = 18.34331 26.49381 22.41856
#
# Velocity S-wave (km/s) = 2.98354 3.58562 3.29835
# Velocity P-wave (km/s) = 5.49250 6.24822 5.88251
#
# Compressibility (1/GPa) = 0.02651908
#
# Stress axis : x y z
#
# Youngs Moduli (GPa) = 42.75473 38.39419 38.59017
#
# Poissons Ratio (x) = 0.54349 -0.02307
# Poissons Ratio (y) = 0.60522 0.41896
# Poissons Ratio (z) = -0.02556 0.41683
#
# Static dielectric constant tensor:
#      x y z
#    x 1.794170 -0.034690 0.010450 
#    y -0.034690 1.790700 -0.003830 
#    z 0.010450 -0.003830 1.761340 
# 
# From -- ./inp_files/392666.got.cif
#   From: 2010.05.17/outbox.cif.g08.bks.cpg/sg2_197_cif.got.tgz:392666.got - 2010.06.03 11:33:40.
