data_PCOD9097140
_publ_section_title
;
Structure prediction by ZEFSAII (Michael W. Deem and Ramdas Pophale) SiO2 
 PCOD9097140
Probable space group: P -1
;
_chemical_formula_sum "Si O2"
_cell_formula_units_Z 14
_cell_length_a 9.452160
_cell_length_b 13.260095
_cell_length_c 9.563863
_cell_angle_alpha 82.319545
_cell_angle_beta 136.440668
_cell_angle_gamma 121.225698
_cell_volume 644.039178
_symmetry_space_group_name_H-M "P -1"
_symmetry_group_IT_number 2
_symmetry_cell_setting 'triclinic'
loop_
_space_group_symop_operation_xyz
x,y,z
-x,-y,-z
loop_
_atom_site_type_symbol
_atom_site_label
_atom_site_fract_x
_atom_site_fract_y
_atom_site_fract_z
Si Si1 0.312367 0.212770 0.848042
Si Si2 0.590149 0.433803 0.780365
Si Si3 0.924979 0.341024 0.595261
Si Si4 0.824134 0.343186 0.814039
Si Si5 0.182423 0.887514 0.621478
Si Si6 0.580338 0.420300 0.230921
Si Si7 0.681958 0.158230 0.001127
O O1 0.406384 0.318406 0.775296
O O2 0.502992 0.175639 0.970006
O O3 0.017282 0.101328 0.608948
O O4 0.364004 0.289002 0.015043
O O5 0.610106 0.367913 0.670106
O O6 0.517700 0.529168 0.733027
O O7 0.891860 0.519197 0.026979
O O8 0.821184 0.276286 0.684522
O O9 0.853112 0.230953 0.457453
O O10 0.768542 0.395836 0.440647
O O11 0.230101 0.462557 0.765996
O O12 0.813032 0.270042 0.958192
O O13 0.472333 0.021822 0.800892
O O14 0.136536 0.849673 0.761231
#
# Coordination Sequence:
#
# PCOD9097140 Si02
#       7
#     2   2   2   2   2   2   2
#     4  11  19  38  65  92 116 158 206 259 291 363
#     4  10  20  36  59  88 127 158 193 252 309 369
#     4  11  22  37  64  93 125 166 198 254 310 362
#     4  10  22  39  58  90 132 157 194 255 321 352
#     4  11  22  41  67  85 118 169 214 246 299 361
#     4  11  21  36  63  95 125 158 211 244 301 380
#     4  10  24  42  60  90 123 162 211 255 293 370
#
# _framework density 21.737807
#
# number of rings (size 3 to 8) (size 9 to 14) (size 15 to 20)
#    0.000    1.429    4.286    1.714    0.000    1.143 
#    5.143    0.000    0.000    1.714    0.000    0.000 
#    0.000    0.000    0.000    0.000    0.000    0.000 
#
# Total GULP energy -78006.107636 kJ/mol
# GULP energy per Si atom -5571.864831 kJ/mol
# Density = 2.168833 g / cm^3
# Si number density = 21.737807 Si / 1000 Ang^3
#
#
#
# Elastic Constant Matrix: (Units=GPa)
#
#
# Indices 1 2 3 4 5 6 
#
# 1 85.8774 9.4984 14.8455 -2.0755 1.1952 -2.2546
# 2 9.4984 51.8918 5.4656 7.1580 -8.5390 -0.5026
# 3 14.8455 5.4656 83.0149 5.0830 -2.5791 3.7465
# 4 -2.0755 7.1580 5.0830 30.5930 -8.6418 -4.8043
# 5 1.1952 -8.5390 -2.5791 -8.6418 26.1251 -10.5432
# 6 -2.2546 -0.5026 3.7465 -4.8043 -10.5432 26.3598
#
#
#
# Elastic Compliance Matrix: (Units=1/GPa)
#
#
# Indices 1 2 3 4 5 6 
#
# 1 0.012384 -0.002325 -0.002259 0.001930 -0.000274 0.001578
# 2 -0.002325 0.021350 -0.000733 -0.002538 0.007288 0.002765
# 3 -0.002259 -0.000733 0.012775 -0.002851 -0.001007 -0.002945
# 4 0.001930 -0.002538 -0.002851 0.041696 0.018925 0.015691
# 5 -0.000274 0.007288 -0.001007 0.018925 0.057632 0.026759
# 6 0.001578 0.002765 -0.002945 0.015691 0.026759 0.052106
#
#
# Mechanical properties :
#
#
# Convention : Reuss Voigt Hill
#
# Bulk Modulus (GPa) = 27.87522 31.15589 29.51556
# Shear Modulus (GPa) = 22.67217 29.34720 26.00969
#
# Velocity S-wave (km/s) = 3.23303 3.67829 3.46283
# Velocity P-wave (km/s) = 5.17570 5.69241 5.44019
#
# Compressibility (1/GPa) = 0.03587416
#
# Stress axis : x y z
#
# Youngs Moduli (GPa) = 80.74845 46.83873 78.28059
#
# Poissons Ratio (x) = 0.10889 0.17687
# Poissons Ratio (y) = 0.18773 0.05737
# Poissons Ratio (z) = 0.18245 0.03432
#
# Static dielectric constant tensor:
#      x y z
#    x 1.857150 -0.052640 -0.017170 
#    y -0.052640 1.785450 -0.007180 
#    z -0.017170 -0.007180 1.869820 
# 
# From -- ./inp_files/177137.got.cif
#   From: 2010.05.17/outbox.cif.g08.bks.cpg/sg2_89_cif.got.tgz:177137.got - 2010.06.03 11:33:40.
