data_PCOD9097652
_publ_section_title
;
Structure prediction by ZEFSAII (Michael W. Deem and Ramdas Pophale) SiO2 
 PCOD9097652
Probable space group: P -1
;
_chemical_formula_sum "Si O2"
_cell_formula_units_Z 16
_cell_length_a 15.325605
_cell_length_b 8.634841
_cell_length_c 14.755798
_cell_angle_alpha 126.962389
_cell_angle_beta 28.808311
_cell_angle_gamma 132.152472
_cell_volume 697.117104
_symmetry_space_group_name_H-M "P -1"
_symmetry_group_IT_number 2
_symmetry_cell_setting 'triclinic'
loop_
_space_group_symop_operation_xyz
x,y,z
-x,-y,-z
loop_
_atom_site_type_symbol
_atom_site_label
_atom_site_fract_x
_atom_site_fract_y
_atom_site_fract_z
Si Si1 0.617861 0.961098 0.464398
Si Si2 0.742104 0.943446 0.895786
Si Si3 0.816877 0.781403 0.092768
Si Si4 0.262966 0.346032 0.364557
Si Si5 0.947582 0.195311 0.371973
Si Si6 0.654085 0.329444 0.053508
Si Si7 0.526230 0.786241 0.203095
Si Si8 0.148053 0.667537 0.304951
O O1 0.684506 0.782668 0.301814
O O2 0.500000 0.000000 0.500000
O O3 0.821582 0.133724 0.373841
O O4 0.495565 0.994767 0.672525
O O5 0.756803 0.840389 0.751544
O O6 0.943479 0.964184 0.768942
O O7 0.692319 0.146548 0.005205
O O8 0.577364 0.782337 0.051806
O O9 0.699133 0.783408 0.109280
O O10 0.823135 0.552566 0.002667
O O11 0.000000 0.000000 0.000000
O O12 0.351397 0.573230 0.315562
O O13 0.039203 0.320047 0.576880
O O14 0.439600 0.341969 0.267113
O O15 0.095300 0.432020 0.306146
O O16 0.836483 0.199696 0.569879
O O17 0.680489 0.284430 0.907005
#
# Coordination Sequence:
#
# PCOD9097652 Si02
#       8
#     2   2   2   2   2   2   2   2
#     4  10  20  36  61  92 116 154 213 270 308 353
#     4  11  23  38  59  95 134 170 198 255 334 385
#     4  10  21  39  65  85 116 166 219 266 306 366
#     4  10  21  38  63  91 127 169 213 252 312 385
#     4  10  20  37  62  94 122 155 218 260 313 374
#     4  11  24  41  60  93 138 170 207 255 324 393
#     4  10  20  36  62  90 121 156 217 264 304 376
#     4  10  21  38  65  95 126 166 209 267 317 377
#
# _framework density 22.951667
#
# number of rings (size 3 to 8) (size 9 to 14) (size 15 to 20)
#    0.000    1.750    1.250    3.750    1.750    2.000 
#    2.250    3.125    0.000    0.000    0.000    0.000 
#    0.000    0.000    0.000    0.000    0.000    0.000 
#
# Total GULP energy -89135.302726 kJ/mol
# GULP energy per Si atom -5570.956420 kJ/mol
# Density = 2.289943 g / cm^3
# Si number density = 22.951667 Si / 1000 Ang^3
#
#
#
# Elastic Constant Matrix: (Units=GPa)
#
#
# Indices 1 2 3 4 5 6 
#
# 1 76.6088 41.3291 15.4356 6.3942 -18.0151 16.2992
# 2 41.3291 79.3064 20.6512 24.2416 -12.2675 -0.1857
# 3 15.4356 20.6512 78.5364 24.1994 -12.5751 -7.0242
# 4 6.3942 24.2416 24.1994 33.9116 3.8409 -8.6489
# 5 -18.0151 -12.2675 -12.5751 3.8409 35.2804 1.1697
# 6 16.2992 -0.1857 -7.0242 -8.6489 1.1697 27.6689
#
#
#
# Elastic Compliance Matrix: (Units=1/GPa)
#
#
# Indices 1 2 3 4 5 6 
#
# 1 0.024766 -0.010951 -0.001822 -0.000528 0.008765 -0.015661
# 2 -0.010951 0.023562 0.001929 -0.016261 0.004999 0.001805
# 3 -0.001822 0.001929 0.018538 -0.014966 0.007951 0.000778
# 4 -0.000528 -0.016261 -0.014966 0.057824 -0.018059 0.015241
# 5 0.008765 0.004999 0.007951 -0.018059 0.039704 -0.010435
# 6 -0.015661 0.001805 0.000778 0.015241 -0.010435 0.050782
#
#
# Mechanical properties :
#
#
# Convention : Reuss Voigt Hill
#
# Bulk Modulus (GPa) = 22.13543 43.25372 32.69458
# Shear Modulus (GPa) = 19.84725 29.84122 24.84423
#
# Velocity S-wave (km/s) = 2.94384 3.60971 3.29364
# Velocity P-wave (km/s) = 4.60654 6.02161 5.36097
#
# Compressibility (1/GPa) = 0.04517644
#
# Stress axis : x y z
#
# Youngs Moduli (GPa) = 40.37859 42.44150 53.94262
#
# Poissons Ratio (x) = 0.46478 0.09831
# Poissons Ratio (y) = 0.44219 -0.10405
# Poissons Ratio (z) = 0.07359 -0.08187
#
# Static dielectric constant tensor:
#      x y z
#    x 1.899410 0.009670 -0.063660 
#    y 0.009670 1.850630 -0.021960 
#    z -0.063660 -0.021960 2.015670 
# 
# From -- ./inp_files/239875.got.cif
#   From: 2010.05.17/outbox.cif.g08.bks.cpg/sg2_120_cif.got.tgz:239875.got - 2010.06.03 11:33:40.
