data_PCOD9097601
_publ_section_title
;
Structure prediction by ZEFSAII (Michael W. Deem and Ramdas Pophale) SiO2 
 PCOD9097601
Probable space group: P -1
;
_chemical_formula_sum "Si O2"
_cell_formula_units_Z 16
_cell_length_a 10.324296
_cell_length_b 21.320481
_cell_length_c 16.037401
_cell_angle_alpha 22.705964
_cell_angle_beta 134.933295
_cell_angle_gamma 146.029991
_cell_volume 732.574069
_symmetry_space_group_name_H-M "P -1"
_symmetry_group_IT_number 2
_symmetry_cell_setting 'triclinic'
loop_
_space_group_symop_operation_xyz
x,y,z
-x,-y,-z
loop_
_atom_site_type_symbol
_atom_site_label
_atom_site_fract_x
_atom_site_fract_y
_atom_site_fract_z
Si Si1 0.169894 0.243946 0.130466
Si Si2 0.682178 0.393957 0.954613
Si Si3 0.497095 0.723599 0.635218
Si Si4 0.075742 0.458868 0.955896
Si Si5 0.288614 0.211943 0.525640
Si Si6 0.832535 0.530709 0.432807
Si Si7 0.921806 0.291068 0.498275
Si Si8 0.863392 0.908345 0.962484
O O1 0.347461 0.211800 0.289579
O O2 0.314179 0.461248 0.875507
O O3 0.093663 0.303157 0.105170
O O4 0.933237 0.025311 0.253562
O O5 0.771372 0.630901 0.689720
O O6 0.423706 0.236037 0.988639
O O7 0.851037 0.352334 0.045265
O O8 0.693265 0.382904 0.073450
O O9 0.655505 0.801524 0.529030
O O10 0.337628 0.794216 0.481058
O O11 0.037998 0.572641 0.729346
O O12 0.547805 0.334145 0.536524
O O13 0.891919 0.737621 0.161621
O O14 0.000000 0.500000 0.500000
O O15 0.902782 0.579748 0.501938
O O16 0.942786 0.115652 0.696310
O O17 0.000000 0.000000 0.000000
#
# Coordination Sequence:
#
# PCOD9097601 Si02
#       8
#     2   2   2   2   2   2   2   2
#     4  10  22  37  61  92 124 163 206 249 315 362
#     4  10  22  38  59  88 122 156 204 251 302 366
#     4  10  20  36  61  89 124 156 205 255 295 375
#     4  10  22  39  58  87 123 156 201 257 295 370
#     4  11  21  39  63  89 123 165 200 256 314 362
#     4  10  20  39  65  90 121 158 210 254 300 372
#     4  10  21  40  62  87 121 164 199 252 314 356
#     4   9  21  39  61  86 117 162 202 237 309 369
#
# _framework density 21.840793000000001
#
# number of rings (size 3 to 8) (size 9 to 14) (size 15 to 20)
#    0.000    2.000    2.500    0.375    1.750    1.500 
#    4.500    8.125    2.750    0.000    0.000    0.000 
#    0.000    0.000    0.000    0.000    0.000    0.000 
#
# Total GULP energy -89287.762173 kJ/mol
# GULP energy per Si atom -5580.485136 kJ/mol
# Density = 2.179108 g / cm^3
# Si number density = 21.840793 Si / 1000 Ang^3
#
#
#
# Elastic Constant Matrix: (Units=GPa)
#
#
# Indices 1 2 3 4 5 6 
#
# 1 51.7920 17.4674 6.2845 0.5687 8.2875 -0.1407
# 2 17.4674 112.5863 55.2068 -4.1275 7.3442 19.3500
# 3 6.2845 55.2068 86.4767 -1.2287 2.1362 7.2263
# 4 0.5687 -4.1275 -1.2287 31.7876 7.7785 5.3018
# 5 8.2875 7.3442 2.1362 7.7785 20.4101 7.7548
# 6 -0.1407 19.3500 7.2263 5.3018 7.7548 17.5025
#
#
#
# Elastic Compliance Matrix: (Units=1/GPa)
#
#
# Indices 1 2 3 4 5 6 
#
# 1 0.022766 -0.005061 0.000988 0.000048 -0.011519 0.010459
# 2 -0.005061 0.017179 -0.009127 0.004442 0.001740 -0.017381
# 3 0.000988 -0.009127 0.017020 -0.001166 0.000295 0.003294
# 4 0.000048 0.004442 -0.001166 0.036531 -0.011460 -0.010417
# 5 -0.011519 0.001740 0.000295 -0.011460 0.068389 -0.028967
# 6 0.010459 -0.017381 0.003294 -0.010417 -0.028967 0.091065
#
#
# Mechanical properties :
#
#
# Convention : Reuss Voigt Hill
#
# Bulk Modulus (GPa) = 32.71766 45.41917 39.06841
# Shear Modulus (GPa) = 17.26884 25.39980 21.33432
#
# Velocity S-wave (km/s) = 2.81493 3.41391 3.12879
# Velocity P-wave (km/s) = 5.05744 6.03162 5.56588
#
# Compressibility (1/GPa) = 0.03056453
#
# Stress axis : x y z
#
# Youngs Moduli (GPa) = 43.92511 58.20982 58.75607
#
# Poissons Ratio (x) = 0.29459 -0.05802
# Poissons Ratio (y) = 0.22230 0.53626
# Poissons Ratio (z) = -0.04338 0.53127
#
# Static dielectric constant tensor:
#      x y z
#    x 1.827270 -0.004420 -0.000580 
#    y -0.004420 1.817340 -0.019410 
#    z -0.000580 -0.019410 1.813550 
# 
# From -- ./inp_files/217298.got.cif
#   From: 2010.05.17/outbox.cif.g08.bks.cpg/sg2_109_cif.got.tgz:217298.got - 2010.06.03 11:33:40.
