data_PCOD9097707
_publ_section_title
;
Structure prediction by ZEFSAII (Michael W. Deem and Ramdas Pophale) SiO2 
 PCOD9097707
Probable space group: P -1
;
_chemical_formula_sum "Si O2"
_cell_formula_units_Z 16
_cell_length_a 11.987255
_cell_length_b 7.535300
_cell_length_c 12.221992
_cell_angle_alpha 92.136270
_cell_angle_beta 56.574988
_cell_angle_gamma 127.706235
_cell_volume 649.594713
_symmetry_space_group_name_H-M "P -1"
_symmetry_group_IT_number 2
_symmetry_cell_setting 'triclinic'
loop_
_space_group_symop_operation_xyz
x,y,z
-x,-y,-z
loop_
_atom_site_type_symbol
_atom_site_label
_atom_site_fract_x
_atom_site_fract_y
_atom_site_fract_z
Si Si1 0.659082 0.976521 0.812820
Si Si2 0.184431 0.756501 0.467201
Si Si3 0.774653 0.717326 0.803021
Si Si4 0.826118 0.748176 0.376359
Si Si5 0.747431 0.441549 0.021870
Si Si6 0.785370 0.789423 0.156546
Si Si7 0.418583 0.630733 0.310115
Si Si8 0.999947 0.527447 0.237808
O O1 0.658939 0.792561 0.873954
O O2 0.746594 0.024975 0.645427
O O3 0.802452 0.243907 0.800563
O O4 0.447632 0.842530 0.905075
O O5 0.350328 0.765380 0.375953
O O6 0.000000 0.500000 0.500000
O O7 0.119927 0.717507 0.625730
O O8 0.773865 0.609704 0.913507
O O9 0.686792 0.523106 0.747731
O O10 0.988133 0.982759 0.668937
O O11 0.774554 0.795298 0.292820
O O12 0.666832 0.568206 0.548969
O O13 0.894345 0.615156 0.297917
O O14 0.931551 0.492174 0.912371
O O15 0.720154 0.532512 0.146350
O O16 0.640522 0.797015 0.185531
O O17 0.000000 0.000000 0.000000
#
# Coordination Sequence:
#
# PCOD9097707 Si02
#       8
#     2   2   2   2   2   2   2   2
#     4  10  20  36  61  96 131 160 210 271 325 379
#     4   9  19  40  61  97 133 160 207 271 333 374
#     4  11  21  38  67  99 126 160 222 275 325 376
#     4  10  23  44  65  92 129 171 215 270 324 381
#     4  12  23  39  62  95 131 172 213 263 323 390
#     4  12  26  45  62  93 139 177 216 263 320 390
#     4  11  23  41  72  95 125 172 221 271 322 380
#     4   9  21  38  63  91 128 166 210 271 323 376
#
# _framework density 24.630744
#
# number of rings (size 3 to 8) (size 9 to 14) (size 15 to 20)
#    0.000    1.500    2.500    3.750    0.000    2.500 
#    0.000    0.000    0.000    3.000    0.000    0.000 
#    0.000    0.000    0.000    0.000    0.000    0.000 
#
# Total GULP energy -89501.771661 kJ/mol
# GULP energy per Si atom -5593.860729 kJ/mol
# Density = 2.457468 g / cm^3
# Si number density = 24.630744 Si / 1000 Ang^3
#
#
#
# Elastic Constant Matrix: (Units=GPa)
#
#
# Indices 1 2 3 4 5 6 
#
# 1 78.4129 30.7751 26.8245 2.1783 -10.8269 7.1161
# 2 30.7751 35.1310 21.7020 10.2322 -0.5029 5.7806
# 3 26.8245 21.7020 85.7799 -5.5799 -8.0399 3.2741
# 4 2.1783 10.2322 -5.5799 35.0753 -4.0714 -0.0145
# 5 -10.8269 -0.5029 -8.0399 -4.0714 51.3657 1.5042
# 6 7.1161 5.7806 3.2741 -0.0145 1.5042 29.0363
#
#
#
# Elastic Compliance Matrix: (Units=1/GPa)
#
#
# Indices 1 2 3 4 5 6 
#
# 1 0.021170 -0.018898 -0.001061 0.004553 0.004517 -0.001538
# 2 -0.018898 0.057264 -0.010125 -0.017872 -0.006269 -0.005311
# 3 -0.001061 -0.010125 0.015139 0.005717 0.002487 0.000443
# 4 0.004553 -0.017872 0.005717 0.034861 0.004396 0.001587
# 5 0.004517 -0.006269 0.002487 0.004396 0.021133 -0.001232
# 6 -0.001538 -0.005311 0.000443 0.001587 -0.001232 0.035889
#
#
# Mechanical properties :
#
#
# Convention : Reuss Voigt Hill
#
# Bulk Modulus (GPa) = 29.93559 39.76967 34.85263
# Shear Modulus (GPa) = 19.47348 31.09694 25.28521
#
# Velocity S-wave (km/s) = 2.81484 3.55706 3.20749
# Velocity P-wave (km/s) = 4.76913 5.74905 5.28187
#
# Compressibility (1/GPa) = 0.03340505
#
# Stress axis : x y z
#
# Youngs Moduli (GPa) = 47.23746 17.46284 66.05367
#
# Poissons Ratio (x) = 0.33001 0.07006
# Poissons Ratio (y) = 0.89270 0.66882
# Poissons Ratio (z) = 0.05010 0.17682
#
# Static dielectric constant tensor:
#      x y z
#    x 1.962780 -0.010610 -0.016690 
#    y -0.010610 1.967400 0.013700 
#    z -0.016690 0.013700 1.990330 
# 
# From -- ./inp_files/404829.got.cif
#   From: 2010.05.17/outbox.cif.g08.bks.cpg/sg2_203_cif.got.tgz:404829.got - 2010.06.03 11:33:40.
