data_PCOD9097825
_publ_section_title
;
Structure prediction by ZEFSAII (Michael W. Deem and Ramdas Pophale) SiO2 
 PCOD9097825
Probable space group: P -1
;
_chemical_formula_sum "Si O2"
_cell_formula_units_Z 16
_cell_length_a 15.116893
_cell_length_b 9.605582
_cell_length_c 12.098531
_cell_angle_alpha 114.474605
_cell_angle_beta 112.885312
_cell_angle_gamma 32.059355
_cell_volume 846.109173
_symmetry_space_group_name_H-M "P -1"
_symmetry_group_IT_number 2
_symmetry_cell_setting 'triclinic'
loop_
_space_group_symop_operation_xyz
x,y,z
-x,-y,-z
loop_
_atom_site_type_symbol
_atom_site_label
_atom_site_fract_x
_atom_site_fract_y
_atom_site_fract_z
Si Si1 0.085963 0.686950 0.889884
Si Si2 0.087124 0.149161 0.372665
Si Si3 0.442278 0.131460 0.333518
Si Si4 0.235503 0.294149 0.493898
Si Si5 0.600127 0.462827 0.629388
Si Si6 0.215589 0.864686 0.987588
Si Si7 0.509409 0.425437 0.134858
Si Si8 0.546414 0.840609 0.074494
O O1 0.152947 0.774093 0.949690
O O2 0.259759 0.372585 0.876691
O O3 0.985092 0.794554 0.764211
O O4 0.955746 0.821689 0.969620
O O5 0.185211 0.181932 0.425646
O O6 0.925791 0.394905 0.450457
O O7 0.213673 0.851727 0.375052
O O8 0.310099 0.254571 0.402038
O O9 0.409007 0.347016 0.345425
O O10 0.621119 0.883613 0.401173
O O11 0.444487 0.017790 0.191849
O O12 0.500000 0.500000 0.500000
O O13 0.517808 0.546484 0.738450
O O14 0.311746 0.749448 0.880135
O O15 0.358554 0.716801 0.099460
O O16 0.486066 0.289381 0.023639
O O17 0.500000 0.000000 0.000000
#
# Coordination Sequence:
#
# PCOD9097825 Si02
#       8
#     2   2   2   2   2   2   2   2
#     4  10  20  36  62  89 122 161 204 255 308 368
#     4  11  22  41  66  91 125 166 209 262 310 369
#     4  11  23  42  64  95 125 168 214 255 316 373
#     4  10  24  42  65  91 123 169 219 252 306 386
#     4  12  24  40  65  95 130 163 205 267 320 365
#     4   9  20  36  60  93 117 153 209 256 301 371
#     4  10  21  38  62  91 120 162 207 250 312 372
#     4  11  22  39  64  86 125 164 205 255 308 372
#
# _framework density 18.910088999999999
#
# number of rings (size 3 to 8) (size 9 to 14) (size 15 to 20)
#    0.000    1.500    5.000    0.000    1.750    2.500 
#    0.000    1.875    0.000    0.000    0.000    0.000 
#    0.000    0.000    0.000    0.000    0.000    0.000 
#
# Total GULP energy -89235.801811 kJ/mol
# GULP energy per Si atom -5577.237613 kJ/mol
# Density = 1.886705 g / cm^3
# Si number density = 18.910089 Si / 1000 Ang^3
#
#
#
# Elastic Constant Matrix: (Units=GPa)
#
#
# Indices 1 2 3 4 5 6 
#
# 1 84.9525 45.2426 39.2137 12.8518 -32.7451 -22.4318
# 2 45.2426 112.1670 46.3056 7.2611 -23.9856 -7.1593
# 3 39.2137 46.3056 111.5415 1.1103 -23.9232 -12.1173
# 4 12.8518 7.2611 1.1103 26.0674 -3.2409 -4.7618
# 5 -32.7451 -23.9856 -23.9232 -3.2409 35.2529 1.7348
# 6 -22.4318 -7.1593 -12.1173 -4.7618 1.7348 25.8368
#
#
#
# Elastic Compliance Matrix: (Units=1/GPa)
#
#
# Indices 1 2 3 4 5 6 
#
# 1 0.030402 -0.005139 -0.001402 -0.006808 0.022104 0.021575
# 2 -0.005139 0.012612 -0.003402 -0.001170 0.001533 -0.002881
# 3 -0.001402 -0.003402 0.012268 0.002385 0.004745 0.003714
# 4 -0.006808 -0.001170 0.002385 0.042234 -0.001756 0.002785
# 5 0.022104 0.001533 0.004745 -0.001756 0.052113 0.018018
# 6 0.021575 -0.002881 0.003714 0.002785 0.018018 0.057683
#
#
# Mechanical properties :
#
#
# Convention : Reuss Voigt Hill
#
# Bulk Modulus (GPa) = 28.25209 63.35386 45.80297
# Shear Modulus (GPa) = 20.92076 29.29137 25.10606
#
# Velocity S-wave (km/s) = 3.32976 3.93998 3.64765
# Velocity P-wave (km/s) = 5.45488 7.36704 6.48186
#
# Compressibility (1/GPa) = 0.03539561
#
# Stress axis : x y z
#
# Youngs Moduli (GPa) = 32.89207 79.28800 81.51421
#
# Poissons Ratio (x) = 0.40750 0.11432
# Poissons Ratio (y) = 0.16905 0.27727
# Poissons Ratio (z) = 0.04613 0.26970
#
# Static dielectric constant tensor:
#      x y z
#    x 1.639780 -0.029590 -0.004850 
#    y -0.029590 1.682420 0.021450 
#    z -0.004850 0.021450 1.642120 
# 
# From -- ./inp_files/332897.got.cif
#   From: 2010.05.17/outbox.cif.g08.bks.cpg/sg2_167_cif.got.tgz:332897.got - 2010.06.03 11:33:40.
