data_PCOD9097889
_publ_section_title
;
Structure prediction by ZEFSAII (Michael W. Deem and Ramdas Pophale) SiO2 
 PCOD9097889
Probable space group: P -1
;
_chemical_formula_sum "Si O2"
_cell_formula_units_Z 16
_cell_length_a 8.957337
_cell_length_b 14.604470
_cell_length_c 18.837144
_cell_angle_alpha 17.994842
_cell_angle_beta 52.663191
_cell_angle_gamma 51.896822
_cell_volume 597.097045
_symmetry_space_group_name_H-M "P -1"
_symmetry_group_IT_number 2
_symmetry_cell_setting 'triclinic'
loop_
_space_group_symop_operation_xyz
x,y,z
-x,-y,-z
loop_
_atom_site_type_symbol
_atom_site_label
_atom_site_fract_x
_atom_site_fract_y
_atom_site_fract_z
Si Si1 0.537416 0.646658 0.766521
Si Si2 0.444462 0.847960 0.976156
Si Si3 0.204448 0.307501 0.090344
Si Si4 0.023342 0.712408 0.450171
Si Si5 0.818801 0.347348 0.390634
Si Si6 0.100023 0.867651 0.140963
Si Si7 0.888648 0.304622 0.999060
Si Si8 0.420060 0.467254 0.468246
O O1 0.605644 0.462600 0.810716
O O2 0.500000 0.000000 0.500000
O O3 0.347238 0.503642 0.940992
O O4 0.696531 0.516393 0.873962
O O5 0.318748 0.921154 0.028083
O O6 0.673823 0.802205 0.935952
O O7 0.385082 0.121640 0.735256
O O8 0.184059 0.003554 0.360518
O O9 0.000000 0.500000 0.000000
O O10 0.092391 0.624634 0.575768
O O11 0.219806 0.684348 0.367237
O O12 0.914465 0.482578 0.608597
O O13 0.902068 0.044084 0.246133
O O14 0.595982 0.492707 0.347839
O O15 0.953119 0.481007 0.199085
O O16 0.973589 0.074273 0.081595
O O17 0.000000 0.000000 0.000000
O O18 0.500000 0.500000 0.500000
#
# Coordination Sequence:
#
# PCOD9097889 Si02
#       8
#     2   2   2   2   2   2   2   2
#     4  10  20  36  62  92 119 159 215 257 305 365
#     4   9  18  31  58  89 116 157 202 240 309 363
#     4   9  19  36  64  89 111 161 211 254 309 367
#     4  11  22  34  59  93 128 165 207 250 311 371
#     4  10  20  37  60  82 127 162 205 255 306 364
#     4  12  17  35  58  89 129 164 197 250 317 367
#     4  12  23  36  62  95 126 164 209 257 307 376
#     4   9  16  32  54  84 122 161 194 238 294 374
#
# _framework density 26.796315
#
# number of rings (size 3 to 8) (size 9 to 14) (size 15 to 20)
#    0.750    1.000    3.750    1.875    0.000    0.500 
#    0.000    0.000    0.000    9.750    0.000    0.000 
#    0.000    0.000    0.000    0.000    0.000    0.000 
#
# Total GULP energy -89381.333242 kJ/mol
# GULP energy per Si atom -5586.333328 kJ/mol
# Density = 2.673533 g / cm^3
# Si number density = 26.796315 Si / 1000 Ang^3
#
#
#
# Elastic Constant Matrix: (Units=GPa)
#
#
# Indices 1 2 3 4 5 6 
#
# 1 72.2194 41.1777 59.9695 -13.7943 3.2750 -34.0886
# 2 41.1777 118.4186 36.0875 -19.2841 -3.3518 -28.3647
# 3 59.9695 36.0875 195.7979 -33.9520 -20.9561 -33.7003
# 4 -13.7943 -19.2841 -33.9520 46.1682 -10.4044 2.4255
# 5 3.2750 -3.3518 -20.9561 -10.4044 45.1582 -8.9712
# 6 -34.0886 -28.3647 -33.7003 2.4255 -8.9712 60.8932
#
#
#
# Elastic Compliance Matrix: (Units=1/GPa)
#
#
# Indices 1 2 3 4 5 6 
#
# 1 0.025764 -0.005302 -0.005861 -0.000014 -0.003353 0.008216
# 2 -0.005302 0.011633 0.001336 0.004905 0.003701 0.003540
# 3 -0.005861 0.001336 0.009156 0.006952 0.007003 0.003163
# 4 -0.000014 0.004905 0.006952 0.031194 0.012102 0.006665
# 5 -0.003353 0.003701 0.007003 0.012102 0.030229 0.007694
# 6 0.008216 0.003540 0.003163 0.006665 0.007694 0.025289
#
#
# Mechanical properties :
#
#
# Convention : Reuss Voigt Hill
#
# Bulk Modulus (GPa) = 37.17755 73.43392 55.30574
# Shear Modulus (GPa) = 30.88607 47.05735 38.97171
#
# Velocity S-wave (km/s) = 3.39871 4.19515 3.81776
# Velocity P-wave (km/s) = 5.41349 7.13650 6.33386
#
# Compressibility (1/GPa) = 0.02689795
#
# Stress axis : x y z
#
# Youngs Moduli (GPa) = 38.81350 85.96507 109.22204
#
# Poissons Ratio (x) = 0.45579 0.64016
# Poissons Ratio (y) = 0.20579 -0.14591
# Poissons Ratio (z) = 0.22749 -0.11484
#
# Static dielectric constant tensor:
#      x y z
#    x 2.243890 0.102300 0.064350 
#    y 0.102300 2.197740 0.081940 
#    z 0.064350 0.081940 2.215550 
# 
# From -- ./inp_files/623187.got.cif
#   From: 2010.05.17/outbox.cif.g08.bks.cpg/sg2_312_cif.got.tgz:623187.got - 2010.06.03 11:33:40.
