data_PCOD9097047
_publ_section_title
;
Structure prediction by ZEFSAII (Michael W. Deem and Ramdas Pophale) SiO2 
 PCOD9097047
Probable space group: P -1
;
_chemical_formula_sum "Si O2"
_cell_formula_units_Z 16
_cell_length_a 10.432443
_cell_length_b 8.829747
_cell_length_c 14.398631
_cell_angle_alpha 130.531719
_cell_angle_beta 80.808380
_cell_angle_gamma 128.422232
_cell_volume 720.358127
_symmetry_space_group_name_H-M "P -1"
_symmetry_group_IT_number 2
_symmetry_cell_setting 'triclinic'
loop_
_space_group_symop_operation_xyz
x,y,z
-x,-y,-z
loop_
_atom_site_type_symbol
_atom_site_label
_atom_site_fract_x
_atom_site_fract_y
_atom_site_fract_z
Si Si1 0.395209 0.088245 0.017816
Si Si2 0.499773 0.740628 0.110428
Si Si3 0.896909 0.237448 0.535399
Si Si4 0.210515 0.753748 0.077471
Si Si5 0.719044 0.512806 0.434300
Si Si6 0.586670 0.092362 0.422218
Si Si7 0.717960 0.616921 0.271861
Si Si8 0.109886 0.877108 0.307332
O O1 0.542100 0.415908 0.149553
O O2 0.246173 0.917759 0.045056
O O3 0.347761 0.034516 0.893646
O O4 0.500000 0.000000 0.000000
O O5 0.328416 0.681912 0.062452
O O6 0.529718 0.864229 0.259901
O O7 0.500000 0.500000 0.000000
O O8 0.793450 0.282385 0.503128
O O9 0.869326 0.233341 0.646956
O O10 0.106479 0.443009 0.575818
O O11 0.797952 0.921271 0.398136
O O12 0.226818 0.913028 0.226841
O O13 0.000000 0.500000 0.000000
O O14 0.586852 0.295561 0.442695
O O15 0.650151 0.457806 0.315039
O O16 0.808588 0.819856 0.564918
O O17 0.500000 0.000000 0.500000
O O18 0.892809 0.676896 0.240563
#
# Coordination Sequence:
#
# PCOD9097047 Si02
#       8
#     2   2   2   2   2   2   2   2
#     4  10  20  36  59  85 113 157 203 243 295 367
#     4  11  25  44  63  88 125 169 207 247 307 375
#     4   9  19  35  57  83 117 159 196 239 300 370
#     4  11  23  40  63  92 121 157 207 262 306 355
#     4   9  19  35  58  88 119 157 201 247 301 365
#     4  12  24  38  57  88 124 160 201 253 303 355
#     4   9  17  35  61  86 114 155 203 244 298 367
#     4   9  18  35  60  90 120 150 199 259 304 350
#
# _framework density 22.211175000000001
#
# number of rings (size 3 to 8) (size 9 to 14) (size 15 to 20)
#    0.000    2.000    0.000    6.375    0.000    4.000 
#    0.000    5.000    0.000    0.000    0.000    0.000 
#    0.000    0.000    0.000    0.000    0.000    0.000 
#
# Total GULP energy -89082.745359 kJ/mol
# GULP energy per Si atom -5567.671585 kJ/mol
# Density = 2.216062 g / cm^3
# Si number density = 22.211175 Si / 1000 Ang^3
#
#
#
# Elastic Constant Matrix: (Units=GPa)
#
#
# Indices 1 2 3 4 5 6 
#
# 1 51.8629 15.5621 14.6238 -15.5233 10.2523 -1.1871
# 2 15.5621 166.4217 49.1191 -39.6214 -2.4254 -2.4045
# 3 14.6238 49.1191 87.4934 -19.9041 5.9227 6.9415
# 4 -15.5233 -39.6214 -19.9041 39.7103 3.8832 0.0770
# 5 10.2523 -2.4254 5.9227 3.8832 31.7140 -1.9716
# 6 -1.1871 -2.4045 6.9415 0.0770 -1.9716 27.6882
#
#
#
# Elastic Compliance Matrix: (Units=1/GPa)
#
#
# Indices 1 2 3 4 5 6 
#
# 1 0.024325 0.000447 -0.001503 0.010054 -0.008729 0.000809
# 2 0.000447 0.008719 -0.003523 0.007064 0.000419 0.001670
# 3 -0.001503 -0.003523 0.015099 0.003801 -0.003343 -0.004404
# 4 0.010054 0.007064 0.003801 0.038870 -0.008216 -0.000602
# 5 -0.008729 0.000419 -0.003343 -0.008216 0.036209 0.003101
# 6 0.000809 0.001670 -0.004404 -0.000602 0.003101 0.037623
#
#
# Mechanical properties :
#
#
# Convention : Reuss Voigt Hill
#
# Bulk Modulus (GPa) = 25.65146 51.59866 38.62506
# Shear Modulus (GPa) = 27.32276 34.92069 31.12173
#
# Velocity S-wave (km/s) = 3.51113 3.96942 3.74729
# Velocity P-wave (km/s) = 5.29258 6.65505 6.01253
#
# Compressibility (1/GPa) = 0.03898413
#
# Stress axis : x y z
#
# Youngs Moduli (GPa) = 41.11069 114.69245 66.22964
#
# Poissons Ratio (x) = -0.05126 0.09952
# Poissons Ratio (y) = -0.01837 0.23336
# Poissons Ratio (z) = 0.06178 0.40411
#
# Static dielectric constant tensor:
#      x y z
#    x 1.856340 0.035690 -0.040400 
#    y 0.035690 1.904720 -0.034080 
#    z -0.040400 -0.034080 2.054150 
# 
# From -- ./inp_files/239687.got.cif
#   From: 2010.05.17/outbox.cif.g08.bks.cpg/sg2_120_cif.got.tgz:239687.got - 2010.06.03 11:33:40.
