data_PCOD9097558
_publ_section_title
;
Structure prediction by ZEFSAII (Michael W. Deem and Ramdas Pophale) SiO2 
 PCOD9097558
Probable space group: P -1
;
_chemical_formula_sum "Si O2"
_cell_formula_units_Z 16
_cell_length_a 12.537644
_cell_length_b 20.243385
_cell_length_c 13.007768
_cell_angle_alpha 143.626152
_cell_angle_beta 147.551498
_cell_angle_gamma 24.628588
_cell_volume 727.411303
_symmetry_space_group_name_H-M "P -1"
_symmetry_group_IT_number 2
_symmetry_cell_setting 'triclinic'
loop_
_space_group_symop_operation_xyz
x,y,z
-x,-y,-z
loop_
_atom_site_type_symbol
_atom_site_label
_atom_site_fract_x
_atom_site_fract_y
_atom_site_fract_z
Si Si1 0.595555 0.764602 0.295969
Si Si2 0.709476 0.064224 0.301222
Si Si3 0.216840 0.777736 0.851141
Si Si4 0.536970 0.528530 0.452384
Si Si5 0.412859 0.019761 0.322983
Si Si6 0.054321 0.262022 0.858370
Si Si7 0.878492 0.591859 0.740362
Si Si8 0.410463 0.875738 0.961341
O O1 0.508097 0.885366 0.467033
O O2 0.868654 0.581034 0.324129
O O3 0.635620 0.840772 0.331121
O O4 0.373950 0.768694 0.066967
O O5 0.415387 0.233822 0.323551
O O6 0.696952 0.087304 0.196298
O O7 0.742361 0.920129 0.169187
O O8 0.000000 0.000000 0.500000
O O9 0.341002 0.611429 0.703272
O O10 0.274936 0.838062 0.878572
O O11 0.887376 0.890993 0.754194
O O12 0.500000 0.500000 0.500000
O O13 0.739559 0.552511 0.648826
O O14 0.218787 0.680947 0.344572
O O15 0.362369 0.010471 0.152368
O O16 0.976262 0.369671 0.026914
O O17 0.242559 0.265900 0.943199
#
# Coordination Sequence:
#
# PCOD9097558 Si02
#       8
#     2   2   2   2   2   2   2   2
#     4  10  20  36  61  87 124 165 197 245 313 368
#     4  11  23  44  63  90 120 169 215 262 314 359
#     4  11  22  40  60  96 132 159 204 254 313 381
#     4  12  24  33  61  98 129 159 202 254 324 374
#     4  10  22  40  61  94 131 164 205 248 315 380
#     4  11  24  42  62  87 128 164 206 265 305 368
#     4  11  21  39  61  87 120 165 205 253 314 366
#     4  10  22  39  64  91 124 167 211 254 307 377
#
# _framework density 21.995808
#
# number of rings (size 3 to 8) (size 9 to 14) (size 15 to 20)
#    0.000    1.250    3.750    4.500    3.500    1.000 
#    2.250    0.000    0.000    6.000    3.250    0.000 
#    0.000    0.000    0.000    0.000    0.000    0.000 
#
# Total GULP energy -89207.934872 kJ/mol
# GULP energy per Si atom -5575.495930 kJ/mol
# Density = 2.194574 g / cm^3
# Si number density = 21.995808 Si / 1000 Ang^3
#
#
#
# Elastic Constant Matrix: (Units=GPa)
#
#
# Indices 1 2 3 4 5 6 
#
# 1 33.9946 2.9148 7.8383 -1.1921 -1.9569 -2.4697
# 2 2.9148 125.4655 37.8349 10.7992 -11.1853 4.2306
# 3 7.8383 37.8349 127.6008 9.1061 -7.4025 4.1077
# 4 -1.1921 10.7992 9.1061 45.9357 1.8446 1.7867
# 5 -1.9569 -11.1853 -7.4025 1.8446 24.9984 4.1955
# 6 -2.4697 4.2306 4.1077 1.7867 4.1955 18.5324
#
#
#
# Elastic Compliance Matrix: (Units=1/GPa)
#
#
# Indices 1 2 3 4 5 6 
#
# 1 0.030281 -0.000271 -0.001938 0.001034 0.000890 0.004226
# 2 -0.000271 0.009257 -0.002293 -0.001796 0.003971 -0.002367
# 3 -0.001938 -0.002293 0.008901 -0.001273 0.001890 -0.002013
# 4 0.001034 -0.001796 -0.001273 0.022606 -0.002642 -0.000751
# 5 0.000890 0.003971 0.001890 -0.002642 0.044452 -0.011015
# 6 0.004226 -0.002367 -0.002013 -0.000751 -0.011015 0.058075
#
#
# Mechanical properties :
#
#
# Convention : Reuss Voigt Hill
#
# Bulk Modulus (GPa) = 25.35881 42.69301 34.02591
# Shear Modulus (GPa) = 25.54643 33.79150 29.66897
#
# Velocity S-wave (km/s) = 3.41166 3.92378 3.67665
# Velocity P-wave (km/s) = 5.20319 6.32296 5.79021
#
# Compressibility (1/GPa) = 0.03943403
#
# Stress axis : x y z
#
# Youngs Moduli (GPa) = 33.02406 108.03106 112.34377
#
# Poissons Ratio (x) = 0.02930 0.21771
# Poissons Ratio (y) = 0.00896 0.25763
# Poissons Ratio (z) = 0.06400 0.24774
#
# Static dielectric constant tensor:
#      x y z
#    x 1.796150 -0.001880 -0.008960 
#    y -0.001880 1.894410 0.020290 
#    z -0.008960 0.020290 1.849460 
# 
# From -- ./inp_files/535424.got.cif
#   From: 2010.05.17/outbox.cif.g08.bks.cpg/sg2_268_cif.got.tgz:535424.got - 2010.06.03 11:33:40.
