data_PCOD9097048
_publ_section_title
;
Structure prediction by ZEFSAII (Michael W. Deem and Ramdas Pophale) SiO2 
 PCOD9097048
Probable space group: P -1
;
_chemical_formula_sum "Si O2"
_cell_formula_units_Z 14
_cell_length_a 9.427062
_cell_length_b 8.329896
_cell_length_c 18.833596
_cell_angle_alpha 33.727440
_cell_angle_beta 143.960265
_cell_angle_gamma 133.251456
_cell_volume 482.766470
_symmetry_space_group_name_H-M "P -1"
_symmetry_group_IT_number 2
_symmetry_cell_setting 'triclinic'
loop_
_space_group_symop_operation_xyz
x,y,z
-x,-y,-z
loop_
_atom_site_type_symbol
_atom_site_label
_atom_site_fract_x
_atom_site_fract_y
_atom_site_fract_z
Si Si1 0.957795 0.978887 0.115554
Si Si2 0.450729 0.651512 0.155904
Si Si3 0.456259 0.833515 0.370312
Si Si4 0.915640 0.548727 0.125468
Si Si5 0.645198 0.961341 0.259992
Si Si6 0.140757 0.745357 0.551961
Si Si7 0.241108 0.130534 0.338933
O O1 0.196988 0.864599 0.292338
O O2 0.050306 0.246454 0.004430
O O3 0.892290 0.728768 0.122548
O O4 0.745222 0.107020 0.032100
O O5 0.541011 0.774917 0.222236
O O6 0.700829 0.535655 0.267075
O O7 0.283457 0.360610 0.207497
O O8 0.500000 0.500000 0.500000
O O9 0.444575 0.962581 0.238646
O O10 0.672933 0.021715 0.422627
O O11 0.150903 0.356799 0.279342
O O12 0.714928 0.285609 0.142429
O O13 0.871981 0.806130 0.445715
O O14 0.098642 0.837909 0.417446
O O15 0.500000 0.000000 0.500000
#
# Coordination Sequence:
#
# PCOD9097048 Si02
#       7
#     2   2   2   2   2   2   2
#     4  10  21  37  59  85 115 151 196 238 286 341
#     4  10  20  36  59  85 114 151 194 242 283 334
#     4  12  24  39  59  84 119 158 193 235 288 351
#     4   9  18  35  58  87 111 143 197 247 281 326
#     4  11  21  37  63  88 114 148 195 243 286 338
#     4  10  21  36  56  86 121 151 186 234 294 348
#     4   8  15  31  54  78 108 147 190 232 276 330
#
# _framework density 28.999528000000002
#
# number of rings (size 3 to 8) (size 9 to 14) (size 15 to 20)
#    0.000    2.000    0.000    6.000    0.000    2.857 
#    0.000    1.429    0.000    6.000    0.000    0.000 
#    0.000    0.000    0.000    0.000    0.000    0.000 
#
# Total GULP energy -78086.135072 kJ/mol
# GULP energy per Si atom -5577.581077 kJ/mol
# Density = 2.893352 g / cm^3
# Si number density = 28.999528 Si / 1000 Ang^3
#
#
#
# Elastic Constant Matrix: (Units=GPa)
#
#
# Indices 1 2 3 4 5 6 
#
# 1 76.9685 12.9843 14.2967 0.4011 27.0640 5.7842
# 2 12.9843 131.7696 45.3881 -12.6793 -1.5218 6.9701
# 3 14.2967 45.3881 180.6238 -23.1526 55.9077 12.4303
# 4 0.4011 -12.6793 -23.1526 53.6862 5.1436 -1.9446
# 5 27.0640 -1.5218 55.9077 5.1436 73.5049 3.0408
# 6 5.7842 6.9701 12.4303 -1.9446 3.0408 33.5342
#
#
#
# Elastic Compliance Matrix: (Units=1/GPa)
#
#
# Indices 1 2 3 4 5 6 
#
# 1 0.015665 -0.002023 0.001703 0.000735 -0.007064 -0.002229
# 2 -0.002023 0.008926 -0.002949 0.000524 0.003164 -0.000670
# 3 0.001703 -0.002949 0.009247 0.003958 -0.007908 -0.002162
# 4 0.000735 0.000524 0.003958 0.020903 -0.004730 -0.000062
# 5 -0.007064 0.003164 -0.007908 -0.004730 0.022569 0.001172
# 6 -0.002229 -0.000670 -0.002162 -0.000062 0.001172 0.031035
#
#
# Mechanical properties :
#
#
# Convention : Reuss Voigt Hill
#
# Bulk Modulus (GPa) = 36.63087 59.41111 48.02099
# Shear Modulus (GPa) = 40.32807 53.25791 46.79299
#
# Velocity S-wave (km/s) = 3.73318 4.29010 4.02129
# Velocity P-wave (km/s) = 5.58938 6.71352 6.17707
#
# Compressibility (1/GPa) = 0.02729938
#
# Stress axis : x y z
#
# Youngs Moduli (GPa) = 63.83720 112.02611 108.14851
#
# Poissons Ratio (x) = 0.22662 -0.18413
# Poissons Ratio (y) = 0.12914 0.31892
# Poissons Ratio (z) = -0.10869 0.33035
#
# Static dielectric constant tensor:
#      x y z
#    x 2.491970 -0.101570 -0.097380 
#    y -0.101570 2.325270 0.085090 
#    z -0.097380 0.085090 2.341520 
# 
# From -- ./inp_files/259741.got.cif
#   From: 2010.05.17/outbox.cif.g08.bks.cpg/sg2_130_cif.got.tgz:259741.got - 2010.06.03 11:33:40.
