data_PCOD9097513
_publ_section_title
;
Structure prediction by ZEFSAII (Michael W. Deem and Ramdas Pophale) SiO2 
 PCOD9097513
Probable space group: P -1
;
_chemical_formula_sum "Si O2"
_cell_formula_units_Z 16
_cell_length_a 9.219464
_cell_length_b 11.328760
_cell_length_c 11.232830
_cell_angle_alpha 96.332060
_cell_angle_beta 142.173394
_cell_angle_gamma 84.920109
_cell_volume 715.110170
_symmetry_space_group_name_H-M "P -1"
_symmetry_group_IT_number 2
_symmetry_cell_setting 'triclinic'
loop_
_space_group_symop_operation_xyz
x,y,z
-x,-y,-z
loop_
_atom_site_type_symbol
_atom_site_label
_atom_site_fract_x
_atom_site_fract_y
_atom_site_fract_z
Si Si1 0.867344 0.673068 0.189061
Si Si2 0.760922 0.439540 0.994206
Si Si3 0.615156 0.232982 0.032839
Si Si4 0.754948 0.000031 0.451848
Si Si5 0.938910 0.203559 0.449572
Si Si6 0.295762 0.118234 0.232253
Si Si7 0.908445 0.019804 0.130762
Si Si8 0.205535 0.362522 0.122545
O O1 0.796398 0.533959 0.134346
O O2 0.029887 0.712887 0.407300
O O3 0.630712 0.751127 0.058498
O O4 0.936288 0.679282 0.094600
O O5 0.625841 0.325844 0.941591
O O6 0.013257 0.399160 0.099665
O O7 0.658067 0.523360 0.830308
O O8 0.682151 0.101313 0.018788
O O9 0.822546 0.262516 0.265719
O O10 0.517298 0.029678 0.371396
O O11 0.767181 0.094403 0.363505
O O12 0.819261 0.867100 0.437128
O O13 0.976573 0.034725 0.683783
O O14 0.357175 0.254566 0.260680
O O15 0.116978 0.104577 0.224284
O O16 0.150689 0.073163 0.018700
#
# Coordination Sequence:
#
# PCOD9097513 Si02
#       8
#     2   2   2   2   2   2   2   2
#     4  10  20  36  61  84 111 153 191 230 280 340
#     4   9  20  37  59  83 115 150 192 239 276 330
#     4  11  20  38  60  86 117 151 185 234 290 332
#     4  10  21  37  53  84 120 147 185 233 286 338
#     4  10  22  36  57  86 118 148 186 238 282 339
#     4  11  19  36  60  83 111 155 187 226 292 340
#     4  10  22  33  58  88 115 145 189 235 279 343
#     4   9  19  36  60  82 112 153 188 235 282 328
#
# _framework density 22.374175999999999
#
# number of rings (size 3 to 8) (size 9 to 14) (size 15 to 20)
#    0.750    1.250    1.250    3.000    0.000    0.500 
#    0.000    5.000    0.000    8.250    0.000    0.000 
#    0.000    0.000    0.000    0.000    0.000    0.000 
#
# Total GULP energy -89204.052675 kJ/mol
# GULP energy per Si atom -5575.253292 kJ/mol
# Density = 2.232325 g / cm^3
# Si number density = 22.374176 Si / 1000 Ang^3
#
#
#
# Elastic Constant Matrix: (Units=GPa)
#
#
# Indices 1 2 3 4 5 6 
#
# 1 72.7179 16.9895 8.9092 -7.0618 -0.0875 -14.6842
# 2 16.9895 64.3972 3.9720 -12.2398 1.6486 3.8700
# 3 8.9092 3.9720 27.3196 -6.7030 2.8299 -4.4953
# 4 -7.0618 -12.2398 -6.7030 17.0811 -1.9241 -4.5186
# 5 -0.0875 1.6486 2.8299 -1.9241 19.0487 -1.3555
# 6 -14.6842 3.8700 -4.4953 -4.5186 -1.3555 37.6284
#
#
#
# Elastic Compliance Matrix: (Units=1/GPa)
#
#
# Indices 1 2 3 4 5 6 
#
# 1 0.016988 -0.003776 -0.002622 0.005465 0.001875 0.007428
# 2 -0.003776 0.018829 0.001159 0.011803 -0.000761 -0.001882
# 3 -0.002622 0.001159 0.043073 0.017748 -0.004293 0.005980
# 4 0.005465 0.011803 0.017748 0.080237 0.005387 0.012868
# 5 0.001875 -0.000761 -0.004293 0.005387 0.053959 0.002888
# 6 0.007428 -0.001882 0.005980 0.012868 0.002888 0.032032
#
#
# Mechanical properties :
#
#
# Convention : Reuss Voigt Hill
#
# Bulk Modulus (GPa) = 14.61719 24.90844 19.76282
# Shear Modulus (GPa) = 17.95972 23.72258 20.84115
#
# Velocity S-wave (km/s) = 2.83627 3.25971 3.05533
# Velocity P-wave (km/s) = 4.15610 5.03234 4.61506
#
# Compressibility (1/GPa) = 0.06841259
#
# Stress axis : x y z
#
# Youngs Moduli (GPa) = 58.86420 53.10908 23.21615
#
# Poissons Ratio (x) = 0.20053 0.06087
# Poissons Ratio (y) = 0.22226 -0.02690
# Poissons Ratio (z) = 0.15435 -0.06154
#
# Static dielectric constant tensor:
#      x y z
#    x 1.847880 0.022190 0.002750 
#    y 0.022190 1.870340 0.009270 
#    z 0.002750 0.009270 1.815270 
# 
# From -- ./inp_files/337770.got.cif
#   From: 2010.05.17/outbox.cif.g08.bks.cpg/sg2_169_cif.got.tgz:337770.got - 2010.06.03 11:33:40.
