data_PCOD9097791
_publ_section_title
;
Structure prediction by ZEFSAII (Michael W. Deem and Ramdas Pophale) SiO2 
 PCOD9097791
Probable space group: P -1
;
_chemical_formula_sum "Si O2"
_cell_formula_units_Z 16
_cell_length_a 14.517434
_cell_length_b 14.975465
_cell_length_c 8.778763
_cell_angle_alpha 64.799181
_cell_angle_beta 39.026987
_cell_angle_gamma 39.450773
_cell_volume 687.581404
_symmetry_space_group_name_H-M "P -1"
_symmetry_group_IT_number 2
_symmetry_cell_setting 'triclinic'
loop_
_space_group_symop_operation_xyz
x,y,z
-x,-y,-z
loop_
_atom_site_type_symbol
_atom_site_label
_atom_site_fract_x
_atom_site_fract_y
_atom_site_fract_z
Si Si1 0.060289 0.679956 0.303920
Si Si2 0.364417 0.817137 0.875197
Si Si3 0.286673 0.710760 0.497079
Si Si4 0.371082 0.999842 0.545231
Si Si5 0.007178 0.125619 0.520072
Si Si6 0.672692 0.645315 0.885019
Si Si7 0.521423 0.877768 0.122414
Si Si8 0.437540 0.617232 0.697294
O O1 0.040504 0.738366 0.454898
O O2 0.831340 0.833666 0.397886
O O3 0.122500 0.533758 0.302644
O O4 0.269538 0.632697 0.994854
O O5 0.496217 0.674972 0.692675
O O6 0.277500 0.954468 0.789707
O O7 0.161801 0.858134 0.181334
O O8 0.539863 0.756488 0.827156
O O9 0.057449 0.848043 0.592969
O O10 0.489706 0.666595 0.186537
O O11 0.299850 0.726929 0.646124
O O12 0.353260 0.560019 0.502069
O O13 0.500000 0.000000 0.500000
O O14 0.536574 0.875604 0.286127
O O15 0.269891 0.964224 0.339238
O O16 0.705946 0.715689 0.912447
O O17 0.500000 0.000000 0.000000
#
# Coordination Sequence:
#
# PCOD9097791 Si02
#       8
#     2   2   2   2   2   2   2   2
#     4   9  20  38  59  83 116 154 194 237 287 347
#     4  10  20  36  62  88 116 152 197 240 287 343
#     4   9  17  30  53  87 123 151 188 239 293 341
#     4  11  24  42  61  85 118 155 195 241 291 344
#     4   9  20  37  60  86 116 155 195 237 288 346
#     4  10  20  37  60  85 116 153 193 239 288 345
#     4  11  24  41  59  85 119 154 195 241 290 344
#     4   9  17  30  53  88 121 151 189 241 290 340
#
# _framework density 23.269971999999999
#
# number of rings (size 3 to 8) (size 9 to 14) (size 15 to 20)
#    0.000    2.250    0.000    2.250    0.000   12.500 
#    0.000    7.500    0.000    0.000    0.000    0.000 
#    0.000    0.000    0.000    0.000    0.000    0.000 
#
# Total GULP energy -89486.530724 kJ/mol
# GULP energy per Si atom -5592.908170 kJ/mol
# Density = 2.321701 g / cm^3
# Si number density = 23.269972 Si / 1000 Ang^3
#
#
#
# Elastic Constant Matrix: (Units=GPa)
#
#
# Indices 1 2 3 4 5 6 
#
# 1 117.9799 40.9303 11.6576 0.1558 29.3128 26.6402
# 2 40.9303 110.7271 25.8492 1.7251 10.3285 26.5853
# 3 11.6576 25.8492 41.2557 -5.0619 13.4813 15.8157
# 4 0.1558 1.7251 -5.0619 35.6873 4.8309 9.1228
# 5 29.3128 10.3285 13.4813 4.8309 35.4836 0.9938
# 6 26.6402 26.5853 15.8157 9.1228 0.9938 30.7271
#
#
#
# Elastic Compliance Matrix: (Units=1/GPa)
#
#
# Indices 1 2 3 4 5 6 
#
# 1 0.018120 -0.002612 0.012918 0.010330 -0.019893 -0.022523
# 2 -0.002612 0.012573 -0.004918 0.000212 0.000510 -0.006163
# 3 0.012918 -0.004918 0.051049 0.021412 -0.030470 -0.038592
# 4 0.010330 0.000212 0.021412 0.042092 -0.021566 -0.031960
# 5 -0.019893 0.000510 -0.030470 -0.021566 0.057942 0.037018
# 6 -0.022523 -0.006163 -0.038592 -0.031960 0.037018 0.085560
#
#
# Mechanical properties :
#
#
# Convention : Reuss Voigt Hill
#
# Bulk Modulus (GPa) = 10.80848 47.42633 29.11740
# Shear Modulus (GPa) = 17.39737 33.14795 25.27266
#
# Velocity S-wave (km/s) = 2.73725 3.77834 3.29912
# Velocity P-wave (km/s) = 3.82687 6.28169 5.20118
#
# Compressibility (1/GPa) = 0.09251994
#
# Stress axis : x y z
#
# Youngs Moduli (GPa) = 55.18704 79.53256 19.58911
#
# Poissons Ratio (x) = 0.20770 -0.25306
# Poissons Ratio (y) = 0.14412 0.09634
# Poissons Ratio (z) = -0.71293 0.39115
#
# Static dielectric constant tensor:
#      x y z
#    x 1.859730 0.042540 -0.011620 
#    y 0.042540 1.916320 0.021580 
#    z -0.011620 0.021580 1.894160 
# 
# From -- ./inp_files/312613.got.cif
#   From: 2010.05.17/outbox.cif.g08.bks.cpg/sg2_157_cif.got.tgz:312613.got - 2010.06.03 11:33:40.
