data_PCOD9097356
_publ_section_title
;
Structure prediction by ZEFSAII (Michael W. Deem and Ramdas Pophale) SiO2 
 PCOD9097356
Probable space group: P -1
;
_chemical_formula_sum "Si O2"
_cell_formula_units_Z 16
_cell_length_a 11.708459
_cell_length_b 9.123647
_cell_length_c 8.427569
_cell_angle_alpha 114.456635
_cell_angle_beta 73.974835
_cell_angle_gamma 86.861338
_cell_volume 772.802319
_symmetry_space_group_name_H-M "P -1"
_symmetry_group_IT_number 2
_symmetry_cell_setting 'triclinic'
loop_
_space_group_symop_operation_xyz
x,y,z
-x,-y,-z
loop_
_atom_site_type_symbol
_atom_site_label
_atom_site_fract_x
_atom_site_fract_y
_atom_site_fract_z
Si Si1 0.460661 0.534326 0.709293
Si Si2 0.296040 0.439632 0.218725
Si Si3 0.119406 0.647991 0.163020
Si Si4 0.729061 0.658874 0.154998
Si Si5 0.135238 0.119092 0.615500
Si Si6 0.936150 0.127434 0.218489
Si Si7 0.179212 0.168938 0.264623
Si Si8 0.255759 0.828364 0.938731
O O1 0.500000 0.500000 0.500000
O O2 0.581921 0.506489 0.753455
O O3 0.365701 0.422254 0.746860
O O4 0.389258 0.721245 0.839090
O O5 0.193680 0.593352 0.271398
O O6 0.243882 0.324490 0.310833
O O7 0.319244 0.328783 0.000468
O O8 0.983846 0.737189 0.280673
O O9 0.146861 0.477329 0.977550
O O10 0.184554 0.765439 0.084206
O O11 0.763096 0.816280 0.292094
O O12 0.175484 0.094259 0.407807
O O13 0.097041 0.970201 0.659166
O O14 0.814696 0.210948 0.211341
O O15 0.042020 0.221464 0.272080
O O16 0.000000 0.000000 0.000000
O O17 0.244083 0.021583 0.059258
#
# Coordination Sequence:
#
# PCOD9097356 Si02
#       8
#     2   2   2   2   2   2   2   2
#     4  11  23  43  64  88 118 157 208 260 297 355
#     4  10  23  40  63  89 121 163 206 247 304 350
#     4   9  21  35  65  88 122 161 199 240 302 361
#     4   9  21  37  61  85 121 157 199 244 301 353
#     4  12  20  37  62  95 128 158 201 246 300 365
#     4  10  20  36  60  88 126 162 194 243 301 365
#     4  11  23  37  61  93 128 159 198 250 301 365
#     4  10  22  41  63  87 122 166 199 243 315 354
#
# _framework density 20.703872
#
# number of rings (size 3 to 8) (size 9 to 14) (size 15 to 20)
#    0.750    1.000    2.500    3.375    0.000    3.000 
#    0.000    0.000    0.000    3.000    0.000    0.000 
#    0.000    0.000    0.000    0.000    0.000    0.000 
#
# Total GULP energy -89251.416015 kJ/mol
# GULP energy per Si atom -5578.213501 kJ/mol
# Density = 2.065675 g / cm^3
# Si number density = 20.703872 Si / 1000 Ang^3
#
#
#
# Elastic Constant Matrix: (Units=GPa)
#
#
# Indices 1 2 3 4 5 6 
#
# 1 81.4423 6.2075 14.9432 5.3105 0.6935 -1.3053
# 2 6.2075 40.6116 3.0839 -9.0867 -8.0044 -9.5356
# 3 14.9432 3.0839 69.0073 -16.1076 0.5839 3.7585
# 4 5.3105 -9.0867 -16.1076 25.7326 4.2951 8.0814
# 5 0.6935 -8.0044 0.5839 4.2951 21.4349 -3.6403
# 6 -1.3053 -9.5356 3.7585 8.0814 -3.6403 17.5473
#
#
#
# Elastic Compliance Matrix: (Units=1/GPa)
#
#
# Indices 1 2 3 4 5 6 
#
# 1 0.014096 -0.002144 -0.005386 -0.009056 0.001647 0.005549
# 2 -0.002144 0.033532 -0.001849 0.001946 0.015791 0.020838
# 3 -0.005386 -0.001849 0.021605 0.020790 -0.008210 -0.017311
# 4 -0.009056 0.001946 0.020790 0.070738 -0.020673 -0.040936
# 5 0.001647 0.015791 -0.008210 -0.020673 0.062457 0.032940
# 6 0.005549 0.020838 -0.017311 -0.040936 0.032940 0.098120
#
#
# Mechanical properties :
#
#
# Convention : Reuss Voigt Hill
#
# Bulk Modulus (GPa) = 19.81170 26.61450 23.21310
# Shear Modulus (GPa) = 14.87515 24.06472 19.46993
#
# Velocity S-wave (km/s) = 2.68334 3.41299 3.06992
# Velocity P-wave (km/s) = 4.38067 5.33049 4.87875
#
# Compressibility (1/GPa) = 0.05047522
#
# Stress axis : x y z
#
# Youngs Moduli (GPa) = 70.94326 29.82213 46.28487
#
# Poissons Ratio (x) = 0.06394 0.24931
# Poissons Ratio (y) = 0.15210 0.08556
# Poissons Ratio (z) = 0.38213 0.05513
#
# Static dielectric constant tensor:
#      x y z
#    x 1.736820 -0.009000 0.018520 
#    y -0.009000 1.766490 0.013000 
#    z 0.018520 0.013000 1.767080 
# 
# From -- ./inp_files/240253.got.cif
#   From: 2010.05.17/outbox.cif.g08.bks.cpg/sg2_121_cif.got.tgz:240253.got - 2010.06.03 11:33:40.
