data_PCOD9097320
_publ_section_title
;
Structure prediction by ZEFSAII (Michael W. Deem and Ramdas Pophale) SiO2 
 PCOD9097320
Probable space group: P -1
;
_chemical_formula_sum "Si O2"
_cell_formula_units_Z 14
_cell_length_a 12.151775
_cell_length_b 8.487407
_cell_length_c 12.813585
_cell_angle_alpha 79.393750
_cell_angle_beta 130.254216
_cell_angle_gamma 65.544391
_cell_volume 697.691400
_symmetry_space_group_name_H-M "P -1"
_symmetry_group_IT_number 2
_symmetry_cell_setting 'triclinic'
loop_
_space_group_symop_operation_xyz
x,y,z
-x,-y,-z
loop_
_atom_site_type_symbol
_atom_site_label
_atom_site_fract_x
_atom_site_fract_y
_atom_site_fract_z
Si Si1 0.126145 0.563454 0.074270
Si Si2 0.493635 0.049020 0.369506
Si Si3 0.164299 0.715132 0.285416
Si Si4 0.369890 0.588288 0.093846
Si Si5 0.234596 0.957673 0.595456
Si Si6 0.118492 0.969226 0.738455
Si Si7 0.582375 0.239989 0.688449
O O1 0.355504 0.315646 0.256168
O O2 0.074059 0.704081 0.128018
O O3 0.163702 0.646014 0.987166
O O4 0.000000 0.500000 0.000000
O O5 0.500000 0.000000 0.500000
O O6 0.690989 0.950776 0.438675
O O7 0.401006 0.964045 0.269233
O O8 0.358283 0.461814 0.478437
O O9 0.257667 0.809915 0.289972
O O10 0.001396 0.858552 0.259329
O O11 0.391545 0.688849 0.194830
O O12 0.577827 0.319887 0.247296
O O13 0.685401 0.271706 0.061072
O O14 0.177680 0.038211 0.670726
O O15 0.041922 0.028735 0.411658
#
# Coordination Sequence:
#
# PCOD9097320 Si02
#       7
#     2   2   2   2   2   2   2
#     4  10  23  35  56  94 120 145 202 247 289 356
#     4  11  21  37  63  83 117 156 188 250 304 336
#     4  10  20  37  59  87 119 157 192 243 293 351
#     4  10  22  39  62  86 118 156 197 247 291 345
#     4  10  23  42  59  90 115 156 206 238 290 357
#     4  11  22  38  67  81 120 161 200 238 290 358
#     4  10  20  36  60  87 117 152 197 241 299 347
#
# _framework density 20.066179000000002
#
# number of rings (size 3 to 8) (size 9 to 14) (size 15 to 20)
#    0.000    1.714    2.857    1.286    6.000    1.143 
#    0.000    1.429    3.143    0.000    0.000    0.000 
#    0.000    0.000    0.000    0.000    0.000    0.000 
#
# Total GULP energy -78088.208314 kJ/mol
# GULP energy per Si atom -5577.729165 kJ/mol
# Density = 2.002051 g / cm^3
# Si number density = 20.066179 Si / 1000 Ang^3
#
#
#
# Elastic Constant Matrix: (Units=GPa)
#
#
# Indices 1 2 3 4 5 6 
#
# 1 111.5132 19.7715 7.2401 16.6853 -3.8397 -12.6703
# 2 19.7715 65.4400 -9.4823 2.5410 5.5086 -11.6961
# 3 7.2401 -9.4823 57.6590 -1.8380 -5.3545 -2.2339
# 4 16.6853 2.5410 -1.8380 26.5470 4.5219 2.3105
# 5 -3.8397 5.5086 -5.3545 4.5219 24.5643 2.7647
# 6 -12.6703 -11.6961 -2.2339 2.3105 2.7647 28.4088
#
#
#
# Elastic Compliance Matrix: (Units=1/GPa)
#
#
# Indices 1 2 3 4 5 6 
#
# 1 0.011331 -0.002895 -0.001709 -0.007833 0.003032 0.004069
# 2 -0.002895 0.018227 0.003206 0.000500 -0.004708 0.006883
# 3 -0.001709 0.003206 0.018435 0.001462 0.002579 0.001637
# 4 -0.007833 0.000500 0.001462 0.044624 -0.008560 -0.005969
# 5 0.003032 -0.004708 0.002579 -0.008560 0.044833 -0.004050
# 6 0.004069 0.006883 0.001637 -0.005969 -0.004050 0.040857
#
#
# Mechanical properties :
#
#
# Convention : Reuss Voigt Hill
#
# Bulk Modulus (GPa) = 22.12501 29.96342 26.04421
# Shear Modulus (GPa) = 25.48838 30.37621 27.93229
#
# Velocity S-wave (km/s) = 3.56788 3.89498 3.73501
# Velocity P-wave (km/s) = 5.29367 5.93233 5.62208
#
# Compressibility (1/GPa) = 0.04519772
#
# Stress axis : x y z
#
# Youngs Moduli (GPa) = 88.25661 54.86221 54.24518
#
# Poissons Ratio (x) = 0.15881 0.09272
# Poissons Ratio (y) = 0.25548 -0.17394
# Poissons Ratio (z) = 0.15086 -0.17591
#
# Static dielectric constant tensor:
#      x y z
#    x 1.820560 -0.004770 0.012940 
#    y -0.004770 1.733970 -0.040860 
#    z 0.012940 -0.040860 1.759900 
# 
# From -- ./inp_files/353902.got.cif
#   From: 2010.05.17/outbox.cif.g08.bks.cpg/sg2_177_cif.got.tgz:353902.got - 2010.06.03 11:33:40.
