data_PCOD9097905
_publ_section_title
;
Structure prediction by ZEFSAII (Michael W. Deem and Ramdas Pophale) SiO2 
 PCOD9097905
Probable space group: P -1
;
_chemical_formula_sum "Si O2"
_cell_formula_units_Z 14
_cell_length_a 12.956076
_cell_length_b 7.405062
_cell_length_c 12.161407
_cell_angle_alpha 128.252706
_cell_angle_beta 51.355229
_cell_angle_gamma 97.897363
_cell_volume 653.869923
_symmetry_space_group_name_H-M "P -1"
_symmetry_group_IT_number 2
_symmetry_cell_setting 'triclinic'
loop_
_space_group_symop_operation_xyz
x,y,z
-x,-y,-z
loop_
_atom_site_type_symbol
_atom_site_label
_atom_site_fract_x
_atom_site_fract_y
_atom_site_fract_z
Si Si1 0.587646 0.674862 0.027340
Si Si2 0.891279 0.783458 0.155168
Si Si3 0.834008 0.855673 0.560434
Si Si4 0.653105 0.111101 0.578937
Si Si5 0.699427 0.587252 0.690590
Si Si6 0.113870 0.372170 0.137688
Si Si7 0.985086 0.844719 0.677982
O O1 0.613928 0.745121 0.912201
O O2 0.749737 0.554128 0.920780
O O3 0.500000 0.500000 0.000000
O O4 0.492827 0.865756 0.255943
O O5 0.735157 0.882660 0.356052
O O6 0.874498 0.795072 0.040036
O O7 0.962269 0.959968 0.226394
O O8 0.000000 0.500000 0.000000
O O9 0.762788 0.060409 0.591475
O O10 0.713672 0.759914 0.648749
O O11 0.899963 0.929658 0.652405
O O12 0.964762 0.619343 0.330871
O O13 0.636835 0.374102 0.632771
O O14 0.869867 0.410006 0.534288
O O15 0.108694 0.217996 0.191213
#
# Coordination Sequence:
#
# PCOD9097905 Si02
#       7
#     2   2   2   2   2   2   2
#     4  10  20  37  59  89 122 152 195 242 303 354
#     4  11  23  38  57  89 122 153 201 246 291 351
#     4  11  19  37  67  89 117 149 204 257 288 343
#     4  10  23  36  59  92 121 156 202 237 300 357
#     4   9  18  36  57  90 120 145 191 249 300 337
#     4  11  20  39  64  84 122 159 193 245 300 357
#     4  10  20  36  62  93 111 154 199 246 301 340
#
# _framework density 21.410988
#
# number of rings (size 3 to 8) (size 9 to 14) (size 15 to 20)
#    0.000    1.714    4.286    1.286    0.000    5.714 
#    0.000    0.000    0.000    0.857    0.000    0.000 
#    0.000    0.000    0.000    0.000    0.000    0.000 
#
# Total GULP energy -78104.128226 kJ/mol
# GULP energy per Si atom -5578.866302 kJ/mol
# Density = 2.136226 g / cm^3
# Si number density = 21.410988 Si / 1000 Ang^3
#
#
#
# Elastic Constant Matrix: (Units=GPa)
#
#
# Indices 1 2 3 4 5 6 
#
# 1 54.9074 20.2853 28.0762 -10.9251 19.5856 4.5697
# 2 20.2853 70.5123 32.8854 -15.5508 6.8439 9.8997
# 3 28.0762 32.8854 189.7971 -24.8374 10.7495 10.3354
# 4 -10.9251 -15.5508 -24.8374 32.5325 4.7636 2.7484
# 5 19.5856 6.8439 10.7495 4.7636 40.3003 -6.0805
# 6 4.5697 9.8997 10.3354 2.7484 -6.0805 18.7900
#
#
#
# Elastic Compliance Matrix: (Units=1/GPa)
#
#
# Indices 1 2 3 4 5 6 
#
# 1 0.028611 -0.001932 -0.000747 0.011619 -0.016655 -0.012619
# 2 -0.001932 0.019573 -0.000833 0.009893 -0.005221 -0.012521
# 3 -0.000747 -0.000833 0.006591 0.005144 -0.002553 -0.004583
# 4 0.011619 0.009893 0.005144 0.047924 -0.017937 -0.023682
# 5 -0.016655 -0.005221 -0.002553 -0.017937 0.040192 0.023835
# 6 -0.012619 -0.012521 -0.004583 -0.023682 0.023835 0.076583
#
#
# Mechanical properties :
#
#
# Convention : Reuss Voigt Hill
#
# Bulk Modulus (GPa) = 20.94211 53.07894 37.01053
# Shear Modulus (GPa) = 20.62582 33.92258 27.27420
#
# Velocity S-wave (km/s) = 3.10712 3.98471 3.57296
# Velocity P-wave (km/s) = 4.76178 6.78343 5.86044
#
# Compressibility (1/GPa) = 0.04775067
#
# Stress axis : x y z
#
# Youngs Moduli (GPa) = 34.95168 51.09123 151.72283
#
# Poissons Ratio (x) = 0.09871 0.11328
# Poissons Ratio (y) = 0.06753 0.12644
# Poissons Ratio (z) = 0.02610 0.04258
#
# Static dielectric constant tensor:
#      x y z
#    x 1.797530 0.025040 -0.003550 
#    y 0.025040 1.803360 -0.009810 
#    z -0.003550 -0.009810 1.843250 
# 
# From -- ./inp_files/190761.got.cif
#   From: 2010.05.17/outbox.cif.g08.bks.cpg/sg2_96_cif.got.tgz:190761.got - 2010.06.03 11:33:40.
