data_PCOD9097301
_publ_section_title
;
Structure prediction by ZEFSAII (Michael W. Deem and Ramdas Pophale) SiO2 
 PCOD9097301
Probable space group: P -1
;
_chemical_formula_sum "Si O2"
_cell_formula_units_Z 16
_cell_length_a 11.424697
_cell_length_b 18.773903
_cell_length_c 11.226273
_cell_angle_alpha 136.428026
_cell_angle_beta 66.901193
_cell_angle_gamma 144.846969
_cell_volume 825.277799
_symmetry_space_group_name_H-M "P -1"
_symmetry_group_IT_number 2
_symmetry_cell_setting 'triclinic'
loop_
_space_group_symop_operation_xyz
x,y,z
-x,-y,-z
loop_
_atom_site_type_symbol
_atom_site_label
_atom_site_fract_x
_atom_site_fract_y
_atom_site_fract_z
Si Si1 0.875521 0.939498 0.773504
Si Si2 0.614911 0.439540 0.361639
Si Si3 0.390166 0.517111 0.144113
Si Si4 0.807685 0.030938 0.411395
Si Si5 0.987250 0.375905 0.707290
Si Si6 0.727538 0.402659 0.893963
Si Si7 0.187547 0.044221 0.435217
Si Si8 0.278944 0.328289 0.204435
O O1 0.616955 0.750401 0.702176
O O2 0.861527 0.005855 0.744485
O O3 0.992289 0.912441 0.646085
O O4 0.052653 0.104443 0.000320
O O5 0.509155 0.419121 0.258810
O O6 0.743319 0.611335 0.601291
O O7 0.805275 0.485173 0.304902
O O8 0.234012 0.475905 0.064561
O O9 0.571379 0.728654 0.371662
O O10 0.307894 0.409388 0.168393
O O11 0.500000 0.500000 0.000000
O O12 0.850684 0.173101 0.512650
O O13 0.551013 0.804138 0.215526
O O14 0.821187 0.047833 0.570955
O O15 0.816182 0.356475 0.743857
O O16 0.122162 0.476305 0.901117
O O17 0.000000 0.000000 0.500000
#
# Coordination Sequence:
#
# PCOD9097301 Si02
#       8
#     2   2   2   2   2   2   2   2
#     4  11  21  36  57  92 121 150 194 245 297 343
#     4  11  23  38  56  86 125 156 197 230 297 359
#     4  11  20  35  60  88 119 146 191 250 295 342
#     4  10  20  36  60  86 119 151 192 248 294 337
#     4  11  23  40  62  82 118 164 191 240 287 354
#     4  10  24  40  59  91 114 150 204 240 291 345
#     4   9  19  31  52  90 119 145 185 243 295 339
#     4  11  22  35  58  89 117 157 190 244 295 347
#
# _framework density 19.387412000000001
#
# number of rings (size 3 to 8) (size 9 to 14) (size 15 to 20)
#    0.000    1.500    1.250    6.000    7.000    1.000 
#    0.000    0.625    0.000    0.750    0.000    0.000 
#    0.000    0.000    0.000    0.000    0.000    0.000 
#
# Total GULP energy -89268.654416 kJ/mol
# GULP energy per Si atom -5579.290901 kJ/mol
# Density = 1.934329 g / cm^3
# Si number density = 19.387412 Si / 1000 Ang^3
#
#
#
# Elastic Constant Matrix: (Units=GPa)
#
#
# Indices 1 2 3 4 5 6 
#
# 1 79.6229 40.2431 6.8725 -9.2999 -0.5572 -13.0393
# 2 40.2431 104.8189 16.3133 -1.1958 -5.8789 -8.5572
# 3 6.8725 16.3133 91.0532 -5.5674 10.6667 -10.8071
# 4 -9.2999 -1.1958 -5.5674 17.6058 -0.1119 -3.7668
# 5 -0.5572 -5.8789 10.6667 -0.1119 25.0841 -3.9638
# 6 -13.0393 -8.5572 -10.8071 -3.7668 -3.9638 27.8880
#
#
#
# Elastic Compliance Matrix: (Units=1/GPa)
#
#
# Indices 1 2 3 4 5 6 
#
# 1 0.018531 -0.006526 0.001573 0.011725 -0.000343 0.008806
# 2 -0.006526 0.012595 -0.002419 -0.003339 0.003816 -0.000033
# 3 0.001573 -0.002419 0.012852 0.005771 -0.005179 0.005017
# 4 0.011725 -0.003339 0.005771 0.067982 -0.000168 0.015852
# 5 -0.000343 0.003816 -0.005179 -0.000168 0.043776 0.005203
# 6 0.008806 -0.000033 0.005017 0.015852 0.005203 0.044790
#
#
# Mechanical properties :
#
#
# Convention : Reuss Voigt Hill
#
# Bulk Modulus (GPa) = 34.20642 44.70585 39.45613
# Shear Modulus (GPa) = 22.22067 28.25332 25.23700
#
# Velocity S-wave (km/s) = 3.38914 3.82160 3.61185
# Velocity P-wave (km/s) = 5.74430 6.52550 6.14732
#
# Compressibility (1/GPa) = 0.02923428
#
# Stress axis : x y z
#
# Youngs Moduli (GPa) = 53.96372 79.39346 77.80705
#
# Poissons Ratio (x) = 0.51811 -0.12237
# Poissons Ratio (y) = 0.35216 0.18822
# Poissons Ratio (z) = -0.08487 0.19206
#
# Static dielectric constant tensor:
#      x y z
#    x 1.688980 -0.023860 0.009550 
#    y -0.023860 1.706790 0.002570 
#    z 0.009550 0.002570 1.702030 
# 
# From -- ./inp_files/438469.got.cif
#   From: 2010.05.17/outbox.cif.g08.bks.cpg/sg2_220_cif.got.tgz:438469.got - 2010.06.03 11:33:40.
