data_PCOD9097951
_publ_section_title
;
Structure prediction by ZEFSAII (Michael W. Deem and Ramdas Pophale) SiO2 
 PCOD9097951
Probable space group: P -1
;
_chemical_formula_sum "Si O2"
_cell_formula_units_Z 14
_cell_length_a 5.232711
_cell_length_b 11.127945
_cell_length_c 13.580847
_cell_angle_alpha 85.523268
_cell_angle_beta 75.630877
_cell_angle_gamma 123.058308
_cell_volume 619.469987
_symmetry_space_group_name_H-M "P -1"
_symmetry_group_IT_number 2
_symmetry_cell_setting 'triclinic'
loop_
_space_group_symop_operation_xyz
x,y,z
-x,-y,-z
loop_
_atom_site_type_symbol
_atom_site_label
_atom_site_fract_x
_atom_site_fract_y
_atom_site_fract_z
Si Si1 0.855727 0.825988 0.248561
Si Si2 0.387597 0.602793 0.965614
Si Si3 0.877355 0.004243 0.403240
Si Si4 0.760635 0.240287 0.421781
Si Si5 0.672723 0.398408 0.250980
Si Si6 0.374445 0.517637 0.408745
Si Si7 0.316695 0.728847 0.148730
O O1 0.006644 0.963600 0.300471
O O2 0.590187 0.688901 0.351765
O O3 0.624053 0.815342 0.186112
O O4 0.107278 0.795167 0.181014
O O5 0.473533 0.651749 0.841089
O O6 0.500000 0.500000 0.000000
O O7 0.458407 0.727821 0.028696
O O8 0.000000 0.500000 0.000000
O O9 0.494915 0.872887 0.464741
O O10 0.920363 0.157791 0.378487
O O11 0.000000 0.000000 0.500000
O O12 0.640254 0.274323 0.332398
O O13 0.988933 0.400453 0.441832
O O14 0.489094 0.457453 0.316627
O O15 0.052649 0.548953 0.205389
O O16 0.500000 0.500000 0.500000
#
# Coordination Sequence:
#
# PCOD9097951 Si02
#       7
#     2   2   2   2   2   2   2
#     4  11  23  39  64  89 130 163 207 262 320 373
#     4  10  20  36  62  94 133 163 202 257 324 387
#     4  11  26  42  59  87 124 176 223 256 311 386
#     4  11  23  40  62  87 125 169 219 259 317 379
#     4  10  21  35  60  92 128 162 203 259 322 378
#     4  11  22  36  59  94 127 159 207 265 323 378
#     4  10  21  38  60  96 124 162 205 260 321 375
#
# _framework density 22.599964
#
# number of rings (size 3 to 8) (size 9 to 14) (size 15 to 20)
#    0.000    1.429    1.429    5.143   10.000    1.143 
#    0.000    0.000    0.000    1.714    0.000    0.000 
#    0.000    0.000    0.000    0.000    0.000    0.000 
#
# Total GULP energy -78112.784825 kJ/mol
# GULP energy per Si atom -5579.484630 kJ/mol
# Density = 2.254853 g / cm^3
# Si number density = 22.599964 Si / 1000 Ang^3
#
#
#
# Elastic Constant Matrix: (Units=GPa)
#
#
# Indices 1 2 3 4 5 6 
#
# 1 114.7469 29.7972 19.0973 19.8960 10.1460 -16.6102
# 2 29.7972 94.3391 35.7125 31.8121 -0.5406 -25.6685
# 3 19.0973 35.7125 107.7137 39.8417 2.8528 -6.1821
# 4 19.8960 31.8121 39.8417 45.2617 -2.5028 -4.1935
# 5 10.1460 -0.5406 2.8528 -2.5028 35.8268 5.9866
# 6 -16.6102 -25.6685 -6.1821 -4.1935 5.9866 34.9340
#
#
#
# Elastic Compliance Matrix: (Units=1/GPa)
#
#
# Indices 1 2 3 4 5 6 
#
# 1 0.010647 -0.000809 0.000304 -0.004169 -0.004133 0.004730
# 2 -0.000809 0.017942 -0.001342 -0.010103 -0.002054 0.011701
# 3 0.000304 -0.001342 0.014072 -0.011638 -0.002143 0.000618
# 4 -0.004169 -0.010103 -0.011638 0.040904 0.006082 -0.007598
# 5 -0.004133 -0.002054 -0.002143 0.006082 0.031059 -0.008446
# 6 0.004730 0.011701 0.000618 -0.007598 -0.008446 0.040117
#
#
# Mechanical properties :
#
#
# Convention : Reuss Voigt Hill
#
# Bulk Modulus (GPa) = 25.66283 54.00151 39.83217
# Shear Modulus (GPa) = 29.16714 38.68400 33.92557
#
# Velocity S-wave (km/s) = 3.59637 4.14174 3.87865
# Velocity P-wave (km/s) = 5.35024 6.84240 6.14180
#
# Compressibility (1/GPa) = 0.03896686
#
# Stress axis : x y z
#
# Youngs Moduli (GPa) = 93.91965 55.73377 71.06215
#
# Poissons Ratio (x) = 0.04507 -0.02157
# Poissons Ratio (y) = 0.07595 0.09540
# Poissons Ratio (z) = -0.02851 0.07482
#
# Static dielectric constant tensor:
#      x y z
#    x 1.893180 0.065050 -0.051700 
#    y 0.065050 1.837910 0.035340 
#    z -0.051700 0.035340 1.850610 
# 
# From -- ./inp_files/48248.got.cif
#   From: 2010.05.17/outbox.cif.g08.bks.cpg/sg2_25_cif.got.tgz:48248.got - 2010.06.03 11:33:40.
