data_PCOD9097653
_publ_section_title
;
Structure prediction by ZEFSAII (Michael W. Deem and Ramdas Pophale) SiO2 
 PCOD9097653
Probable space group: P -1
;
_chemical_formula_sum "Si O2"
_cell_formula_units_Z 16
_cell_length_a 9.988984
_cell_length_b 12.611817
_cell_length_c 8.332408
_cell_angle_alpha 85.240590
_cell_angle_beta 86.298476
_cell_angle_gamma 38.438861
_cell_volume 650.332772
_symmetry_space_group_name_H-M "P -1"
_symmetry_group_IT_number 2
_symmetry_cell_setting 'triclinic'
loop_
_space_group_symop_operation_xyz
x,y,z
-x,-y,-z
loop_
_atom_site_type_symbol
_atom_site_label
_atom_site_fract_x
_atom_site_fract_y
_atom_site_fract_z
Si Si1 0.672546 0.978989 0.424850
Si Si2 0.863536 0.523561 0.637319
Si Si3 0.956671 0.649334 0.035608
Si Si4 0.577096 0.834376 0.865161
Si Si5 0.879256 0.237977 0.957100
Si Si6 0.742279 0.161286 0.537185
Si Si7 0.312369 0.846379 0.081247
Si Si8 0.160931 0.678870 0.425850
O O1 0.631470 0.998091 0.234966
O O2 0.646027 0.120412 0.455242
O O3 0.500000 0.000000 0.500000
O O4 0.915937 0.808702 0.489244
O O5 0.715951 0.692318 0.731934
O O6 0.000000 0.500000 0.500000
O O7 0.030539 0.370387 0.772108
O O8 0.740339 0.499630 0.572474
O O9 0.122466 0.642353 0.985212
O O10 0.735299 0.817325 0.942990
O O11 0.000000 0.500000 0.000000
O O12 0.510141 0.790586 0.008091
O O13 0.697882 0.261339 0.995435
O O14 0.873389 0.256332 0.761796
O O15 0.096577 0.045057 0.024047
O O16 0.689664 0.167985 0.726201
O O17 0.711635 0.307443 0.494201
O O18 0.000000 0.000000 0.500000
#
# Coordination Sequence:
#
# PCOD9097653 Si02
#       8
#     2   2   2   2   2   2   2   2
#     4  11  22  36  57  92 121 152 198 260 301 344
#     4  10  21  41  63  85 123 165 198 246 311 365
#     4   9  21  40  59  85 122 163 203 239 302 374
#     4  11  23  38  60  94 120 154 209 253 291 355
#     4   9  18  35  61  82 120 158 192 239 310 353
#     4   9  21  38  58  85 124 156 196 239 309 367
#     4  10  20  36  61  92 116 156 200 253 296 358
#     4   9  18  40  60  82 118 163 196 238 300 370
#
# _framework density 24.602791
#
# number of rings (size 3 to 8) (size 9 to 14) (size 15 to 20)
#    0.000    2.250    1.250    0.750    3.500    3.500 
#    2.250   10.625    0.000    0.000    0.000    0.000 
#    0.000    0.000    0.000    0.000    0.000    0.000 
#
# Total GULP energy -89240.200249 kJ/mol
# GULP energy per Si atom -5577.512516 kJ/mol
# Density = 2.454679 g / cm^3
# Si number density = 24.602791 Si / 1000 Ang^3
#
#
#
# Elastic Constant Matrix: (Units=GPa)
#
#
# Indices 1 2 3 4 5 6 
#
# 1 193.3830 23.7316 39.3838 10.6892 10.8141 29.2485
# 2 23.7316 83.1909 -2.8994 4.1920 6.1053 18.6094
# 3 39.3838 -2.8994 56.9344 10.7237 -7.8632 4.3536
# 4 10.6892 4.1920 10.7237 25.7717 -2.6422 2.1043
# 5 10.8141 6.1053 -7.8632 -2.6422 41.2895 6.3814
# 6 29.2485 18.6094 4.3536 2.1043 6.3814 46.4827
#
#
#
# Elastic Compliance Matrix: (Units=1/GPa)
#
#
# Indices 1 2 3 4 5 6 
#
# 1 0.006920 -0.001265 -0.004786 -0.000637 -0.002101 -0.003082
# 2 -0.001265 0.013678 0.002276 -0.002334 -0.000682 -0.004694
# 3 -0.004786 0.002276 0.023104 -0.007464 0.004901 -0.000399
# 4 -0.000637 -0.002334 -0.007464 0.042754 0.001850 -0.000155
# 5 -0.002101 -0.000682 0.004901 0.001850 0.026318 -0.002561
# 6 -0.003082 -0.004694 -0.000399 -0.000155 -0.002561 0.025728
#
#
# Mechanical properties :
#
#
# Convention : Reuss Voigt Hill
#
# Bulk Modulus (GPa) = 27.66063 50.43781 39.04922
# Shear Modulus (GPa) = 31.62516 40.92828 36.27672
#
# Velocity S-wave (km/s) = 3.58918 4.08310 3.84408
# Velocity P-wave (km/s) = 5.33325 6.54021 5.96732
#
# Compressibility (1/GPa) = 0.03615246
#
# Stress axis : x y z
#
# Youngs Moduli (GPa) = 144.51216 73.10789 43.28331
#
# Poissons Ratio (x) = 0.09248 0.20714
# Poissons Ratio (y) = 0.18281 -0.09851
# Poissons Ratio (z) = 0.69159 -0.16640
#
# Static dielectric constant tensor:
#      x y z
#    x 1.978550 0.017460 0.040290 
#    y 0.017460 2.091260 -0.011280 
#    z 0.040290 -0.011280 1.911850 
# 
# From -- ./inp_files/186638.got.cif
#   From: 2010.05.17/outbox.cif.g08.bks.cpg/sg2_94_cif.got.tgz:186638.got - 2010.06.03 11:33:40.
