data_PCOD9097450
_publ_section_title
;
Structure prediction by ZEFSAII (Michael W. Deem and Ramdas Pophale) SiO2 
 PCOD9097450
Probable space group: P -1
;
_chemical_formula_sum "Si O2"
_cell_formula_units_Z 16
_cell_length_a 14.163338
_cell_length_b 24.101438
_cell_length_c 14.592606
_cell_angle_alpha 20.922220
_cell_angle_beta 157.780324
_cell_angle_gamma 156.245217
_cell_volume 623.718724
_symmetry_space_group_name_H-M "P -1"
_symmetry_group_IT_number 2
_symmetry_cell_setting 'triclinic'
loop_
_space_group_symop_operation_xyz
x,y,z
-x,-y,-z
loop_
_atom_site_type_symbol
_atom_site_label
_atom_site_fract_x
_atom_site_fract_y
_atom_site_fract_z
Si Si1 0.805990 0.088081 0.603476
Si Si2 0.707325 0.496449 0.273527
Si Si3 0.020173 0.837896 0.103693
Si Si4 0.436154 0.972372 0.714204
Si Si5 0.753194 0.721287 0.693001
Si Si6 0.615017 0.362202 0.838306
Si Si7 0.883502 0.446151 0.132129
Si Si8 0.978940 0.022392 0.314983
O O1 0.771550 0.103312 0.438714
O O2 0.500000 0.000000 0.500000
O O3 0.951042 0.954495 0.935310
O O4 0.938955 0.278627 0.466865
O O5 0.532508 0.339442 0.419604
O O6 0.000000 0.500000 0.500000
O O7 0.500000 0.500000 0.000000
O O8 0.789170 0.658378 0.163266
O O9 0.049345 0.904123 0.921960
O O10 0.327706 0.857531 0.367167
O O11 0.264443 0.997152 0.603971
O O12 0.550645 0.825616 0.052988
O O13 0.816042 0.558254 0.973868
O O14 0.978514 0.837769 0.785667
O O15 0.767861 0.842920 0.433139
O O16 0.500000 0.500000 0.500000
O O17 0.642252 0.369893 0.960466
O O18 0.886961 0.424417 0.925954
#
# Coordination Sequence:
#
# PCOD9097450 Si02
#       8
#     2   2   2   2   2   2   2   2
#     4  10  22  40  64  94 131 182 231 289 348 426
#     4  12  27  51  74 105 148 193 239 295 363 432
#     4  11  23  42  72  96 140 186 230 294 362 428
#     4  10  21  39  65  95 131 177 226 285 357 428
#     4  11  22  44  69 101 137 180 240 295 352 435
#     4  10  20  36  60  92 131 169 219 278 357 412
#     4  10  21  39  62  93 132 173 224 288 344 418
#     4  10  22  42  66 100 136 177 230 290 364 420
#
# _framework density 25.652588000000002
#
# number of rings (size 3 to 8) (size 9 to 14) (size 15 to 20)
#    0.000    1.500    2.500    2.250    5.250    0.500 
#    4.500    1.875    0.000    0.000    0.000    0.000 
#    0.000    0.000    0.000    0.000    0.000    0.000 
#
# Total GULP energy -89395.265773 kJ/mol
# GULP energy per Si atom -5587.204111 kJ/mol
# Density = 2.559420 g / cm^3
# Si number density = 25.652588 Si / 1000 Ang^3
#
#
#
# Elastic Constant Matrix: (Units=GPa)
#
#
# Indices 1 2 3 4 5 6 
#
# 1 100.1278 32.7863 28.5391 -11.5658 23.5854 0.8510
# 2 32.7863 132.7386 26.3691 -21.2477 17.1218 10.4065
# 3 28.5391 26.3691 78.2426 -9.7106 20.9770 -10.3896
# 4 -11.5658 -21.2477 -9.7106 41.2686 2.4469 11.3583
# 5 23.5854 17.1218 20.9770 2.4469 39.0705 -5.7130
# 6 0.8510 10.4065 -10.3896 11.3583 -5.7130 57.4632
#
#
#
# Elastic Compliance Matrix: (Units=1/GPa)
#
#
# Indices 1 2 3 4 5 6 
#
# 1 0.012996 -0.001239 -0.002407 0.003288 -0.006464 -0.001696
# 2 -0.001239 0.009769 -0.001695 0.005447 -0.003473 -0.003479
# 3 -0.002407 -0.001695 0.016529 0.002101 -0.006478 0.002272
# 4 0.003288 0.005447 0.002101 0.031064 -0.008563 -0.007647
# 5 -0.006464 -0.003473 -0.006478 -0.008563 0.035735 0.004799
# 6 -0.001696 -0.003479 0.002272 -0.007647 0.004799 0.020457
#
#
# Mechanical properties :
#
#
# Convention : Reuss Voigt Hill
#
# Bulk Modulus (GPa) = 34.95050 54.05534 44.50292
# Shear Modulus (GPa) = 34.06712 42.45476 38.26094
#
# Velocity S-wave (km/s) = 3.64815 4.07257 3.86619
# Velocity P-wave (km/s) = 5.60352 6.57512 6.10867
#
# Compressibility (1/GPa) = 0.02861190
#
# Stress axis : x y z
#
# Youngs Moduli (GPa) = 76.94881 102.36416 60.49897
#
# Poissons Ratio (x) = 0.12681 0.14561
# Poissons Ratio (y) = 0.09532 0.10257
# Poissons Ratio (z) = 0.18521 0.17354
#
# Static dielectric constant tensor:
#      x y z
#    x 2.059090 -0.010990 -0.089930 
#    y -0.010990 2.117960 0.039340 
#    z -0.089930 0.039340 2.258660 
# 
# From -- ./inp_files/574526.got.cif
#   From: 2010.05.17/outbox.cif.g08.bks.cpg/sg2_288_cif.got.tgz:574526.got - 2010.06.03 11:33:40.
