data_PCOD9097822
_publ_section_title
;
Structure prediction by ZEFSAII (Michael W. Deem and Ramdas Pophale) SiO2 
 PCOD9097822
Probable space group: P -1
;
_chemical_formula_sum "Si O2"
_cell_formula_units_Z 12
_cell_length_a 8.118196
_cell_length_b 11.508797
_cell_length_c 11.262630
_cell_angle_alpha 145.360984
_cell_angle_beta 60.608223
_cell_angle_gamma 131.530943
_cell_volume 444.030975
_symmetry_space_group_name_H-M "P -1"
_symmetry_group_IT_number 2
_symmetry_cell_setting 'triclinic'
loop_
_space_group_symop_operation_xyz
x,y,z
-x,-y,-z
loop_
_atom_site_type_symbol
_atom_site_label
_atom_site_fract_x
_atom_site_fract_y
_atom_site_fract_z
Si Si1 0.760806 0.237667 0.600189
Si Si2 0.653349 0.953582 0.017710
Si Si3 0.779530 0.519138 0.238924
Si Si4 0.120705 0.151673 0.329340
Si Si5 0.739680 0.400875 0.501706
Si Si6 0.474880 0.664050 0.052377
O O1 0.682087 0.343397 0.611637
O O2 0.584880 0.164892 0.706894
O O3 0.868262 0.086776 0.384056
O O4 0.990233 0.434013 0.751603
O O5 0.837948 0.023866 0.910992
O O6 0.417467 0.744263 0.875129
O O7 0.667611 0.814667 0.013623
O O8 0.637367 0.162509 0.260603
O O9 0.734657 0.506710 0.104527
O O10 0.770257 0.740280 0.489428
O O11 0.254642 0.388286 0.396673
O O12 0.000000 0.500000 0.500000
O O13 0.500000 0.500000 0.000000
#
# Coordination Sequence:
#
# PCOD9097822 Si02
#       6
#     2   2   2   2   2   2
#     4   9  19  36  58  85 122 158 194 249 301 351
#     4  10  21  36  63  91 118 165 201 244 305 364
#     4   8  20  35  61  89 119 161 197 251 299 363
#     4   9  19  38  60  89 123 155 198 252 303 355
#     4  10  21  37  60  91 123 159 201 252 301 361
#     4  10  20  36  62  89 121 162 201 247 304 362
#
# _framework density 27.025141999999999
#
# number of rings (size 3 to 8) (size 9 to 14) (size 15 to 20)
#    2.000    0.667    0.000    2.000    0.000    4.000 
#    0.000    0.000    0.000    1.000    0.000    0.000 
#    0.000    0.000    0.000    0.000    0.000    0.000 
#
# Total GULP energy -66873.331879 kJ/mol
# GULP energy per Si atom -5572.777657 kJ/mol
# Density = 2.696363 g / cm^3
# Si number density = 27.025142 Si / 1000 Ang^3
#
#
#
# Elastic Constant Matrix: (Units=GPa)
#
#
# Indices 1 2 3 4 5 6 
#
# 1 76.1637 33.9816 37.5627 -12.6342 6.7027 -12.3965
# 2 33.9816 78.6705 44.1865 -27.5730 -3.0252 -0.3334
# 3 37.5627 44.1865 146.1833 -59.6559 -10.2963 -7.1139
# 4 -12.6342 -27.5730 -59.6559 59.5239 -6.8519 2.8476
# 5 6.7027 -3.0252 -10.2963 -6.8519 46.3126 -14.0167
# 6 -12.3965 -0.3334 -7.1139 2.8476 -14.0167 60.0532
#
#
#
# Elastic Compliance Matrix: (Units=1/GPa)
#
#
# Indices 1 2 3 4 5 6 
#
# 1 0.018661 -0.007214 -0.004697 -0.004686 -0.004150 0.002509
# 2 -0.007214 0.018785 -0.001057 0.006472 0.002629 -0.001203
# 3 -0.004697 -0.001057 0.014464 0.013662 0.006322 0.001566
# 4 -0.004686 0.006472 0.013662 0.033526 0.009496 0.001314
# 5 -0.004150 0.002629 0.006322 0.009496 0.026912 0.005738
# 6 0.002509 -0.001203 0.001566 0.001314 0.005738 0.018626
#
#
# Mechanical properties :
#
#
# Convention : Reuss Voigt Hill
#
# Bulk Modulus (GPa) = 38.49886 59.16434 48.83160
# Shear Modulus (GPa) = 30.19926 45.53039 37.86482
#
# Velocity S-wave (km/s) = 3.34646 4.10901 3.74718
# Velocity P-wave (km/s) = 5.40446 6.66722 6.06877
#
# Compressibility (1/GPa) = 0.02597480
#
# Stress axis : x y z
#
# Youngs Moduli (GPa) = 53.58790 53.23390 69.13689
#
# Poissons Ratio (x) = 0.38401 0.32474
# Poissons Ratio (y) = 0.38657 0.07307
# Poissons Ratio (z) = 0.25171 0.05626
#
# Static dielectric constant tensor:
#      x y z
#    x 2.206470 -0.013270 -0.014060 
#    y -0.013270 2.131730 0.073010 
#    z -0.014060 0.073010 2.170020 
# 
# From -- ./inp_files/430592.got.cif
#   From: 2010.05.17/outbox.cif.g08.bks.cpg/sg2_216_cif.got.tgz:430592.got - 2010.06.03 11:33:40.
