data_PCOD9097046
_publ_section_title
;
Structure prediction by ZEFSAII (Michael W. Deem and Ramdas Pophale) SiO2 
 PCOD9097046
Probable space group: P -1
;
_chemical_formula_sum "Si O2"
_cell_formula_units_Z 16
_cell_length_a 8.434143
_cell_length_b 9.692961
_cell_length_c 21.224453
_cell_angle_alpha 152.726945
_cell_angle_beta 118.376257
_cell_angle_gamma 65.829896
_cell_volume 699.198150
_symmetry_space_group_name_H-M "P -1"
_symmetry_group_IT_number 2
_symmetry_cell_setting 'triclinic'
loop_
_space_group_symop_operation_xyz
x,y,z
-x,-y,-z
loop_
_atom_site_type_symbol
_atom_site_label
_atom_site_fract_x
_atom_site_fract_y
_atom_site_fract_z
Si Si1 0.428102 0.267756 0.840583
Si Si2 0.877180 0.239967 0.539310
Si Si3 0.551130 0.805861 0.317865
Si Si4 0.915207 0.814213 0.060077
Si Si5 0.958088 0.760998 0.191176
Si Si6 0.746780 0.727539 0.545557
Si Si7 0.768288 0.427275 0.303593
Si Si8 0.282933 0.202434 0.286130
O O1 0.499988 0.374256 0.828289
O O2 0.211906 0.259870 0.804079
O O3 0.529938 0.960172 0.750844
O O4 0.500000 0.500000 0.000000
O O5 0.773047 0.533336 0.664533
O O6 0.032755 0.410228 0.597402
O O7 0.704675 0.028402 0.406239
O O8 0.000000 0.000000 0.500000
O O9 0.633290 0.614239 0.311263
O O10 0.397039 0.022502 0.398592
O O11 0.887752 0.731098 0.094219
O O12 0.788477 0.098044 0.143714
O O13 0.120999 0.951776 0.150382
O O14 0.909909 0.523727 0.896004
O O15 0.065098 0.079541 0.345961
O O16 0.727615 0.459325 0.383002
O O17 0.716733 0.661254 0.586946
#
# Coordination Sequence:
#
# PCOD9097046 Si02
#       8
#     2   2   2   2   2   2   2   2
#     4  11  21  36  61  83 111 150 192 238 283 335
#     4   9  19  36  59  83 120 148 182 234 293 334
#     4  10  22  37  57  84 119 148 189 239 285 341
#     4   9  19  35  58  82 117 149 190 237 283 341
#     4  10  20  36  59  85 113 150 192 238 289 333
#     4  10  21  35  60  86 116 151 192 237 282 340
#     4  10  20  38  59  83 115 155 190 234 290 341
#     4   9  19  35  58  89 113 146 196 236 281 341
#
# _framework density 22.883355999999999
#
# number of rings (size 3 to 8) (size 9 to 14) (size 15 to 20)
#    0.000    2.250    1.250    1.125    1.750    8.500 
#    0.000    1.250    5.500    0.000    0.000    0.000 
#    0.000    0.000    0.000    0.000    0.000    0.000 
#
# Total GULP energy -89164.147584 kJ/mol
# GULP energy per Si atom -5572.759224 kJ/mol
# Density = 2.283127 g / cm^3
# Si number density = 22.883356 Si / 1000 Ang^3
#
#
#
# Elastic Constant Matrix: (Units=GPa)
#
#
# Indices 1 2 3 4 5 6 
#
# 1 60.5790 16.3958 19.0686 7.0429 -16.8624 -9.9180
# 2 16.3958 91.2793 26.3649 30.0589 -15.5002 -28.5310
# 3 19.0686 26.3649 68.1355 10.6812 -15.8749 4.1653
# 4 7.0429 30.0589 10.6812 30.6383 -8.2953 -3.6518
# 5 -16.8624 -15.5002 -15.8749 -8.2953 30.7942 10.1185
# 6 -9.9180 -28.5310 4.1653 -3.6518 10.1185 29.5873
#
#
#
# Elastic Compliance Matrix: (Units=1/GPa)
#
#
# Indices 1 2 3 4 5 6 
#
# 1 0.020880 0.001522 -0.004897 -0.001909 0.007019 0.006521
# 2 0.001522 0.030818 -0.011969 -0.024503 -0.006666 0.031169
# 3 -0.004897 -0.011969 0.023720 0.005344 0.011462 -0.019782
# 4 -0.001909 -0.024503 0.005344 0.055777 0.011672 -0.022127
# 5 0.007019 -0.006666 0.011462 0.011672 0.048906 -0.020974
# 6 0.006521 0.031169 -0.019782 -0.022127 -0.020974 0.073267
#
#
# Mechanical properties :
#
#
# Convention : Reuss Voigt Hill
#
# Bulk Modulus (GPa) = 22.35495 38.18360 30.26927
# Shear Modulus (GPa) = 16.72439 28.74825 22.73632
#
# Velocity S-wave (km/s) = 2.70636 3.54827 3.15552
# Velocity P-wave (km/s) = 4.42224 5.78873 5.15100
#
# Compressibility (1/GPa) = 0.04473282
#
# Stress axis : x y z
#
# Youngs Moduli (GPa) = 47.89311 32.44845 42.15767
#
# Poissons Ratio (x) = -0.04940 0.20644
# Poissons Ratio (y) = -0.07292 0.50456
# Poissons Ratio (z) = 0.23452 0.38836
#
# Static dielectric constant tensor:
#      x y z
#    x 1.902220 -0.018470 0.026310 
#    y -0.018470 1.887620 0.027390 
#    z 0.026310 0.027390 1.966310 
# 
# From -- ./inp_files/263178.got.cif
#   From: 2010.05.17/outbox.cif.g08.bks.cpg/sg2_132_cif.got.tgz:263178.got - 2010.06.03 11:33:40.
