data_PCOD9097205
_publ_section_title
;
Structure prediction by ZEFSAII (Michael W. Deem and Ramdas Pophale) SiO2 
 PCOD9097205
Probable space group: P -1
;
_chemical_formula_sum "Si O2"
_cell_formula_units_Z 16
_cell_length_a 8.083008
_cell_length_b 10.115147
_cell_length_c 7.545463
_cell_angle_alpha 79.687949
_cell_angle_beta 85.411221
_cell_angle_gamma 91.659578
_cell_volume 604.423199
_symmetry_space_group_name_H-M "P -1"
_symmetry_group_IT_number 2
_symmetry_cell_setting 'triclinic'
loop_
_space_group_symop_operation_xyz
x,y,z
-x,-y,-z
loop_
_atom_site_type_symbol
_atom_site_label
_atom_site_fract_x
_atom_site_fract_y
_atom_site_fract_z
Si Si1 0.382109 0.238219 0.648857
Si Si2 0.058563 0.352712 0.981824
Si Si3 0.823665 0.542145 0.423956
Si Si4 0.139053 0.119492 0.448658
Si Si5 0.829715 0.246991 0.447844
Si Si6 0.430790 0.350201 0.005649
Si Si7 0.725515 0.165925 0.117544
Si Si8 0.317716 0.933990 0.232159
O O1 0.325100 0.370007 0.504900
O O2 0.226497 0.143527 0.622542
O O3 0.434964 0.313278 0.806470
O O4 0.519352 0.123413 0.676612
O O5 0.115116 0.368187 0.769480
O O6 0.234997 0.332456 0.068094
O O7 0.901644 0.247903 0.040990
O O8 0.000000 0.500000 0.000000
O O9 0.754758 0.392956 0.408864
O O10 0.000000 0.500000 0.500000
O O11 0.025452 0.245993 0.390592
O O12 0.263199 0.069095 0.299783
O O13 0.000000 0.000000 0.500000
O O14 0.808531 0.186289 0.659658
O O15 0.744529 0.149276 0.331072
O O16 0.563677 0.253996 0.099407
O O17 0.500000 0.500000 0.000000
O O18 0.693612 0.061167 0.981961
#
# Coordination Sequence:
#
# PCOD9097205 Si02
#       8
#     2   2   2   2   2   2   2   2
#     4  10  21  39  66  92 128 175 209 269 333 380
#     4  11  20  35  61  85 130 181 197 253 337 381
#     4  11  20  35  60  95 129 156 216 259 319 402
#     4  10  22  41  66  91 124 174 224 267 311 384
#     4  11  22  41  63  98 131 163 216 272 316 393
#     4  10  20  36  59  93 130 167 212 258 316 401
#     4  11  22  41  62  95 130 168 218 266 320 388
#     4  10  24  42  67  89 130 176 216 264 326 374
#
# _framework density 26.471519000000001
#
# number of rings (size 3 to 8) (size 9 to 14) (size 15 to 20)
#    0.000    1.500    3.750    1.875    5.250    1.000 
#    4.500    0.000    0.000    6.750    0.000    0.000 
#    0.000    0.000    0.000    0.000    0.000    0.000 
#
# Total GULP energy -89124.721484 kJ/mol
# GULP energy per Si atom -5570.295093 kJ/mol
# Density = 2.641127 g / cm^3
# Si number density = 26.471519 Si / 1000 Ang^3
#
#
#
# Elastic Constant Matrix: (Units=GPa)
#
#
# Indices 1 2 3 4 5 6 
#
# 1 171.0257 41.0911 36.3693 2.2242 38.0581 -25.7416
# 2 41.0911 117.8439 16.2937 15.2316 7.4949 -15.9950
# 3 36.3693 16.2937 101.7051 10.9724 23.9520 2.5349
# 4 2.2242 15.2316 10.9724 32.9884 3.6835 4.1358
# 5 38.0581 7.4949 23.9520 3.6835 50.1849 -9.1785
# 6 -25.7416 -15.9950 2.5349 4.1358 -9.1785 54.8883
#
#
#
# Elastic Compliance Matrix: (Units=1/GPa)
#
#
# Indices 1 2 3 4 5 6 
#
# 1 0.008093 -0.002131 -0.001637 0.001209 -0.004692 0.002374
# 2 -0.002131 0.010219 -0.000718 -0.004800 0.001257 0.002584
# 3 -0.001637 -0.000718 0.011950 -0.002766 -0.004532 -0.002078
# 4 0.001209 -0.004800 -0.002766 0.034049 -0.002039 -0.003611
# 5 -0.004692 0.001257 -0.004532 -0.002039 0.026140 0.002900
# 6 0.002374 0.002584 -0.002078 -0.003611 0.002900 0.020938
#
#
# Mechanical properties :
#
#
# Convention : Reuss Voigt Hill
#
# Bulk Modulus (GPa) = 46.96931 64.23144 55.60038
# Shear Modulus (GPa) = 39.22824 47.40036 43.31430
#
# Velocity S-wave (km/s) = 3.85373 4.23616 4.04946
# Velocity P-wave (km/s) = 6.13054 6.94577 6.55085
#
# Compressibility (1/GPa) = 0.02129050
#
# Stress axis : x y z
#
# Youngs Moduli (GPa) = 123.56222 97.85366 83.67979
#
# Poissons Ratio (x) = 0.20855 0.13700
# Poissons Ratio (y) = 0.26334 0.06006
# Poissons Ratio (z) = 0.20230 0.07023
#
# Static dielectric constant tensor:
#      x y z
#    x 2.326490 -0.103210 -0.045800 
#    y -0.103210 2.212840 0.003160 
#    z -0.045800 0.003160 2.221590 
# 
# From -- ./inp_files/170703.got.cif
#   From: 2010.05.17/outbox.cif.g08.bks.cpg/sg2_86_cif.got.tgz:170703.got - 2010.06.03 11:33:40.
