data_PCOD9097226
_publ_section_title
;
Structure prediction by ZEFSAII (Michael W. Deem and Ramdas Pophale) SiO2 
 PCOD9097226
Probable space group: P -1
;
_chemical_formula_sum "Si O2"
_cell_formula_units_Z 14
_cell_length_a 14.432091
_cell_length_b 12.475123
_cell_length_c 9.567858
_cell_angle_alpha 68.378723
_cell_angle_beta 131.049900
_cell_angle_gamma 149.129531
_cell_volume 575.523643
_symmetry_space_group_name_H-M "P -1"
_symmetry_group_IT_number 2
_symmetry_cell_setting 'triclinic'
loop_
_space_group_symop_operation_xyz
x,y,z
-x,-y,-z
loop_
_atom_site_type_symbol
_atom_site_label
_atom_site_fract_x
_atom_site_fract_y
_atom_site_fract_z
Si Si1 0.572989 0.826930 0.929872
Si Si2 0.773859 0.666938 0.170290
Si Si3 0.730928 0.418417 0.673747
Si Si4 0.887501 0.121130 0.365192
Si Si5 0.248547 0.754653 0.705317
Si Si6 0.814876 0.023343 0.779565
Si Si7 0.007736 0.419378 0.863765
O O1 0.311185 0.537500 0.806932
O O2 0.497237 0.899782 0.813737
O O3 0.740546 0.933990 0.908861
O O4 0.705581 0.915402 0.167452
O O5 0.969870 0.847864 0.404647
O O6 0.928936 0.819575 0.109022
O O7 0.500000 0.500000 0.000000
O O8 0.799530 0.342877 0.739774
O O9 0.899292 0.635966 0.632547
O O10 0.436376 0.205840 0.453639
O O11 0.843106 0.520517 0.891250
O O12 0.755822 0.113379 0.332483
O O13 0.000000 0.500000 0.500000
O O14 0.215352 0.664673 0.865505
O O15 0.870155 0.206052 0.743596
#
# Coordination Sequence:
#
# PCOD9097226 Si02
#       7
#     2   2   2   2   2   2   2
#     4  12  24  44  71 102 138 174 225 277 340 411
#     4  12  29  50  69  95 130 180 242 289 338 393
#     4  10  21  37  63 104 139 174 216 263 334 412
#     4  11  23  44  69 101 141 181 215 280 339 399
#     4  11  20  40  67 104 148 180 211 267 339 415
#     4  12  23  42  70  94 132 178 223 279 336 395
#     4  10  20  36  60 104 142 173 215 259 329 418
#
# _framework density 24.325673999999999
#
# number of rings (size 3 to 8) (size 9 to 14) (size 15 to 20)
#    0.000    0.857    5.714    1.714    2.000    2.286 
#    0.000    0.714    0.000    0.000    0.000    0.000 
#    0.000    0.000    0.000    0.000    0.000    0.000 
#
# Total GULP energy -78372.249583 kJ/mol
# GULP energy per Si atom -5598.017827 kJ/mol
# Density = 2.427031 g / cm^3
# Si number density = 24.325674 Si / 1000 Ang^3
#
#
#
# Elastic Constant Matrix: (Units=GPa)
#
#
# Indices 1 2 3 4 5 6 
#
# 1 76.5631 22.7950 41.4562 -1.1575 16.1766 40.6953
# 2 22.7950 58.9836 -8.4068 -1.9181 -9.5461 28.3390
# 3 41.4562 -8.4068 126.0814 6.1273 -14.1641 28.7826
# 4 -1.1575 -1.9181 6.1273 32.6948 6.4155 -2.8250
# 5 16.1766 -9.5461 -14.1641 6.4155 30.8583 1.8944
# 6 40.6953 28.3390 28.7826 -2.8250 1.8944 42.0794
#
#
#
# Elastic Compliance Matrix: (Units=1/GPa)
#
#
# Indices 1 2 3 4 5 6 
#
# 1 0.043963 -0.015324 -0.015465 0.008850 -0.035533 -0.019425
# 2 -0.015324 0.047631 0.020635 -0.011750 0.036759 -0.033816
# 3 -0.015465 0.020635 0.021518 -0.010096 0.027422 -0.015572
# 4 0.008850 -0.011750 -0.010096 0.037104 -0.021218 0.009707
# 5 -0.035533 0.036759 0.027422 -0.021218 0.080274 -0.014187
# 6 -0.019425 -0.033816 -0.015572 0.009707 -0.014187 0.077266
#
#
# Mechanical properties :
#
#
# Convention : Reuss Voigt Hill
#
# Bulk Modulus (GPa) = 10.77532 41.47967 26.12750
# Shear Modulus (GPa) = 13.92755 34.84541 24.38648
#
# Velocity S-wave (km/s) = 2.39539 3.78888 3.16966
# Velocity P-wave (km/s) = 3.47703 6.01911 4.91525
#
# Compressibility (1/GPa) = 0.09280463
#
# Stress axis : x y z
#
# Youngs Moduli (GPa) = 22.74615 20.99462 46.47216
#
# Poissons Ratio (x) = 0.32173 0.71867
# Poissons Ratio (y) = 0.34857 -0.95895
# Poissons Ratio (z) = 0.35176 -0.43322
#
# Static dielectric constant tensor:
#      x y z
#    x 2.001590 0.009470 0.009730 
#    y 0.009470 1.942470 -0.044550 
#    z 0.009730 -0.044550 1.952860 
# 
# From -- ./inp_files/227338.got.cif
#   From: 2010.05.17/outbox.cif.g08.bks.cpg/sg2_114_cif.got.tgz:227338.got - 2010.06.03 11:33:40.
