data_PCOD9097771
_publ_section_title
;
Structure prediction by ZEFSAII (Michael W. Deem and Ramdas Pophale) SiO2 
 PCOD9097771
Probable space group: P -1
;
_chemical_formula_sum "Si O2"
_cell_formula_units_Z 15
_cell_length_a 12.543815
_cell_length_b 8.858983
_cell_length_c 9.516603
_cell_angle_alpha 115.109335
_cell_angle_beta 142.985136
_cell_angle_gamma 79.309744
_cell_volume 553.220857
_symmetry_space_group_name_H-M "P -1"
_symmetry_group_IT_number 2
_symmetry_cell_setting 'triclinic'
loop_
_space_group_symop_operation_xyz
x,y,z
-x,-y,-z
loop_
_atom_site_type_symbol
_atom_site_label
_atom_site_fract_x
_atom_site_fract_y
_atom_site_fract_z
Si Si1 0.000000 0.500000 0.500000
Si Si2 0.671699 0.185527 0.593411
Si Si3 0.254698 0.468231 0.017410
Si Si4 0.324771 0.405965 0.588419
Si Si5 0.321527 0.777963 0.717281
Si Si6 0.062356 0.159193 0.387096
Si Si7 0.752841 0.896043 0.168307
Si Si8 0.749108 0.909708 0.788315
O O1 0.038630 0.693042 0.682608
O O2 0.880586 0.555528 0.265800
O O3 0.751504 0.379105 0.820662
O O4 0.719741 0.200175 0.483230
O O5 0.446656 0.129888 0.350288
O O6 0.727761 0.039970 0.689259
O O7 0.461501 0.532765 0.197399
O O8 0.228604 0.270699 0.966745
O O9 0.254062 0.574953 0.612020
O O10 0.269317 0.269012 0.599844
O O11 0.233474 0.278203 0.316132
O O12 0.249846 0.907239 0.791305
O O13 0.541743 0.828704 0.976476
O O14 0.107138 0.082897 0.547786
O O15 0.932885 0.004836 0.100616
#
# Coordination Sequence:
#
# PCOD9097771 Si02
#       8
#     1   2   2   2   2   2   2   2
#     4  10  20  36  62  86 128 152 202 256 314 350
#     4  10  20  39  67  90 126 160 211 254 311 370
#     4   9  19  37  61  93 116 164 200 256 306 364
#     4  10  22  37  65  92 124 161 211 250 315 360
#     4  10  21  41  61  93 123 170 204 254 306 380
#     4  11  21  41  61  93 123 160 209 264 295 377
#     4   9  21  38  62  86 125 164 209 244 312 360
#     4  10  21  38  63  96 116 163 207 262 307 358
#
# _framework density 27.113945000000001
#
# number of rings (size 3 to 8) (size 9 to 14) (size 15 to 20)
#    0.000    2.133    1.333    1.200    0.000    9.600 
#    7.200    3.333    5.867    0.000    0.000    0.000 
#    0.000    0.000    0.000    0.000    0.000    0.000 
#
# Total GULP energy -83688.322632 kJ/mol
# GULP energy per Si atom -5579.221509 kJ/mol
# Density = 2.705223 g / cm^3
# Si number density = 27.113945 Si / 1000 Ang^3
#
#
#
# Elastic Constant Matrix: (Units=GPa)
#
#
# Indices 1 2 3 4 5 6 
#
# 1 57.2652 43.1705 19.3626 14.1029 -8.7729 10.3858
# 2 43.1705 181.9673 62.5157 38.9935 -8.6562 -7.0931
# 3 19.3626 62.5157 138.8804 6.8823 -11.5130 -1.9215
# 4 14.1029 38.9935 6.8823 41.1154 5.2241 -7.9028
# 5 -8.7729 -8.6562 -11.5130 5.2241 23.3718 4.5997
# 6 10.3858 -7.0931 -1.9215 -7.9028 4.5997 64.7317
#
#
#
# Elastic Compliance Matrix: (Units=1/GPa)
#
#
# Indices 1 2 3 4 5 6 
#
# 1 0.025155 -0.003938 -0.000583 -0.007312 0.010536 -0.006126
# 2 -0.003938 0.009042 -0.003025 -0.006837 0.001796 0.000571
# 3 -0.000583 -0.003025 0.008808 0.001246 0.002724 -0.000018
# 4 -0.007312 -0.006837 0.001246 0.035988 -0.013856 0.005839
# 5 0.010536 0.001796 0.002724 -0.013856 0.053201 -0.006885
# 6 -0.006126 0.000571 -0.000018 0.005839 -0.006885 0.017695
#
#
# Mechanical properties :
#
#
# Convention : Reuss Voigt Hill
#
# Bulk Modulus (GPa) = 35.82920 69.80117 52.81518
# Shear Modulus (GPa) = 28.68861 42.71474 35.70167
#
# Velocity S-wave (km/s) = 3.25634 3.97341 3.63261
# Velocity P-wave (km/s) = 5.23271 6.84472 6.09227
#
# Compressibility (1/GPa) = 0.02791019
#
# Stress axis : x y z
#
# Youngs Moduli (GPa) = 39.75423 110.59666 113.53934
#
# Poissons Ratio (x) = 0.43554 0.06623
# Poissons Ratio (y) = 0.15655 0.34351
# Poissons Ratio (z) = 0.02319 0.33461
#
# Static dielectric constant tensor:
#      x y z
#    x 4.132550 0.244300 -0.448670 
#    y 0.244300 2.081500 -0.024330 
#    z -0.448670 -0.024330 2.077020 
# 
# From -- ./inp_files/417926.got.cif
#   From: 2010.05.17/outbox.cif.g08.bks.cpg/sg2_209_cif.got.tgz:417926.got - 2010.06.03 11:33:40.
