data_PCOD9097980
_publ_section_title
;
Structure prediction by ZEFSAII (Michael W. Deem and Ramdas Pophale) SiO2 
 PCOD9097980
Probable space group: P -1
;
_chemical_formula_sum "Si O2"
_cell_formula_units_Z 15
_cell_length_a 6.869681
_cell_length_b 12.179404
_cell_length_c 12.311848
_cell_angle_alpha 114.714475
_cell_angle_beta 51.672888
_cell_angle_gamma 110.682551
_cell_volume 727.685753
_symmetry_space_group_name_H-M "P -1"
_symmetry_group_IT_number 2
_symmetry_cell_setting 'triclinic'
loop_
_space_group_symop_operation_xyz
x,y,z
-x,-y,-z
loop_
_atom_site_type_symbol
_atom_site_label
_atom_site_fract_x
_atom_site_fract_y
_atom_site_fract_z
Si Si1 0.826924 0.741068 0.051177
Si Si2 0.766547 0.608886 0.784832
Si Si3 0.740086 0.342303 0.741262
Si Si4 0.644922 0.994372 0.197412
Si Si5 0.975959 0.853421 0.743424
Si Si6 0.810191 0.379205 0.989697
Si Si7 0.170022 0.915585 0.468729
Si Si8 0.500000 0.000000 0.000000
O O1 0.563022 0.688074 0.177966
O O2 0.805769 0.881597 0.096249
O O3 0.068606 0.727082 0.034505
O O4 0.824948 0.663872 0.908920
O O5 0.824075 0.470918 0.707866
O O6 0.911175 0.707977 0.696423
O O7 0.469329 0.608814 0.870589
O O8 0.790807 0.357603 0.858893
O O9 0.864541 0.226603 0.612279
O O10 0.445095 0.965437 0.351195
O O11 0.513539 0.999383 0.129541
O O12 0.825189 0.115093 0.215871
O O13 0.724452 0.910714 0.880818
O O14 0.104181 0.915266 0.617532
O O15 0.000000 0.500000 0.000000
O O16 0.000000 0.000000 0.500000
#
# Coordination Sequence:
#
# PCOD9097980 Si02
#       8
#     2   2   2   2   2   2   2   1
#     4  10  20  36  62  99 130 168 220 271 338 393
#     4  11  22  38  61 100 136 167 224 281 335 399
#     4  10  22  40  62  96 130 175 228 272 336 396
#     4  11  25  44  71 100 134 182 227 280 339 408
#     4  12  27  43  67 102 139 183 222 280 348 401
#     4  11  19  36  67  99 134 176 217 281 339 400
#     4  11  25  49  68  92 137 189 229 277 334 412
#     4  12  24  44  68 106 136 168 232 290 342 384
#
# _framework density 20.613292000000001
#
# number of rings (size 3 to 8) (size 9 to 14) (size 15 to 20)
#    0.000    1.067    5.333    1.600    3.733    0.533 
#    0.000    0.000    0.000    1.600    0.000    0.000 
#    0.000    0.000    0.000    0.000    0.000    0.000 
#
# Total GULP energy -83579.172348 kJ/mol
# GULP energy per Si atom -5571.944823 kJ/mol
# Density = 2.056637 g / cm^3
# Si number density = 20.613292 Si / 1000 Ang^3
#
#
#
# Elastic Constant Matrix: (Units=GPa)
#
#
# Indices 1 2 3 4 5 6 
#
# 1 98.8378 46.2458 16.6749 -0.0488 -4.2473 -17.4841
# 2 46.2458 114.8359 24.3950 2.6077 -13.9518 -2.8909
# 3 16.6749 24.3950 75.3781 -6.7225 -5.8799 -0.3508
# 4 -0.0488 2.6077 -6.7225 36.1573 -11.1128 0.7242
# 5 -4.2473 -13.9518 -5.8799 -11.1128 13.2332 5.2913
# 6 -17.4841 -2.8909 -0.3508 0.7242 5.2913 35.4481
#
#
#
# Elastic Compliance Matrix: (Units=1/GPa)
#
#
# Indices 1 2 3 4 5 6 
#
# 1 0.014321 -0.006044 -0.002013 -0.002495 -0.007875 0.007777
# 2 -0.006044 0.013229 -0.001322 0.003963 0.016533 -0.004464
# 3 -0.002013 -0.001322 0.015619 0.006610 0.011574 -0.002809
# 4 -0.002495 0.003963 0.006610 0.042805 0.045673 -0.008534
# 5 -0.007875 0.016533 0.011574 0.045673 0.143898 -0.024834
# 6 0.007777 -0.004464 -0.002809 -0.008534 -0.024834 0.035536
#
#
# Mechanical properties :
#
#
# Convention : Reuss Voigt Hill
#
# Bulk Modulus (GPa) = 40.96406 51.52034 46.24220
# Shear Modulus (GPa) = 17.10554 30.41679 23.76116
#
# Velocity S-wave (km/s) = 2.88380 3.84551 3.39884
# Velocity P-wave (km/s) = 5.56814 6.69069 6.15506
#
# Compressibility (1/GPa) = 0.02441164
#
# Stress axis : x y z
#
# Youngs Moduli (GPa) = 69.82588 75.58976 64.02527
#
# Poissons Ratio (x) = 0.45688 0.12886
# Poissons Ratio (y) = 0.42204 0.08465
# Poissons Ratio (z) = 0.14054 0.09993
#
# Static dielectric constant tensor:
#      x y z
#    x 1.698180 0.018790 -0.029780 
#    y 0.018790 1.796850 -0.023640 
#    z -0.029780 -0.023640 1.724990 
# 
# From -- ./inp_files/363277.got.cif
#   From: 2010.05.17/outbox.cif.g08.bks.cpg/sg2_182_cif.got.tgz:363277.got - 2010.06.03 11:33:40.
