data_PCOD9097101
_publ_section_title
;
Structure prediction by ZEFSAII (Michael W. Deem and Ramdas Pophale) SiO2 
 PCOD9097101
Probable space group: P -1
;
_chemical_formula_sum "Si O2"
_cell_formula_units_Z 14
_cell_length_a 8.829524
_cell_length_b 15.319013
_cell_length_c 9.315276
_cell_angle_alpha 143.091345
_cell_angle_beta 114.625404
_cell_angle_gamma 82.292282
_cell_volume 640.495772
_symmetry_space_group_name_H-M "P -1"
_symmetry_group_IT_number 2
_symmetry_cell_setting 'triclinic'
loop_
_space_group_symop_operation_xyz
x,y,z
-x,-y,-z
loop_
_atom_site_type_symbol
_atom_site_label
_atom_site_fract_x
_atom_site_fract_y
_atom_site_fract_z
Si Si1 0.214507 0.326898 0.194726
Si Si2 0.251052 0.998768 0.726049
Si Si3 0.124510 0.700340 0.468642
Si Si4 0.488494 0.452011 0.217754
Si Si5 0.744346 0.453802 0.950722
Si Si6 0.624167 0.184906 0.017305
Si Si7 0.190838 0.792024 0.158320
O O1 0.332238 0.427477 0.242495
O O2 0.332457 0.404198 0.480774
O O3 0.208113 0.151999 0.940139
O O4 0.012696 0.318789 0.102764
O O5 0.466555 0.054263 0.869024
O O6 0.166504 0.873170 0.650540
O O7 0.183065 0.915222 0.436833
O O8 0.199624 0.619427 0.266342
O O9 0.227091 0.718429 0.682911
O O10 0.915268 0.599709 0.262124
O O11 0.408596 0.486376 0.084656
O O12 0.534695 0.298586 0.059583
O O13 0.712587 0.316356 0.872985
O O14 0.711729 0.129339 0.845347
#
# Coordination Sequence:
#
# PCOD9097101 Si02
#       7
#     2   2   2   2   2   2   2
#     4  10  20  37  61  86 114 153 198 237 280 342
#     4  10  21  38  61  86 114 154 198 236 277 342
#     4  10  20  37  61  86 114 153 198 237 280 342
#     4  10  20  36  59  87 116 151 196 238 281 341
#     4  10  20  36  59  87 116 151 196 238 281 341
#     4  11  23  38  59  88 121 152 187 239 295 341
#     4  11  23  38  59  88 121 152 187 239 295 341
#
# _framework density 21.858066999999998
#
# number of rings (size 3 to 8) (size 9 to 14) (size 15 to 20)
#    0.000    1.714    0.000    7.286    0.000    5.143 
#    0.000    0.714    0.000    0.000    0.000    0.000 
#    0.000    0.000    0.000    0.000    0.000    0.000 
#
# Total GULP energy -78233.360628 kJ/mol
# GULP energy per Si atom -5588.097188 kJ/mol
# Density = 2.180832 g / cm^3
# Si number density = 21.858067 Si / 1000 Ang^3
#
#
#
# Elastic Constant Matrix: (Units=GPa)
#
#
# Indices 1 2 3 4 5 6 
#
# 1 13.3459 8.8282 3.1845 -15.2992 -2.7009 -0.3811
# 2 8.8282 60.4308 5.0993 8.4152 7.3179 -7.2731
# 3 3.1845 5.0993 29.5026 22.5598 41.7666 -3.4102
# 4 -15.2992 8.4152 22.5598 28.1745 -13.2534 -2.1954
# 5 -2.7009 7.3179 41.7666 -13.2534 14.5242 -11.6378
# 6 -0.3811 -7.2731 -3.4102 -2.1954 -11.6378 19.3448
#
#
#
# Elastic Compliance Matrix: (Units=1/GPa)
#
#
# Indices 1 2 3 4 5 6 
#
# 1 0.098372 -0.017435 0.023268 0.021928 -0.035221 -0.019216
# 2 -0.017435 0.020811 -0.006507 -0.006138 0.007531 0.010167
# 3 0.023268 -0.006507 0.005856 0.015637 0.010987 0.007428
# 4 0.021928 -0.006138 0.015637 0.023681 -0.025731 -0.011912
# 5 -0.035221 0.007531 0.010987 -0.025731 0.008411 0.006214
# 6 -0.019216 0.010167 0.007428 -0.011912 0.006214 0.058834
#
#
# Mechanical properties :
#
#
# Convention : Reuss Voigt Hill
#
# Bulk Modulus (GPa) = 8.08476 15.27813 11.68144
# Shear Modulus (GPa) = 19.33914 18.15318 18.74616
#
# Velocity S-wave (km/s) = 2.97772 2.88497 2.93171
# Velocity P-wave (km/s) = 3.94071 4.25468 4.10070
#
# Compressibility (1/GPa) = 0.12368957
#
# Stress axis : x y z
#
# Youngs Moduli (GPa) = 10.16549 48.05253 170.76884
#
# Poissons Ratio (x) = 0.83782 -3.97349
# Poissons Ratio (y) = 0.17724 1.11123
# Poissons Ratio (z) = -0.23653 0.31269
#
# Static dielectric constant tensor:
#      x y z
#    x 1.833600 0.000850 -0.006800 
#    y 0.000850 1.804270 -0.005430 
#    z -0.006800 -0.005430 1.797250 
# 
# From -- ./inp_files/157951.got.cif
#   From: 2010.05.17/outbox.cif.g08.bks.cpg/sg2_79_cif.got.tgz:157951.got - 2010.06.03 11:33:40.
