data_PCOD9097437
_publ_section_title
;
Structure prediction by ZEFSAII (Michael W. Deem and Ramdas Pophale) SiO2 
 PCOD9097437
Probable space group: P -1
;
_chemical_formula_sum "Si O2"
_cell_formula_units_Z 16
_cell_length_a 11.400225
_cell_length_b 13.416368
_cell_length_c 5.279735
_cell_angle_alpha 103.102592
_cell_angle_beta 95.550232
_cell_angle_gamma 54.440198
_cell_volume 639.204101
_symmetry_space_group_name_H-M "P -1"
_symmetry_group_IT_number 2
_symmetry_cell_setting 'triclinic'
loop_
_space_group_symop_operation_xyz
x,y,z
-x,-y,-z
loop_
_atom_site_type_symbol
_atom_site_label
_atom_site_fract_x
_atom_site_fract_y
_atom_site_fract_z
Si Si1 0.300334 0.995294 0.256602
Si Si2 0.577515 0.218128 0.464628
Si Si3 0.013368 0.114435 0.027361
Si Si4 0.412187 0.613900 0.741797
Si Si5 0.376718 0.161759 0.191514
Si Si6 0.028835 0.214053 0.589944
Si Si7 0.341423 0.448516 0.858689
Si Si8 0.800124 0.685683 0.254986
O O1 0.358973 0.863609 0.317043
O O2 0.407416 0.030994 0.216835
O O3 0.193558 0.092348 0.510097
O O4 0.186901 0.041013 0.033681
O O5 0.667959 0.255778 0.350414
O O6 0.519890 0.157131 0.240346
O O7 0.435055 0.349797 0.599410
O O8 0.962398 0.184872 0.791333
O O9 0.962702 0.210605 0.307713
O O10 0.000000 0.000000 0.000000
O O11 0.500000 0.500000 0.500000
O O12 0.319160 0.579199 0.862745
O O13 0.538850 0.603815 0.925384
O O14 0.270543 0.254784 0.450539
O O15 0.294502 0.221659 0.945374
O O16 0.050506 0.324009 0.711389
O O17 0.212430 0.431463 0.857828
#
# Coordination Sequence:
#
# PCOD9097437 Si02
#       8
#     2   2   2   2   2   2   2   2
#     4   9  20  29  45  67  96 122 159 187 222 271
#     4  10  18  30  43  66  91 132 154 192 224 266
#     4  10  19  33  49  65  92 124 152 189 229 270
#     4   9  17  30  42  59  86 121 166 194 228 263
#     4  10  18  30  42  66  94 128 155 182 217 264
#     4   9  18  32  47  68  93 118 154 189 222 274
#     4   9  18  28  45  62  87 127 158 196 226 264
#     4  10  16  31  46  65  91 122 155 192 220 261
#
# _framework density 25.031130000000001
#
# number of rings (size 3 to 8) (size 9 to 14) (size 15 to 20)
#    0.750    1.750    2.500    0.750    0.000    1.000 
#    0.000    2.500    0.000    0.000    0.000    0.000 
#    0.000    2.000    0.000    0.125    0.000    0.000 
#
# Total GULP energy -89193.555067 kJ/mol
# GULP energy per Si atom -5574.597192 kJ/mol
# Density = 2.497416 g / cm^3
# Si number density = 25.031130 Si / 1000 Ang^3
#
#
#
# Elastic Constant Matrix: (Units=GPa)
#
#
# Indices 1 2 3 4 5 6 
#
# 1 63.3214 38.2692 21.8278 5.0987 -1.2724 24.0815
# 2 38.2692 78.9645 18.6986 -8.0437 -9.5260 33.9579
# 3 21.8278 18.6986 134.3569 1.1864 -2.7817 10.5485
# 4 5.0987 -8.0437 1.1864 41.8317 13.4722 -0.0375
# 5 -1.2724 -9.5260 -2.7817 13.4722 23.6638 -1.1736
# 6 24.0815 33.9579 10.5485 -0.0375 -1.1736 41.5788
#
#
#
# Elastic Compliance Matrix: (Units=1/GPa)
#
#
# Indices 1 2 3 4 5 6 
#
# 1 0.024997 -0.009431 -0.002226 -0.004689 -0.000353 -0.006225
# 2 -0.009431 0.024762 -0.000683 0.003828 0.006487 -0.014401
# 3 -0.002226 -0.000683 0.007928 -0.000313 0.000709 -0.000145
# 4 -0.004689 0.003828 -0.000313 0.030405 -0.016096 -0.000758
# 5 -0.000353 0.006487 0.000709 -0.016096 0.053911 -0.003766
# 6 -0.006225 -0.014401 -0.000145 -0.000758 -0.003766 0.039348
#
#
# Mechanical properties :
#
#
# Convention : Reuss Voigt Hill
#
# Bulk Modulus (GPa) = 30.29506 48.24823 39.27165
# Shear Modulus (GPa) = 23.03803 34.60467 28.82135
#
# Velocity S-wave (km/s) = 3.03706 3.72219 3.39694
# Velocity P-wave (km/s) = 4.94242 6.14736 5.57752
#
# Compressibility (1/GPa) = 0.03300868
#
# Stress axis : x y z
#
# Youngs Moduli (GPa) = 40.00446 40.38483 126.13029
#
# Poissons Ratio (x) = 0.38086 0.28074
# Poissons Ratio (y) = 0.37727 0.08613
# Poissons Ratio (z) = 0.08904 0.02758
#
# Static dielectric constant tensor:
#      x y z
#    x 2.048740 0.055050 -0.037190 
#    y 0.055050 2.070750 0.053500 
#    z -0.037190 0.053500 2.034380 
# 
# From -- ./inp_files/92720.got.cif
#   From: 2010.05.17/outbox.cif.g08.bks.cpg/sg2_47_cif.got.tgz:92720.got - 2010.06.03 11:33:40.
