data_PCOD9097062
_publ_section_title
;
Structure prediction by ZEFSAII (Michael W. Deem and Ramdas Pophale) SiO2 
 PCOD9097062
Probable space group: P -1
;
_chemical_formula_sum "Si O2"
_cell_formula_units_Z 12
_cell_length_a 11.685299
_cell_length_b 10.804443
_cell_length_c 11.511408
_cell_angle_alpha 136.711455
_cell_angle_beta 143.837500
_cell_angle_gamma 37.574145
_cell_volume 507.054260
_symmetry_space_group_name_H-M "P -1"
_symmetry_group_IT_number 2
_symmetry_cell_setting 'triclinic'
loop_
_space_group_symop_operation_xyz
x,y,z
-x,-y,-z
loop_
_atom_site_type_symbol
_atom_site_label
_atom_site_fract_x
_atom_site_fract_y
_atom_site_fract_z
Si Si1 0.865809 0.469607 0.168934
Si Si2 0.838425 0.637105 0.860006
Si Si3 0.266933 0.519754 0.555758
Si Si4 0.348953 0.922433 0.389081
Si Si5 0.480881 0.067490 0.813714
Si Si6 0.172498 0.813682 0.877891
O O1 0.695178 0.697761 0.132478
O O2 0.766345 0.376956 0.114467
O O3 0.000727 0.328327 0.073589
O O4 0.064274 0.485053 0.408910
O O5 0.754422 0.509760 0.621023
O O6 0.631750 0.865226 0.879092
O O7 0.000000 0.500000 0.000000
O O8 0.219697 0.727764 0.724424
O O9 0.505700 0.328671 0.660894
O O10 0.348911 0.996325 0.571488
O O11 0.092304 0.030375 0.214094
O O12 0.500000 0.000000 0.500000
O O13 0.660803 0.099362 0.908930
#
# Coordination Sequence:
#
# PCOD9097062 Si02
#       6
#     2   2   2   2   2   2
#     4  10  20  36  59  85 120 149 186 230 291 339
#     4   9  21  40  59  81 113 156 199 233 279 337
#     4   9  20  35  58  81 115 153 184 231 288 332
#     4  11  19  35  54  79 122 156 182 222 284 345
#     4  11  23  35  60  90 112 152 193 233 289 341
#     4  12  21  36  59  91 122 144 185 237 290 350
#
# _framework density 23.666105999999999
#
# number of rings (size 3 to 8) (size 9 to 14) (size 15 to 20)
#    1.000    0.667    3.333    2.000    0.000    4.667 
#    0.000    0.833    0.000    5.000    0.000    0.000 
#    0.000    0.000    0.000    0.000    0.000    0.000 
#
# Total GULP energy -66940.146097 kJ/mol
# GULP energy per Si atom -5578.345508 kJ/mol
# Density = 2.361224 g / cm^3
# Si number density = 23.666106 Si / 1000 Ang^3
#
#
#
# Elastic Constant Matrix: (Units=GPa)
#
#
# Indices 1 2 3 4 5 6 
#
# 1 16.7668 15.4266 15.6693 -4.1389 -5.7161 -14.6967
# 2 15.4266 137.5532 33.7446 -30.5514 -15.0315 -25.3969
# 3 15.6693 33.7446 112.1404 -15.8731 -4.1998 -1.4838
# 4 -4.1389 -30.5514 -15.8731 31.6809 -0.3893 3.5404
# 5 -5.7161 -15.0315 -4.1998 -0.3893 30.9497 -10.8553
# 6 -14.6967 -25.3969 -1.4838 3.5404 -10.8553 34.0667
#
#
#
# Elastic Compliance Matrix: (Units=1/GPa)
#
#
# Indices 1 2 3 4 5 6 
#
# 1 0.249193 0.027511 -0.033144 0.026047 0.111072 0.159256
# 2 0.027511 0.016705 -0.005654 0.013801 0.023127 0.030011
# 3 -0.033144 -0.005654 0.014360 -0.000245 -0.014846 -0.022594
# 4 0.026047 0.013801 -0.000245 0.045811 0.020189 0.023187
# 5 0.111072 0.023127 -0.014846 0.020189 0.094779 0.092615
# 6 0.159256 0.030011 -0.022594 0.023187 0.092615 0.146549
#
#
# Mechanical properties :
#
#
# Convention : Reuss Voigt Hill
#
# Bulk Modulus (GPa) = 3.88072 44.01570 23.94821
# Shear Modulus (GPa) = 7.39789 32.78078 20.08933
#
# Velocity S-wave (km/s) = 1.76995 3.72578 2.91669
# Velocity P-wave (km/s) = 2.41253 6.09488 4.63508
#
# Compressibility (1/GPa) = 0.25768395
#
# Stress axis : x y z
#
# Youngs Moduli (GPa) = 4.01295 59.86134 69.63624
#
# Poissons Ratio (x) = -1.64683 2.30803
# Poissons Ratio (y) = -0.11040 0.39373
# Poissons Ratio (z) = 0.13301 0.33847
#
# Static dielectric constant tensor:
#      x y z
#    x 1.902860 -0.020920 -0.017790 
#    y -0.020920 1.932780 0.028030 
#    z -0.017790 0.028030 1.919500 
# 
# From -- ./inp_files/294153.got.cif
#   From: 2010.05.17/outbox.cif.g08.bks.cpg/sg2_148_cif.got.tgz:294153.got - 2010.06.03 11:33:40.
