data_PCOD9097119
_publ_section_title
;
Structure prediction by ZEFSAII (Michael W. Deem and Ramdas Pophale) SiO2 
 PCOD9097119
Probable space group: P -1
;
_chemical_formula_sum "Si O2"
_cell_formula_units_Z 16
_cell_length_a 8.729128
_cell_length_b 7.383291
_cell_length_c 21.468235
_cell_angle_alpha 129.191271
_cell_angle_beta 145.574415
_cell_angle_gamma 50.322522
_cell_volume 584.144471
_symmetry_space_group_name_H-M "P -1"
_symmetry_group_IT_number 2
_symmetry_cell_setting 'triclinic'
loop_
_space_group_symop_operation_xyz
x,y,z
-x,-y,-z
loop_
_atom_site_type_symbol
_atom_site_label
_atom_site_fract_x
_atom_site_fract_y
_atom_site_fract_z
Si Si1 0.232577 0.739608 0.011638
Si Si2 0.264216 0.754870 0.646570
Si Si3 0.261479 0.296165 0.740940
Si Si4 0.340934 0.490886 0.380985
Si Si5 0.433847 0.008449 0.906042
Si Si6 0.166627 0.486760 0.115473
Si Si7 0.468907 0.229009 0.664123
Si Si8 0.845941 0.008336 0.647110
O O1 0.457763 0.657282 0.125477
O O2 0.425539 0.787375 0.030422
O O3 0.029992 0.559299 0.903932
O O4 0.000000 0.000000 0.000000
O O5 0.438046 0.704486 0.628823
O O6 0.389021 0.491677 0.661531
O O7 0.274730 0.034433 0.718676
O O8 0.949040 0.805905 0.583529
O O9 0.255838 0.246936 0.653712
O O10 0.982760 0.507301 0.711104
O O11 0.500000 0.500000 0.500000
O O12 0.273998 0.739409 0.373609
O O13 0.115830 0.018299 0.781745
O O14 0.590178 0.759360 0.868224
O O15 0.500000 0.000000 0.000000
O O16 0.256222 0.732693 0.200938
O O17 0.000000 0.500000 0.000000
O O18 0.597160 0.006712 0.612747
#
# Coordination Sequence:
#
# PCOD9097119 Si02
#       8
#     2   2   2   2   2   2   2   2
#     4  10  20  36  59  87 132 180 230 276 329 396
#     4  10  21  44  68  94 138 172 220 287 346 404
#     4  11  22  42  68  98 136 180 229 279 344 409
#     4  10  23  44  75 104 128 170 229 287 350 418
#     4  11  21  37  57  90 133 183 230 279 332 399
#     4  11  20  36  57  87 133 177 229 282 326 383
#     4  11  22  39  65  95 134 179 229 277 336 411
#     4  10  21  40  64  93 137 178 221 281 340 398
#
# _framework density 27.390485999999999
#
# number of rings (size 3 to 8) (size 9 to 14) (size 15 to 20)
#    0.000    1.500    5.000    1.500    1.750    3.000 
#    0.000    7.500    0.000    6.750    0.000    0.000 
#    0.000    0.000    0.000    0.000    0.000    0.000 
#
# Total GULP energy -89165.139418 kJ/mol
# GULP energy per Si atom -5572.821214 kJ/mol
# Density = 2.732814 g / cm^3
# Si number density = 27.390486 Si / 1000 Ang^3
#
#
#
# Elastic Constant Matrix: (Units=GPa)
#
#
# Indices 1 2 3 4 5 6 
#
# 1 192.0623 44.6419 23.1636 -9.6586 -2.4681 -48.2163
# 2 44.6419 71.5832 43.1561 -0.4194 -30.8389 -38.8306
# 3 23.1636 43.1561 95.2767 -26.5521 46.1875 -19.7306
# 4 -9.6586 -0.4194 -26.5521 37.7730 12.9598 5.4674
# 5 -2.4681 -30.8389 46.1875 12.9598 -21.0595 1.3238
# 6 -48.2163 -38.8306 -19.7306 5.4674 1.3238 73.1955
#
#
#
# Elastic Compliance Matrix: (Units=1/GPa)
#
#
# Indices 1 2 3 4 5 6 
#
# 1 0.006485 -0.001571 -0.000508 0.000493 0.000934 0.003248
# 2 -0.001571 0.012440 0.002170 0.003972 -0.010449 0.006042
# 3 -0.000508 0.002170 0.005583 0.000275 0.009429 0.002131
# 4 0.000493 0.003972 0.000275 0.023573 0.009272 0.000578
# 5 0.000934 -0.010449 0.009429 0.009272 -0.006094 -0.002968
# 6 0.003248 0.006042 0.002131 0.000578 -0.002968 0.019592
#
#
# Mechanical properties :
#
#
# Convention : Reuss Voigt Hill
#
# Bulk Modulus (GPa) = 40.49915 64.53840 52.51878
# Shear Modulus (GPa) = 71.81155 34.51249 53.16202
#
# Velocity S-wave (km/s) = 5.12588 3.55352 4.41034
# Velocity P-wave (km/s) = 7.06051 6.36005 6.71941
#
# Compressibility (1/GPa) = 0.02469188
#
# Stress axis : x y z
#
# Youngs Moduli (GPa) = 154.19598 80.38304 179.11333
#
# Poissons Ratio (x) = 0.12628 0.09097
# Poissons Ratio (y) = 0.24224 -0.38876
# Poissons Ratio (z) = 0.07832 -0.17447
#
# Static dielectric constant tensor:
#      x y z
#    x 2.233730 0.204890 -0.577790 
#    y 0.204890 1.695220 1.413160 
#    z -0.577790 1.413160 -0.856220 
# 
# From -- ./inp_files/606452.got.cif
#   From: 2010.05.17/outbox.cif.g08.bks.cpg/sg2_304_cif.got.tgz:606452.got - 2010.06.03 11:33:40.
