data_PCOD9097229
_publ_section_title
;
Structure prediction by ZEFSAII (Michael W. Deem and Ramdas Pophale) SiO2 
 PCOD9097229
Probable space group: P -1
;
_chemical_formula_sum "Si O2"
_cell_formula_units_Z 16
_cell_length_a 9.277969
_cell_length_b 11.095550
_cell_length_c 10.129992
_cell_angle_alpha 66.850044
_cell_angle_beta 124.953776
_cell_angle_gamma 73.561838
_cell_volume 580.298759
_symmetry_space_group_name_H-M "P -1"
_symmetry_group_IT_number 2
_symmetry_cell_setting 'triclinic'
loop_
_space_group_symop_operation_xyz
x,y,z
-x,-y,-z
loop_
_atom_site_type_symbol
_atom_site_label
_atom_site_fract_x
_atom_site_fract_y
_atom_site_fract_z
Si Si1 0.447207 0.877275 0.267017
Si Si2 0.441464 0.799089 0.026386
Si Si3 0.126509 0.599438 0.477681
Si Si4 0.149572 0.196766 0.175059
Si Si5 0.978016 0.605132 0.654135
Si Si6 0.404675 0.307925 0.147501
Si Si7 0.911597 0.013176 0.594146
Si Si8 0.753423 0.306884 0.736014
O O1 0.717139 0.724407 0.522920
O O2 0.294298 0.821678 0.221514
O O3 0.316986 0.041051 0.222353
O O4 0.478155 0.887549 0.122690
O O5 0.510568 0.787781 0.913720
O O6 0.615711 0.591496 0.259535
O O7 0.161652 0.909324 0.842712
O O8 0.002904 0.543609 0.352694
O O9 0.116476 0.723131 0.318843
O O10 0.999554 0.696044 0.506640
O O11 0.255888 0.287356 0.173727
O O12 0.158063 0.101355 0.350785
O O13 0.890620 0.309929 0.924682
O O14 0.198948 0.513060 0.907348
O O15 0.656075 0.215925 0.386592
O O16 0.000000 0.000000 0.500000
O O17 0.500000 0.500000 0.500000
#
# Coordination Sequence:
#
# PCOD9097229 Si02
#       8
#     2   2   2   2   2   2   2   2
#     4  11  22  34  54  85 125 137 171 236 296 322
#     4   9  18  35  57  87 112 141 180 228 277 324
#     4   9  16  30  55  80 110 138 187 223 260 325
#     4  12  23  36  53  88 115 141 183 234 283 325
#     4   9  17  34  53  79 109 146 180 222 267 329
#     4  10  20  36  60  80 107 152 197 219 253 332
#     4  10  21  38  57  77 107 151 193 229 263 324
#     4  12  19  33  55  83 110 148 180 222 274 336
#
# _framework density 27.572002999999999
#
# number of rings (size 3 to 8) (size 9 to 14) (size 15 to 20)
#    0.000    1.750    5.000    1.500    0.000    0.500 
#    0.000    0.625    0.000    0.000    0.000   11.375 
#    0.000    0.000    0.000    0.000    0.000    0.000 
#
# Total GULP energy -89453.923549 kJ/mol
# GULP energy per Si atom -5590.870222 kJ/mol
# Density = 2.750925 g / cm^3
# Si number density = 27.572003 Si / 1000 Ang^3
#
#
#
# Elastic Constant Matrix: (Units=GPa)
#
#
# Indices 1 2 3 4 5 6 
#
# 1 144.4407 17.4421 59.5395 19.2388 -18.5967 -18.8581
# 2 17.4421 61.7074 8.4201 12.0673 -8.9020 -12.9501
# 3 59.5395 8.4201 173.8838 12.5739 35.3987 -6.7944
# 4 19.2388 12.0673 12.5739 30.2098 -17.5497 -0.9286
# 5 -18.5967 -8.9020 35.3987 -17.5497 75.2952 9.7674
# 6 -18.8581 -12.9501 -6.7944 -0.9286 9.7674 22.4559
#
#
#
# Elastic Compliance Matrix: (Units=1/GPa)
#
#
# Indices 1 2 3 4 5 6 
#
# 1 0.009875 -0.000083 -0.003428 -0.003179 0.002524 0.005979
# 2 -0.000083 0.020160 0.000426 -0.008621 -0.001395 0.011936
# 3 -0.003428 0.000426 0.008700 -0.005277 -0.006452 0.002588
# 4 -0.003179 -0.008621 -0.005277 0.048285 0.013640 -0.013174
# 5 0.002524 -0.001395 -0.006452 0.013640 0.021155 -0.009274
# 6 0.005979 0.011936 0.002588 -0.013174 -0.009274 0.060708
#
#
# Mechanical properties :
#
#
# Convention : Reuss Voigt Hill
#
# Bulk Modulus (GPa) = 30.70678 61.20393 45.95536
# Shear Modulus (GPa) = 26.89486 45.23419 36.06452
#
# Velocity S-wave (km/s) = 3.12659 4.05481 3.62057
# Velocity P-wave (km/s) = 4.91886 6.64590 5.84650
#
# Compressibility (1/GPa) = 0.03256610
#
# Stress axis : x y z
#
# Youngs Moduli (GPa) = 101.26383 49.60230 114.93916
#
# Poissons Ratio (x) = 0.00412 0.39398
# Poissons Ratio (y) = 0.00841 -0.04896
# Poissons Ratio (z) = 0.34710 -0.02113
#
# Static dielectric constant tensor:
#      x y z
#    x 2.240420 -0.037410 -0.001520 
#    y -0.037410 2.206020 0.010820 
#    z -0.001520 0.010820 2.162200 
# 
# From -- ./inp_files/403021.got.cif
#   From: 2010.05.17/outbox.cif.g08.bks.cpg/sg2_202_cif.got.tgz:403021.got - 2010.06.03 11:33:40.
