data_PCOD9097754
_publ_section_title
;
Structure prediction by ZEFSAII (Michael W. Deem and Ramdas Pophale) SiO2 
 PCOD9097754
Probable space group: P -1
;
_chemical_formula_sum "Si O2"
_cell_formula_units_Z 16
_cell_length_a 11.415740
_cell_length_b 19.173848
_cell_length_c 8.266616
_cell_angle_alpha 54.038006
_cell_angle_beta 92.767185
_cell_angle_gamma 137.454391
_cell_volume 704.976344
_symmetry_space_group_name_H-M "P -1"
_symmetry_group_IT_number 2
_symmetry_cell_setting 'triclinic'
loop_
_space_group_symop_operation_xyz
x,y,z
-x,-y,-z
loop_
_atom_site_type_symbol
_atom_site_label
_atom_site_fract_x
_atom_site_fract_y
_atom_site_fract_z
Si Si1 0.747158 0.614578 0.424344
Si Si2 0.038092 0.943348 0.460100
Si Si3 0.720867 0.416201 0.511273
Si Si4 0.369616 0.228754 0.477542
Si Si5 0.844780 0.256750 0.127399
Si Si6 0.126198 0.901474 0.808239
Si Si7 0.798461 0.550762 0.837310
Si Si8 0.402464 0.740064 0.973992
O O1 0.500000 0.500000 0.500000
O O2 0.759020 0.527485 0.463962
O O3 0.777248 0.613266 0.618328
O O4 0.967566 0.804950 0.091087
O O5 0.968223 0.821596 0.744342
O O6 0.862838 0.858766 0.420096
O O7 0.315823 0.107320 0.205804
O O8 0.000000 0.000000 0.500000
O O9 0.469723 0.270030 0.601607
O O10 0.699417 0.325707 0.760081
O O11 0.929139 0.547426 0.210951
O O12 0.317630 0.102285 0.562840
O O13 0.577055 0.411542 0.140170
O O14 0.786482 0.138265 0.169447
O O15 0.631192 0.188662 0.205312
O O16 0.950334 0.295398 0.255411
O O17 0.746591 0.427379 0.908276
#
# Coordination Sequence:
#
# PCOD9097754 Si02
#       8
#     2   2   2   2   2   2   2   2
#     4  10  21  36  60  90 124 153 195 247 301 343
#     4  10  20  36  62  84 119 156 193 239 300 350
#     4   9  22  38  60  91 115 159 198 241 295 353
#     4  10  20  40  63  85 122 154 198 238 298 360
#     4  10  22  39  61  87 121 152 205 242 295 346
#     4  10  21  39  58  85 122 157 184 256 292 337
#     4  10  20  39  61  90 112 161 197 241 291 356
#     4  11  20  38  64  86 115 160 201 242 286 357
#
# _framework density 22.695796999999999
#
# number of rings (size 3 to 8) (size 9 to 14) (size 15 to 20)
#    0.000    2.000    2.500    1.500    5.250    2.000 
#    2.250    4.375    0.000    0.000    0.000    0.000 
#    0.000    0.000    0.000    0.000    0.000    0.000 
#
# Total GULP energy -89287.376500 kJ/mol
# GULP energy per Si atom -5580.461031 kJ/mol
# Density = 2.264414 g / cm^3
# Si number density = 22.695797 Si / 1000 Ang^3
#
#
#
# Elastic Constant Matrix: (Units=GPa)
#
#
# Indices 1 2 3 4 5 6 
#
# 1 98.3080 19.7131 13.8603 -3.2649 4.4845 15.7719
# 2 19.7131 82.1714 27.7924 13.4869 1.6530 25.3520
# 3 13.8603 27.7924 91.9504 16.3211 4.4168 10.6097
# 4 -3.2649 13.4869 16.3211 31.0823 5.3122 9.6636
# 5 4.4845 1.6530 4.4168 5.3122 27.3891 -0.1257
# 6 15.7719 25.3520 10.6097 9.6636 -0.1257 31.1112
#
#
#
# Elastic Compliance Matrix: (Units=1/GPa)
#
#
# Indices 1 2 3 4 5 6 
#
# 1 0.011876 -0.001241 -0.001458 0.004874 -0.002607 -0.006036
# 2 -0.001241 0.017655 -0.003366 -0.002343 0.000080 -0.011881
# 3 -0.001458 -0.003366 0.013060 -0.005704 -0.000554 0.000798
# 4 0.004874 -0.002343 -0.005704 0.041642 -0.007867 -0.011583
# 5 -0.002607 0.000080 -0.000554 -0.007867 0.038567 0.004045
# 6 -0.006036 -0.011881 0.000798 -0.011583 0.004045 0.048227
#
#
# Mechanical properties :
#
#
# Convention : Reuss Voigt Hill
#
# Bulk Modulus (GPa) = 32.83108 43.90681 38.36895
# Shear Modulus (GPa) = 25.86529 31.98745 28.92637
#
# Velocity S-wave (km/s) = 3.37953 3.75827 3.57392
# Velocity P-wave (km/s) = 5.45210 6.18228 5.82864
#
# Compressibility (1/GPa) = 0.03045894
#
# Stress axis : x y z
#
# Youngs Moduli (GPa) = 84.20461 56.64273 76.57203
#
# Poissons Ratio (x) = 0.07029 0.11168
# Poissons Ratio (y) = 0.10449 0.25775
# Poissons Ratio (z) = 0.12281 0.19067
#
# Static dielectric constant tensor:
#      x y z
#    x 1.873790 -0.012980 -0.001760 
#    y -0.012980 1.915940 0.010740 
#    z -0.001760 0.010740 1.903470 
# 
# From -- ./inp_files/281691.got.cif
#   From: 2010.05.17/outbox.cif.g08.bks.cpg/sg2_141_cif.got.tgz:281691.got - 2010.06.03 11:33:40.
