data_PCOD9097304
_publ_section_title
;
Structure prediction by ZEFSAII (Michael W. Deem and Ramdas Pophale) SiO2 
 PCOD9097304
Probable space group: P -1
;
_chemical_formula_sum "Si O2"
_cell_formula_units_Z 14
_cell_length_a 9.640828
_cell_length_b 17.140938
_cell_length_c 8.505047
_cell_angle_alpha 99.985458
_cell_angle_beta 59.207609
_cell_angle_gamma 47.404515
_cell_volume 506.013912
_symmetry_space_group_name_H-M "P -1"
_symmetry_group_IT_number 2
_symmetry_cell_setting 'triclinic'
loop_
_space_group_symop_operation_xyz
x,y,z
-x,-y,-z
loop_
_atom_site_type_symbol
_atom_site_label
_atom_site_fract_x
_atom_site_fract_y
_atom_site_fract_z
Si Si1 0.178446 0.404581 0.034077
Si Si2 0.461989 0.535055 0.347069
Si Si3 0.291428 0.198665 0.601325
Si Si4 0.687835 0.975537 0.613540
Si Si5 0.428502 0.759295 0.675812
Si Si6 0.039783 0.883971 0.650726
Si Si7 0.497657 0.359040 0.105080
O O1 0.218705 0.438090 0.180905
O O2 0.778979 0.539837 0.365410
O O3 0.632498 0.207610 0.656870
O O4 0.000000 0.500000 0.000000
O O5 0.500000 0.500000 0.500000
O O6 0.178744 0.732051 0.545573
O O7 0.334880 0.511335 0.325447
O O8 0.852876 0.385148 0.975601
O O9 0.416628 0.070377 0.370193
O O10 0.401420 0.231709 0.469391
O O11 0.485445 0.106102 0.628545
O O12 0.670242 0.034476 0.806003
O O13 0.134215 0.778179 0.252992
O O14 0.077748 0.898953 0.811832
O O15 0.344305 0.774204 0.907493
#
# Coordination Sequence:
#
# PCOD9097304 Si02
#       7
#     2   2   2   2   2   2   2
#     4   9  19  34  54  87 123 151 191 244 297 348
#     4  11  21  37  62  92 120 156 199 250 298 358
#     4  10  22  39  63  82 119 161 203 247 299 354
#     4   9  22  42  58  82 117 167 202 236 300 366
#     4  11  20  34  59  91 119 153 197 253 295 348
#     4  10  20  36  60  86 120 155 200 243 300 355
#     4  10  21  35  61  88 124 156 198 244 300 355
#
# _framework density 27.667224000000001
#
# number of rings (size 3 to 8) (size 9 to 14) (size 15 to 20)
#    0.000    2.000    2.857    0.429    2.000    2.857 
#    0.000    0.714    0.000    0.000    0.000    0.000 
#    0.000    0.000    0.000    0.000    0.000    0.000 
#
# Total GULP energy -78015.405770 kJ/mol
# GULP energy per Si atom -5572.528984 kJ/mol
# Density = 2.760425 g / cm^3
# Si number density = 27.667224 Si / 1000 Ang^3
#
#
#
# Elastic Constant Matrix: (Units=GPa)
#
#
# Indices 1 2 3 4 5 6 
#
# 1 190.1347 92.5900 1.0930 -32.2090 -2.6453 -26.7509
# 2 92.5900 136.3618 13.6426 -19.9498 -6.4727 -6.2354
# 3 1.0930 13.6426 79.2413 -18.0064 -1.1454 0.0147
# 4 -32.2090 -19.9498 -18.0064 36.7208 -3.5962 -9.7262
# 5 -2.6453 -6.4727 -1.1454 -3.5962 23.5508 -4.1989
# 6 -26.7509 -6.2354 0.0147 -9.7262 -4.1989 66.4675
#
#
#
# Elastic Compliance Matrix: (Units=1/GPa)
#
#
# Indices 1 2 3 4 5 6 
#
# 1 0.010189 -0.005592 0.002853 0.008814 0.001982 0.004990
# 2 -0.005592 0.011433 -0.001764 0.000411 0.002318 -0.000971
# 3 0.002853 -0.001764 0.015175 0.009921 0.002551 0.002592
# 4 0.008814 0.000411 0.009921 0.043869 0.010182 0.010646
# 5 0.001982 0.002318 0.002551 0.010182 0.045964 0.005408
# 6 0.004990 -0.000971 0.002592 0.010646 0.005408 0.018861
#
#
# Mechanical properties :
#
#
# Convention : Reuss Voigt Hill
#
# Bulk Modulus (GPa) = 35.98444 68.93211 52.45828
# Shear Modulus (GPa) = 30.53234 45.24196 37.88715
#
# Velocity S-wave (km/s) = 3.32559 4.04817 3.70454
# Velocity P-wave (km/s) = 5.27071 6.84245 6.10735
#
# Compressibility (1/GPa) = 0.02778979
#
# Stress axis : x y z
#
# Youngs Moduli (GPa) = 98.14585 87.46891 65.89817
#
# Poissons Ratio (x) = 0.48912 -0.18799
# Poissons Ratio (y) = 0.54883 0.11625
# Poissons Ratio (z) = -0.27998 0.15430
#
# Static dielectric constant tensor:
#      x y z
#    x 2.353660 0.148310 0.230570 
#    y 0.148310 2.313240 0.144200 
#    z 0.230570 0.144200 2.348210 
# 
# From -- ./inp_files/209506.got.cif
#   From: 2010.05.17/outbox.cif.g08.bks.cpg/sg2_105_cif.got.tgz:209506.got - 2010.06.03 11:33:40.
