data_PCOD9097315
_publ_section_title
;
Structure prediction by ZEFSAII (Michael W. Deem and Ramdas Pophale) SiO2 
 PCOD9097315
Probable space group: P -1
;
_chemical_formula_sum "Si O2"
_cell_formula_units_Z 16
_cell_length_a 11.701812
_cell_length_b 8.891279
_cell_length_c 12.188814
_cell_angle_alpha 109.451984
_cell_angle_beta 53.114913
_cell_angle_gamma 117.116131
_cell_volume 899.693351
_symmetry_space_group_name_H-M "P -1"
_symmetry_group_IT_number 2
_symmetry_cell_setting 'triclinic'
loop_
_space_group_symop_operation_xyz
x,y,z
-x,-y,-z
loop_
_atom_site_type_symbol
_atom_site_label
_atom_site_fract_x
_atom_site_fract_y
_atom_site_fract_z
Si Si1 0.660772 0.640869 0.406981
Si Si2 0.955253 0.919019 0.831032
Si Si3 0.937586 0.557798 0.721329
Si Si4 0.788943 0.065767 0.130788
Si Si5 0.788200 0.284053 0.569467
Si Si6 0.878820 0.958020 0.461127
Si Si7 0.469810 0.144743 0.625807
Si Si8 0.105480 0.541362 0.841669
O O1 0.500000 0.500000 0.500000
O O2 0.756220 0.768484 0.478743
O O3 0.619399 0.761208 0.372198
O O4 0.776973 0.558213 0.266545
O O5 0.879548 0.716688 0.808987
O O6 0.093067 0.938014 0.841214
O O7 0.025502 0.008245 0.699265
O O8 0.845646 0.002296 0.972851
O O9 0.825050 0.398622 0.684134
O O10 0.082424 0.632716 0.575384
O O11 0.996757 0.510817 0.790355
O O12 0.799093 0.258864 0.162518
O O13 0.627973 0.944638 0.235289
O O14 0.630154 0.270971 0.603601
O O15 0.795030 0.097690 0.544490
O O16 0.000000 0.000000 0.500000
O O17 0.500000 0.000000 0.500000
O O18 0.000000 0.500000 0.000000
#
# Coordination Sequence:
#
# PCOD9097315 Si02
#       8
#     2   2   2   2   2   2   2   2
#     4  12  24  37  59  95 126 154 204 262 310 352
#     4   9  18  36  60  86 108 157 206 240 287 363
#     4   9  19  37  60  86 118 150 203 249 291 353
#     4  10  20  36  62  82 118 155 200 242 293 359
#     4  10  20  36  60  87 115 156 199 246 298 360
#     4  11  21  36  61  86 121 157 200 246 309 366
#     4  12  21  38  62  86 118 157 202 244 304 368
#     4  11  23  37  61  91 124 156 200 255 305 356
#
# _framework density 17.783836999999998
#
# number of rings (size 3 to 8) (size 9 to 14) (size 15 to 20)
#    0.000    1.500    2.500    4.500    3.500    2.000 
#    0.000    0.625    2.750    1.500    0.000    0.000 
#    0.000    0.000    0.000    0.000    0.000    0.000 
#
# Total GULP energy -89335.488635 kJ/mol
# GULP energy per Si atom -5583.468040 kJ/mol
# Density = 1.774336 g / cm^3
# Si number density = 17.783837 Si / 1000 Ang^3
#
#
#
# Elastic Constant Matrix: (Units=GPa)
#
#
# Indices 1 2 3 4 5 6 
#
# 1 85.1898 45.7536 31.5128 15.6419 3.4424 3.1166
# 2 45.7536 101.6559 46.7187 14.8628 -1.3237 11.5464
# 3 31.5128 46.7187 71.8786 20.9071 7.7668 3.4745
# 4 15.6419 14.8628 20.9071 31.0162 -1.4793 2.8317
# 5 3.4424 -1.3237 7.7668 -1.4793 26.0543 1.1209
# 6 3.1166 11.5464 3.4745 2.8317 1.1209 30.7209
#
#
#
# Elastic Compliance Matrix: (Units=1/GPa)
#
#
# Indices 1 2 3 4 5 6 
#
# 1 0.016569 -0.006172 -0.001783 -0.004427 -0.002280 0.001332
# 2 -0.006172 0.017283 -0.009325 0.001816 0.004798 -0.005158
# 3 -0.001783 -0.009325 0.025104 -0.012168 -0.008511 0.002279
# 4 -0.004427 0.001816 -0.012168 0.042407 0.006842 -0.003016
# 5 -0.002280 0.004798 -0.008511 0.006842 0.041971 -0.002772
# 6 0.001332 -0.005158 0.002279 -0.003016 -0.002772 0.034476
#
#
# Mechanical properties :
#
#
# Convention : Reuss Voigt Hill
#
# Bulk Modulus (GPa) = 40.98999 56.29938 48.64469
# Shear Modulus (GPa) = 22.67551 26.54089 24.60820
#
# Velocity S-wave (km/s) = 3.57468 3.86737 3.72390
# Velocity P-wave (km/s) = 6.33536 7.18807 6.77515
#
# Compressibility (1/GPa) = 0.02439620
#
# Stress axis : x y z
#
# Youngs Moduli (GPa) = 60.35372 57.85939 39.83456
#
# Poissons Ratio (x) = 0.35709 0.07103
# Poissons Ratio (y) = 0.37248 0.37146
# Poissons Ratio (z) = 0.10762 0.53955
#
# Static dielectric constant tensor:
#      x y z
#    x 1.593810 -0.000730 0.006800 
#    y -0.000730 1.635970 0.007980 
#    z 0.006800 0.007980 1.592760 
# 
# From -- ./inp_files/256795.got.cif
#   From: 2010.05.17/outbox.cif.g08.bks.cpg/sg2_129_cif.got.tgz:256795.got - 2010.06.03 11:33:40.
