data_PCOD9097282
_publ_section_title
;
Structure prediction by ZEFSAII (Michael W. Deem and Ramdas Pophale) SiO2 
 PCOD9097282
Probable space group: P -1
;
_chemical_formula_sum "Si O2"
_cell_formula_units_Z 16
_cell_length_a 13.708915
_cell_length_b 9.891058
_cell_length_c 19.292432
_cell_angle_alpha 33.017397
_cell_angle_beta 31.310182
_cell_angle_gamma 31.285845
_cell_volume 646.543772
_symmetry_space_group_name_H-M "P -1"
_symmetry_group_IT_number 2
_symmetry_cell_setting 'triclinic'
loop_
_space_group_symop_operation_xyz
x,y,z
-x,-y,-z
loop_
_atom_site_type_symbol
_atom_site_label
_atom_site_fract_x
_atom_site_fract_y
_atom_site_fract_z
Si Si1 0.892966 0.488941 0.141190
Si Si2 0.692918 0.692299 0.345980
Si Si3 0.337749 0.305322 0.436106
Si Si4 0.271135 0.381207 0.036080
Si Si5 0.951824 0.528933 0.655882
Si Si6 0.532439 0.248291 0.788610
Si Si7 0.216848 0.850934 0.566804
Si Si8 0.510949 0.678592 0.819425
O O1 0.639941 0.673710 0.201637
O O2 0.925129 0.175214 0.273972
O O3 0.000000 0.500000 0.000000
O O4 0.023458 0.563948 0.086085
O O5 0.883984 0.606518 0.321884
O O6 0.451946 0.777445 0.482570
O O7 0.752096 0.412382 0.386034
O O8 0.635973 0.990208 0.215761
O O9 0.098985 0.361932 0.572181
O O10 0.361534 0.551207 0.357070
O O11 0.398842 0.324245 0.312163
O O12 0.500000 0.000000 0.500000
O O13 0.403689 0.307479 0.914540
O O14 0.370244 0.524062 0.963409
O O15 0.305996 0.084289 0.172365
O O16 0.729047 0.523160 0.798135
O O17 0.878238 0.859853 0.542713
#
# Coordination Sequence:
#
# PCOD9097282 Si02
#       8
#     2   2   2   2   2   2   2   2
#     4  10  20  36  60  85 113 154 200 249 298 348
#     4  10  21  40  60  89 123 157 200 252 302 363
#     4  11  20  35  55  88 125 151 189 252 312 358
#     4   9  19  37  52  81 114 153 199 239 279 361
#     4  11  21  36  60  88 121 160 195 247 311 366
#     4   9  19  34  54  78 114 154 191 234 297 353
#     4  10  22  38  63  90 119 157 205 248 301 367
#     4  10  22  37  56  87 122 157 199 246 304 359
#
# _framework density 24.746972
#
# number of rings (size 3 to 8) (size 9 to 14) (size 15 to 20)
#    0.000    2.000    1.250    2.250    1.750    2.000 
#    9.000    0.625    0.000    1.500    0.000    0.000 
#    0.000    0.000    0.000    0.000    0.000    0.000 
#
# Total GULP energy -89430.168253 kJ/mol
# GULP energy per Si atom -5589.385516 kJ/mol
# Density = 2.469065 g / cm^3
# Si number density = 24.746972 Si / 1000 Ang^3
#
#
#
# Elastic Constant Matrix: (Units=GPa)
#
#
# Indices 1 2 3 4 5 6 
#
# 1 118.5802 49.0601 40.0392 7.4695 -34.1601 -30.4274
# 2 49.0601 115.5772 32.2417 0.8725 -28.3306 -20.6538
# 3 40.0392 32.2417 92.3175 -2.5716 -33.1277 -7.5683
# 4 7.4695 0.8725 -2.5716 28.3269 0.3045 -10.0933
# 5 -34.1601 -28.3306 -33.1277 0.3045 44.1394 6.3321
# 6 -30.4274 -20.6538 -7.5683 -10.0933 6.3321 47.8799
#
#
#
# Elastic Compliance Matrix: (Units=1/GPa)
#
#
# Indices 1 2 3 4 5 6 
#
# 1 0.013791 -0.002521 -0.002337 -0.001665 0.006437 0.006105
# 2 -0.002521 0.011586 -0.001185 0.001192 0.004171 0.002908
# 3 -0.002337 -0.001185 0.015566 0.001840 0.009152 -0.000358
# 4 -0.001665 0.001192 0.001840 0.038722 -0.000555 0.007983
# 5 0.006437 0.004171 0.009152 -0.000555 0.036850 0.002346
# 6 0.006105 0.002908 -0.000358 0.007983 0.002346 0.027336
#
#
# Mechanical properties :
#
#
# Convention : Reuss Voigt Hill
#
# Bulk Modulus (GPa) = 34.65328 63.23966 48.94647
# Shear Modulus (GPa) = 30.20170 37.74485 33.97327
#
# Velocity S-wave (km/s) = 3.49724 3.90966 3.70919
# Velocity P-wave (km/s) = 5.50827 6.78163 6.17785
#
# Compressibility (1/GPa) = 0.02885730
#
# Stress axis : x y z
#
# Youngs Moduli (GPa) = 72.51264 86.31276 64.24442
#
# Poissons Ratio (x) = 0.21756 0.15014
# Poissons Ratio (y) = 0.18278 0.07611
# Poissons Ratio (z) = 0.16946 0.10226
#
# Static dielectric constant tensor:
#      x y z
#    x 2.036070 0.016690 0.063180 
#    y 0.016690 1.937460 0.039460 
#    z 0.063180 0.039460 2.003010 
# 
# From -- ./inp_files/611921.got.cif
#   From: 2010.05.17/outbox.cif.g08.bks.cpg/sg2_306_cif.got.tgz:611921.got - 2010.06.03 11:33:40.
