data_PCOD9097273
_publ_section_title
;
Structure prediction by ZEFSAII (Michael W. Deem and Ramdas Pophale) SiO2 
 PCOD9097273
Probable space group: P -1
;
_chemical_formula_sum "Si O2"
_cell_formula_units_Z 15
_cell_length_a 5.014867
_cell_length_b 5.205510
_cell_length_c 22.053416
_cell_angle_alpha 92.336357
_cell_angle_beta 107.185259
_cell_angle_gamma 84.387248
_cell_volume 547.320966
_symmetry_space_group_name_H-M "P -1"
_symmetry_group_IT_number 2
_symmetry_cell_setting 'triclinic'
loop_
_space_group_symop_operation_xyz
x,y,z
-x,-y,-z
loop_
_atom_site_type_symbol
_atom_site_label
_atom_site_fract_x
_atom_site_fract_y
_atom_site_fract_z
Si Si1 0.495096 0.311314 0.052525
Si Si2 0.231006 0.199407 0.778497
Si Si3 0.173454 0.616004 0.596520
Si Si4 0.000838 0.986490 0.117522
Si Si5 0.616882 0.905200 0.442897
Si Si6 0.472930 0.326965 0.190314
Si Si7 0.752730 0.399776 0.657616
Si Si8 0.000000 0.000000 0.000000
O O1 0.579131 0.337758 0.127931
O O2 0.756145 0.090681 0.051816
O O3 0.186028 0.232652 0.032377
O O4 0.500000 0.500000 0.000000
O O5 0.971940 0.322861 0.723610
O O6 0.480319 0.382954 0.784737
O O7 0.133588 0.176497 0.841512
O O8 0.331551 0.902699 0.766182
O O9 0.185668 0.893547 0.570312
O O10 0.462695 0.567544 0.654831
O O11 0.231896 0.383823 0.549313
O O12 0.912213 0.550360 0.618118
O O13 0.178619 0.198879 0.163533
O O14 0.172927 0.831587 0.075003
O O15 0.500000 0.000000 0.500000
O O16 0.357553 0.859206 0.380583
#
# Coordination Sequence:
#
# PCOD9097273 Si02
#       8
#     2   2   2   2   2   2   2   1
#     4  10  21  37  59  88 123 159 207 263 334 404
#     4  11  25  43  66  91 132 172 228 275 342 403
#     4  10  25  42  69 105 141 187 236 289 348 414
#     4  10  23  40  61  95 126 169 215 278 337 415
#     4  10  24  45  73 108 148 189 236 292 352 416
#     4  10  25  41  63  93 122 168 217 273 336 406
#     4  10  27  43  72 101 145 188 242 292 352 415
#     4  10  20  36  60  84 122 158 210 264 334 398
#
# _framework density 27.406217999999999
#
# number of rings (size 3 to 8) (size 9 to 14) (size 15 to 20)
#    0.800    1.067    0.000    1.600    5.600   11.733 
#    0.000    0.000    0.000    0.000    0.000    0.000 
#    0.000    0.000    0.000    0.000    0.000    0.000 
#
# Total GULP energy -83764.411174 kJ/mol
# GULP energy per Si atom -5584.294078 kJ/mol
# Density = 2.734384 g / cm^3
# Si number density = 27.406218 Si / 1000 Ang^3
#
#
#
# Elastic Constant Matrix: (Units=GPa)
#
#
# Indices 1 2 3 4 5 6 
#
# 1 98.6074 42.1659 21.7474 11.2910 -0.8530 26.8642
# 2 42.1659 178.4752 39.5676 1.1685 5.4995 32.3618
# 3 21.7474 39.5676 92.6726 -7.1335 10.6633 3.7241
# 4 11.2910 1.1685 -7.1335 33.1086 3.7906 12.2161
# 5 -0.8530 5.4995 10.6633 3.7906 48.1249 -1.7873
# 6 26.8642 32.3618 3.7241 12.2161 -1.7873 49.9086
#
#
#
# Elastic Compliance Matrix: (Units=1/GPa)
#
#
# Indices 1 2 3 4 5 6 
#
# 1 0.013149 -0.001648 -0.002555 -0.003259 0.001059 -0.004983
# 2 -0.001648 0.007252 -0.002380 0.001330 -0.000583 -0.003984
# 3 -0.002555 -0.002380 0.012992 0.003746 -0.002913 0.000928
# 4 -0.003259 0.001330 0.003746 0.035594 -0.004150 -0.008248
# 5 0.001059 -0.000583 -0.002913 -0.004150 0.021905 0.001826
# 6 -0.004983 -0.003984 0.000928 -0.008248 0.001826 0.027317
#
#
# Mechanical properties :
#
#
# Convention : Reuss Voigt Hill
#
# Bulk Modulus (GPa) = 49.43533 64.07966 56.75749
# Shear Modulus (GPa) = 36.20131 43.98005 40.09068
#
# Velocity S-wave (km/s) = 3.63838 4.01028 3.82885
# Velocity P-wave (km/s) = 5.97726 6.69890 6.34834
#
# Compressibility (1/GPa) = 0.02022845
#
# Stress axis : x y z
#
# Youngs Moduli (GPa) = 76.05010 137.90031 76.96772
#
# Poissons Ratio (x) = 0.22726 0.19662
# Poissons Ratio (y) = 0.12533 0.18317
# Poissons Ratio (z) = 0.19428 0.32818
#
# Static dielectric constant tensor:
#      x y z
#    x 2.479100 -0.129030 -0.036910 
#    y -0.129030 2.304670 -0.149270 
#    z -0.036910 -0.149270 2.335440 
# 
# From -- ./inp_files/614706.got.cif
#   From: 2010.05.17/outbox.cif.g08.bks.cpg/sg2_308_cif.got.tgz:614706.got - 2010.06.03 11:33:40.
