data_PCOD9097994
_publ_section_title
;
Structure prediction by ZEFSAII (Michael W. Deem and Ramdas Pophale) SiO2 
 PCOD9097994
Probable space group: P -1
;
_chemical_formula_sum "Si O2"
_cell_formula_units_Z 16
_cell_length_a 11.547475
_cell_length_b 8.361216
_cell_length_c 13.216403
_cell_angle_alpha 80.889594
_cell_angle_beta 108.318712
_cell_angle_gamma 143.481571
_cell_volume 710.770258
_symmetry_space_group_name_H-M "P -1"
_symmetry_group_IT_number 2
_symmetry_cell_setting 'triclinic'
loop_
_space_group_symop_operation_xyz
x,y,z
-x,-y,-z
loop_
_atom_site_type_symbol
_atom_site_label
_atom_site_fract_x
_atom_site_fract_y
_atom_site_fract_z
Si Si1 0.704888 0.321927 0.724857
Si Si2 0.670950 0.913668 0.429370
Si Si3 0.047032 0.881218 0.249877
Si Si4 0.494607 0.023031 0.114831
Si Si5 0.900955 0.360218 0.300969
Si Si6 0.628517 0.535089 0.111628
Si Si7 0.557070 0.832133 0.638951
Si Si8 0.211575 0.247356 0.657673
O O1 0.552209 0.305848 0.663815
O O2 0.928958 0.570565 0.712941
O O3 0.695120 0.253555 0.845750
O O4 0.594539 0.054455 0.662111
O O5 0.621639 0.874813 0.536872
O O6 0.770975 0.860272 0.415582
O O7 0.828429 0.219678 0.403515
O O8 0.985157 0.632121 0.289917
O O9 0.872134 0.753678 0.135743
O O10 0.005421 0.945165 0.331403
O O11 0.282083 0.112339 0.262348
O O12 0.692332 0.142565 0.201712
O O13 0.525228 0.247069 0.122972
O O14 0.500000 0.000000 0.000000
O O15 0.656105 0.655864 0.214572
O O16 0.500000 0.500000 0.000000
O O17 0.325299 0.531046 0.623104
#
# Coordination Sequence:
#
# PCOD9097994 Si02
#       8
#     2   2   2   2   2   2   2   2
#     4  10  21  39  58  84 118 149 191 240 279 339
#     4  11  23  33  58  91 114 155 190 234 282 332
#     4   8  20  37  59  78 113 150 188 233 287 330
#     4  10  20  36  63  84 111 150 188 239 293 328
#     4   9  20  39  56  83 120 146 194 237 275 342
#     4   9  19  38  59  80 110 150 182 232 292 334
#     4  11  20  39  60  80 117 157 194 228 284 341
#     4  10  21  38  55  82 121 147 190 235 285 338
#
# _framework density 22.51079
#
# number of rings (size 3 to 8) (size 9 to 14) (size 15 to 20)
#    0.750    1.500    1.250    1.500    3.500    5.000 
#    0.000    0.625    0.000    0.000    0.000    0.000 
#    0.000    0.000    0.000    0.000    0.000    0.000 
#
# Total GULP energy -89204.320349 kJ/mol
# GULP energy per Si atom -5575.270022 kJ/mol
# Density = 2.245955 g / cm^3
# Si number density = 22.510790 Si / 1000 Ang^3
#
#
#
# Elastic Constant Matrix: (Units=GPa)
#
#
# Indices 1 2 3 4 5 6 
#
# 1 85.3589 7.4951 -2.0810 4.8135 -4.8344 17.7505
# 2 7.4951 32.6437 -4.0832 -5.2532 8.2955 12.8398
# 3 -2.0810 -4.0832 77.6078 1.2299 -12.3300 2.0200
# 4 4.8135 -5.2532 1.2299 12.8855 1.9205 -10.6254
# 5 -4.8344 8.2955 -12.3300 1.9205 39.9931 5.6333
# 6 17.7505 12.8398 2.0200 -10.6254 5.6333 33.1191
#
#
#
# Elastic Compliance Matrix: (Units=1/GPa)
#
#
# Indices 1 2 3 4 5 6 
#
# 1 0.017064 -0.002374 0.002172 -0.022245 0.006634 -0.016623
# 2 -0.002374 0.038335 0.000907 0.009842 -0.007125 -0.009276
# 3 0.002172 0.000907 0.014142 -0.007299 0.005583 -0.005669
# 4 -0.022245 0.009842 -0.007299 0.141425 -0.021892 0.057649
# 5 0.006634 -0.007125 0.005583 -0.021892 0.031972 -0.013596
# 6 -0.016623 -0.009276 -0.005669 0.057649 -0.013596 0.063853
#
#
# Mechanical properties :
#
#
# Convention : Reuss Voigt Hill
#
# Bulk Modulus (GPa) = 14.09442 22.03024 18.06233
# Shear Modulus (GPa) = 15.19618 30.15152 22.67385
#
# Velocity S-wave (km/s) = 2.60101 3.66379 3.17715
# Velocity P-wave (km/s) = 3.91090 5.26361 4.63685
#
# Compressibility (1/GPa) = 0.07095007
#
# Stress axis : x y z
#
# Youngs Moduli (GPa) = 58.60448 26.08584 70.71363
#
# Poissons Ratio (x) = 0.06192 -0.15358
# Poissons Ratio (y) = 0.13910 -0.06412
# Poissons Ratio (z) = -0.12728 -0.02365
#
# Static dielectric constant tensor:
#      x y z
#    x 1.846460 0.000710 0.027490 
#    y 0.000710 1.869520 -0.003250 
#    z 0.027490 -0.003250 1.852250 
# 
# From -- ./inp_files/514303.got.cif
#   From: 2010.05.17/outbox.cif.g08.bks.cpg/sg2_258_cif.got.tgz:514303.got - 2010.06.03 11:33:40.
