data_PCOD9097700
_publ_section_title
;
Structure prediction by ZEFSAII (Michael W. Deem and Ramdas Pophale) SiO2 
 PCOD9097700
Probable space group: P -1
;
_chemical_formula_sum "Si O2"
_cell_formula_units_Z 14
_cell_length_a 6.852388
_cell_length_b 15.246377
_cell_length_c 9.349980
_cell_angle_alpha 141.240462
_cell_angle_beta 68.781831
_cell_angle_gamma 102.814685
_cell_volume 567.027328
_symmetry_space_group_name_H-M "P -1"
_symmetry_group_IT_number 2
_symmetry_cell_setting 'triclinic'
loop_
_space_group_symop_operation_xyz
x,y,z
-x,-y,-z
loop_
_atom_site_type_symbol
_atom_site_label
_atom_site_fract_x
_atom_site_fract_y
_atom_site_fract_z
Si Si1 0.541808 0.616418 0.333708
Si Si2 0.241998 0.257937 0.792917
Si Si3 0.835948 0.334722 0.838953
Si Si4 0.105099 0.317704 0.467079
Si Si5 0.726376 0.430461 0.411898
Si Si6 0.058765 0.185241 0.020244
Si Si7 0.741688 0.027790 0.495989
O O1 0.553653 0.700211 0.288718
O O2 0.905847 0.797948 0.800570
O O3 0.327469 0.589693 0.432946
O O4 0.667564 0.464846 0.080484
O O5 0.045035 0.353614 0.901155
O O6 0.197932 0.096398 0.562661
O O7 0.226777 0.260267 0.971219
O O8 0.756995 0.188765 0.724774
O O9 0.922838 0.323751 0.640807
O O10 0.123152 0.458953 0.547557
O O11 0.318898 0.302553 0.487330
O O12 0.500000 0.500000 0.500000
O O13 0.837832 0.273841 0.147194
O O14 0.110692 0.027509 0.747629
O O15 0.500000 0.000000 0.500000
#
# Coordination Sequence:
#
# PCOD9097700 Si02
#       7
#     2   2   2   2   2   2   2
#     4  10  21  37  68  97 121 161 216 259 308 373
#     4   9  20  41  63  92 121 166 215 249 308 376
#     4  11  21  41  66  92 126 172 209 251 314 383
#     4  10  21  38  61  96 128 158 203 265 316 360
#     4  10  20  36  61  95 126 156 203 263 308 363
#     4  10  22  40  62  88 132 161 207 254 324 358
#     4  10  25  42  64  91 128 169 212 259 307 375
#
# _framework density 24.690166999999999
#
# number of rings (size 3 to 8) (size 9 to 14) (size 15 to 20)
#    0.857    1.143    0.000    5.143    2.000    1.714 
#    0.000    2.143    0.000    4.286    0.000    0.000 
#    0.000    0.000    0.000    0.000    0.000    0.000 
#
# Total GULP energy -78117.644764 kJ/mol
# GULP energy per Si atom -5579.831769 kJ/mol
# Density = 2.463397 g / cm^3
# Si number density = 24.690167 Si / 1000 Ang^3
#
#
#
# Elastic Constant Matrix: (Units=GPa)
#
#
# Indices 1 2 3 4 5 6 
#
# 1 80.9646 11.1346 15.1766 -11.2023 -1.4422 -2.7905
# 2 11.1346 150.2450 28.4745 -27.8118 -1.4945 13.1002
# 3 15.1766 28.4745 120.2104 -7.1471 -1.4424 11.6667
# 4 -11.2023 -27.8118 -7.1471 47.9450 0.3601 4.6239
# 5 -1.4422 -1.4945 -1.4424 0.3601 33.1225 -5.0519
# 6 -2.7905 13.1002 11.6667 4.6239 -5.0519 44.7254
#
#
#
# Elastic Compliance Matrix: (Units=1/GPa)
#
#
# Indices 1 2 3 4 5 6 
#
# 1 0.013080 -0.000299 -0.001530 0.002543 0.000631 0.001111
# 2 -0.000299 0.008004 -0.001342 0.004616 -0.000143 -0.002506
# 3 -0.001530 -0.001342 0.009059 0.000419 -0.000060 -0.002116
# 4 0.002543 0.004616 0.000419 0.024571 -0.000525 -0.003902
# 5 0.000631 -0.000143 -0.000060 -0.000525 0.030768 0.003627
# 6 0.001111 -0.002506 -0.002116 -0.003902 0.003627 0.024527
#
#
# Mechanical properties :
#
#
# Convention : Reuss Voigt Hill
#
# Bulk Modulus (GPa) = 42.01483 51.22127 46.61805
# Shear Modulus (GPa) = 40.22977 44.93420 42.58198
#
# Velocity S-wave (km/s) = 4.04094 4.27068 4.15740
# Velocity P-wave (km/s) = 6.23106 6.71632 6.47823
#
# Compressibility (1/GPa) = 0.02380112
#
# Stress axis : x y z
#
# Youngs Moduli (GPa) = 76.45080 124.94005 110.38404
#
# Poissons Ratio (x) = 0.03741 0.16884
# Poissons Ratio (y) = 0.02289 0.14815
# Poissons Ratio (z) = 0.11694 0.16769
#
# Static dielectric constant tensor:
#      x y z
#    x 2.115550 -0.019830 -0.014590 
#    y -0.019830 1.984270 0.005710 
#    z -0.014590 0.005710 1.974300 
# 
# From -- ./inp_files/506381.got.cif
#   From: 2010.05.17/outbox.cif.g08.bks.cpg/sg2_254_cif.got.tgz:506381.got - 2010.06.03 11:33:40.
