data_PCOD9097581
_publ_section_title
;
Structure prediction by ZEFSAII (Michael W. Deem and Ramdas Pophale) SiO2 
 PCOD9097581
Probable space group: P -1
;
_chemical_formula_sum "Si O2"
_cell_formula_units_Z 16
_cell_length_a 17.746168
_cell_length_b 9.555721
_cell_length_c 17.435995
_cell_angle_alpha 110.242182
_cell_angle_beta 157.446785
_cell_angle_gamma 85.576659
_cell_volume 786.377659
_symmetry_space_group_name_H-M "P -1"
_symmetry_group_IT_number 2
_symmetry_cell_setting 'triclinic'
loop_
_space_group_symop_operation_xyz
x,y,z
-x,-y,-z
loop_
_atom_site_type_symbol
_atom_site_label
_atom_site_fract_x
_atom_site_fract_y
_atom_site_fract_z
Si Si1 0.486989 0.087102 0.816821
Si Si2 0.342074 0.759150 0.386714
Si Si3 0.955540 0.573334 0.847187
Si Si4 0.919702 0.579300 0.501303
Si Si5 0.515680 0.143645 0.109279
Si Si6 0.246310 0.204258 0.312870
Si Si7 0.522084 0.156710 0.686383
Si Si8 0.924489 0.897496 0.494014
O O1 0.448767 0.090207 0.691742
O O2 0.316561 0.128333 0.705832
O O3 0.383273 0.887077 0.725310
O O4 0.806290 0.253863 0.162880
O O5 0.503746 0.707749 0.489741
O O6 0.242423 0.656894 0.356516
O O7 0.514978 0.994457 0.605145
O O8 0.108037 0.679843 0.092317
O O9 0.811697 0.651801 0.703994
O O10 0.176890 0.636251 0.006425
O O11 0.690437 0.374744 0.292964
O O12 0.842623 0.686449 0.400112
O O13 0.000000 0.500000 0.500000
O O14 0.500000 0.000000 0.000000
O O15 0.222632 0.053013 0.837559
O O16 0.318564 0.161284 0.452570
O O17 0.000000 0.000000 0.000000
O O18 0.000000 0.000000 0.500000
#
# Coordination Sequence:
#
# PCOD9097581 Si02
#       8
#     2   2   2   2   2   2   2   2
#     4  11  25  40  60  91 127 161 203 262 316 370
#     4  10  20  36  61  89 114 164 202 245 298 356
#     4  10  20  37  61  88 119 156 209 246 292 363
#     4  11  21  40  66  89 118 159 205 256 310 371
#     4  11  21  42  63  90 118 156 208 256 307 372
#     4  11  18  36  64  90 117 158 207 247 293 362
#     4  11  23  39  57  85 128 161 195 252 314 353
#     4  11  21  39  64  96 122 156 208 255 314 376
#
# _framework density 20.346457999999998
#
# number of rings (size 3 to 8) (size 9 to 14) (size 15 to 20)
#    0.000    1.250    6.250    1.125    0.000    6.000 
#    0.000    0.000    0.000    0.000    0.000    0.000 
#    0.000    0.000    0.000    0.000    0.000    0.000 
#
# Total GULP energy -89133.717143 kJ/mol
# GULP energy per Si atom -5570.857321 kJ/mol
# Density = 2.030015 g / cm^3
# Si number density = 20.346458 Si / 1000 Ang^3
#
#
#
# Elastic Constant Matrix: (Units=GPa)
#
#
# Indices 1 2 3 4 5 6 
#
# 1 91.6746 45.0436 17.7322 -12.5980 -5.3786 39.8540
# 2 45.0436 152.7787 46.9699 -18.9842 6.1152 44.8279
# 3 17.7322 46.9699 62.6643 -15.7409 7.6991 13.4830
# 4 -12.5980 -18.9842 -15.7409 43.0760 8.3929 4.1310
# 5 -5.3786 6.1152 7.6991 8.3929 19.8662 -1.3477
# 6 39.8540 44.8279 13.4830 4.1310 -1.3477 35.4186
#
#
#
# Elastic Compliance Matrix: (Units=1/GPa)
#
#
# Indices 1 2 3 4 5 6 
#
# 1 0.027228 0.005345 0.001179 0.015326 -0.003904 -0.039787
# 2 0.005345 0.015313 -0.003712 0.011008 -0.008214 -0.025578
# 3 0.001179 -0.003712 0.024426 0.010935 -0.013147 -0.007703
# 4 0.015326 0.011008 0.010935 0.045509 -0.025527 -0.041620
# 5 -0.003904 -0.008214 -0.013147 -0.025527 0.069411 0.025412
# 6 -0.039787 -0.025578 -0.007703 -0.041620 0.025412 0.114130
#
#
# Mechanical properties :
#
#
# Convention : Reuss Voigt Hill
#
# Bulk Modulus (GPa) = 13.77594 58.51211 36.14403
# Shear Modulus (GPa) = 15.89374 32.83028 24.36201
#
# Velocity S-wave (km/s) = 2.79795 4.02128 3.46404
# Velocity P-wave (km/s) = 4.15011 7.09797 5.81397
#
# Compressibility (1/GPa) = 0.07259032
#
# Stress axis : x y z
#
# Youngs Moduli (GPa) = 36.72734 65.30596 40.93985
#
# Poissons Ratio (x) = -0.34905 -0.04828
# Poissons Ratio (y) = -0.19630 0.15197
# Poissons Ratio (z) = -0.04331 0.24242
#
# Static dielectric constant tensor:
#      x y z
#    x 1.788970 0.072520 0.041580 
#    y 0.072520 1.804550 0.037770 
#    z 0.041580 0.037770 1.817040 
# 
# From -- ./inp_files/575437.got.cif
#   From: 2010.05.17/outbox.cif.g08.bks.cpg/sg2_288_cif.got.tgz:575437.got - 2010.06.03 11:33:40.
