data_PCOD9097090
_publ_section_title
;
Structure prediction by ZEFSAII (Michael W. Deem and Ramdas Pophale) SiO2 
 PCOD9097090
Probable space group: P -1
;
_chemical_formula_sum "Si O2"
_cell_formula_units_Z 16
_cell_length_a 25.665942
_cell_length_b 5.210128
_cell_length_c 6.686079
_cell_angle_alpha 103.030034
_cell_angle_beta 51.359908
_cell_angle_gamma 105.183348
_cell_volume 671.697344
_symmetry_space_group_name_H-M "P -1"
_symmetry_group_IT_number 2
_symmetry_cell_setting 'triclinic'
loop_
_space_group_symop_operation_xyz
x,y,z
-x,-y,-z
loop_
_atom_site_type_symbol
_atom_site_label
_atom_site_fract_x
_atom_site_fract_y
_atom_site_fract_z
Si Si1 0.432587 0.987760 0.786352
Si Si2 0.843297 0.849677 0.133886
Si Si3 0.564994 0.444703 0.956890
Si Si4 0.851995 0.281679 0.528737
Si Si5 0.709021 0.214016 0.872730
Si Si6 0.926900 0.089402 0.668305
Si Si7 0.932105 0.545757 0.069640
Si Si8 0.292657 0.370903 0.404793
O O1 0.424152 0.297260 0.879031
O O2 0.500000 0.000000 0.500000
O O3 0.441993 0.827699 0.944767
O O4 0.361595 0.824980 0.846929
O O5 0.916044 0.796593 0.033135
O O6 0.775485 0.641281 0.303380
O O7 0.834300 0.093685 0.342973
O O8 0.861552 0.883019 0.864084
O O9 0.500000 0.500000 0.000000
O O10 0.634087 0.486211 0.668195
O O11 0.781866 0.256466 0.810530
O O12 0.910158 0.195689 0.510870
O O13 0.881942 0.544505 0.380950
O O14 0.714648 0.461118 0.749592
O O15 0.701534 0.935358 0.716987
O O16 0.922467 0.325897 0.878743
O O17 0.000000 0.000000 0.500000
O O18 0.000000 0.500000 0.000000
#
# Coordination Sequence:
#
# PCOD9097090 Si02
#       8
#     2   2   2   2   2   2   2   2
#     4  10  20  36  59  86 123 156 198 244 294 356
#     4  10  21  39  59  81 113 154 195 242 302 352
#     4  10  20  36  59  88 119 160 197 243 297 350
#     4  10  21  39  59  81 115 152 197 244 299 355
#     4   9  18  36  61  85 112 163 198 237 299 357
#     4  11  24  39  56  87 118 146 197 250 298 359
#     4  11  22  37  61  83 110 154 192 239 301 360
#     4   9  18  36  62  83 116 158 202 238 293 363
#
# _framework density 23.820250000000001
#
# number of rings (size 3 to 8) (size 9 to 14) (size 15 to 20)
#    0.000    2.000    1.250    2.250    0.000    5.000 
#    2.250    1.250    0.000    0.000    0.000    0.000 
#    0.000    0.000    0.000    0.000    0.000    0.000 
#
# Total GULP energy -89072.662692 kJ/mol
# GULP energy per Si atom -5567.041418 kJ/mol
# Density = 2.376603 g / cm^3
# Si number density = 23.820250 Si / 1000 Ang^3
#
#
#
# Elastic Constant Matrix: (Units=GPa)
#
#
# Indices 1 2 3 4 5 6 
#
# 1 85.3346 -5.1425 20.1355 -2.1315 -20.8673 -15.9087
# 2 -5.1425 65.3076 20.1123 -8.3434 8.2847 -14.0481
# 3 20.1355 20.1123 114.0495 -9.2588 -17.5911 12.2860
# 4 -2.1315 -8.3434 -9.2588 30.2434 -0.3299 1.3777
# 5 -20.8673 8.2847 -17.5911 -0.3299 36.1978 0.2032
# 6 -15.9087 -14.0481 12.2860 1.3777 0.2032 27.8764
#
#
#
# Elastic Compliance Matrix: (Units=1/GPa)
#
#
# Indices 1 2 3 4 5 6 
#
# 1 0.017381 0.005062 -0.004427 0.000685 0.006636 0.014339
# 2 0.005062 0.023053 -0.007514 0.003544 -0.006076 0.017687
# 3 -0.004427 -0.007514 0.013268 0.002300 0.005706 -0.012316
# 4 0.000685 0.003544 0.002300 0.034832 0.001023 -0.000566
# 5 0.006636 -0.006076 0.005706 0.001023 0.035636 -0.002100
# 6 0.014339 0.017687 -0.012316 -0.000566 -0.002100 0.058440
#
#
# Mechanical properties :
#
#
# Convention : Reuss Voigt Hill
#
# Bulk Modulus (GPa) = 25.03429 37.21136 31.12283
# Shear Modulus (GPa) = 23.84549 34.16930 29.00740
#
# Velocity S-wave (km/s) = 3.16739 3.79154 3.49343
# Velocity P-wave (km/s) = 4.88968 5.90113 5.41905
#
# Compressibility (1/GPa) = 0.03994521
#
# Stress axis : x y z
#
# Youngs Moduli (GPa) = 57.53352 43.37837 75.36761
#
# Poissons Ratio (x) = -0.21959 0.33364
# Poissons Ratio (y) = -0.29124 0.56630
# Poissons Ratio (z) = 0.25469 0.32594
#
# Static dielectric constant tensor:
#      x y z
#    x 1.972020 0.055720 -0.130630 
#    y 0.055720 2.003860 -0.025410 
#    z -0.130630 -0.025410 1.970490 
# 
# From -- ./inp_files/10747.got.cif
#   From: 2010.05.17/outbox.cif.g08.bks.cpg/sg2_6_cif.got.tgz:10747.got - 2010.06.03 11:33:40.
