data_PCOD9097448
_publ_section_title
;
Structure prediction by ZEFSAII (Michael W. Deem and Ramdas Pophale) SiO2 
 PCOD9097448
Probable space group: P -1
;
_chemical_formula_sum "Si O2"
_cell_formula_units_Z 12
_cell_length_a 10.655691
_cell_length_b 7.249011
_cell_length_c 19.061255
_cell_angle_alpha 143.240628
_cell_angle_beta 33.014746
_cell_angle_gamma 137.304766
_cell_volume 470.994616
_symmetry_space_group_name_H-M "P -1"
_symmetry_group_IT_number 2
_symmetry_cell_setting 'triclinic'
loop_
_space_group_symop_operation_xyz
x,y,z
-x,-y,-z
loop_
_atom_site_type_symbol
_atom_site_label
_atom_site_fract_x
_atom_site_fract_y
_atom_site_fract_z
Si Si1 0.775750 0.792475 0.580326
Si Si2 0.131927 0.272460 0.071934
Si Si3 0.424733 0.272461 0.071933
Si Si4 0.738784 0.064313 0.362248
Si Si5 0.562512 0.118859 0.674409
Si Si6 0.966881 0.881141 0.325590
O O1 0.790894 0.438432 0.452215
O O2 0.554878 0.898087 0.679309
O O3 0.000000 0.000000 0.500000
O O4 0.805283 0.898087 0.679310
O O5 0.241600 0.174693 0.063831
O O6 0.967377 0.527000 0.239556
O O7 0.347314 0.500000 0.000000
O O8 0.000000 0.000000 0.000000
O O9 0.340955 0.527001 0.239557
O O10 0.500000 0.000000 0.000000
O O11 0.500000 0.000000 0.500000
O O12 0.673136 0.921789 0.273008
O O13 0.929628 0.921789 0.273006
O O14 0.750077 0.000001 0.499999
#
# Coordination Sequence:
#
# PCOD9097448 Si02
#       6
#     2   2   2   2   2   2
#     4  10  20  36  60  92 130 164 213 272 333 392
#     4  11  27  49  72 103 145 189 233 291 356 423
#     4  11  27  49  72 103 145 189 233 291 356 423
#     4  10  22  36  62  98 132 168 215 280 341 398
#     4  10  22  44  68 101 134 176 230 286 342 409
#     4  10  22  44  68 101 134 176 230 286 342 409
#
# _framework density 25.478000000000002
#
# number of rings (size 3 to 8) (size 9 to 14) (size 15 to 20)
#    0.000    1.667    1.667    1.000    2.333   11.333 
#    0.000    0.000    0.000    0.000    0.000    0.000 
#    0.000    0.000    0.000    0.000    0.000    0.000 
#
# Total GULP energy -67170.234121 kJ/mol
# GULP energy per Si atom -5597.519510 kJ/mol
# Density = 2.542001 g / cm^3
# Si number density = 25.478000 Si / 1000 Ang^3
#
#
#
# Elastic Constant Matrix: (Units=GPa)
#
#
# Indices 1 2 3 4 5 6 
#
# 1 339.2171 58.6994 60.9057 39.2620 4.3936 11.3876
# 2 58.6994 109.4940 34.0557 18.4712 2.2393 1.6144
# 3 60.9057 34.0557 127.7587 27.3490 -1.5364 2.2652
# 4 39.2620 18.4712 27.3490 41.1109 1.1910 2.8395
# 5 4.3936 2.2393 -1.5364 1.1910 38.9360 16.3129
# 6 11.3876 1.6144 2.2652 2.8395 16.3129 42.5775
#
#
#
# Elastic Compliance Matrix: (Units=1/GPa)
#
#
# Indices 1 2 3 4 5 6 
#
# 1 0.003611 -0.001271 -0.000891 -0.002235 0.000001 -0.000722
# 2 -0.001271 0.010785 -0.001755 -0.002476 -0.000655 0.000440
# 3 -0.000891 -0.001755 0.009777 -0.004874 0.000822 -0.000205
# 4 -0.002235 -0.002476 -0.004874 0.030891 -0.000331 -0.000982
# 5 0.000001 -0.000655 0.000822 -0.000331 0.030688 -0.011755
# 6 -0.000722 0.000440 -0.000205 -0.000982 -0.011755 0.028243
#
#
# Mechanical properties :
#
#
# Convention : Reuss Voigt Hill
#
# Bulk Modulus (GPa) = 61.20540 98.19905 79.70222
# Shear Modulus (GPa) = 39.28533 52.71215 45.99874
#
# Velocity S-wave (km/s) = 3.93100 4.55348 4.25364
# Velocity P-wave (km/s) = 6.68421 8.14076 7.44818
#
# Compressibility (1/GPa) = 0.01633843
#
# Stress axis : x y z
#
# Youngs Moduli (GPa) = 276.94857 92.72530 102.28287
#
# Poissons Ratio (x) = 0.11784 0.09118
# Poissons Ratio (y) = 0.35197 0.17946
# Poissons Ratio (z) = 0.24688 0.16269
#
# Static dielectric constant tensor:
#      x y z
#    x 2.179690 0.016390 0.015140 
#    y 0.016390 2.049650 -0.134030 
#    z 0.015140 -0.134030 2.077040 
# 
# From -- ./inp_files/609438.got.cif
#   From: 2010.05.17/outbox.cif.g08.bks.cpg/sg2_305_cif.got.tgz:609438.got - 2010.06.03 11:33:40.
